data_PCOD8095509
_publ_section_title
;
Structure prediction by ZEFSAII (Michael W. Deem and Ramdas Pophale) SiO2 
 PCOD8095509
Probable space group: C 2/M
;
_chemical_formula_sum "Si O2"
_cell_formula_units_Z 64
_cell_length_a 20.323300
_cell_length_b 16.631301
_cell_length_c 20.686646
_cell_angle_alpha 90.000000
_cell_angle_beta 149.378977
_cell_angle_gamma 90.000000
_cell_volume 3561.500326
_symmetry_space_group_name_H-M "C 2/M"
_symmetry_group_IT_number 12
_symmetry_cell_setting 'monoclinic'
loop_
_space_group_symop_operation_xyz
x,y,z
-x,y,-z
-x,-y,-z
x,-y,z
1/2+x,1/2+y,z
1/2-x,1/2+y,-z
1/2-x,1/2-y,-z
1/2+x,1/2-y,z
loop_
_atom_site_type_symbol
_atom_site_label
_atom_site_fract_x
_atom_site_fract_y
_atom_site_fract_z
Si Si1 0.616614 0.207012 0.966552
Si Si2 0.836346 0.697711 0.767625
Si Si3 0.935317 0.406411 0.608219
Si Si4 0.507291 0.338485 0.643642
Si Si5 0.103006 0.702855 0.537861
Si Si6 0.274394 0.906371 0.838760
Si Si7 0.739240 0.908411 0.417619
Si Si8 0.369979 0.205956 0.172262
O O1 0.479126 0.235013 0.878921
O O2 0.609355 0.185059 0.885012
O O3 0.660967 0.126145 0.040873
O O4 0.719396 0.279693 0.063041
O O5 0.735262 0.771536 0.685819
O O6 0.832113 0.643924 0.828063
O O7 0.804540 0.643900 0.679248
O O8 0.950839 0.500000 0.607895
O O9 0.865427 0.364953 0.488334
O O10 0.847480 0.385207 0.594913
O O11 0.077215 0.368238 0.740399
O O12 0.464708 0.280946 0.549578
O O13 0.620175 0.395513 0.712042
O O14 0.387355 0.393502 0.563217
O O15 0.551864 0.287226 0.743670
O O16 0.000000 0.664556 0.500000
O O17 0.308492 0.000000 0.858908
O O18 0.719627 0.000000 0.380792
#
# Coordination Sequence:
#
# PCOD8095509 Si02
#       8
#     8   8   8   8   8   8   8   8
#     4  10  21  35  53  76 102 144 188 220 255 301
#     4  11  21  34  54  79 109 150 178 214 258 315
#     4  10  21  36  58  83 106 133 172 228 284 323
#     4   9  19  34  55  78 109 145 181 214 261 318
#     4  10  20  36  57  81 107 135 178 218 265 331
#     4  11  22  35  51  78 115 151 181 215 257 313
#     4  10  20  32  52  83 114 141 172 217 271 325
#     4   9  19  37  56  75 103 137 186 226 264 314
#
# _framework density 17.969954999999999
#
# number of rings (size 3 to 8) (size 9 to 14) (size 15 to 20)
#    0.000    2.000    2.500    1.125    1.750    3.750 
#    0.000    1.875    0.000    0.750    0.000    0.875 
#    0.000    0.000    0.000    0.000    0.000    0.000 
#
# Total GULP energy -396815.425929 kJ/mol
# GULP energy per Si atom -12400.482060 kJ/mol
# Density = 1.792905 g / cm^3
# Si number density = 17.969955 Si / 1000 Ang^3
#
#
#
# Elastic Constant Matrix: (Units=GPa)
#
#
# Indices 1 2 3 4 5 6 
#
# 1 92.1851 47.7842 42.6382 -0.0007 9.8908 -0.0003
# 2 47.7842 59.9224 19.2792 -0.0002 1.2448 -0.0001
# 3 42.6382 19.2792 81.8990 -0.0010 17.7651 -0.0005
# 4 -0.0007 -0.0002 -0.0010 13.3360 -0.0010 -0.7308
# 5 9.8908 1.2448 17.7651 -0.0010 35.5237 -0.0006
# 6 -0.0003 -0.0001 -0.0005 -0.7308 -0.0006 28.1771
#
#
#
# Elastic Compliance Matrix: (Units=1/GPa)
#
#
# Indices 1 2 3 4 5 6 
#
# 1 0.022707 -0.015577 -0.007742 0.000000 -0.001905 0.000000
# 2 -0.015577 0.028831 0.000674 0.000000 0.002990 0.000000
# 3 -0.007742 0.000674 0.017520 0.000000 -0.006630 0.000000
# 4 0.000000 0.000000 0.000000 0.075092 0.000002 0.001948
# 5 -0.001905 0.002990 -0.006630 0.000002 0.031891 0.000001
# 6 0.000000 0.000000 0.000000 0.001948 0.000001 0.035540
#
#
# Mechanical properties :
#
#
# Convention : Reuss Voigt Hill
#
# Bulk Modulus (GPa) = 42.07119 50.37884 46.22501
# Shear Modulus (GPa) = 18.88259 23.69436 21.28848
#
# Velocity S-wave (km/s) = 3.24510 3.63513 3.44564
# Velocity P-wave (km/s) = 6.12403 6.76127 6.45052
#
# Compressibility (1/GPa) = 0.02376924
#
# Stress axis : x y z
#
# Youngs Moduli (GPa) = 44.03839 34.68477 57.07765
#
# Poissons Ratio (x) = 0.54030 0.44188
# Poissons Ratio (y) = 0.68600 -0.03850
# Poissons Ratio (z) = 0.34094 -0.02339
#
# Static dielectric constant tensor:
#      x y z
#    x 3.403380 0.000000 0.114270 
#    y 0.000000 3.098170 0.000000 
#    z 0.114270 0.000000 3.599500 
# 
# 
# High freq. dielectric constant tensor:
#      x y z
#    x 1.701640 0.000000 0.002670 
#    y 0.000000 1.667230 0.000000 
#    z 0.002670 0.000000 1.705980 
# 
# From -- ./inp_files/322465.got.cif
#   From: 2010.06.25/outbox.cif.g09.slc.cpg/sg12_162_cif.got.tgz:322465.got - 2010.06.28 00:19:55.
