data_PCOD8095833
_publ_section_title
;
Structure prediction by ZEFSAII (Michael W. Deem and Ramdas Pophale) SiO2 
 PCOD8095833
Probable space group: C 2/M
;
_chemical_formula_sum "Si O2"
_cell_formula_units_Z 56
_cell_length_a 31.119653
_cell_length_b 8.856497
_cell_length_c 19.241884
_cell_angle_alpha 90.000000
_cell_angle_beta 142.848290
_cell_angle_gamma 90.000000
_cell_volume 3202.795232
_symmetry_space_group_name_H-M "C 2/M"
_symmetry_group_IT_number 12
_symmetry_cell_setting 'monoclinic'
loop_
_space_group_symop_operation_xyz
x,y,z
-x,y,-z
-x,-y,-z
x,-y,z
1/2+x,1/2+y,z
1/2-x,1/2+y,-z
1/2-x,1/2-y,-z
1/2+x,1/2-y,z
loop_
_atom_site_type_symbol
_atom_site_label
_atom_site_fract_x
_atom_site_fract_y
_atom_site_fract_z
Si Si1 0.092753 0.322334 0.364604
Si Si2 0.441149 0.826517 0.217466
Si Si3 0.066886 0.672521 0.631653
Si Si4 0.192221 0.675508 0.378382
Si Si5 0.295673 0.321969 0.997466
Si Si6 0.291561 0.321918 0.232486
Si Si7 0.711244 0.322102 0.614013
O O1 0.096334 0.500000 0.383149
O O2 0.115678 0.280362 0.313767
O O3 0.144590 0.248404 0.487929
O O4 0.012099 0.266654 0.270507
O O5 0.454732 0.809590 0.316549
O O6 0.423487 0.000000 0.175339
O O7 0.377841 0.720394 0.110647
O O8 0.088854 0.500000 0.642746
O O9 0.131424 0.783257 0.698473
O O10 0.000000 0.724500 0.500000
O O11 0.203108 0.500000 0.400959
O O12 0.250000 0.750000 0.500000
O O13 0.212242 0.720478 0.324572
O O14 0.285452 0.500000 0.988504
O O15 0.268920 0.262368 0.889032
O O16 0.250000 0.250000 0.000000
O O17 0.278937 0.500000 0.210730
O O18 0.285263 0.261098 0.303129
O O19 0.698562 0.500000 0.598246
#
# Coordination Sequence:
#
# PCOD8095833 Si02
#       7
#     8   8   8   8   8   8   8
#     4   9  17  30  52  79 106 137 170 205 249 304
#     4  10  20  34  52  75 103 133 168 210 252 298
#     4  10  20  33  50  73 103 136 165 201 252 303
#     4   8  14  27  47  73 104 136 169 203 245 296
#     4  12  24  39  57  74  95 129 173 217 257 302
#     4  11  22  35  52  74 101 135 173 212 253 298
#     4   9  18  31  49  76 109 139 168 208 252 297
#
# _framework density 17.484728
#
# number of rings (size 3 to 8) (size 9 to 14) (size 15 to 20)
#    0.000    2.143    1.429    2.571    0.000    3.143 
#    0.000    0.000    0.000    0.857    0.000    6.000 
#    0.000    0.000    0.000    0.000    0.000    0.000 
#
# Total GULP energy -347013.947222 kJ/mol
# GULP energy per Si atom -12393.355258 kJ/mol
# Density = 1.744493 g / cm^3
# Si number density = 17.484728 Si / 1000 Ang^3
#
#
#
# Elastic Constant Matrix: (Units=GPa)
#
#
# Indices 1 2 3 4 5 6 
#
# 1 134.8261 28.2182 38.4215 0.0000 17.2615 0.0000
# 2 28.2182 55.1795 27.2078 0.0000 5.1173 0.0000
# 3 38.4215 27.2078 88.3561 0.0000 14.8969 0.0000
# 4 0.0000 0.0000 0.0000 27.3543 0.0000 3.0520
# 5 17.2615 5.1173 14.8969 0.0000 17.5714 0.0000
# 6 0.0000 0.0000 0.0000 3.0520 0.0000 17.8665
#
#
#
# Elastic Compliance Matrix: (Units=1/GPa)
#
#
# Indices 1 2 3 4 5 6 
#
# 1 0.009531 -0.003261 -0.002009 0.000000 -0.006710 0.000000
# 2 -0.003261 0.022491 -0.005768 0.000000 0.001544 0.000000
# 3 -0.002009 -0.005768 0.015578 0.000000 -0.009554 0.000000
# 4 0.000000 0.000000 0.000000 0.037268 0.000000 -0.006366
# 5 -0.006710 0.001544 -0.009554 0.000000 0.071153 0.000000
# 6 0.000000 0.000000 0.000000 -0.006366 0.000000 0.057058
#
#
# Mechanical properties :
#
#
# Convention : Reuss Voigt Hill
#
# Bulk Modulus (GPa) = 39.17812 51.78408 45.48110
# Shear Modulus (GPa) = 20.52009 24.85940 22.68974
#
# Velocity S-wave (km/s) = 3.42950 3.77474 3.60625
# Velocity P-wave (km/s) = 6.17557 6.97705 6.58851
#
# Compressibility (1/GPa) = 0.02552445
#
# Stress axis : x y z
#
# Youngs Moduli (GPa) = 104.91973 44.46157 64.19153
#
# Poissons Ratio (x) = 0.14500 0.12896
# Poissons Ratio (y) = 0.34217 0.37025
# Poissons Ratio (z) = 0.21079 0.25645
#
# Static dielectric constant tensor:
#      x y z
#    x 3.960850 0.000000 -0.060920 
#    y 0.000000 3.195770 0.000000 
#    z -0.060920 0.000000 3.145980 
# 
# 
# High freq. dielectric constant tensor:
#      x y z
#    x 1.691300 0.000000 -0.000200 
#    y 0.000000 1.673950 0.000000 
#    z -0.000200 0.000000 1.649630 
# 
# From -- ./inp_files/295067.got.cif
#   From: 2010.06.25/outbox.cif.g09.slc.cpg/sg12_148_cif.got.tgz:295067.got - 2010.06.28 00:19:55.
