data_PCOD8095779
_publ_section_title
;
Structure prediction by ZEFSAII (Michael W. Deem and Ramdas Pophale) SiO2 
 PCOD8095779
Probable space group: C 2/M
;
_chemical_formula_sum "Si O2"
_cell_formula_units_Z 56
_cell_length_a 22.486394
_cell_length_b 9.173475
_cell_length_c 14.753775
_cell_angle_alpha 90.000000
_cell_angle_beta 79.018727
_cell_angle_gamma 90.000000
_cell_volume 2987.658799
_symmetry_space_group_name_H-M "C 2/M"
_symmetry_group_IT_number 12
_symmetry_cell_setting 'monoclinic'
loop_
_space_group_symop_operation_xyz
x,y,z
-x,y,-z
-x,-y,-z
x,-y,z
1/2+x,1/2+y,z
1/2-x,1/2+y,-z
1/2-x,1/2-y,-z
1/2+x,1/2-y,z
loop_
_atom_site_type_symbol
_atom_site_label
_atom_site_fract_x
_atom_site_fract_y
_atom_site_fract_z
Si Si1 0.893463 0.827860 0.351050
Si Si2 0.601965 0.173187 0.116938
Si Si3 0.856767 0.331542 0.086135
Si Si4 0.785500 0.829200 0.253223
Si Si5 0.149974 0.327426 0.292050
Si Si6 0.570246 0.827755 0.482214
Si Si7 0.033269 0.331803 0.815377
O O1 0.829767 0.784268 0.322437
O O2 0.894512 0.754159 0.448456
O O3 0.948369 0.765129 0.275882
O O4 0.900953 0.000000 0.358558
O O5 0.632600 0.238028 0.198792
O O6 0.532173 0.222642 0.133158
O O7 0.605018 0.000000 0.114472
O O8 0.637196 0.231464 0.017763
O O9 0.838053 0.500000 0.092129
O O10 0.804709 0.244835 0.153484
O O11 0.921552 0.308255 0.114595
O O12 0.717849 0.777095 0.298562
O O13 0.788205 0.000000 0.234373
O O14 0.146220 0.500000 0.287730
O O15 0.102063 0.272833 0.380655
O O16 0.500000 0.781768 0.500000
O O17 0.577544 0.000000 0.494659
O O18 0.031917 0.500000 0.783485
#
# Coordination Sequence:
#
# PCOD8095779 Si02
#       7
#     8   8   8   8   8   8   8
#     4  10  20  33  50  72 100 132 162 197 242 289
#     4   9  16  28  49  75  99 126 163 206 248 285
#     4   9  17  29  49  76 101 126 161 206 247 283
#     4   9  19  35  50  68  98 134 167 196 235 289
#     4   9  18  32  50  71  97 129 164 202 241 287
#     4  10  20  35  56  79  98 121 159 202 244 292
#     4   9  16  29  50  75 101 128 162 203 245 290
#
# _framework density 18.743773000000001
#
# number of rings (size 3 to 8) (size 9 to 14) (size 15 to 20)
#    0.000    2.714    0.000    1.714    0.000    6.000 
#    0.000    1.429    0.000    5.143    0.000    0.000 
#    0.000    0.000    0.000    0.000    0.000    0.000 
#
# Total GULP energy -347185.855263 kJ/mol
# GULP energy per Si atom -12399.494831 kJ/mol
# Density = 1.870111 g / cm^3
# Si number density = 18.743773 Si / 1000 Ang^3
#
#
#
# Elastic Constant Matrix: (Units=GPa)
#
#
# Indices 1 2 3 4 5 6 
#
# 1 110.5332 27.2991 76.3898 0.0000 -15.7030 0.0000
# 2 27.2991 32.3502 34.8923 0.0000 0.7780 0.0000
# 3 76.3898 34.8923 164.0568 0.0000 1.9092 0.0000
# 4 0.0000 0.0000 0.0000 20.2441 0.0000 -2.2160
# 5 -15.7030 0.7780 1.9092 0.0000 29.8048 0.0000
# 6 0.0000 0.0000 0.0000 -2.2160 0.0000 17.1109
#
#
#
# Elastic Compliance Matrix: (Units=1/GPa)
#
#
# Indices 1 2 3 4 5 6 
#
# 1 0.016492 -0.007450 -0.006203 0.000000 0.009281 0.000000
# 2 -0.007450 0.043487 -0.005725 0.000000 -0.004694 0.000000
# 3 -0.006203 -0.005725 0.010245 0.000000 -0.003775 0.000000
# 4 0.000000 0.000000 0.000000 0.050108 0.000000 0.006489
# 5 0.009281 -0.004694 -0.003775 0.000000 0.038806 0.000000
# 6 0.000000 0.000000 0.000000 0.006489 0.000000 0.059283
#
#
# Mechanical properties :
#
#
# Convention : Reuss Voigt Hill
#
# Bulk Modulus (GPa) = 31.77861 64.90028 48.33945
# Shear Modulus (GPa) = 18.67998 24.65588 21.66793
#
# Velocity S-wave (km/s) = 3.16032 3.63080 3.40370
# Velocity P-wave (km/s) = 5.50526 7.23029 6.42592
#
# Compressibility (1/GPa) = 0.03146771
#
# Stress axis : x y z
#
# Youngs Moduli (GPa) = 60.63404 22.99554 97.60621
#
# Poissons Ratio (x) = 0.17132 0.60543
# Poissons Ratio (y) = 0.45174 0.55882
# Poissons Ratio (z) = 0.37610 0.13165
#
# Static dielectric constant tensor:
#      x y z
#    x 3.546020 0.000000 0.006530 
#    y 0.000000 3.088420 0.000000 
#    z 0.006530 0.000000 3.652090 
# 
# 
# High freq. dielectric constant tensor:
#      x y z
#    x 1.730280 0.000000 0.001180 
#    y 0.000000 1.687760 0.000000 
#    z 0.001180 0.000000 1.736260 
# 
# From -- ./inp_files/237395.got.cif
#   From: 2010.06.25/outbox.cif.g09.slc.cpg/sg12_119_cif.got.tgz:237395.got - 2010.06.28 00:19:55.
