data_PCOD8095005
_publ_section_title
;
Structure prediction by ZEFSAII (Michael W. Deem and Ramdas Pophale) SiO2 
 PCOD8095005
Probable space group: C 2/M
;
_chemical_formula_sum "Si O2"
_cell_formula_units_Z 64
_cell_length_a 11.056352
_cell_length_b 22.019217
_cell_length_c 14.840459
_cell_angle_alpha 90.000000
_cell_angle_beta 102.537943
_cell_angle_gamma 90.000000
_cell_volume 3526.782807
_symmetry_space_group_name_H-M "C 2/M"
_symmetry_group_IT_number 12
_symmetry_cell_setting 'monoclinic'
loop_
_space_group_symop_operation_xyz
x,y,z
-x,y,-z
-x,-y,-z
x,-y,z
1/2+x,1/2+y,z
1/2-x,1/2+y,-z
1/2-x,1/2-y,-z
1/2+x,1/2-y,z
loop_
_atom_site_type_symbol
_atom_site_label
_atom_site_fract_x
_atom_site_fract_y
_atom_site_fract_z
Si Si1 0.058940 0.613068 0.413565
Si Si2 0.822568 0.068250 0.458855
Si Si3 0.607505 0.071726 0.902014
Si Si4 0.380537 0.572146 0.268387
Si Si5 0.885117 0.132293 0.646987
Si Si6 0.326139 0.929521 0.280746
Si Si7 0.891670 0.745942 0.558060
Si Si8 0.664385 0.927825 0.106062
O O1 0.175724 0.569885 0.446733
O O2 0.094564 0.681397 0.389053
O O3 0.000000 0.620513 0.500000
O O4 0.969693 0.579910 0.328626
O O5 0.848819 0.093989 0.363925
O O6 0.893733 0.106102 0.546607
O O7 0.870519 0.000000 0.477413
O O8 0.685449 0.090328 0.826068
O O9 0.466727 0.097814 0.877955
O O10 0.592839 0.000000 0.902245
O O11 0.679559 0.093138 0.003995
O O12 0.392779 0.500000 0.261608
O O13 0.512512 0.603432 0.269481
O O14 0.277536 0.598740 0.183408
O O15 0.753954 0.115383 0.670523
O O16 0.904386 0.204151 0.639545
O O17 0.287845 0.000000 0.289916
O O18 0.750000 0.750000 0.500000
O O19 0.000000 0.755292 0.500000
O O20 0.668128 0.000000 0.114623
#
# Coordination Sequence:
#
# PCOD8095005 Si02
#       8
#     8   8   8   8   8   8   8   8
#     4  11  21  34  52  75 100 139 181 226 270 305
#     4  11  20  31  48  73 105 140 173 211 264 320
#     4   8  15  29  52  76 104 137 169 216 272 320
#     4  10  20  31  46  73 106 140 178 210 255 326
#     4  12  22  34  49  71 108 151 178 213 265 322
#     4  11  21  34  52  81 114 140 175 223 278 334
#     4  11  22  40  57  73 103 149 203 239 265 308
#     4   8  14  29  50  74 104 137 172 216 266 320
#
# _framework density 18.146850000000001
#
# number of rings (size 3 to 8) (size 9 to 14) (size 15 to 20)
#    0.000    1.750    2.500    4.875    0.000    3.500 
#    0.000    0.625    0.000    3.000    0.000    0.875 
#    3.750    0.000    0.000    0.000    0.000    0.000 
#
# Total GULP energy -396627.738013 kJ/mol
# GULP energy per Si atom -12394.616813 kJ/mol
# Density = 1.810555 g / cm^3
# Si number density = 18.146850 Si / 1000 Ang^3
#
#
#
# Elastic Constant Matrix: (Units=GPa)
#
#
# Indices 1 2 3 4 5 6 
#
# 1 75.4918 14.5992 34.5412 0.0000 18.4353 0.0000
# 2 14.5992 42.4577 17.6177 0.0000 -6.9018 0.0000
# 3 34.5412 17.6177 105.3099 0.0000 11.7377 0.0000
# 4 0.0000 0.0000 0.0000 3.8947 0.0000 -2.8660
# 5 18.4353 -6.9018 11.7377 0.0000 31.6644 0.0000
# 6 0.0000 0.0000 0.0000 -2.8660 0.0000 18.3034
#
#
#
# Elastic Compliance Matrix: (Units=1/GPa)
#
#
# Indices 1 2 3 4 5 6 
#
# 1 0.019040 -0.006745 -0.003877 0.000000 -0.011118 0.000000
# 2 -0.006745 0.029474 -0.004039 0.000000 0.011849 0.000000
# 3 -0.003877 -0.004039 0.011776 0.000000 -0.002988 0.000000
# 4 0.000000 0.000000 0.000000 0.290196 0.000000 0.045439
# 5 -0.011118 0.011849 -0.002988 0.000000 0.041745 0.000000
# 6 0.000000 0.000000 0.000000 0.045439 0.000000 0.061750
#
#
# Mechanical properties :
#
#
# Convention : Reuss Voigt Hill
#
# Bulk Modulus (GPa) = 32.29234 39.64171 35.96702
# Shear Modulus (GPa) = 10.12908 21.20592 15.66750
#
# Velocity S-wave (km/s) = 2.36513 3.42215 2.94151
# Velocity P-wave (km/s) = 5.02913 6.12431 5.60354
#
# Compressibility (1/GPa) = 0.03096710
#
# Stress axis : x y z
#
# Youngs Moduli (GPa) = 52.52046 33.92771 84.91610
#
# Poissons Ratio (x) = 0.22886 0.32925
# Poissons Ratio (y) = 0.35428 0.34298
# Poissons Ratio (z) = 0.20364 0.13704
#
# Static dielectric constant tensor:
#      x y z
#    x 0.484860 0.000000 -1.789130 
#    y 0.000000 3.203500 0.000000 
#    z -1.789130 0.000000 2.394980 
# 
# 
# High freq. dielectric constant tensor:
#      x y z
#    x 1.712410 0.000000 0.007410 
#    y 0.000000 1.664870 0.000000 
#    z 0.007410 0.000000 1.687660 
# 
# From -- ./inp_files/208418.got.cif
#   From: 2010.06.25/outbox.cif.g09.slc.cpg/sg12_105_cif.got.tgz:208418.got - 2010.06.28 00:19:55.
