data_PCOD8095398
_publ_section_title
;
Structure prediction by ZEFSAII (Michael W. Deem and Ramdas Pophale) SiO2 
 PCOD8095398
Probable space group: C 2/M
;
_chemical_formula_sum "Si O2"
_cell_formula_units_Z 64
_cell_length_a 30.702742
_cell_length_b 9.507053
_cell_length_c 14.725315
_cell_angle_alpha 90.000000
_cell_angle_beta 47.652405
_cell_angle_gamma 90.000000
_cell_volume 3176.686002
_symmetry_space_group_name_H-M "C 2/M"
_symmetry_group_IT_number 12
_symmetry_cell_setting 'monoclinic'
loop_
_space_group_symop_operation_xyz
x,y,z
-x,y,-z
-x,-y,-z
x,-y,z
1/2+x,1/2+y,z
1/2-x,1/2+y,-z
1/2-x,1/2-y,-z
1/2+x,1/2-y,z
loop_
_atom_site_type_symbol
_atom_site_label
_atom_site_fract_x
_atom_site_fract_y
_atom_site_fract_z
Si Si1 0.115161 0.157784 0.189260
Si Si2 0.418521 0.839219 0.374195
Si Si3 0.179413 0.662629 0.751276
Si Si4 0.290244 0.837189 0.600085
Si Si5 0.811915 0.838410 0.746325
Si Si6 0.553548 0.166561 0.863227
Si Si7 0.316191 0.845160 0.041332
Si Si8 0.513799 0.339661 0.580550
O O1 0.135186 0.209224 0.261417
O O2 0.045293 0.168752 0.277395
O O3 0.138305 0.000000 0.146281
O O4 0.141925 0.240677 0.068972
O O5 0.348006 0.824833 0.454325
O O6 0.453398 0.793036 0.233518
O O7 0.436598 0.746057 0.435402
O O8 0.434146 0.000000 0.376234
O O9 0.188600 0.500000 0.708846
O O10 0.234561 0.753727 0.635103
O O11 0.117070 0.725178 0.805403
O O12 0.178792 0.680849 0.859349
O O13 0.310612 0.770050 0.666190
O O14 0.272483 0.000000 0.639569
O O15 0.752089 0.825644 0.889721
O O16 0.818858 0.000000 0.700795
O O17 0.554265 0.000000 0.875214
O O18 0.500000 0.230135 0.000000
O O19 0.338762 0.000000 0.984053
O O20 0.500000 0.277053 0.500000
O O21 0.536733 0.500000 0.537748
#
# Coordination Sequence:
#
# PCOD8095398 Si02
#       8
#     8   8   8   8   8   8   8   8
#     4  10  20  32  50  75 104 141 185 231 278 332
#     4  10  22  38  59  87 114 145 191 240 284 331
#     4   9  19  36  58  84 109 144 191 226 267 334
#     4  10  20  34  54  83 115 143 177 230 290 332
#     4   9  18  34  53  75 105 146 190 225 266 331
#     4   9  19  37  62  86 112 149 191 234 277 331
#     4   9  18  30  49  78 107 138 181 228 273 327
#     4  10  22  39  57  79 110 151 192 228 278 342
#
# _framework density 20.146781000000001
#
# number of rings (size 3 to 8) (size 9 to 14) (size 15 to 20)
#    0.000    2.500    0.000    2.250    1.750    5.750 
#    0.000    0.625    0.000    0.750    0.000    0.000 
#    0.000    0.000    0.000    0.000    0.000    0.000 
#
# Total GULP energy -396679.100997 kJ/mol
# GULP energy per Si atom -12396.221906 kJ/mol
# Density = 2.010093 g / cm^3
# Si number density = 20.146781 Si / 1000 Ang^3
#
#
#
# Elastic Constant Matrix: (Units=GPa)
#
#
# Indices 1 2 3 4 5 6 
#
# 1 95.5811 33.5402 27.8106 0.0000 -19.3113 0.0001
# 2 33.5402 69.5715 38.6316 0.0001 -3.7707 0.0002
# 3 27.8106 38.6316 95.9403 0.0000 -8.5770 0.0000
# 4 0.0000 0.0001 0.0000 25.8285 0.0000 -3.6639
# 5 -19.3113 -3.7707 -8.5770 0.0000 20.5352 0.0000
# 6 0.0001 0.0002 0.0000 -3.6639 0.0000 21.1277
#
#
#
# Elastic Compliance Matrix: (Units=1/GPa)
#
#
# Indices 1 2 3 4 5 6 
#
# 1 0.015581 -0.006367 -0.000776 0.000000 0.013159 0.000000
# 2 -0.006367 0.021117 -0.007111 0.000000 -0.005081 0.000000
# 3 -0.000776 -0.007111 0.013847 0.000000 0.003748 0.000000
# 4 0.000000 0.000000 0.000000 0.039693 0.000000 0.006884
# 5 0.013159 -0.005081 0.003748 0.000000 0.061704 0.000000
# 6 0.000000 0.000000 0.000000 0.006884 0.000000 0.048525
#
#
# Mechanical properties :
#
#
# Convention : Reuss Voigt Hill
#
# Bulk Modulus (GPa) = 45.38317 51.22864 48.30591
# Shear Modulus (GPa) = 21.15754 24.23898 22.69826
#
# Velocity S-wave (km/s) = 3.24415 3.47236 3.36019
# Velocity P-wave (km/s) = 6.05044 6.44665 6.25169
#
# Compressibility (1/GPa) = 0.02203460
#
# Stress axis : x y z
#
# Youngs Moduli (GPa) = 64.17972 47.35550 72.21936
#
# Poissons Ratio (x) = 0.30153 0.05606
# Poissons Ratio (y) = 0.40866 0.51358
# Poissons Ratio (z) = 0.04982 0.33677
#
# Static dielectric constant tensor:
#      x y z
#    x 3.677420 0.000000 -0.266140 
#    y 0.000000 3.461320 0.000000 
#    z -0.266140 0.000000 3.704420 
# 
# 
# High freq. dielectric constant tensor:
#      x y z
#    x 1.786740 0.000000 -0.011900 
#    y 0.000000 1.759170 0.000000 
#    z -0.011900 0.000000 1.790190 
# 
# From -- ./inp_files/249693.got.cif
#   From: 2010.06.25/outbox.cif.g09.slc.cpg/sg12_125_cif.got.tgz:249693.got - 2010.06.28 00:19:55.
