data_PCOD8095728
_publ_section_title
;
Structure prediction by ZEFSAII (Michael W. Deem and Ramdas Pophale) SiO2 
 PCOD8095728
Probable space group: C 2/M
;
_chemical_formula_sum "Si O2"
_cell_formula_units_Z 56
_cell_length_a 14.905538
_cell_length_b 9.518054
_cell_length_c 26.851013
_cell_angle_alpha 90.000000
_cell_angle_beta 126.945315
_cell_angle_gamma 90.000000
_cell_volume 3044.508240
_symmetry_space_group_name_H-M "C 2/M"
_symmetry_group_IT_number 12
_symmetry_cell_setting 'monoclinic'
loop_
_space_group_symop_operation_xyz
x,y,z
-x,y,-z
-x,-y,-z
x,-y,z
1/2+x,1/2+y,z
1/2-x,1/2+y,-z
1/2-x,1/2-y,-z
1/2+x,1/2-y,z
loop_
_atom_site_type_symbol
_atom_site_label
_atom_site_fract_x
_atom_site_fract_y
_atom_site_fract_z
Si Si1 0.904854 0.839598 0.074394
Si Si2 0.403763 0.335741 0.507850
Si Si3 0.712700 0.662371 0.059386
Si Si4 0.382497 0.336681 0.789896
Si Si5 0.716507 0.166249 0.813378
Si Si6 0.854583 0.662648 0.587198
Si Si7 0.465174 0.165230 0.728019
O O1 0.817335 0.738752 0.070401
O O2 0.025557 0.805523 0.136877
O O3 0.870825 0.000000 0.074561
O O4 0.899032 0.813782 0.011917
O O5 0.500000 0.286626 0.500000
O O6 0.421166 0.500000 0.525039
O O7 0.277183 0.304591 0.446276
O O8 0.413239 0.251389 0.562790
O O9 0.745844 0.500000 0.071363
O O10 0.704430 0.716012 0.113813
O O11 0.382177 0.500000 0.774419
O O12 0.268257 0.285078 0.778220
O O13 0.390791 0.244305 0.743669
O O14 0.590892 0.226034 0.775922
O O15 0.711277 0.000000 0.810257
O O16 0.870334 0.500000 0.578385
O O17 0.920105 0.704026 0.658767
O O18 0.457206 0.000000 0.735606
#
# Coordination Sequence:
#
# PCOD8095728 Si02
#       7
#     8   8   8   8   8   8   8
#     4   9  17  28  46  71  94 118 158 210 251 290
#     4   9  18  34  55  79 107 134 162 201 245 286
#     4   9  16  29  49  68  90 125 162 198 250 304
#     4  10  20  33  49  72  99 127 165 210 251 291
#     4   9  18  32  50  70  95 130 166 201 247 301
#     4   9  19  34  53  77 103 134 169 202 238 286
#     4  10  20  36  53  71 101 136 168 201 241 293
#
# _framework density 18.393775999999999
#
# number of rings (size 3 to 8) (size 9 to 14) (size 15 to 20)
#    0.000    2.714    1.429    0.000    0.000    2.571 
#    0.000    4.286    0.000    0.000    0.000    5.000 
#    0.000    0.000    0.000    0.000    0.000    0.000 
#
# Total GULP energy -346922.922104 kJ/mol
# GULP energy per Si atom -12390.104361 kJ/mol
# Density = 1.835191 g / cm^3
# Si number density = 18.393776 Si / 1000 Ang^3
#
#
#
# Elastic Constant Matrix: (Units=GPa)
#
#
# Indices 1 2 3 4 5 6 
#
# 1 95.7549 31.1846 39.5040 0.0000 -29.3701 0.0000
# 2 31.1846 39.7998 41.1150 0.0000 -12.8215 0.0000
# 3 39.5040 41.1150 111.5617 0.0000 -23.0941 0.0000
# 4 0.0000 0.0000 0.0000 23.8199 0.0000 -5.5436
# 5 -29.3701 -12.8215 -23.0941 0.0000 22.7695 0.0000
# 6 0.0000 0.0000 0.0000 -5.5436 0.0000 24.3414
#
#
#
# Elastic Compliance Matrix: (Units=1/GPa)
#
#
# Indices 1 2 3 4 5 6 
#
# 1 0.019549 -0.009560 0.000894 0.000000 0.020740 0.000000
# 2 -0.009560 0.047022 -0.013943 0.000000 0.000005 0.000000
# 3 0.000894 -0.013943 0.015694 0.000000 0.009220 0.000000
# 4 0.000000 0.000000 0.000000 0.044331 0.000000 0.010096
# 5 0.020740 0.000005 0.009220 0.000000 0.080025 0.000000
# 6 0.000000 0.000000 0.000000 0.010096 0.000000 0.043382
#
#
# Mechanical properties :
#
#
# Convention : Reuss Voigt Hill
#
# Bulk Modulus (GPa) = 26.99255 52.30265 39.64760
# Shear Modulus (GPa) = 16.25645 23.20701 19.73173
#
# Velocity S-wave (km/s) = 2.97611 3.55586 3.27882
# Velocity P-wave (km/s) = 5.14940 6.73466 5.99466
#
# Compressibility (1/GPa) = 0.03704726
#
# Stress axis : x y z
#
# Youngs Moduli (GPa) = 51.15296 21.26672 63.71740
#
# Poissons Ratio (x) = 0.20331 -0.05697
# Poissons Ratio (y) = 0.48902 0.88843
# Poissons Ratio (z) = -0.04574 0.29653
#
# Static dielectric constant tensor:
#      x y z
#    x 3.589640 0.000000 0.023860 
#    y 0.000000 3.728390 0.000000 
#    z 0.023860 0.000000 3.623770 
# 
# 
# High freq. dielectric constant tensor:
#      x y z
#    x 1.705210 0.000000 -0.004580 
#    y 0.000000 1.691090 0.000000 
#    z -0.004580 0.000000 1.721190 
# 
# From -- ./inp_files/339001.got.cif
#   From: 2010.06.25/outbox.cif.g09.slc.cpg/sg12_170_cif.got.tgz:339001.got - 2010.06.28 00:19:55.
