data_PCOD8095423
_publ_section_title
;
Structure prediction by ZEFSAII (Michael W. Deem and Ramdas Pophale) SiO2 
 PCOD8095423
Probable space group: C 2/M
;
_chemical_formula_sum "Si O2"
_cell_formula_units_Z 48
_cell_length_a 30.725700
_cell_length_b 8.630519
_cell_length_c 12.153409
_cell_angle_alpha 90.000000
_cell_angle_beta 129.002233
_cell_angle_gamma 90.000000
_cell_volume 2504.526897
_symmetry_space_group_name_H-M "C 2/M"
_symmetry_group_IT_number 12
_symmetry_cell_setting 'monoclinic'
loop_
_space_group_symop_operation_xyz
x,y,z
-x,y,-z
-x,-y,-z
x,-y,z
1/2+x,1/2+y,z
1/2-x,1/2+y,-z
1/2-x,1/2-y,-z
1/2+x,1/2-y,z
loop_
_atom_site_type_symbol
_atom_site_label
_atom_site_fract_x
_atom_site_fract_y
_atom_site_fract_z
Si Si1 0.491133 0.816046 0.157660
Si Si2 0.045152 0.317616 0.663910
Si Si3 0.087463 0.684385 0.159125
Si Si4 0.333833 0.319024 0.161606
Si Si5 0.241507 0.180080 0.161342
Si Si6 0.712002 0.817596 0.344878
O O1 0.480165 0.752566 0.262181
O O2 0.551710 0.759446 0.208651
O O3 0.490418 0.000000 0.157699
O O4 0.442505 0.753910 0.999380
O O5 0.058138 0.500000 0.689842
O O6 0.101804 0.227630 0.727997
O O7 0.000000 0.276909 0.500000
O O8 0.089357 0.500000 0.158694
O O9 0.149805 0.753436 0.262890
O O10 0.326152 0.500000 0.173393
O O11 0.300645 0.224036 0.201263
O O12 0.309158 0.276739 0.002081
O O13 0.234906 0.276061 0.261755
O O14 0.241839 0.000000 0.191635
O O15 0.750000 0.750000 0.500000
O O16 0.710889 0.000000 0.355701
#
# Coordination Sequence:
#
# PCOD8095423 Si02
#       6
#     8   8   8   8   8   8
#     4   8  14  28  49  73  98 127 171 220 261 302
#     4  10  20  32  50  78 110 144 179 217 265 324
#     4   8  15  28  49  73  97 130 172 218 260 302
#     4  10  21  37  58  82 108 141 182 231 284 333
#     4  10  21  38  59  81 106 140 185 233 280 333
#     4  11  22  35  53  80 113 147 181 220 271 327
#
# _framework density 19.165296999999999
#
# number of rings (size 3 to 8) (size 9 to 14) (size 15 to 20)
#    0.000    2.500    0.000    3.500    0.000    5.000 
#    0.000    3.333    0.000    2.000    0.000    8.167 
#    0.000    0.000    0.000    0.000    0.000    0.000 
#
# Total GULP energy -297585.369574 kJ/mol
# GULP energy per Si atom -12399.390399 kJ/mol
# Density = 1.912168 g / cm^3
# Si number density = 19.165297 Si / 1000 Ang^3
#
#
#
# Elastic Constant Matrix: (Units=GPa)
#
#
# Indices 1 2 3 4 5 6 
#
# 1 137.8971 19.0127 85.2486 0.0000 5.3213 0.0000
# 2 19.0127 36.0007 24.4101 0.0000 1.2250 0.0000
# 3 85.2486 24.4101 126.9875 0.0000 7.3608 0.0000
# 4 0.0000 0.0000 0.0000 23.0604 0.0000 2.6840
# 5 5.3213 1.2250 7.3608 0.0000 14.8736 0.0000
# 6 0.0000 0.0000 0.0000 2.6840 0.0000 25.7896
#
#
#
# Elastic Compliance Matrix: (Units=1/GPa)
#
#
# Indices 1 2 3 4 5 6 
#
# 1 0.012432 -0.001045 -0.008125 0.000000 -0.000341 0.000000
# 2 -0.001045 0.032031 -0.005482 0.000000 0.000449 0.000000
# 3 -0.008125 -0.005482 0.014607 0.000000 -0.003871 0.000000
# 4 0.000000 0.000000 0.000000 0.043896 0.000000 -0.004568
# 5 -0.000341 0.000449 -0.003871 0.000000 0.069234 0.000000
# 6 0.000000 0.000000 0.000000 -0.004568 0.000000 0.039251
#
#
# Mechanical properties :
#
#
# Convention : Reuss Voigt Hill
#
# Bulk Modulus (GPa) = 33.59463 62.02536 47.80999
# Shear Modulus (GPa) = 19.94604 24.22565 22.08585
#
# Velocity S-wave (km/s) = 3.22955 3.55919 3.39837
# Velocity P-wave (km/s) = 5.61013 7.02311 6.35601
#
# Compressibility (1/GPa) = 0.02976666
#
# Stress axis : x y z
#
# Youngs Moduli (GPa) = 80.43738 31.22019 68.45809
#
# Poissons Ratio (x) = 0.03262 0.55624
# Poissons Ratio (y) = 0.08404 0.37527
# Poissons Ratio (z) = 0.65357 0.17114
#
# Static dielectric constant tensor:
#      x y z
#    x 3.719780 0.000000 0.078170 
#    y 0.000000 3.164380 0.000000 
#    z 0.078170 0.000000 3.523850 
# 
# 
# High freq. dielectric constant tensor:
#      x y z
#    x 1.760710 0.000000 -0.000400 
#    y 0.000000 1.714460 0.000000 
#    z -0.000400 0.000000 1.743170 
# 
# From -- ./inp_files/180264.got.cif
#   From: 2010.06.25/outbox.cif.g09.slc.cpg/sg12_91_cif.got.tgz:180264.got - 2010.06.28 00:19:55.
