data_PCOD8095125
_publ_section_title
;
Structure prediction by ZEFSAII (Michael W. Deem and Ramdas Pophale) SiO2 
 PCOD8095125
Probable space group: C 2/M
;
_chemical_formula_sum "Si O2"
_cell_formula_units_Z 64
_cell_length_a 34.091309
_cell_length_b 13.474484
_cell_length_c 20.199385
_cell_angle_alpha 90.000000
_cell_angle_beta 25.386002
_cell_angle_gamma 90.000000
_cell_volume 3977.975136
_symmetry_space_group_name_H-M "C 2/M"
_symmetry_group_IT_number 12
_symmetry_cell_setting 'monoclinic'
loop_
_space_group_symop_operation_xyz
x,y,z
-x,y,-z
-x,-y,-z
x,-y,z
1/2+x,1/2+y,z
1/2-x,1/2+y,-z
1/2-x,1/2-y,-z
1/2+x,1/2-y,z
loop_
_atom_site_type_symbol
_atom_site_label
_atom_site_fract_x
_atom_site_fract_y
_atom_site_fract_z
Si Si1 0.529430 0.109634 0.879738
Si Si2 0.593061 0.616482 0.323280
Si Si3 0.998954 0.118211 0.661966
Si Si4 0.310630 0.240879 0.323495
Si Si5 0.463734 0.614131 0.862270
Si Si6 0.186957 0.881835 0.306643
Si Si7 0.361453 0.228546 0.096593
Si Si8 0.665297 0.614085 0.603636
O O1 0.618875 0.177268 0.739250
O O2 0.551248 0.000000 0.818269
O O3 0.500000 0.101317 0.000000
O O4 0.448282 0.155863 0.959703
O O5 0.500000 0.647355 0.500000
O O6 0.602437 0.500000 0.304528
O O7 0.582767 0.657232 0.263312
O O8 0.674288 0.653041 0.248392
O O9 0.098952 0.152312 0.483839
O O10 0.978937 0.159508 0.765590
O O11 0.999866 0.000000 0.662191
O O12 0.342799 0.261063 0.200347
O O13 0.303550 0.346659 0.371455
O O14 0.215679 0.179132 0.469807
O O15 0.432343 0.500000 0.906448
O O16 0.556726 0.624983 0.761853
O O17 0.382695 0.673265 0.022016
O O18 0.274933 0.827020 0.199423
O O19 0.201056 0.000000 0.290579
O O20 0.695550 0.500000 0.549581
#
# Coordination Sequence:
#
# PCOD8095125 Si02
#       8
#     8   8   8   8   8   8   8   8
#     4   9  17  29  44  62  87 117 145 178 223 270
#     4   7  11  22  42  68  94 116 142 178 223 269
#     4   8  14  27  47  69  92 118 147 184 226 265
#     4  10  20  33  48  66  88 115 153 194 230 269
#     4  10  20  32  46  65  91 123 155 187 225 267
#     4   9  16  27  47  72  94 118 147 183 226 271
#     4  11  20  30  43  67  95 121 151 183 224 276
#     4  10  20  34  51  68  86 114 155 197 232 266
#
# _framework density 16.088587
#
# number of rings (size 3 to 8) (size 9 to 14) (size 15 to 20)
#    0.000    2.750    1.250    3.000    0.000    3.000 
#    0.000    1.875    0.000    0.000    0.000    0.000 
#    0.000    4.500    0.000    0.000    0.000    1.750 
#
# Total GULP energy -396474.234461 kJ/mol
# GULP energy per Si atom -12389.819827 kJ/mol
# Density = 1.605197 g / cm^3
# Si number density = 16.088587 Si / 1000 Ang^3
#
#
#
# Elastic Constant Matrix: (Units=GPa)
#
#
# Indices 1 2 3 4 5 6 
#
# 1 105.3936 35.7702 39.6006 0.0000 0.3081 0.0000
# 2 35.7702 52.3255 26.7270 0.0000 10.6226 0.0000
# 3 39.6006 26.7270 66.6011 0.0000 6.0899 0.0000
# 4 0.0000 0.0000 0.0000 24.1013 0.0000 0.3550
# 5 0.3081 10.6226 6.0899 0.0000 17.6437 0.0000
# 6 0.0000 0.0000 0.0000 0.3550 0.0000 12.9431
#
#
#
# Elastic Compliance Matrix: (Units=1/GPa)
#
#
# Indices 1 2 3 4 5 6 
#
# 1 0.014497 -0.008257 -0.005925 0.000000 0.006763 0.000000
# 2 -0.008257 0.031239 -0.006113 0.000000 -0.016554 0.000000
# 3 -0.005925 -0.006113 0.021317 0.000000 -0.003574 0.000000
# 4 0.000000 0.000000 0.000000 0.041508 0.000000 -0.001139
# 5 0.006763 -0.016554 -0.003574 0.000000 0.067759 0.000000
# 6 0.000000 0.000000 0.000000 -0.001139 0.000000 0.077292
#
#
# Mechanical properties :
#
#
# Convention : Reuss Voigt Hill
#
# Bulk Modulus (GPa) = 37.78729 47.61289 42.70009
# Shear Modulus (GPa) = 16.50037 19.08578 17.79307
#
# Velocity S-wave (km/s) = 3.20596 3.44800 3.32918
# Velocity P-wave (km/s) = 6.10265 6.74611 6.43243
#
# Compressibility (1/GPa) = 0.02646392
#
# Stress axis : x y z
#
# Youngs Moduli (GPa) = 68.97960 32.01165 46.90995
#
# Poissons Ratio (x) = 0.26432 0.27793
# Poissons Ratio (y) = 0.56957 0.28675
# Poissons Ratio (z) = 0.40868 0.19568
#
# Static dielectric constant tensor:
#      x y z
#    x 3.373240 0.000000 0.031860 
#    y 0.000000 2.829010 0.000000 
#    z 0.031860 0.000000 2.914230 
# 
# 
# High freq. dielectric constant tensor:
#      x y z
#    x 1.623060 0.000000 -0.002220 
#    y 0.000000 1.584790 0.000000 
#    z -0.002220 0.000000 1.601740 
# 
# From -- ./inp_files/296685.got.cif
#   From: 2010.06.25/outbox.cif.g09.slc.cpg/sg12_149_cif.got.tgz:296685.got - 2010.06.28 00:19:55.
