data_PCOD8095999
_publ_section_title
;
Structure prediction by ZEFSAII (Michael W. Deem and Ramdas Pophale) SiO2 
 PCOD8095999
Probable space group: C 2/M
;
_chemical_formula_sum "Si O2"
_cell_formula_units_Z 64
_cell_length_a 20.986719
_cell_length_b 8.748673
_cell_length_c 24.489123
_cell_angle_alpha 90.000000
_cell_angle_beta 132.223224
_cell_angle_gamma 90.000000
_cell_volume 3329.691127
_symmetry_space_group_name_H-M "C 2/M"
_symmetry_group_IT_number 12
_symmetry_cell_setting 'monoclinic'
loop_
_space_group_symop_operation_xyz
x,y,z
-x,y,-z
-x,-y,-z
x,-y,z
1/2+x,1/2+y,z
1/2-x,1/2+y,-z
1/2-x,1/2-y,-z
1/2+x,1/2-y,z
loop_
_atom_site_type_symbol
_atom_site_label
_atom_site_fract_x
_atom_site_fract_y
_atom_site_fract_z
Si Si1 0.985893 0.826351 0.150405
Si Si2 0.560203 0.818328 0.299606
Si Si3 0.667146 0.670387 0.212456
Si Si4 0.915396 0.817372 0.421000
Si Si5 0.315437 0.681138 0.996468
Si Si6 0.068699 0.819424 0.694572
Si Si7 0.765027 0.677236 0.161108
Si Si8 0.264917 0.176085 0.647764
O O1 0.002240 0.728202 0.214303
O O2 0.064740 0.819561 0.154011
O O3 0.967505 0.000000 0.159235
O O4 0.908264 0.758268 0.069647
O O5 0.520106 0.748743 0.331813
O O6 0.659738 0.754734 0.348534
O O7 0.560843 0.000000 0.304333
O O8 0.697199 0.500000 0.248815
O O9 0.697439 0.706493 0.169682
O O10 0.705531 0.800344 0.273186
O O11 0.916228 0.757479 0.358663
O O12 0.832663 0.754921 0.408700
O O13 0.000000 0.754947 0.500000
O O14 0.912868 0.000000 0.418787
O O15 0.314251 0.500000 0.995934
O O16 0.285987 0.741867 0.920441
O O17 0.250000 0.750000 0.000000
O O18 0.147430 0.769736 0.778328
O O19 0.059490 0.000000 0.689281
O O20 0.790837 0.500000 0.169709
O O21 0.258750 0.000000 0.629936
#
# Coordination Sequence:
#
# PCOD8095999 Si02
#       8
#     8   8   8   8   8   8   8   8
#     4   9  18  33  51  73 101 134 176 216 255 304
#     4  10  20  33  53  78 107 140 173 214 259 305
#     4   9  17  30  51  76 101 131 166 212 260 305
#     4   9  18  34  57  82 105 133 171 212 254 304
#     4  10  21  34  47  66  96 134 174 215 259 306
#     4  11  21  34  55  80 105 134 174 218 254 305
#     4  10  20  33  51  75 103 134 169 213 265 310
#     4   9  17  33  55  78 104 137 174 208 250 306
#
# _framework density 19.221001000000001
#
# number of rings (size 3 to 8) (size 9 to 14) (size 15 to 20)
#    0.000    2.375    1.250    1.500    0.000    4.000 
#    0.000    3.125    0.000    3.375    0.000    5.250 
#    0.000    0.000    0.000    0.000    0.000    0.000 
#
# Total GULP energy -396523.713951 kJ/mol
# GULP energy per Si atom -12391.366061 kJ/mol
# Density = 1.917725 g / cm^3
# Si number density = 19.221001 Si / 1000 Ang^3
#
#
#
# Elastic Constant Matrix: (Units=GPa)
#
#
# Indices 1 2 3 4 5 6 
#
# 1 134.5803 22.7145 40.5196 0.0000 18.7923 0.0000
# 2 22.7145 27.3217 10.1191 0.0000 3.2345 0.0000
# 3 40.5196 10.1191 85.8352 0.0000 25.6439 0.0000
# 4 0.0000 0.0000 0.0000 17.3059 0.0000 0.0365
# 5 18.7923 3.2345 25.6439 0.0000 31.4045 0.0000
# 6 0.0000 0.0000 0.0000 0.0365 0.0000 26.4204
#
#
#
# Elastic Compliance Matrix: (Units=1/GPa)
#
#
# Indices 1 2 3 4 5 6 
#
# 1 0.009868 -0.006753 -0.003050 0.000000 -0.002719 0.000000
# 2 -0.006753 0.042895 -0.002323 0.000000 0.001520 0.000000
# 3 -0.003050 -0.002323 0.016860 0.000000 -0.011703 0.000000
# 4 0.000000 0.000000 0.000000 0.057784 0.000000 -0.000080
# 5 -0.002719 0.001520 -0.011703 0.000000 0.042870 0.000000
# 6 0.000000 0.000000 0.000000 -0.000080 0.000000 0.037850
#
#
# Mechanical properties :
#
#
# Convention : Reuss Voigt Hill
#
# Bulk Modulus (GPa) = 22.03999 43.82705 32.93352
# Shear Modulus (GPa) = 20.20176 26.65177 23.42677
#
# Velocity S-wave (km/s) = 3.24547 3.72774 3.49493
# Velocity P-wave (km/s) = 5.05328 6.43267 5.78424
#
# Compressibility (1/GPa) = 0.04537206
#
# Stress axis : x y z
#
# Youngs Moduli (GPa) = 101.33564 23.31248 59.31076
#
# Poissons Ratio (x) = 0.15742 0.18090
# Poissons Ratio (y) = 0.68428 0.13780
# Poissons Ratio (z) = 0.30907 0.05416
#
# Static dielectric constant tensor:
#      x y z
#    x 3.884930 0.000000 0.182080 
#    y 0.000000 3.341190 0.000000 
#    z 0.182080 0.000000 3.462440 
# 
# 
# High freq. dielectric constant tensor:
#      x y z
#    x 1.767280 0.000000 0.014110 
#    y 0.000000 1.722830 0.000000 
#    z 0.014110 0.000000 1.728200 
# 
# From -- ./inp_files/365220.got.cif
#   From: 2010.06.25/outbox.cif.g09.slc.cpg/sg12_183_cif.got.tgz:365220.got - 2010.06.28 00:19:55.
