data_PCOD8095346
_publ_section_title
;
Structure prediction by ZEFSAII (Michael W. Deem and Ramdas Pophale) SiO2 
 PCOD8095346
Probable space group: C 2/M
;
_chemical_formula_sum "Si O2"
_cell_formula_units_Z 56
_cell_length_a 19.300092
_cell_length_b 9.020909
_cell_length_c 20.243333
_cell_angle_alpha 90.000000
_cell_angle_beta 118.457977
_cell_angle_gamma 90.000000
_cell_volume 3098.582054
_symmetry_space_group_name_H-M "C 2/M"
_symmetry_group_IT_number 12
_symmetry_cell_setting 'monoclinic'
loop_
_space_group_symop_operation_xyz
x,y,z
-x,y,-z
-x,-y,-z
x,-y,z
1/2+x,1/2+y,z
1/2-x,1/2+y,-z
1/2-x,1/2-y,-z
1/2+x,1/2-y,z
loop_
_atom_site_type_symbol
_atom_site_label
_atom_site_fract_x
_atom_site_fract_y
_atom_site_fract_z
Si Si1 0.827130 0.173775 0.007366
Si Si2 0.816762 0.169646 0.300686
Si Si3 0.753763 0.164668 0.844153
Si Si4 0.227283 0.672448 0.588741
Si Si5 0.866601 0.327281 0.585658
Si Si6 0.090726 0.332265 0.848365
Si Si7 0.019749 0.171530 0.699109
O O1 0.902422 0.249376 0.077341
O O2 0.825316 0.000000 0.023876
O O3 0.750000 0.250000 0.000000
O O4 0.826820 0.198769 0.927391
O O5 0.749676 0.219587 0.217635
O O6 0.813600 0.270023 0.363798
O O7 0.902075 0.194391 0.308176
O O8 0.801050 0.000000 0.312429
O O9 0.674523 0.172796 0.850773
O O10 0.763056 0.000000 0.818217
O O11 0.247289 0.500000 0.604144
O O12 0.166687 0.703834 0.502191
O O13 0.308445 0.759718 0.614069
O O14 0.876942 0.500000 0.605045
O O15 0.950277 0.247471 0.626769
O O16 0.061946 0.500000 0.847033
O O17 0.027147 0.248042 0.774153
O O18 0.000730 0.000000 0.701755
#
# Coordination Sequence:
#
# PCOD8095346 Si02
#       7
#     8   8   8   8   8   8   8
#     4   9  15  23  37  59  89 126 164 201 243 291
#     4  10  20  32  49  74 103 133 166 206 248 293
#     4   8  15  26  40  61  92 128 163 200 243 290
#     4  10  21  37  56  75  98 129 164 204 249 298
#     4  10  21  37  56  76  98 127 165 206 247 296
#     4   9  16  26  41  63  93 128 164 203 245 290
#     4  10  20  33  50  74 104 135 166 204 250 296
#
# _framework density 18.072783000000001
#
# number of rings (size 3 to 8) (size 9 to 14) (size 15 to 20)
#    0.000    2.571    0.000    3.429    0.000    8.000 
#    0.000    2.857    0.000    0.000    0.000    1.000 
#    0.000    8.000    0.000    0.000    0.000    0.000 
#
# Total GULP energy -347128.867668 kJ/mol
# GULP energy per Si atom -12397.459560 kJ/mol
# Density = 1.803165 g / cm^3
# Si number density = 18.072783 Si / 1000 Ang^3
#
#
#
# Elastic Constant Matrix: (Units=GPa)
#
#
# Indices 1 2 3 4 5 6 
#
# 1 29.9077 33.9233 35.9825 0.0000 -1.6160 0.0000
# 2 33.9233 135.5074 71.5540 0.0000 -3.1526 0.0000
# 3 35.9825 71.5540 113.7536 0.0000 -2.4168 0.0000
# 4 0.0000 0.0000 0.0000 39.4733 0.0000 0.4327
# 5 -1.6160 -3.1526 -2.4168 0.0000 2.8212 0.0000
# 6 0.0000 0.0000 0.0000 0.4327 0.0000 23.8687
#
#
#
# Elastic Compliance Matrix: (Units=1/GPa)
#
#
# Indices 1 2 3 4 5 6 
#
# 1 0.058948 -0.007102 -0.013883 0.000000 0.013937 0.000000
# 2 -0.007102 0.012024 -0.005213 0.000000 0.004903 0.000000
# 3 -0.013883 -0.005213 0.016468 0.000000 0.000330 0.000000
# 4 0.000000 0.000000 0.000000 0.025339 0.000000 -0.000459
# 5 0.013937 0.004903 0.000330 0.000000 0.368207 0.000000
# 6 0.000000 0.000000 0.000000 -0.000459 0.000000 0.041904
#
#
# Mechanical properties :
#
#
# Convention : Reuss Voigt Hill
#
# Bulk Modulus (GPa) = 28.53494 62.45426 45.49460
# Shear Modulus (GPa) = 8.51837 22.41324 15.46580
#
# Velocity S-wave (km/s) = 2.17338 3.52542 2.92850
# Velocity P-wave (km/s) = 4.70333 7.15566 6.05495
#
# Compressibility (1/GPa) = 0.03504475
#
# Stress axis : x y z
#
# Youngs Moduli (GPa) = 16.96422 83.16439 60.72240
#
# Poissons Ratio (x) = 0.59065 0.84299
# Poissons Ratio (y) = 0.12048 0.31654
# Poissons Ratio (z) = 0.23551 0.43353
#
# Static dielectric constant tensor:
#      x y z
#    x 2.796660 0.000000 0.051150 
#    y 0.000000 3.546140 0.000000 
#    z 0.051150 0.000000 4.152560 
# 
# 
# High freq. dielectric constant tensor:
#      x y z
#    x 1.636520 0.000000 0.001650 
#    y 0.000000 1.718560 0.000000 
#    z 0.001650 0.000000 1.717120 
# 
# From -- ./inp_files/319345.got.cif
#   From: 2010.06.25/outbox.cif.g09.slc.cpg/sg12_160_cif.got.tgz:319345.got - 2010.06.28 00:19:55.
