data_PCOD8095689
_publ_section_title
;
Structure prediction by ZEFSAII (Michael W. Deem and Ramdas Pophale) SiO2 
 PCOD8095689
Probable space group: C 2/M
;
_chemical_formula_sum "Si O2"
_cell_formula_units_Z 56
_cell_length_a 19.182429
_cell_length_b 9.279975
_cell_length_c 26.560757
_cell_angle_alpha 90.000000
_cell_angle_beta 140.383630
_cell_angle_gamma 90.000000
_cell_volume 3014.874266
_symmetry_space_group_name_H-M "C 2/M"
_symmetry_group_IT_number 12
_symmetry_cell_setting 'monoclinic'
loop_
_space_group_symop_operation_xyz
x,y,z
-x,y,-z
-x,-y,-z
x,-y,z
1/2+x,1/2+y,z
1/2-x,1/2+y,-z
1/2-x,1/2-y,-z
1/2+x,1/2-y,z
loop_
_atom_site_type_symbol
_atom_site_label
_atom_site_fract_x
_atom_site_fract_y
_atom_site_fract_z
Si Si1 0.927499 0.164406 0.507940
Si Si2 0.454822 0.671024 0.741720
Si Si3 0.885166 0.169491 0.913845
Si Si4 0.767334 0.171025 0.562541
Si Si5 0.679257 0.665631 0.825337
Si Si6 0.332511 0.330051 0.771869
Si Si7 0.370758 0.337877 0.317374
O O1 0.828772 0.277195 0.453742
O O2 0.000000 0.195924 0.500000
O O3 0.003977 0.193779 0.598849
O O4 0.883015 0.000000 0.483494
O O5 0.455775 0.500000 0.743232
O O6 0.379660 0.718877 0.652584
O O7 0.580175 0.725468 0.805091
O O8 0.409227 0.730345 0.769685
O O9 0.789609 0.242873 0.893813
O O10 0.881742 0.216984 0.853380
O O11 0.869742 0.000000 0.911194
O O12 0.000000 0.222374 0.000000
O O13 0.750000 0.250000 0.500000
O O14 0.762088 0.000000 0.551300
O O15 0.706754 0.500000 0.852956
O O16 0.635856 0.686477 0.745198
O O17 0.320881 0.500000 0.761429
O O18 0.211874 0.264740 0.698348
O O19 0.338917 0.500000 0.315381
#
# Coordination Sequence:
#
# PCOD8095689 Si02
#       7
#     8   8   8   8   8   8   8
#     4  10  20  33  49  71 100 132 167 211 261 302
#     4   9  18  33  51  71  96 127 163 204 244 283
#     4   9  18  33  52  75 102 126 150 188 238 288
#     4  11  22  35  51  71  99 134 172 213 257 301
#     4   9  17  31  51  70  91 123 161 195 230 280
#     4   9  17  31  52  73  94 126 165 198 235 288
#     4   9  17  30  47  67  94 126 159 200 246 287
#
# _framework density 18.574572
#
# number of rings (size 3 to 8) (size 9 to 14) (size 15 to 20)
#    0.000    2.571    0.000    2.143    0.000    3.429 
#    0.000    6.429    0.000    0.000    0.000    0.000 
#    0.000    0.000    0.000    0.000    0.000    0.000 
#
# Total GULP energy -347118.033837 kJ/mol
# GULP energy per Si atom -12397.072637 kJ/mol
# Density = 1.853230 g / cm^3
# Si number density = 18.574572 Si / 1000 Ang^3
#
#
#
# Elastic Constant Matrix: (Units=GPa)
#
#
# Indices 1 2 3 4 5 6 
#
# 1 111.0099 33.2905 35.5043 0.0000 19.6971 0.0000
# 2 33.2905 42.6889 23.6957 0.0000 7.5968 0.0000
# 3 35.5043 23.6957 66.3277 0.0000 15.9959 0.0000
# 4 0.0000 0.0000 0.0000 22.8669 0.0000 5.9535
# 5 19.6971 7.5968 15.9959 0.0000 27.2408 0.0000
# 6 0.0000 0.0000 0.0000 5.9535 0.0000 29.3351
#
#
#
# Elastic Compliance Matrix: (Units=1/GPa)
#
#
# Indices 1 2 3 4 5 6 
#
# 1 0.013280 -0.007682 -0.002988 0.000000 -0.005705 0.000000
# 2 -0.007682 0.033794 -0.008187 0.000000 0.000938 0.000000
# 3 -0.002988 -0.008187 0.021586 0.000000 -0.008232 0.000000
# 4 0.000000 0.000000 0.000000 0.046171 0.000000 -0.009370
# 5 -0.005705 0.000938 -0.008232 0.000000 0.045407 0.000000
# 6 0.000000 0.000000 0.000000 -0.009370 0.000000 0.035991
#
#
# Mechanical properties :
#
#
# Convention : Reuss Voigt Hill
#
# Bulk Modulus (GPa) = 32.31516 45.00084 38.65800
# Shear Modulus (GPa) = 20.47013 24.39097 22.43055
#
# Velocity S-wave (km/s) = 3.32332 3.62766 3.47882
# Velocity P-wave (km/s) = 5.67109 6.46732 6.08225
#
# Compressibility (1/GPa) = 0.03094523
#
# Stress axis : x y z
#
# Youngs Moduli (GPa) = 75.30068 29.59134 46.32602
#
# Poissons Ratio (x) = 0.22733 0.13843
# Poissons Ratio (y) = 0.57849 0.37926
# Poissons Ratio (z) = 0.22501 0.24226
#
# Static dielectric constant tensor:
#      x y z
#    x 3.729300 0.000000 0.088870 
#    y 0.000000 3.268660 0.000000 
#    z 0.088870 0.000000 3.552890 
# 
# 
# High freq. dielectric constant tensor:
#      x y z
#    x 1.727600 0.000000 0.005670 
#    y 0.000000 1.698520 0.000000 
#    z 0.005670 0.000000 1.711460 
# 
# From -- ./inp_files/342310.got.cif
#   From: 2010.06.25/outbox.cif.g09.slc.cpg/sg12_172_cif.got.tgz:342310.got - 2010.06.28 00:19:55.
