data_PCOD8095108
_publ_section_title
;
Structure prediction by ZEFSAII (Michael W. Deem and Ramdas Pophale) SiO2 
 PCOD8095108
Probable space group: C 2/M
;
_chemical_formula_sum "Si O2"
_cell_formula_units_Z 56
_cell_length_a 27.490500
_cell_length_b 9.231509
_cell_length_c 20.908656
_cell_angle_alpha 90.000000
_cell_angle_beta 41.010729
_cell_angle_gamma 90.000000
_cell_volume 3481.912923
_symmetry_space_group_name_H-M "C 2/M"
_symmetry_group_IT_number 12
_symmetry_cell_setting 'monoclinic'
loop_
_space_group_symop_operation_xyz
x,y,z
-x,y,-z
-x,-y,-z
x,-y,z
1/2+x,1/2+y,z
1/2-x,1/2+y,-z
1/2-x,1/2-y,-z
1/2+x,1/2-y,z
loop_
_atom_site_type_symbol
_atom_site_label
_atom_site_fract_x
_atom_site_fract_y
_atom_site_fract_z
Si Si1 0.219820 0.667585 0.968952
Si Si2 0.426116 0.335102 0.323510
Si Si3 0.413551 0.166346 0.579198
Si Si4 0.777991 0.831677 0.410317
Si Si5 0.341222 0.328634 0.535898
Si Si6 0.663246 0.831137 0.211368
Si Si7 0.573170 0.165407 0.177150
O O1 0.243039 0.500000 0.948356
O O2 0.258488 0.743336 0.869227
O O3 0.250000 0.750000 0.000000
O O4 0.130386 0.683438 0.060652
O O5 0.450361 0.500000 0.307428
O O6 0.367505 0.317112 0.322986
O O7 0.390596 0.282160 0.425809
O O8 0.498928 0.248190 0.233019
O O9 0.500000 0.196169 0.500000
O O10 0.381936 0.275769 0.558671
O O11 0.375256 0.204520 0.683928
O O12 0.398352 0.000000 0.574189
O O13 0.750000 0.750000 0.500000
O O14 0.739026 0.752319 0.388727
O O15 0.754531 0.000000 0.435538
O O16 0.327826 0.500000 0.551682
O O17 0.609264 0.777487 0.207714
O O18 0.681322 0.000000 0.185014
O O19 0.550623 0.000000 0.209532
#
# Coordination Sequence:
#
# PCOD8095108 Si02
#       7
#     8   8   8   8   8   8   8
#     4   9  17  29  44  63  87 116 149 184 223 265
#     4   9  18  29  43  66  92 116 145 183 224 265
#     4  10  20  33  48  66  91 124 157 187 221 262
#     4   9  17  30  46  65  89 117 150 186 225 269
#     4  10  20  32  45  65  92 122 156 188 221 264
#     4   9  18  31  45  64  89 119 155 186 217 262
#     4   9  17  28  44  66  90 116 147 182 221 268
#
# _framework density 16.083113000000001
#
# number of rings (size 3 to 8) (size 9 to 14) (size 15 to 20)
#    0.000    2.714    0.000    3.857    0.000    8.286 
#    0.000    0.000    0.000    0.000    0.000    1.000 
#    0.000    8.000    0.000    0.000    0.000    0.000 
#
# Total GULP energy -347023.189261 kJ/mol
# GULP energy per Si atom -12393.685331 kJ/mol
# Density = 1.604651 g / cm^3
# Si number density = 16.083113 Si / 1000 Ang^3
#
#
#
# Elastic Constant Matrix: (Units=GPa)
#
#
# Indices 1 2 3 4 5 6 
#
# 1 81.7320 48.0952 43.2278 -0.0069 -13.2189 0.0043
# 2 48.0952 88.9261 50.9690 -0.0133 -13.5073 0.0131
# 3 43.2278 50.9690 98.0441 -0.0033 -13.7633 0.0043
# 4 -0.0069 -0.0133 -0.0033 27.6558 0.0061 -4.2114
# 5 -13.2189 -13.5073 -13.7633 0.0061 19.5142 -0.0031
# 6 0.0043 0.0131 0.0043 -4.2114 -0.0031 30.3630
#
#
#
# Elastic Compliance Matrix: (Units=1/GPa)
#
#
# Indices 1 2 3 4 5 6 
#
# 1 0.019632 -0.007522 -0.004006 0.000000 0.005267 0.000002
# 2 -0.007522 0.019511 -0.006267 0.000005 0.003990 -0.000005
# 3 -0.004006 -0.006267 0.015798 -0.000003 0.004091 0.000001
# 4 0.000000 0.000005 -0.000003 0.036939 -0.000009 0.005124
# 5 0.005267 0.003990 0.004091 -0.000009 0.060460 0.000002
# 6 0.000002 -0.000005 0.000001 0.005124 0.000002 0.033645
#
#
# Mechanical properties :
#
#
# Convention : Reuss Voigt Hill
#
# Bulk Modulus (GPa) = 51.67408 61.47623 56.57516
# Shear Modulus (GPa) = 21.92747 23.93396 22.93072
#
# Velocity S-wave (km/s) = 3.69641 3.86183 3.78003
# Velocity P-wave (km/s) = 7.10050 7.62837 7.36916
#
# Compressibility (1/GPa) = 0.01935206
#
# Stress axis : x y z
#
# Youngs Moduli (GPa) = 50.93760 51.25272 63.29982
#
# Poissons Ratio (x) = 0.38550 0.25359
# Poissons Ratio (y) = 0.38313 0.39667
# Poissons Ratio (z) = 0.20407 0.32118
#
# Static dielectric constant tensor:
#      x y z
#    x 3.200790 -0.000030 -0.229360 
#    y -0.000030 3.204880 0.000010 
#    z -0.229360 0.000010 3.220780 
# 
# 
# High freq. dielectric constant tensor:
#      x y z
#    x 1.596870 0.000000 -0.020440 
#    y 0.000000 1.629000 0.000000 
#    z -0.020440 0.000000 1.598510 
# 
# From -- ./inp_files/288254.got.cif
#   From: 2010.06.25/outbox.cif.g09.slc.cpg/sg12_145_cif.got.tgz:288254.got - 2010.06.28 00:19:55.
