data_PCOD8095095
_publ_section_title
;
Structure prediction by ZEFSAII (Michael W. Deem and Ramdas Pophale) SiO2 
 PCOD8095095
Probable space group: C 2/M
;
_chemical_formula_sum "Si O2"
_cell_formula_units_Z 64
_cell_length_a 24.870936
_cell_length_b 9.082740
_cell_length_c 17.717085
_cell_angle_alpha 90.000000
_cell_angle_beta 84.319817
_cell_angle_gamma 90.000000
_cell_volume 3982.571512
_symmetry_space_group_name_H-M "C 2/M"
_symmetry_group_IT_number 12
_symmetry_cell_setting 'monoclinic'
loop_
_space_group_symop_operation_xyz
x,y,z
-x,y,-z
-x,-y,-z
x,-y,z
1/2+x,1/2+y,z
1/2-x,1/2+y,-z
1/2-x,1/2-y,-z
1/2+x,1/2-y,z
loop_
_atom_site_type_symbol
_atom_site_label
_atom_site_fract_x
_atom_site_fract_y
_atom_site_fract_z
Si Si1 0.564544 0.334988 0.489575
Si Si2 0.871762 0.175250 0.930636
Si Si3 0.652963 0.331415 0.896369
Si Si4 0.050080 0.827266 0.328448
Si Si5 0.954525 0.674098 0.819088
Si Si6 0.939851 0.331278 0.370546
Si Si7 0.731727 0.171826 0.077985
Si Si8 0.079474 0.333860 0.790892
O O1 0.500000 0.321692 0.500000
O O2 0.583025 0.500000 0.507463
O O3 0.583860 0.295334 0.401230
O O4 0.590366 0.224161 0.548678
O O5 0.927631 0.244195 0.893750
O O6 0.822811 0.245839 0.887236
O O7 0.871113 0.000000 0.921272
O O8 0.864725 0.226772 0.018415
O O9 0.636910 0.500000 0.895478
O O10 0.717345 0.308814 0.872333
O O11 0.620803 0.256891 0.834144
O O12 0.073169 0.735566 0.254213
O O13 0.989240 0.777718 0.351438
O O14 0.050920 0.000000 0.308934
O O15 0.945197 0.500000 0.824649
O O16 0.017621 0.717406 0.811635
O O17 0.959496 0.500000 0.377994
O O18 0.903491 0.318869 0.299946
O O19 0.719714 0.000000 0.065331
O O20 0.750000 0.250000 0.000000
O O21 0.084733 0.500000 0.817921
#
# Coordination Sequence:
#
# PCOD8095095 Si02
#       8
#     8   8   8   8   8   8   8   8
#     4   8  14  23  36  55  77 105 141 176 212 252
#     4  10  20  33  48  67  87 112 146 182 222 263
#     4   9  19  32  47  66  86 111 145 181 218 259
#     4   9  16  26  39  56  80 110 143 178 214 254
#     4  10  20  32  44  62  88 119 151 181 216 258
#     4   9  16  25  37  56  81 110 144 178 212 252
#     4   9  17  31  49  69  88 107 137 179 224 265
#     4   9  19  31  42  60  88 120 151 180 215 257
#
# _framework density 16.07002
#
# number of rings (size 3 to 8) (size 9 to 14) (size 15 to 20)
#    0.000    2.875    0.000    4.125    0.000    9.250 
#    0.000    2.500    0.000    0.000    0.000    0.000 
#    0.000    1.000    0.000    3.250    0.000    6.125 
#
# Total GULP energy -396429.937136 kJ/mol
# GULP energy per Si atom -12388.435536 kJ/mol
# Density = 1.603344 g / cm^3
# Si number density = 16.070020 Si / 1000 Ang^3
#
#
#
# Elastic Constant Matrix: (Units=GPa)
#
#
# Indices 1 2 3 4 5 6 
#
# 1 45.7015 27.5827 26.3308 0.0000 15.7868 0.0000
# 2 27.5827 75.6956 36.2614 0.0000 14.0649 0.0000
# 3 26.3308 36.2614 75.3974 0.0000 22.0475 0.0000
# 4 0.0000 0.0000 0.0000 31.0592 0.0000 1.7830
# 5 15.7868 14.0649 22.0475 0.0000 9.5734 0.0000
# 6 0.0000 0.0000 0.0000 1.7830 0.0000 23.3789
#
#
#
# Elastic Compliance Matrix: (Units=1/GPa)
#
#
# Indices 1 2 3 4 5 6 
#
# 1 0.066968 -0.007340 0.028422 0.000000 -0.165104 0.000000
# 2 -0.007340 0.019179 -0.006003 0.000000 -0.002247 0.000000
# 3 0.028422 -0.006003 0.053130 0.000000 -0.160407 0.000000
# 4 0.000000 0.000000 0.000000 0.032338 0.000000 -0.002466
# 5 -0.165104 -0.002247 -0.160407 0.000000 0.749429 0.000000
# 6 0.000000 0.000000 0.000000 -0.002466 0.000000 0.042962
#
#
# Mechanical properties :
#
#
# Convention : Reuss Voigt Hill
#
# Bulk Modulus (GPa) = 5.90199 41.90492 23.90345
# Shear Modulus (GPa) = 5.04884 19.91029 12.47956
#
# Velocity S-wave (km/s) = 1.77443 3.52372 2.78973
# Velocity P-wave (km/s) = 2.80691 6.53365 5.02829
#
# Compressibility (1/GPa) = 0.16943441
#
# Stress axis : x y z
#
# Youngs Moduli (GPa) = 14.93249 52.14068 18.82171
#
# Poissons Ratio (x) = 0.38273 -0.53496
# Poissons Ratio (y) = 0.10961 0.11299
# Poissons Ratio (z) = -0.42442 0.31302
#
# Static dielectric constant tensor:
#      x y z
#    x 2.757290 0.000000 0.088870 
#    y 0.000000 3.179530 0.000000 
#    z 0.088870 0.000000 3.421050 
# 
# 
# High freq. dielectric constant tensor:
#      x y z
#    x 1.561180 0.000000 0.008490 
#    y 0.000000 1.632310 0.000000 
#    z 0.008490 0.000000 1.615440 
# 
# From -- ./inp_files/287675.got.cif
#   From: 2010.06.25/outbox.cif.g09.slc.cpg/sg12_144_cif.got.tgz:287675.got - 2010.06.28 00:19:55.
