data_PCOD8095472
_publ_section_title
;
Structure prediction by ZEFSAII (Michael W. Deem and Ramdas Pophale) SiO2 
 PCOD8095472
Probable space group: C 2/M
;
_chemical_formula_sum "Si O2"
_cell_formula_units_Z 64
_cell_length_a 20.284144
_cell_length_b 29.375879
_cell_length_c 16.904698
_cell_angle_alpha 90.000000
_cell_angle_beta 160.094422
_cell_angle_gamma 90.000000
_cell_volume 3429.534793
_symmetry_space_group_name_H-M "C 2/M"
_symmetry_group_IT_number 12
_symmetry_cell_setting 'monoclinic'
loop_
_space_group_symop_operation_xyz
x,y,z
-x,y,-z
-x,-y,-z
x,-y,z
1/2+x,1/2+y,z
1/2-x,1/2+y,-z
1/2-x,1/2-y,-z
1/2+x,1/2-y,z
loop_
_atom_site_type_symbol
_atom_site_label
_atom_site_fract_x
_atom_site_fract_y
_atom_site_fract_z
Si Si1 0.427043 0.883421 0.647153
Si Si2 0.420669 0.946221 0.787179
Si Si3 0.701349 0.553966 0.692712
Si Si4 0.065159 0.291878 0.869322
Si Si5 0.535162 0.649903 0.127920
Si Si6 0.940275 0.258309 0.306831
Si Si7 0.619445 0.861698 0.712304
Si Si8 0.863436 0.745422 0.780326
O O1 0.397174 0.924905 0.673581
O O2 0.550444 0.844555 0.830785
O O3 0.217051 0.869579 0.379354
O O4 0.550450 0.894025 0.706951
O O5 0.253203 0.930144 0.660917
O O6 0.410649 0.000000 0.764157
O O7 0.627411 0.930868 0.055467
O O8 0.500000 0.574828 0.500000
O O9 0.687578 0.500000 0.675863
O O10 0.039815 0.259483 0.765338
O O11 0.887048 0.283239 0.727146
O O12 0.271468 0.277083 0.141667
O O13 0.564536 0.703752 0.157169
O O14 0.500000 0.630552 0.000000
O O15 0.348789 0.633045 0.965456
O O16 0.916580 0.308431 0.314461
O O17 0.147435 0.240884 0.571496
O O18 0.500000 0.876831 0.500000
O O19 0.000000 0.722950 0.000000
#
# Coordination Sequence:
#
# PCOD8095472 Si02
#       8
#     8   8   8   8   8   8   8   8
#     4  11  23  35  54  85 112 141 183 234 282 332
#     4   9  19  37  60  87 117 146 181 228 278 332
#     4   8  15  33  64  90 109 142 184 221 262 326
#     4  10  21  33  48  73 105 139 177 221 275 325
#     4  11  20  34  55  79 103 145 192 235 270 317
#     4  10  20  32  52  71 102 141 179 230 271 317
#     4  11  19  34  55  78 106 142 196 237 268 320
#     4  11  20  33  52  73 101 144 186 221 272 325
#
# _framework density 18.661422000000002
#
# number of rings (size 3 to 8) (size 9 to 14) (size 15 to 20)
#    0.000    1.875    5.000    1.875    0.000    1.000 
#    2.250    0.000    0.000    0.750    0.000    0.000 
#    0.000    0.000    0.000    0.000    0.000    0.000 
#
# Total GULP energy -396539.798547 kJ/mol
# GULP energy per Si atom -12391.868705 kJ/mol
# Density = 1.861895 g / cm^3
# Si number density = 18.661422 Si / 1000 Ang^3
#
#
#
# Elastic Constant Matrix: (Units=GPa)
#
#
# Indices 1 2 3 4 5 6 
#
# 1 131.2257 32.9381 45.2815 -0.0003 7.3305 0.0003
# 2 32.9381 30.1385 9.5646 0.0004 -5.1662 0.0001
# 3 45.2815 9.5646 81.5797 -0.0010 15.3610 0.0003
# 4 -0.0003 0.0004 -0.0010 9.2156 -0.0003 -6.7037
# 5 7.3305 -5.1662 15.3610 -0.0003 38.6426 0.0003
# 6 0.0003 0.0001 0.0003 -6.7037 0.0003 28.7927
#
#
#
# Elastic Compliance Matrix: (Units=1/GPa)
#
#
# Indices 1 2 3 4 5 6 
#
# 1 0.012672 -0.012551 -0.005181 0.000001 -0.002022 0.000000
# 2 -0.012551 0.048586 -0.000434 -0.000003 0.009049 -0.000001
# 3 -0.005181 -0.000434 0.016225 0.000002 -0.005525 0.000000
# 4 0.000001 -0.000003 0.000002 0.130637 0.000000 0.030416
# 5 -0.002022 0.009049 -0.005525 0.000000 0.029668 0.000000
# 6 0.000000 -0.000001 0.000000 0.030416 0.000000 0.041813
#
#
# Mechanical properties :
#
#
# Convention : Reuss Voigt Hill
#
# Bulk Modulus (GPa) = 24.30094 46.50135 35.40114
# Shear Modulus (GPa) = 15.16767 25.67416 20.42092
#
# Velocity S-wave (km/s) = 2.85403 3.71319 3.31159
# Velocity P-wave (km/s) = 4.88988 6.58454 5.79944
#
# Compressibility (1/GPa) = 0.04115068
#
# Stress axis : x y z
#
# Youngs Moduli (GPa) = 78.91642 20.58214 61.63354
#
# Poissons Ratio (x) = 0.25833 0.31934
# Poissons Ratio (y) = 0.99048 0.02672
# Poissons Ratio (z) = 0.40888 0.00892
#
# Static dielectric constant tensor:
#      x y z
#    x 3.922870 0.000000 0.103560 
#    y 0.000000 2.837030 0.000000 
#    z 0.103560 0.000000 3.731990 
# 
# 
# High freq. dielectric constant tensor:
#      x y z
#    x 1.743260 0.000000 0.006740 
#    y 0.000000 1.652520 0.000000 
#    z 0.006740 0.000000 1.736420 
# 
# From -- ./inp_files/286796.got.cif
#   From: 2010.06.25/outbox.cif.g09.slc.cpg/sg12_144_cif.got.tgz:286796.got - 2010.06.28 00:19:55.
