data_PCOD8095757
_publ_section_title
;
Structure prediction by ZEFSAII (Michael W. Deem and Ramdas Pophale) SiO2 
 PCOD8095757
Probable space group: C 2/M
;
_chemical_formula_sum "Si O2"
_cell_formula_units_Z 40
_cell_length_a 14.492304
_cell_length_b 9.431413
_cell_length_c 20.000476
_cell_angle_alpha 90.000000
_cell_angle_beta 123.422285
_cell_angle_gamma 90.000000
_cell_volume 2281.657445
_symmetry_space_group_name_H-M "C 2/M"
_symmetry_group_IT_number 12
_symmetry_cell_setting 'monoclinic'
loop_
_space_group_symop_operation_xyz
x,y,z
-x,y,-z
-x,-y,-z
x,-y,z
1/2+x,1/2+y,z
1/2-x,1/2+y,-z
1/2-x,1/2-y,-z
1/2+x,1/2-y,z
loop_
_atom_site_type_symbol
_atom_site_label
_atom_site_fract_x
_atom_site_fract_y
_atom_site_fract_z
Si Si1 0.173225 0.339799 0.421853
Si Si2 0.593007 0.832401 0.122542
Si Si3 0.346754 0.168226 0.000469
Si Si4 0.261504 0.167736 0.697688
Si Si5 0.953642 0.661701 0.410595
O O1 0.215869 0.500000 0.445605
O O2 0.250000 0.250000 0.500000
O O3 0.181508 0.287711 0.349032
O O4 0.046536 0.325986 0.391537
O O5 0.652831 0.786529 0.077521
O O6 0.662155 0.770850 0.212421
O O7 0.590092 0.000000 0.123749
O O8 0.465659 0.781364 0.077027
O O9 0.328780 0.000000 0.001981
O O10 0.250000 0.250000 0.000000
O O11 0.142937 0.239965 0.654784
O O12 0.245451 0.000000 0.698011
O O13 0.911862 0.500000 0.402693
O O14 0.000000 0.718114 0.500000
#
# Coordination Sequence:
#
# PCOD8095757 Si02
#       5
#     8   8   8   8   8
#     4  10  20  33  50  70  95 130 169 208 250 296
#     4   8  17  34  52  74 105 137 165 201 253 303
#     4   9  17  33  57  78 102 135 166 201 249 303
#     4  10  20  34  53  75  99 132 177 214 241 295
#     4  10  20  34  50  71 102 134 164 209 266 302
#
# _framework density 17.531116999999998
#
# number of rings (size 3 to 8) (size 9 to 14) (size 15 to 20)
#    0.000    2.600    2.000    1.200    0.000    2.800 
#    0.000    6.000    0.000    0.000    0.000    0.000 
#    0.000    0.000    0.000    0.000    0.000    0.000 
#
# Total GULP energy -247960.745415 kJ/mol
# GULP energy per Si atom -12398.037271 kJ/mol
# Density = 1.749122 g / cm^3
# Si number density = 17.531117 Si / 1000 Ang^3
#
#
#
# Elastic Constant Matrix: (Units=GPa)
#
#
# Indices 1 2 3 4 5 6 
#
# 1 131.7028 40.8879 73.3488 0.0000 -2.3142 0.0000
# 2 40.8879 39.2784 44.1250 0.0000 1.1731 0.0000
# 3 73.3488 44.1250 174.0184 0.0000 -3.3699 0.0000
# 4 0.0000 0.0000 0.0000 20.2892 0.0000 5.2750
# 5 -2.3142 1.1731 -3.3699 0.0000 23.7752 0.0000
# 6 0.0000 0.0000 0.0000 5.2750 0.0000 32.7485
#
#
#
# Elastic Compliance Matrix: (Units=1/GPa)
#
#
# Indices 1 2 3 4 5 6 
#
# 1 0.012072 -0.009672 -0.002611 0.000000 0.001282 0.000000
# 2 -0.009672 0.043570 -0.007050 0.000000 -0.004091 0.000000
# 3 -0.002611 -0.007050 0.008660 0.000000 0.001321 0.000000
# 4 0.000000 0.000000 0.000000 0.051442 0.000000 -0.008286
# 5 0.001282 -0.004091 0.001321 0.000000 0.042575 0.000000
# 6 0.000000 0.000000 0.000000 -0.008286 0.000000 0.031870
#
#
# Mechanical properties :
#
#
# Convention : Reuss Voigt Hill
#
# Bulk Modulus (GPa) = 39.00786 73.52475 56.26631
# Shear Modulus (GPa) = 21.06138 27.80510 24.43324
#
# Velocity S-wave (km/s) = 3.46984 3.98684 3.73729
# Velocity P-wave (km/s) = 6.19290 7.95134 7.12656
#
# Compressibility (1/GPa) = 0.02563586
#
# Stress axis : x y z
#
# Youngs Moduli (GPa) = 82.83404 22.95162 115.46751
#
# Poissons Ratio (x) = 0.22199 0.30151
# Poissons Ratio (y) = 0.80116 0.81408
# Poissons Ratio (z) = 0.21630 0.16182
#
# Static dielectric constant tensor:
#      x y z
#    x 3.309180 0.000000 -0.111220 
#    y 0.000000 3.042190 0.000000 
#    z -0.111220 0.000000 3.626960 
# 
# 
# High freq. dielectric constant tensor:
#      x y z
#    x 1.686800 0.000000 -0.004640 
#    y 0.000000 1.652250 0.000000 
#    z -0.004640 0.000000 1.679860 
# 
# From -- ./inp_files/202869.got.cif
#   From: 2010.06.25/outbox.cif.g09.slc.cpg/sg12_102_cif.got.tgz:202869.got - 2010.06.28 00:19:55.
