data_PCOD8095001
_publ_section_title
;
Structure prediction by ZEFSAII (Michael W. Deem and Ramdas Pophale) SiO2 
 PCOD8095001
Probable space group: C 2/M
;
_chemical_formula_sum "Si O2"
_cell_formula_units_Z 64
_cell_length_a 18.582001
_cell_length_b 9.364212
_cell_length_c 20.357869
_cell_angle_alpha 90.000000
_cell_angle_beta 89.869541
_cell_angle_gamma 90.000000
_cell_volume 3542.378033
_symmetry_space_group_name_H-M "C 2/M"
_symmetry_group_IT_number 12
_symmetry_cell_setting 'monoclinic'
loop_
_space_group_symop_operation_xyz
x,y,z
-x,y,-z
-x,-y,-z
x,-y,z
1/2+x,1/2+y,z
1/2-x,1/2+y,-z
1/2-x,1/2-y,-z
1/2+x,1/2-y,z
loop_
_atom_site_type_symbol
_atom_site_label
_atom_site_fract_x
_atom_site_fract_y
_atom_site_fract_z
Si Si1 0.917572 0.167970 0.492745
Si Si2 0.417214 0.331756 0.127649
Si Si3 0.920138 0.830350 0.879152
Si Si4 0.336597 0.163333 0.386123
Si Si5 0.174317 0.169592 0.386132
Si Si6 0.328826 0.670088 0.758461
Si Si7 0.674978 0.668709 0.998845
Si Si8 0.333348 0.163712 0.234101
O O1 0.890548 0.239055 0.426363
O O2 0.876382 0.231383 0.556555
O O3 0.000000 0.208800 0.500000
O O4 0.905054 0.000000 0.486546
O O5 0.417814 0.500000 0.139354
O O6 0.498197 0.274979 0.114485
O O7 0.387861 0.259155 0.193016
O O8 0.367438 0.289214 0.066736
O O9 0.884677 0.769511 0.812059
O O10 0.873430 0.775848 0.940627
O O11 0.919342 0.000000 0.878521
O O12 0.255764 0.217966 0.400298
O O13 0.355523 0.179703 0.309745
O O14 0.345318 0.000000 0.408760
O O15 0.149712 0.227825 0.314294
O O16 0.170264 0.000000 0.384320
O O17 0.329151 0.500000 0.757312
O O18 0.248060 0.719959 0.776941
O O19 0.689449 0.500000 0.003229
O O20 0.750000 0.750000 0.000000
O O21 0.339992 0.000000 0.211026
#
# Coordination Sequence:
#
# PCOD8095001 Si02
#       8
#     8   8   8   8   8   8   8   8
#     4  10  20  31  46  72 102 127 155 200 251 290
#     4  10  20  32  49  75 103 129 159 200 247 290
#     4   9  17  30  49  72  99 131 162 194 239 292
#     4   9  18  33  52  70  92 128 168 200 233 284
#     4   8  15  29  47  68  94 123 160 201 237 281
#     4   8  14  27  49  71  90 122 166 201 231 280
#     4  10  20  34  52  74 100 130 167 207 242 282
#     4   9  18  33  52  73  96 125 163 202 239 284
#
# _framework density 18.066960000000002
#
# number of rings (size 3 to 8) (size 9 to 14) (size 15 to 20)
#    0.000    2.875    0.000    3.000    0.000    4.750 
#    0.000    3.125    0.000    3.000    0.000    0.000 
#    0.000    0.000    0.000    0.000    0.000    0.000 
#
# Total GULP energy -396739.650742 kJ/mol
# GULP energy per Si atom -12398.114086 kJ/mol
# Density = 1.802584 g / cm^3
# Si number density = 18.066960 Si / 1000 Ang^3
#
#
#
# Elastic Constant Matrix: (Units=GPa)
#
#
# Indices 1 2 3 4 5 6 
#
# 1 149.3081 40.1043 84.3218 0.0000 2.1513 0.0000
# 2 40.1043 22.2424 34.1957 0.0000 1.6039 0.0000
# 3 84.3218 34.1957 120.9109 0.0000 2.1285 0.0000
# 4 0.0000 0.0000 0.0000 24.6331 0.0000 -1.6524
# 5 2.1513 1.6039 2.1285 0.0000 26.4977 0.0000
# 6 0.0000 0.0000 0.0000 -1.6524 0.0000 19.0900
#
#
#
# Elastic Compliance Matrix: (Units=1/GPa)
#
#
# Indices 1 2 3 4 5 6 
#
# 1 0.014396 -0.018643 -0.004773 0.000000 0.000343 0.000000
# 2 -0.018643 0.103931 -0.016331 0.000000 -0.003465 0.000000
# 3 -0.004773 -0.016331 0.016216 0.000000 0.000073 0.000000
# 4 0.000000 0.000000 0.000000 0.040833 0.000000 0.003534
# 5 0.000343 -0.003465 0.000073 0.000000 0.037915 0.000000
# 6 0.000000 0.000000 0.000000 0.003534 0.000000 0.052689
#
#
# Mechanical properties :
#
#
# Convention : Reuss Voigt Hill
#
# Bulk Modulus (GPa) = 18.16554 67.74501 42.95528
# Shear Modulus (GPa) = 13.74291 22.96680 18.35486
#
# Velocity S-wave (km/s) = 2.76101 3.56926 3.19083
# Velocity P-wave (km/s) = 4.49896 7.38676 6.11575
#
# Compressibility (1/GPa) = 0.05504928
#
# Stress axis : x y z
#
# Youngs Moduli (GPa) = 69.46570 9.62177 61.66597
#
# Poissons Ratio (x) = 0.17938 0.29432
# Poissons Ratio (y) = 1.29506 1.00707
# Poissons Ratio (z) = 0.33154 0.15713
#
# Static dielectric constant tensor:
#      x y z
#    x 3.433650 0.000000 -0.010200 
#    y 0.000000 2.867510 0.000000 
#    z -0.010200 0.000000 3.603870 
# 
# 
# High freq. dielectric constant tensor:
#      x y z
#    x 1.703950 0.000000 0.000390 
#    y 0.000000 1.651070 0.000000 
#    z 0.000390 0.000000 1.715330 
# 
# From -- ./inp_files/314018.got.cif
#   From: 2010.06.25/outbox.cif.g09.slc.cpg/sg12_158_cif.got.tgz:314018.got - 2010.06.28 00:19:55.
