data_PCOD8095803
_publ_section_title
;
Structure prediction by ZEFSAII (Michael W. Deem and Ramdas Pophale) SiO2 
 PCOD8095803
Probable space group: C 2/M
;
_chemical_formula_sum "Si O2"
_cell_formula_units_Z 64
_cell_length_a 19.792400
_cell_length_b 9.276370
_cell_length_c 22.538274
_cell_angle_alpha 90.000000
_cell_angle_beta 116.865379
_cell_angle_gamma 90.000000
_cell_volume 3691.445631
_symmetry_space_group_name_H-M "C 2/M"
_symmetry_group_IT_number 12
_symmetry_cell_setting 'monoclinic'
loop_
_space_group_symop_operation_xyz
x,y,z
-x,y,-z
-x,-y,-z
x,-y,z
1/2+x,1/2+y,z
1/2-x,1/2+y,-z
1/2-x,1/2-y,-z
1/2+x,1/2-y,z
loop_
_atom_site_type_symbol
_atom_site_label
_atom_site_fract_x
_atom_site_fract_y
_atom_site_fract_z
Si Si1 0.759963 0.663164 0.672456
Si Si2 0.361003 0.667627 0.063949
Si Si3 0.922167 0.332707 0.686894
Si Si4 0.791344 0.331973 0.933251
Si Si5 0.523468 0.329396 0.179135
Si Si6 0.034150 0.670899 0.424527
Si Si7 0.115919 0.329427 0.572742
Si Si8 0.158031 0.331386 0.176483
O O1 0.730270 0.500000 0.657594
O O2 0.832540 0.685029 0.659449
O O3 0.695358 0.766201 0.623445
O O4 0.781249 0.704989 0.748311
O O5 0.358037 0.500000 0.047585
O O6 0.294199 0.711456 0.083040
O O7 0.439871 0.711704 0.124459
O O8 0.351690 0.750764 0.998370
O O9 0.945796 0.500000 0.703729
O O10 0.967410 0.238764 0.752421
O O11 0.943310 0.268687 0.630877
O O12 0.805763 0.500000 0.947897
O O13 0.804555 0.286065 0.870654
O O14 0.536449 0.500000 0.187755
O O15 0.582319 0.261092 0.155997
O O16 0.037869 0.500000 0.425434
O O17 0.093182 0.726406 0.497909
O O18 0.949226 0.721327 0.407188
O O19 0.123528 0.500000 0.576274
O O20 0.135944 0.500000 0.170572
#
# Coordination Sequence:
#
# PCOD8095803 Si02
#       8
#     8   8   8   8   8   8   8   8
#     4   9  18  31  47  69  97 126 156 195 240 280
#     4   9  19  34  50  72 101 127 154 197 247 282
#     4   9  18  34  52  68  93 129 164 195 231 281
#     4   9  18  34  54  72  93 127 167 197 228 282
#     4  10  20  33  50  73 100 126 155 197 244 284
#     4   8  16  32  51  70  94 126 161 196 235 279
#     4   9  17  31  51  72  95 124 159 197 236 282
#     4   9  19  35  52  70  96 130 163 195 233 282
#
# _framework density 17.337381000000001
#
# number of rings (size 3 to 8) (size 9 to 14) (size 15 to 20)
#    0.000    3.000    0.000    1.875    0.000    5.500 
#    0.000    6.250    0.000    0.000    0.000    0.000 
#    0.000    0.000    0.000    0.000    0.000    0.000 
#
# Total GULP energy -396771.534983 kJ/mol
# GULP energy per Si atom -12399.110468 kJ/mol
# Density = 1.729792 g / cm^3
# Si number density = 17.337381 Si / 1000 Ang^3
#
#
#
# Elastic Constant Matrix: (Units=GPa)
#
#
# Indices 1 2 3 4 5 6 
#
# 1 66.7100 26.4160 52.7283 0.0000 -1.4008 0.0000
# 2 26.4160 42.7192 33.7092 0.0000 8.2716 0.0000
# 3 52.7283 33.7092 92.6472 0.0000 1.8330 0.0000
# 4 0.0000 0.0000 0.0000 29.8757 0.0000 6.1429
# 5 -1.4008 8.2716 1.8330 0.0000 38.8875 0.0000
# 6 0.0000 0.0000 0.0000 6.1429 0.0000 22.5341
#
#
#
# Elastic Compliance Matrix: (Units=1/GPa)
#
#
# Indices 1 2 3 4 5 6 
#
# 1 0.028990 -0.007716 -0.013757 0.000000 0.003334 0.000000
# 2 -0.007716 0.036577 -0.008766 0.000000 -0.007645 0.000000
# 3 -0.013757 -0.008766 0.021806 0.000000 0.000341 0.000000
# 4 0.000000 0.000000 0.000000 0.035460 0.000000 -0.009667
# 5 0.003334 -0.007645 0.000341 0.000000 0.027445 0.000000
# 6 0.000000 0.000000 0.000000 -0.009667 0.000000 0.047012
#
#
# Mechanical properties :
#
#
# Convention : Reuss Voigt Hill
#
# Bulk Modulus (GPa) = 37.18218 47.53149 42.35684
# Shear Modulus (GPa) = 18.74531 24.20765 21.47648
#
# Velocity S-wave (km/s) = 3.29174 3.74072 3.52339
# Velocity P-wave (km/s) = 5.99501 6.79209 6.40596
#
# Compressibility (1/GPa) = 0.02689460
#
# Stress axis : x y z
#
# Youngs Moduli (GPa) = 34.49509 27.33944 45.85869
#
# Poissons Ratio (x) = 0.21095 0.63090
# Poissons Ratio (y) = 0.26616 0.40199
# Poissons Ratio (z) = 0.47457 0.23965
#
# Static dielectric constant tensor:
#      x y z
#    x 3.353220 0.000000 -0.183190 
#    y 0.000000 3.055090 0.000000 
#    z -0.183190 0.000000 3.346180 
# 
# 
# High freq. dielectric constant tensor:
#      x y z
#    x 1.671080 0.000000 -0.004540 
#    y 0.000000 1.654410 0.000000 
#    z -0.004540 0.000000 1.673190 
# 
# From -- ./inp_files/345583.got.cif
#   From: 2010.06.25/outbox.cif.g09.slc.cpg/sg12_173_cif.got.tgz:345583.got - 2010.06.28 00:19:55.
