data_PCOD8095602
_publ_section_title
;
Structure prediction by ZEFSAII (Michael W. Deem and Ramdas Pophale) SiO2 
 PCOD8095602
Probable space group: C 2/M
;
_chemical_formula_sum "Si O2"
_cell_formula_units_Z 64
_cell_length_a 19.612966
_cell_length_b 9.410063
_cell_length_c 21.510185
_cell_angle_alpha 90.000000
_cell_angle_beta 119.789185
_cell_angle_gamma 90.000000
_cell_volume 3445.317471
_symmetry_space_group_name_H-M "C 2/M"
_symmetry_group_IT_number 12
_symmetry_cell_setting 'monoclinic'
loop_
_space_group_symop_operation_xyz
x,y,z
-x,y,-z
-x,-y,-z
x,-y,z
1/2+x,1/2+y,z
1/2-x,1/2+y,-z
1/2-x,1/2-y,-z
1/2+x,1/2-y,z
loop_
_atom_site_type_symbol
_atom_site_label
_atom_site_fract_x
_atom_site_fract_y
_atom_site_fract_z
Si Si1 0.395350 0.341805 0.279633
Si Si2 0.722263 0.831344 0.926899
Si Si3 0.149847 0.657714 0.486115
Si Si4 0.509026 0.338397 0.435377
Si Si5 0.049451 0.334257 0.805233
Si Si6 0.223374 0.334504 0.165903
Si Si7 0.265541 0.159039 0.606290
Si Si8 0.379711 0.168348 0.767153
O O1 0.410832 0.500000 0.260542
O O2 0.425714 0.324838 0.363334
O O3 0.444418 0.236530 0.258927
O O4 0.303126 0.310808 0.240540
O O5 0.628930 0.799492 0.879424
O O6 0.772610 0.765388 0.892880
O O7 0.738918 0.000000 0.938334
O O8 0.750000 0.750000 0.000000
O O9 0.129338 0.500000 0.500452
O O10 0.072660 0.742110 0.429988
O O11 0.191584 0.736338 0.563762
O O12 0.198884 0.649129 0.445832
O O13 0.500000 0.277510 0.500000
O O14 0.539864 0.500000 0.449857
O O15 0.041356 0.500000 0.789579
O O16 0.970198 0.276826 0.803245
O O17 0.212378 0.500000 0.141017
O O18 0.154287 0.282357 0.181102
O O19 0.326367 0.223236 0.685123
O O20 0.238289 0.000000 0.614655
O O21 0.378155 0.000000 0.763938
#
# Coordination Sequence:
#
# PCOD8095602 Si02
#       8
#     8   8   8   8   8   8   8   8
#     4   9  18  32  50  74 100 133 175 218 263 313
#     4  10  20  36  59  83 111 143 174 206 246 302
#     4  10  20  33  47  69  97 129 174 223 272 317
#     4  10  21  33  48  68  95 132 176 221 266 318
#     4   9  18  34  56  82 106 135 172 211 256 305
#     4   9  18  33  55  81 107 134 172 215 258 310
#     4   9  18  32  52  71  95 133 171 212 262 321
#     4   9  17  31  55  80 102 133 174 216 259 309
#
# _framework density 18.575935999999999
#
# number of rings (size 3 to 8) (size 9 to 14) (size 15 to 20)
#    0.000    2.625    0.000    1.500    1.750    2.750 
#    0.000    2.500    0.000    3.750    0.000    0.000 
#    0.000    0.000    0.000    0.000    0.000    0.000 
#
# Total GULP energy -396620.950789 kJ/mol
# GULP energy per Si atom -12394.404712 kJ/mol
# Density = 1.853366 g / cm^3
# Si number density = 18.575936 Si / 1000 Ang^3
#
#
#
# Elastic Constant Matrix: (Units=GPa)
#
#
# Indices 1 2 3 4 5 6 
#
# 1 97.7185 29.9996 38.9089 0.0000 -5.0917 0.0000
# 2 29.9996 69.9154 39.6790 0.0000 -2.3307 0.0000
# 3 38.9089 39.6790 109.1027 0.0000 -6.9938 0.0000
# 4 0.0000 0.0000 0.0000 24.0639 0.0000 -1.0031
# 5 -5.0917 -2.3307 -6.9938 0.0000 17.0389 0.0000
# 6 0.0000 0.0000 0.0000 -1.0031 0.0000 21.5917
#
#
#
# Elastic Compliance Matrix: (Units=1/GPa)
#
#
# Indices 1 2 3 4 5 6 
#
# 1 0.012676 -0.003629 -0.003071 0.000000 0.002031 0.000000
# 2 -0.003629 0.019063 -0.005691 0.000000 -0.000813 0.000000
# 3 -0.003071 -0.005691 0.012552 0.000000 0.003456 0.000000
# 4 0.000000 0.000000 0.000000 0.041637 0.000000 0.001934
# 5 0.002031 -0.000813 0.003456 0.000000 0.060603 0.000000
# 6 0.000000 0.000000 0.000000 0.001934 0.000000 0.046404
#
#
# Mechanical properties :
#
#
# Convention : Reuss Voigt Hill
#
# Bulk Modulus (GPa) = 51.25511 54.87908 53.06709
# Shear Modulus (GPa) = 22.29969 23.74884 23.02427
#
# Velocity S-wave (km/s) = 3.46853 3.57945 3.52443
# Velocity P-wave (km/s) = 6.61007 6.83305 6.72248
#
# Compressibility (1/GPa) = 0.01951025
#
# Stress axis : x y z
#
# Youngs Moduli (GPa) = 78.88940 52.45877 79.66869
#
# Poissons Ratio (x) = 0.19035 0.24464
# Poissons Ratio (y) = 0.28626 0.45338
# Poissons Ratio (z) = 0.24225 0.29853
#
# Static dielectric constant tensor:
#      x y z
#    x 3.562740 0.000000 0.108550 
#    y 0.000000 3.467470 0.000000 
#    z 0.108550 0.000000 3.344360 
# 
# 
# High freq. dielectric constant tensor:
#      x y z
#    x 1.715860 0.000000 0.004530 
#    y 0.000000 1.707670 0.000000 
#    z 0.004530 0.000000 1.710850 
# 
# From -- ./inp_files/320063.got.cif
#   From: 2010.06.25/outbox.cif.g09.slc.cpg/sg12_161_cif.got.tgz:320063.got - 2010.06.28 00:19:55.
