data_PCOD8095172
_publ_section_title
;
Structure prediction by ZEFSAII (Michael W. Deem and Ramdas Pophale) SiO2 
 PCOD8095172
Probable space group: C 2/M
;
_chemical_formula_sum "Si O2"
_cell_formula_units_Z 44
_cell_length_a 27.279900
_cell_length_b 13.612995
_cell_length_c 12.511694
_cell_angle_alpha 90.000000
_cell_angle_beta 149.781445
_cell_angle_gamma 90.000000
_cell_volume 2338.510593
_symmetry_space_group_name_H-M "C 2/M"
_symmetry_group_IT_number 12
_symmetry_cell_setting 'monoclinic'
loop_
_space_group_symop_operation_xyz
x,y,z
-x,y,-z
-x,-y,-z
x,-y,z
1/2+x,1/2+y,z
1/2-x,1/2+y,-z
1/2-x,1/2-y,-z
1/2+x,1/2-y,z
loop_
_atom_site_type_symbol
_atom_site_label
_atom_site_fract_x
_atom_site_fract_y
_atom_site_fract_z
Si Si1 0.128799 0.825787 0.531948
Si Si2 0.463315 0.206609 0.310819
Si Si3 0.606140 0.500000 0.655384
Si Si4 0.246872 0.000000 0.103161
Si Si5 0.308517 0.307659 0.894978
Si Si6 0.517675 0.613267 0.913780
Si Si7 0.917557 0.500000 0.259425
O O1 0.235689 0.778251 0.716768
O O2 0.054800 0.736666 0.412673
O O3 0.084910 0.876596 0.343256
O O4 0.132081 0.903467 0.635373
O O5 0.500000 0.213099 0.500000
O O6 0.429146 0.097494 0.209918
O O7 0.368408 0.274708 0.113845
O O8 0.500000 0.500000 0.500000
O O9 0.647705 0.500000 0.852715
O O10 0.254415 0.096187 0.192648
O O11 0.320114 0.000000 0.142972
O O12 0.390174 0.327009 0.958901
O O13 0.549096 0.500000 0.971288
O O14 0.500000 0.651838 0.000000
O O15 0.000000 0.500000 0.500000
#
# Coordination Sequence:
#
# PCOD8095172 Si02
#       7
#     8   8   4   4   8   8   4
#     4  11  22  36  58  87 114 151 195 240 286 336
#     4  10  20  34  51  77 118 160 194 227 273 331
#     4  12  22  34  54  83 122 157 194 230 270 323
#     4  12  22  32  52  79 118 153 192 226 268 329
#     4  11  22  36  56  88 113 149 195 240 287 339
#     4  10  21  42  65  83 109 144 188 245 305 355
#     4  10  20  32  46  70 108 158 188 222 266 318
#
# _framework density 18.815394000000001
#
# number of rings (size 3 to 8) (size 9 to 14) (size 15 to 20)
#    0.000    1.273    1.818    7.091    0.000    2.909 
#    0.000    0.000    0.000    0.000    0.000    3.818 
#    0.000    0.000    0.000    0.000    0.000    0.000 
#
# Total GULP energy -272610.115213 kJ/mol
# GULP energy per Si atom -12391.368873 kJ/mol
# Density = 1.877257 g / cm^3
# Si number density = 18.815394 Si / 1000 Ang^3
#
#
#
# Elastic Constant Matrix: (Units=GPa)
#
#
# Indices 1 2 3 4 5 6 
#
# 1 72.1477 44.8738 27.3073 0.0000 2.0991 0.0000
# 2 44.8738 111.9260 19.6942 0.0000 11.5911 0.0000
# 3 27.3073 19.6942 72.3566 0.0000 13.3322 0.0000
# 4 0.0000 0.0000 0.0000 26.0435 0.0000 5.4836
# 5 2.0991 11.5911 13.3322 0.0000 33.0149 0.0000
# 6 0.0000 0.0000 0.0000 5.4836 0.0000 25.2454
#
#
#
# Elastic Compliance Matrix: (Units=1/GPa)
#
#
# Indices 1 2 3 4 5 6 
#
# 1 0.021012 -0.007683 -0.006579 0.000000 0.004018 0.000000
# 2 -0.007683 0.012379 0.000260 0.000000 -0.003963 0.000000
# 3 -0.006579 0.000260 0.017472 0.000000 -0.006729 0.000000
# 4 0.000000 0.000000 0.000000 0.040238 0.000000 -0.008740
# 5 0.004018 -0.003963 -0.006729 0.000000 0.034142 0.000000
# 6 0.000000 0.000000 0.000000 -0.008740 0.000000 0.041510
#
#
# Mechanical properties :
#
#
# Convention : Reuss Voigt Hill
#
# Bulk Modulus (GPa) = 43.74388 48.90898 46.32643
# Shear Modulus (GPa) = 24.70632 27.83109 26.26871
#
# Velocity S-wave (km/s) = 3.62759 3.85017 3.74053
# Velocity P-wave (km/s) = 6.39104 6.76872 6.58259
#
# Compressibility (1/GPa) = 0.02286034
#
# Stress axis : x y z
#
# Youngs Moduli (GPa) = 47.59134 80.78016 57.23290
#
# Poissons Ratio (x) = 0.62061 0.37655
# Poissons Ratio (y) = 0.36563 -0.01489
# Poissons Ratio (z) = 0.31312 -0.02102
#
# Static dielectric constant tensor:
#      x y z
#    x 3.286970 0.000000 0.038630 
#    y 0.000000 2.345130 0.000000 
#    z 0.038630 0.000000 3.554060 
# 
# 
# High freq. dielectric constant tensor:
#      x y z
#    x 1.699180 0.000000 0.018780 
#    y 0.000000 1.744840 0.000000 
#    z 0.018780 0.000000 1.734520 
# 
# From -- ./inp_files/142049.got.cif
#   From: 2010.06.25/outbox.cif.g09.slc.cpg/sg12_72_cif.got.tgz:142049.got - 2010.06.28 00:19:55.
