data_PCOD8095220
_publ_section_title
;
Structure prediction by ZEFSAII (Michael W. Deem and Ramdas Pophale) SiO2 
 PCOD8095220
Probable space group: C 2/M
;
_chemical_formula_sum "Si O2"
_cell_formula_units_Z 40
_cell_length_a 27.614617
_cell_length_b 9.324742
_cell_length_c 25.892770
_cell_angle_alpha 90.000000
_cell_angle_beta 159.986301
_cell_angle_gamma 90.000000
_cell_volume 2281.871739
_symmetry_space_group_name_H-M "C 2/M"
_symmetry_group_IT_number 12
_symmetry_cell_setting 'monoclinic'
loop_
_space_group_symop_operation_xyz
x,y,z
-x,y,-z
-x,-y,-z
x,-y,z
1/2+x,1/2+y,z
1/2-x,1/2+y,-z
1/2-x,1/2-y,-z
1/2+x,1/2-y,z
loop_
_atom_site_type_symbol
_atom_site_label
_atom_site_fract_x
_atom_site_fract_y
_atom_site_fract_z
Si Si1 0.770355 0.163399 0.906906
Si Si2 0.305800 0.833215 0.668653
Si Si3 0.508899 0.664683 0.676404
Si Si4 0.988159 0.167418 0.928817
Si Si5 0.988605 0.832576 0.772618
O O1 0.629431 0.256572 0.764803
O O2 0.721315 0.000000 0.855301
O O3 0.863717 0.203691 0.950472
O O4 0.860958 0.193687 0.049232
O O5 0.137558 0.812820 0.500220
O O6 0.363293 0.759470 0.778170
O O7 0.367916 0.758388 0.679971
O O8 0.348480 0.000000 0.710621
O O9 0.553052 0.500000 0.723674
O O10 0.498608 0.725190 0.724365
O O11 0.950854 0.000000 0.884355
O O12 0.000000 0.212229 0.000000
O O13 0.945319 0.000000 0.731859
#
# Coordination Sequence:
#
# PCOD8095220 Si02
#       5
#     8   8   8   8   8
#     4   9  18  31  50  75  97 124 166 207 244 289
#     4  10  20  32  49  76 103 129 165 203 244 292
#     4  10  20  32  47  72 107 138 162 197 243 289
#     4   9  19  38  59  74  92 123 164 208 251 296
#     4   9  18  33  50  70 100 138 174 201 232 282
#
# _framework density 17.529468999999999
#
# number of rings (size 3 to 8) (size 9 to 14) (size 15 to 20)
#    0.000    2.600    0.000    3.000    0.000    6.000 
#    0.000    1.000    0.000    6.000    0.000    0.000 
#    0.000    0.000    0.000    0.000    0.000    0.000 
#
# Total GULP energy -248046.737933 kJ/mol
# GULP energy per Si atom -12402.336897 kJ/mol
# Density = 1.748957 g / cm^3
# Si number density = 17.529469 Si / 1000 Ang^3
#
#
#
# Elastic Constant Matrix: (Units=GPa)
#
#
# Indices 1 2 3 4 5 6 
#
# 1 122.8457 48.1823 62.3964 0.0001 -10.2622 0.0003
# 2 48.1823 76.5225 60.2316 -0.0061 3.3081 -0.0033
# 3 62.3964 60.2316 102.6332 -0.0054 7.0003 -0.0028
# 4 0.0001 -0.0061 -0.0054 33.4042 -0.0028 3.1181
# 5 -10.2622 3.3081 7.0003 -0.0028 17.2766 -0.0010
# 6 0.0003 -0.0033 -0.0028 3.1181 -0.0010 24.2157
#
#
#
# Elastic Compliance Matrix: (Units=1/GPa)
#
#
# Indices 1 2 3 4 5 6 
#
# 1 0.014390 -0.003803 -0.007352 -0.000001 0.012255 -0.000001
# 2 -0.003803 0.025314 -0.012402 0.000002 -0.002081 0.000002
# 3 -0.007352 -0.012402 0.022242 0.000000 -0.011005 0.000001
# 4 -0.000001 0.000002 0.000000 0.030301 0.000004 -0.003902
# 5 0.012255 -0.002081 -0.011005 0.000004 0.070019 0.000001
# 6 -0.000001 0.000002 0.000001 -0.003902 0.000001 0.041798
#
#
# Mechanical properties :
#
#
# Convention : Reuss Voigt Hill
#
# Bulk Modulus (GPa) = 67.42408 71.51356 69.46882
# Shear Modulus (GPa) = 19.52181 23.72537 21.62359
#
# Velocity S-wave (km/s) = 3.34077 3.68293 3.51601
# Velocity P-wave (km/s) = 7.30943 7.67919 7.49659
#
# Compressibility (1/GPa) = 0.01483150
#
# Stress axis : x y z
#
# Youngs Moduli (GPa) = 69.49097 39.50317 44.95963
#
# Poissons Ratio (x) = 0.15025 0.33056
# Poissons Ratio (y) = 0.26431 0.55758
# Poissons Ratio (z) = 0.51093 0.48991
#
# Static dielectric constant tensor:
#      x y z
#    x 3.195800 0.000000 -0.043190 
#    y 0.000000 3.233380 0.000000 
#    z -0.043190 0.000000 3.121800 
# 
# 
# High freq. dielectric constant tensor:
#      x y z
#    x 1.666500 0.000000 0.000890 
#    y 0.000000 1.677630 0.000000 
#    z 0.000890 0.000000 1.673370 
# 
# From -- ./inp_files/92706.got.cif
#   From: 2010.06.25/outbox.cif.g09.slc.cpg/sg12_47_cif.got.tgz:92706.got - 2010.06.28 00:19:55.
