data_PCOD8095340
_publ_section_title
;
Structure prediction by ZEFSAII (Michael W. Deem and Ramdas Pophale) SiO2 
 PCOD8095340
Probable space group: C 2/M
;
_chemical_formula_sum "Si O2"
_cell_formula_units_Z 64
_cell_length_a 31.581984
_cell_length_b 13.831152
_cell_length_c 8.890991
_cell_angle_alpha 90.000000
_cell_angle_beta 108.445694
_cell_angle_gamma 90.000000
_cell_volume 3684.190099
_symmetry_space_group_name_H-M "C 2/M"
_symmetry_group_IT_number 12
_symmetry_cell_setting 'monoclinic'
loop_
_space_group_symop_operation_xyz
x,y,z
-x,y,-z
-x,-y,-z
x,-y,z
1/2+x,1/2+y,z
1/2-x,1/2+y,-z
1/2-x,1/2-y,-z
1/2+x,1/2-y,z
loop_
_atom_site_type_symbol
_atom_site_label
_atom_site_fract_x
_atom_site_fract_y
_atom_site_fract_z
Si Si1 0.882961 0.775633 0.739839
Si Si2 0.554714 0.386661 0.709761
Si Si3 0.345167 0.109165 0.873935
Si Si4 0.954594 0.114998 0.641535
Si Si5 0.238081 0.393443 0.438595
Si Si6 0.307054 0.745856 0.414488
Si Si7 0.635889 0.613045 0.998089
Si Si8 0.697002 0.242038 0.929238
O O1 0.884086 0.676260 0.841359
O O2 0.930404 0.814485 0.733600
O O3 0.851594 0.759440 0.561868
O O4 0.864344 0.859786 0.826679
O O5 0.554199 0.500000 0.729097
O O6 0.564596 0.362257 0.546443
O O7 0.505944 0.350648 0.706092
O O8 0.592538 0.342753 0.861742
O O9 0.304209 0.106469 0.715599
O O10 0.363515 0.000000 0.922960
O O11 0.326142 0.154122 0.006657
O O12 0.948717 0.000000 0.673084
O O13 0.249226 0.500000 0.510529
O O14 0.281112 0.355915 0.395677
O O15 0.227800 0.327696 0.571121
O O16 0.319938 0.770646 0.259482
O O17 0.638565 0.500000 0.981218
O O18 0.680101 0.656247 0.974153
O O19 0.750000 0.250000 0.000000
#
# Coordination Sequence:
#
# PCOD8095340 Si02
#       8
#     8   8   8   8   8   8   8   8
#     4  10  20  32  49  74 101 133 166 205 248 296
#     4   8  16  31  50  75 108 140 169 200 240 300
#     4   9  19  36  51  67  95 129 167 207 251 296
#     4   9  16  29  51  78 107 138 169 201 243 297
#     4   9  18  32  49  65  89 127 160 199 249 293
#     4  10  20  33  47  69  97 121 165 210 243 297
#     4  10  21  34  48  73 106 136 168 206 249 300
#     4  11  21  34  51  71  95 126 168 214 255 293
#
# _framework density 17.371525999999999
#
# number of rings (size 3 to 8) (size 9 to 14) (size 15 to 20)
#    0.000    2.500    1.250    1.875    1.750    3.000 
#    0.000    1.875    0.000    0.000    0.000    8.750 
#    0.000    0.000    0.000    0.250    0.000    0.000 
#
# Total GULP energy -396605.357950 kJ/mol
# GULP energy per Si atom -12393.917436 kJ/mol
# Density = 1.733199 g / cm^3
# Si number density = 17.371526 Si / 1000 Ang^3
#
#
#
# Elastic Constant Matrix: (Units=GPa)
#
#
# Indices 1 2 3 4 5 6 
#
# 1 94.6271 49.1831 40.0958 0.0000 -17.9289 0.0000
# 2 49.1831 105.1175 30.4110 0.0000 -13.7690 0.0000
# 3 40.0958 30.4110 93.4091 0.0000 -15.6793 0.0000
# 4 0.0000 0.0000 0.0000 16.9631 0.0000 -1.3573
# 5 -17.9289 -13.7690 -15.6793 0.0000 30.0877 0.0000
# 6 0.0000 0.0000 0.0000 -1.3573 0.0000 26.0710
#
#
#
# Elastic Compliance Matrix: (Units=1/GPa)
#
#
# Indices 1 2 3 4 5 6 
#
# 1 0.016297 -0.005744 -0.004314 0.000000 0.004835 0.000000
# 2 -0.005744 0.012837 -0.001427 0.000000 0.001708 0.000000
# 3 -0.004314 -0.001427 0.013677 0.000000 0.003904 0.000000
# 4 0.000000 0.000000 0.000000 0.059198 0.000000 0.003082
# 5 0.004835 0.001708 0.003904 0.000000 0.038933 0.000000
# 6 0.000000 0.000000 0.000000 0.003082 0.000000 0.038517
#
#
# Mechanical properties :
#
#
# Convention : Reuss Voigt Hill
#
# Bulk Modulus (GPa) = 50.39879 59.17039 54.78459
# Shear Modulus (GPa) = 23.91836 26.18860 25.05348
#
# Velocity S-wave (km/s) = 3.71465 3.88694 3.80177
# Velocity P-wave (km/s) = 6.89010 7.36750 7.13279
#
# Compressibility (1/GPa) = 0.01984174
#
# Stress axis : x y z
#
# Youngs Moduli (GPa) = 61.36026 77.89803 73.11405
#
# Poissons Ratio (x) = 0.44744 0.31541
# Poissons Ratio (y) = 0.35245 0.10434
# Poissons Ratio (z) = 0.26471 0.11117
#
# Static dielectric constant tensor:
#      x y z
#    x 3.280070 0.000000 0.033400 
#    y 0.000000 3.346460 0.000000 
#    z 0.033400 0.000000 3.403830 
# 
# 
# High freq. dielectric constant tensor:
#      x y z
#    x 1.659680 0.000000 -0.009770 
#    y 0.000000 1.649980 0.000000 
#    z -0.009770 0.000000 1.676280 
# 
# From -- ./inp_files/104621.got.cif
#   From: 2010.06.25/outbox.cif.g09.slc.cpg/sg12_53_cif.got.tgz:104621.got - 2010.06.28 00:19:55.
