data_PCOD8095362
_publ_section_title
;
Structure prediction by ZEFSAII (Michael W. Deem and Ramdas Pophale) SiO2 
 PCOD8095362
Probable space group: C 2/M
;
_chemical_formula_sum "Si O2"
_cell_formula_units_Z 64
_cell_length_a 14.323416
_cell_length_b 25.751892
_cell_length_c 16.636157
_cell_angle_alpha 90.000000
_cell_angle_beta 145.982879
_cell_angle_gamma 90.000000
_cell_volume 3432.912599
_symmetry_space_group_name_H-M "C 2/M"
_symmetry_group_IT_number 12
_symmetry_cell_setting 'monoclinic'
loop_
_space_group_symop_operation_xyz
x,y,z
-x,y,-z
-x,-y,-z
x,-y,z
1/2+x,1/2+y,z
1/2-x,1/2+y,-z
1/2-x,1/2-y,-z
1/2+x,1/2-y,z
loop_
_atom_site_type_symbol
_atom_site_label
_atom_site_fract_x
_atom_site_fract_y
_atom_site_fract_z
Si Si1 0.154081 0.141549 0.942391
Si Si2 0.185299 0.140542 0.389395
Si Si3 0.331513 0.160005 0.915953
Si Si4 0.180827 0.056610 0.098392
Si Si5 0.982564 0.282126 0.577589
Si Si6 0.307147 0.057464 0.354568
Si Si7 0.826960 0.220276 0.914394
Si Si8 0.001472 0.838411 0.410693
O O1 0.282449 0.129607 0.961892
O O2 0.973366 0.157590 0.777445
O O3 0.168348 0.092337 0.011058
O O4 0.211206 0.192634 0.029257
O O5 0.329098 0.184142 0.502943
O O6 0.247326 0.088866 0.389850
O O7 0.119986 0.129202 0.434033
O O8 0.357885 0.220065 0.956330
O O9 0.190450 0.155396 0.748782
O O10 0.500000 0.135400 0.000000
O O11 0.273685 0.083091 0.242105
O O12 0.262303 0.000000 0.134359
O O13 0.000000 0.045376 0.000000
O O14 0.000000 0.302173 0.500000
O O15 0.163754 0.291796 0.745154
O O16 0.936147 0.221350 0.549362
O O17 0.500000 0.051136 0.500000
O O18 0.222094 0.000000 0.296349
O O19 0.000000 0.196968 0.000000
O O20 0.000000 0.860492 0.500000
#
# Coordination Sequence:
#
# PCOD8095362 Si02
#       8
#     8   8   8   8   8   8   8   8
#     4  11  21  32  53  79 104 137 178 215 257 316
#     4  11  21  33  54  78 104 137 177 215 260 314
#     4   9  20  37  51  72 105 141 177 220 261 299
#     4  10  20  36  56  80 109 138 167 209 266 321
#     4  10  20  32  49  75 107 139 175 216 258 309
#     4  10  22  38  55  79 112 138 166 213 265 317
#     4  10  20  32  50  74 106 141 175 214 259 310
#     4   9  20  37  52  72 103 141 180 218 257 303
#
# _framework density 18.643060999999999
#
# number of rings (size 3 to 8) (size 9 to 14) (size 15 to 20)
#    0.000    2.000    1.250    2.250    3.500    2.000 
#    0.000    0.000    0.000    0.750    0.000    0.000 
#    0.000    0.000    0.000    0.000    0.000    0.000 
#
# Total GULP energy -396459.795564 kJ/mol
# GULP energy per Si atom -12389.368611 kJ/mol
# Density = 1.860063 g / cm^3
# Si number density = 18.643061 Si / 1000 Ang^3
#
#
#
# Elastic Constant Matrix: (Units=GPa)
#
#
# Indices 1 2 3 4 5 6 
#
# 1 135.5039 46.8542 58.7373 0.0000 -9.5235 0.0000
# 2 46.8542 47.5691 30.8698 0.0000 -6.4460 0.0000
# 3 58.7373 30.8698 100.1195 0.0000 -6.2188 0.0000
# 4 0.0000 0.0000 0.0000 10.1738 0.0000 6.0265
# 5 -9.5235 -6.4460 -6.2188 0.0000 35.0907 0.0000
# 6 0.0000 0.0000 0.0000 6.0265 0.0000 14.3058
#
#
#
# Elastic Compliance Matrix: (Units=1/GPa)
#
#
# Indices 1 2 3 4 5 6 
#
# 1 0.012633 -0.009435 -0.004446 0.000000 0.000908 0.000000
# 2 -0.009435 0.033742 -0.004694 0.000000 0.002806 0.000000
# 3 -0.004446 -0.004694 0.014070 0.000000 0.000425 0.000000
# 4 0.000000 0.000000 0.000000 0.130975 0.000000 -0.055175
# 5 0.000908 0.002806 0.000425 0.000000 0.029334 0.000000
# 6 0.000000 0.000000 0.000000 -0.055175 0.000000 0.093145
#
#
# Mechanical properties :
#
#
# Convention : Reuss Voigt Hill
#
# Bulk Modulus (GPa) = 42.92823 61.79057 52.35940
# Shear Modulus (GPa) = 13.93475 21.69614 17.81544
#
# Velocity S-wave (km/s) = 2.73692 3.41510 3.09464
# Velocity P-wave (km/s) = 5.75013 6.98330 6.39650
#
# Compressibility (1/GPa) = 0.02329469
#
# Stress axis : x y z
#
# Youngs Moduli (GPa) = 79.15510 29.63686 71.07249
#
# Poissons Ratio (x) = 0.27963 0.31600
# Poissons Ratio (y) = 0.74685 0.33361
# Poissons Ratio (z) = 0.35193 0.13911
#
# Static dielectric constant tensor:
#      x y z
#    x 3.193870 0.000000 -0.283300 
#    y 0.000000 3.276390 0.000000 
#    z -0.283300 0.000000 3.152980 
# 
# 
# High freq. dielectric constant tensor:
#      x y z
#    x 1.717970 0.000000 -0.003890 
#    y 0.000000 1.689130 0.000000 
#    z -0.003890 0.000000 1.740310 
# 
# From -- ./inp_files/209880.got.cif
#   From: 2010.06.25/outbox.cif.g09.slc.cpg/sg12_105_cif.got.tgz:209880.got - 2010.06.28 00:19:55.
