data_PCOD8095260
_publ_section_title
;
Structure prediction by ZEFSAII (Michael W. Deem and Ramdas Pophale) SiO2 
 PCOD8095260
Probable space group: C 2/M
;
_chemical_formula_sum "Si O2"
_cell_formula_units_Z 48
_cell_length_a 24.479022
_cell_length_b 9.030041
_cell_length_c 12.109645
_cell_angle_alpha 90.000000
_cell_angle_beta 77.218417
_cell_angle_gamma 90.000000
_cell_volume 2610.465912
_symmetry_space_group_name_H-M "C 2/M"
_symmetry_group_IT_number 12
_symmetry_cell_setting 'monoclinic'
loop_
_space_group_symop_operation_xyz
x,y,z
-x,y,-z
-x,-y,-z
x,-y,z
1/2+x,1/2+y,z
1/2-x,1/2+y,-z
1/2-x,1/2-y,-z
1/2+x,1/2-y,z
loop_
_atom_site_type_symbol
_atom_site_label
_atom_site_fract_x
_atom_site_fract_y
_atom_site_fract_z
Si Si1 0.162130 0.173259 0.521548
Si Si2 0.711469 0.174749 0.927866
Si Si3 0.953364 0.675476 0.432997
Si Si4 0.268593 0.172108 0.330288
Si Si5 0.486559 0.824087 0.178735
Si Si6 0.413640 0.823978 0.010575
O O1 0.105066 0.249868 0.507879
O O2 0.207890 0.209429 0.407203
O O3 0.182841 0.237952 0.629082
O O4 0.152137 0.000000 0.540047
O O5 0.732266 0.219827 0.796812
O O6 0.713992 0.000000 0.943779
O O7 0.750000 0.250000 0.000000
O O8 0.648866 0.237893 0.974735
O O9 0.944591 0.500000 0.435349
O O10 0.973639 0.738901 0.305618
O O11 0.000000 0.723329 0.500000
O O12 0.283892 0.000000 0.337001
O O13 0.547904 0.770464 0.109387
O O14 0.485732 0.000000 0.182828
O O15 0.439771 0.765200 0.114048
O O16 0.412458 0.000000 0.016369
#
# Coordination Sequence:
#
# PCOD8095260 Si02
#       6
#     8   8   8   8   8   8
#     4  10  20  34  54  77 100 131 172 215 255 297
#     4  10  20  33  50  74 104 135 163 198 247 300
#     4  10  20  32  48  72 102 134 165 202 250 301
#     4   9  19  36  55  75 101 133 169 210 256 302
#     4   8  14  27  47  70  92 117 157 204 243 281
#     4   8  14  26  47  70  90 118 158 201 240 281
#
# _framework density 18.387522000000001
#
# number of rings (size 3 to 8) (size 9 to 14) (size 15 to 20)
#    0.000    2.833    0.000    2.500    0.000    5.667 
#    0.000    1.667    0.000    1.000    0.000    3.500 
#    0.000    0.000    0.000    0.000    0.000    0.000 
#
# Total GULP energy -297564.998247 kJ/mol
# GULP energy per Si atom -12398.541594 kJ/mol
# Density = 1.834567 g / cm^3
# Si number density = 18.387522 Si / 1000 Ang^3
#
#
#
# Elastic Constant Matrix: (Units=GPa)
#
#
# Indices 1 2 3 4 5 6 
#
# 1 176.3773 43.6684 84.2462 0.0000 4.3620 0.0000
# 2 43.6684 35.7232 27.5907 0.0000 3.1092 0.0000
# 3 84.2462 27.5907 103.0912 0.0000 2.3514 0.0000
# 4 0.0000 0.0000 0.0000 18.3076 0.0000 2.3057
# 5 4.3620 3.1092 2.3514 0.0000 24.9858 0.0000
# 6 0.0000 0.0000 0.0000 2.3057 0.0000 30.4055
#
#
#
# Elastic Compliance Matrix: (Units=1/GPa)
#
#
# Indices 1 2 3 4 5 6 
#
# 1 0.010896 -0.008098 -0.006731 0.000000 -0.000261 0.000000
# 2 -0.008098 0.041616 -0.004444 0.000000 -0.003347 0.000000
# 3 -0.006731 -0.004444 0.016386 0.000000 0.000186 0.000000
# 4 0.000000 0.000000 0.000000 0.055149 0.000000 -0.004182
# 5 -0.000261 -0.003347 0.000186 0.000000 0.040467 0.000000
# 6 0.000000 0.000000 0.000000 -0.004182 0.000000 0.033206
#
#
# Mechanical properties :
#
#
# Convention : Reuss Voigt Hill
#
# Bulk Modulus (GPa) = 32.94685 69.57803 51.26244
# Shear Modulus (GPa) = 20.29364 25.38553 22.83959
#
# Velocity S-wave (km/s) = 3.32575 3.71965 3.52820
# Velocity P-wave (km/s) = 5.71878 7.50798 6.67361
#
# Compressibility (1/GPa) = 0.03035192
#
# Stress axis : x y z
#
# Youngs Moduli (GPa) = 91.77523 24.02944 61.02842
#
# Poissons Ratio (x) = 0.19459 0.41079
# Poissons Ratio (y) = 0.74321 0.27119
# Poissons Ratio (z) = 0.61775 0.10678
#
# Static dielectric constant tensor:
#      x y z
#    x 3.557590 0.000000 -0.186040 
#    y 0.000000 2.976400 0.000000 
#    z -0.186040 0.000000 3.654740 
# 
# 
# High freq. dielectric constant tensor:
#      x y z
#    x 1.720580 0.000000 -0.009710 
#    y 0.000000 1.670500 0.000000 
#    z -0.009710 0.000000 1.719230 
# 
# From -- ./inp_files/172113.got.cif
#   From: 2010.06.25/outbox.cif.g09.slc.cpg/sg12_87_cif.got.tgz:172113.got - 2010.06.28 00:19:55.
