data_PCOD8095235
_publ_section_title
;
Structure prediction by ZEFSAII (Michael W. Deem and Ramdas Pophale) SiO2 
 PCOD8095235
Probable space group: C 2/M
;
_chemical_formula_sum "Si O2"
_cell_formula_units_Z 56
_cell_length_a 22.729352
_cell_length_b 23.327636
_cell_length_c 16.522171
_cell_angle_alpha 90.000000
_cell_angle_beta 22.344294
_cell_angle_gamma 90.000000
_cell_volume 3330.460055
_symmetry_space_group_name_H-M "C 2/M"
_symmetry_group_IT_number 12
_symmetry_cell_setting 'monoclinic'
loop_
_space_group_symop_operation_xyz
x,y,z
-x,y,-z
-x,-y,-z
x,-y,z
1/2+x,1/2+y,z
1/2-x,1/2+y,-z
1/2-x,1/2-y,-z
1/2+x,1/2-y,z
loop_
_atom_site_type_symbol
_atom_site_label
_atom_site_fract_x
_atom_site_fract_y
_atom_site_fract_z
Si Si1 0.744414 0.500000 0.310746
Si Si2 0.883150 0.310061 0.829472
Si Si3 0.389572 0.765593 0.265451
Si Si4 0.831667 0.764281 0.593156
Si Si5 0.794951 0.229588 0.079451
Si Si6 0.646674 0.615103 0.369333
Si Si7 0.040744 0.380895 0.130117
Si Si8 0.956970 0.500000 0.182004
O O1 0.642337 0.556376 0.425605
O O2 0.797601 0.500000 0.335670
O O3 0.894767 0.500000 0.063638
O O4 0.778095 0.322172 0.882603
O O5 0.940698 0.369208 0.796676
O O6 0.028523 0.268686 0.627269
O O7 0.783442 0.282113 0.030032
O O8 0.250000 0.750000 0.500000
O O9 0.330718 0.755830 0.248468
O O10 0.439045 0.831523 0.216113
O O11 0.530600 0.722168 0.108953
O O12 0.817188 0.740740 0.702650
O O13 0.864105 0.832182 0.554194
O O14 0.500000 0.616166 0.500000
O O15 0.798692 0.618617 0.121475
O O16 0.957105 0.442288 0.234976
#
# Coordination Sequence:
#
# PCOD8095235 Si02
#       8
#     4   8   8   8   8   8   8   4
#     4   9  19  34  48  74 107 134 188 221 245 319
#     4  10  20  34  48  74 107 132 179 218 255 321
#     4  11  20  33  48  75 109 138 172 220 261 316
#     4  12  20  32  53  74 104 148 174 209 272 318
#     4  10  20  32  48  70 105 138 167 211 265 314
#     4  11  21  31  51  75 104 150 181 213 261 313
#     4  10  20  36  51  75 107 139 179 224 259 316
#     4   9  18  34  56  72  97 146 178 215 276 307
#
# _framework density 16.814494
#
# number of rings (size 3 to 8) (size 9 to 14) (size 15 to 20)
#    0.000    1.571    5.714    2.786    2.000    1.143 
#    0.000    0.000    0.000    0.000    0.000    2.000 
#    0.000    1.143    0.000    0.000    0.000    0.000 
#
# Total GULP energy -346948.886241 kJ/mol
# GULP energy per Si atom -12391.031651 kJ/mol
# Density = 1.677622 g / cm^3
# Si number density = 16.814494 Si / 1000 Ang^3
#
#
#
# Elastic Constant Matrix: (Units=GPa)
#
#
# Indices 1 2 3 4 5 6 
#
# 1 139.7326 56.5870 24.5440 -0.0056 -20.8213 0.0017
# 2 56.5870 76.7673 36.2046 -0.0074 -2.9356 0.0040
# 3 24.5440 36.2046 56.6584 -0.0016 -10.7884 0.0026
# 4 -0.0056 -0.0074 -0.0016 12.7222 -0.0029 5.3381
# 5 -20.8213 -2.9356 -10.7884 -0.0029 33.8947 0.0010
# 6 0.0017 0.0040 0.0026 5.3381 0.0010 24.8058
#
#
#
# Elastic Compliance Matrix: (Units=1/GPa)
#
#
# Indices 1 2 3 4 5 6 
#
# 1 0.011593 -0.009361 0.002301 0.000002 0.007043 0.000000
# 2 -0.009361 0.026377 -0.014328 0.000009 -0.008026 -0.000004
# 3 0.002301 -0.014328 0.027509 -0.000001 0.008928 -0.000001
# 4 0.000002 0.000009 -0.000001 0.086405 0.000009 -0.018594
# 5 0.007043 -0.008026 0.008928 0.000009 0.035976 -0.000004
# 6 0.000000 -0.000004 -0.000001 -0.018594 -0.000004 0.044314
#
#
# Mechanical properties :
#
#
# Convention : Reuss Voigt Hill
#
# Bulk Modulus (GPa) = 44.04936 56.42550 50.23743
# Shear Modulus (GPa) = 17.69801 24.67272 21.18536
#
# Velocity S-wave (km/s) = 3.24781 3.83475 3.55342
# Velocity P-wave (km/s) = 6.34969 7.29641 6.83945
#
# Compressibility (1/GPa) = 0.02270181
#
# Stress axis : x y z
#
# Youngs Moduli (GPa) = 86.26066 37.91171 36.35238
#
# Poissons Ratio (x) = 0.35490 -0.08364
# Poissons Ratio (y) = 0.80750 0.52086
# Poissons Ratio (z) = -0.19848 0.54320
#
# Static dielectric constant tensor:
#      x y z
#    x 3.724290 -0.000090 -0.260230 
#    y -0.000090 3.225250 0.000090 
#    z -0.260230 0.000090 3.013960 
# 
# 
# High freq. dielectric constant tensor:
#      x y z
#    x 1.664780 0.000000 -0.021250 
#    y 0.000000 1.608080 0.000010 
#    z -0.021250 0.000010 1.639180 
# 
# From -- ./inp_files/291033.got.cif
#   From: 2010.06.25/outbox.cif.g09.slc.cpg/sg12_146_cif.got.tgz:291033.got - 2010.06.28 00:19:55.
