data_PCOD8095182
_publ_section_title
;
Structure prediction by ZEFSAII (Michael W. Deem and Ramdas Pophale) SiO2 
 PCOD8095182
Probable space group: C 2/M
;
_chemical_formula_sum "Si O2"
_cell_formula_units_Z 64
_cell_length_a 23.461736
_cell_length_b 9.168017
_cell_length_c 22.360967
_cell_angle_alpha 90.000000
_cell_angle_beta 134.338203
_cell_angle_gamma 90.000000
_cell_volume 3440.091312
_symmetry_space_group_name_H-M "C 2/M"
_symmetry_group_IT_number 12
_symmetry_cell_setting 'monoclinic'
loop_
_space_group_symop_operation_xyz
x,y,z
-x,y,-z
-x,-y,-z
x,-y,z
1/2+x,1/2+y,z
1/2-x,1/2+y,-z
1/2-x,1/2-y,-z
1/2+x,1/2-y,z
loop_
_atom_site_type_symbol
_atom_site_label
_atom_site_fract_x
_atom_site_fract_y
_atom_site_fract_z
Si Si1 0.910595 0.173377 0.926392
Si Si2 0.145400 0.826880 0.244512
Si Si3 0.938635 0.157784 0.401800
Si Si4 0.072581 0.174062 0.421530
Si Si5 0.530065 0.672836 0.262576
Si Si6 0.704489 0.670345 0.053183
Si Si7 0.191902 0.825173 0.609115
Si Si8 0.852704 0.170457 0.120889
O O1 0.875561 0.226574 0.837401
O O2 0.852961 0.231933 0.936690
O O3 0.914653 0.000000 0.931945
O O4 0.000000 0.236791 0.000000
O O5 0.074723 0.772248 0.236093
O O6 0.223747 0.750369 0.326325
O O7 0.157166 0.000000 0.256015
O O8 0.860172 0.235228 0.372183
O O9 0.000000 0.132320 0.500000
O O10 0.988625 0.240990 0.386448
O O11 0.910655 0.000000 0.356618
O O12 0.079020 0.224964 0.357390
O O13 0.149253 0.225699 0.515821
O O14 0.065852 0.000000 0.422089
O O15 0.524736 0.500000 0.256443
O O16 0.440258 0.734257 0.199008
O O17 0.719933 0.500000 0.073510
O O18 0.789854 0.749867 0.118202
O O19 0.662932 0.705295 0.959915
O O20 0.199852 0.000000 0.617261
O O21 0.845841 0.000000 0.129266
#
# Coordination Sequence:
#
# PCOD8095182 Si02
#       8
#     8   8   8   8   8   8   8   8
#     4   9  17  31  51  70  90 123 162 189 215 266
#     4  10  20  32  47  68  92 119 154 195 230 261
#     4   7  11  22  41  63  84 109 145 183 215 255
#     4   8  14  26  46  69  90 117 153 190 227 269
#     4   9  17  29  45  66  91 120 157 195 226 262
#     4   9  17  30  49  72  96 122 151 185 230 278
#     4   9  17  30  48  69  93 120 150 185 229 280
#     4   9  17  30  49  72  96 120 150 191 232 269
#
# _framework density 18.604157000000001
#
# number of rings (size 3 to 8) (size 9 to 14) (size 15 to 20)
#    0.000    3.250    0.000    2.250    0.000    4.500 
#    0.000    2.500    0.000    7.125    0.000    0.000 
#    0.000    0.000    0.000    0.000    0.000    0.000 
#
# Total GULP energy -396470.581052 kJ/mol
# GULP energy per Si atom -12389.705658 kJ/mol
# Density = 1.856181 g / cm^3
# Si number density = 18.604157 Si / 1000 Ang^3
#
#
#
# Elastic Constant Matrix: (Units=GPa)
#
#
# Indices 1 2 3 4 5 6 
#
# 1 164.6360 24.6249 77.4043 0.0000 8.3561 0.0000
# 2 24.6249 16.8496 23.9598 0.0000 3.9450 0.0000
# 3 77.4043 23.9598 126.3068 0.0000 14.5870 0.0000
# 4 0.0000 0.0000 0.0000 21.5193 0.0000 6.2032
# 5 8.3561 3.9450 14.5870 0.0000 34.1928 0.0000
# 6 0.0000 0.0000 0.0000 6.2032 0.0000 15.9171
#
#
#
# Elastic Compliance Matrix: (Units=1/GPa)
#
#
# Indices 1 2 3 4 5 6 
#
# 1 0.009166 -0.007448 -0.004255 0.000000 0.000434 0.000000
# 2 -0.007448 0.087605 -0.011672 0.000000 -0.003308 0.000000
# 3 -0.004255 -0.011672 0.013109 0.000000 -0.003206 0.000000
# 4 0.000000 0.000000 0.000000 0.052351 0.000000 -0.020402
# 5 0.000434 -0.003308 -0.003206 0.000000 0.030889 0.000000
# 6 0.000000 0.000000 0.000000 -0.020402 0.000000 0.070777
#
#
# Mechanical properties :
#
#
# Convention : Reuss Voigt Hill
#
# Bulk Modulus (GPa) = 15.83997 62.19671 39.01834
# Shear Modulus (GPa) = 15.07430 26.44607 20.76018
#
# Velocity S-wave (km/s) = 2.84960 3.77439 3.34412
# Velocity P-wave (km/s) = 4.39996 7.24561 5.99410
#
# Compressibility (1/GPa) = 0.06313143
#
# Stress axis : x y z
#
# Youngs Moduli (GPa) = 109.09532 11.41486 76.28322
#
# Poissons Ratio (x) = 0.08501 0.32456
# Poissons Ratio (y) = 0.81250 0.89039
# Poissons Ratio (z) = 0.46417 0.13324
#
# Static dielectric constant tensor:
#      x y z
#    x 3.867240 0.000000 0.006750 
#    y 0.000000 2.808780 0.000000 
#    z 0.006750 0.000000 3.425220 
# 
# 
# High freq. dielectric constant tensor:
#      x y z
#    x 1.738630 0.000000 0.002640 
#    y 0.000000 1.652020 0.000000 
#    z 0.002640 0.000000 1.720340 
# 
# From -- ./inp_files/346859.got.cif
#   From: 2010.06.25/outbox.cif.g09.slc.cpg/sg12_174_cif.got.tgz:346859.got - 2010.06.28 00:19:55.
