data_PCOD8095210
_publ_section_title
;
Structure prediction by ZEFSAII (Michael W. Deem and Ramdas Pophale) SiO2 
 PCOD8095210
Probable space group: C 2/M
;
_chemical_formula_sum "Si O2"
_cell_formula_units_Z 56
_cell_length_a 9.315989
_cell_length_b 18.626834
_cell_length_c 25.932599
_cell_angle_alpha 90.000000
_cell_angle_beta 135.928878
_cell_angle_gamma 90.000000
_cell_volume 3129.989538
_symmetry_space_group_name_H-M "C 2/M"
_symmetry_group_IT_number 12
_symmetry_cell_setting 'monoclinic'
loop_
_space_group_symop_operation_xyz
x,y,z
-x,y,-z
-x,-y,-z
x,-y,z
1/2+x,1/2+y,z
1/2-x,1/2+y,-z
1/2-x,1/2-y,-z
1/2+x,1/2-y,z
loop_
_atom_site_type_symbol
_atom_site_label
_atom_site_fract_x
_atom_site_fract_y
_atom_site_fract_z
Si Si1 0.398848 0.175980 0.283940
Si Si2 0.994573 0.080152 0.582464
Si Si3 0.948864 0.582896 0.141524
Si Si4 0.164718 0.580152 0.417537
Si Si5 0.662143 0.085414 0.000001
Si Si6 0.617232 0.582896 0.141525
Si Si7 0.263088 0.824019 0.716061
O O1 0.484349 0.136000 0.357153
O O2 0.220813 0.126772 0.214174
O O3 0.579584 0.190443 0.289792
O O4 0.299490 0.249999 0.274745
O O5 0.782024 0.105203 0.500000
O O6 0.176603 0.077360 0.588301
O O7 0.055738 0.136000 0.642848
O O8 0.966508 0.000000 0.598479
O O9 0.017664 0.500000 0.157774
O O10 0.135880 0.626774 0.214172
O O11 0.904864 0.614068 0.073324
O O12 0.740365 0.592390 0.120183
O O13 0.072592 0.500000 0.401522
O O14 0.667765 0.000000 0.000006
O O15 0.500000 0.114744 0.000000
O O16 0.888433 0.114071 0.073326
O O17 0.613428 0.500000 0.157773
#
# Coordination Sequence:
#
# PCOD8095210 Si02
#       7
#     8   8   8   8   8   8   8
#     4  10  20  32  47  70  99 129 160 194 235 282
#     4   8  14  27  49  74  96 121 159 203 238 271
#     4   9  17  31  51  71  92 122 161 200 234 274
#     4   8  14  27  49  74  96 121 159 203 238 271
#     4   9  17  29  48  75 100 119 147 193 246 291
#     4   9  17  31  51  71  92 122 161 200 234 274
#     4  10  20  32  47  70  99 129 160 194 235 282
#
# _framework density 17.891431999999998
#
# number of rings (size 3 to 8) (size 9 to 14) (size 15 to 20)
#    0.000    3.000    0.000    2.143    0.000    6.857 
#    0.000    0.714    0.000    2.571    0.000    2.000 
#    0.000    0.000    0.000    0.000    0.000    0.000 
#
# Total GULP energy -347136.601947 kJ/mol
# GULP energy per Si atom -12397.735784 kJ/mol
# Density = 1.785071 g / cm^3
# Si number density = 17.891432 Si / 1000 Ang^3
#
#
#
# Elastic Constant Matrix: (Units=GPa)
#
#
# Indices 1 2 3 4 5 6 
#
# 1 53.9126 42.3050 63.1415 -0.0003 -2.9091 0.0000
# 2 42.3050 96.3779 78.3043 -0.0001 -2.7930 0.0000
# 3 63.1415 78.3043 173.8649 -0.0004 -6.3988 -0.0001
# 4 -0.0003 -0.0001 -0.0004 4.4781 -0.0003 1.5352
# 5 -2.9091 -2.7930 -6.3988 -0.0003 14.4005 -0.0001
# 6 0.0000 0.0000 -0.0001 1.5352 -0.0001 24.2489
#
#
#
# Elastic Compliance Matrix: (Units=1/GPa)
#
#
# Indices 1 2 3 4 5 6 
#
# 1 0.035959 -0.008162 -0.009327 0.000001 0.001537 0.000000
# 2 -0.008162 0.018216 -0.005257 -0.000001 -0.000452 0.000000
# 3 -0.009327 -0.005257 0.011589 0.000000 0.002246 0.000000
# 4 0.000001 -0.000001 0.000000 0.228261 0.000005 -0.014452
# 5 0.001537 -0.000452 0.002246 0.000005 0.070663 0.000000
# 6 0.000000 0.000000 0.000000 -0.014452 0.000000 0.042154
#
#
# Mechanical properties :
#
#
# Convention : Reuss Voigt Hill
#
# Bulk Modulus (GPa) = 49.32478 76.85079 63.08778
# Shear Modulus (GPa) = 10.89107 17.98580 14.43844
#
# Velocity S-wave (km/s) = 2.46992 3.17405 2.84386
# Velocity P-wave (km/s) = 5.98020 7.51532 6.79127
#
# Compressibility (1/GPa) = 0.02027379
#
# Stress axis : x y z
#
# Youngs Moduli (GPa) = 27.80908 54.89570 86.29083
#
# Poissons Ratio (x) = 0.44808 0.80479
# Poissons Ratio (y) = 0.22699 0.45359
# Poissons Ratio (z) = 0.25936 0.28856
#
# Static dielectric constant tensor:
#      x y z
#    x 3.021130 0.000000 -0.046540 
#    y 0.000000 3.162360 0.000000 
#    z -0.046540 0.000000 3.620920 
# 
# 
# High freq. dielectric constant tensor:
#      x y z
#    x 1.656160 0.000000 -0.004230 
#    y 0.000000 1.673280 0.000000 
#    z -0.004230 0.000000 1.710670 
# 
# From -- ./inp_files/300878.got.cif
#   From: 2010.06.25/outbox.cif.g09.slc.cpg/sg12_151_cif.got.tgz:300878.got - 2010.06.28 00:19:55.
