data_PCOD8095149
_publ_section_title
;
Structure prediction by ZEFSAII (Michael W. Deem and Ramdas Pophale) SiO2 
 PCOD8095149
Probable space group: C 2/M
;
_chemical_formula_sum "Si O2"
_cell_formula_units_Z 56
_cell_length_a 33.040017
_cell_length_b 8.980590
_cell_length_c 18.282400
_cell_angle_alpha 90.000000
_cell_angle_beta 36.531692
_cell_angle_gamma 90.000000
_cell_volume 3229.166127
_symmetry_space_group_name_H-M "C 2/M"
_symmetry_group_IT_number 12
_symmetry_cell_setting 'monoclinic'
loop_
_space_group_symop_operation_xyz
x,y,z
-x,y,-z
-x,-y,-z
x,-y,z
1/2+x,1/2+y,z
1/2-x,1/2+y,-z
1/2-x,1/2-y,-z
1/2+x,1/2-y,z
loop_
_atom_site_type_symbol
_atom_site_label
_atom_site_fract_x
_atom_site_fract_y
_atom_site_fract_z
Si Si1 0.644948 0.826429 0.173822
Si Si2 0.392323 0.829637 0.481135
Si Si3 0.345731 0.330112 0.415981
Si Si4 0.759914 0.833133 0.240156
Si Si5 0.789433 0.829239 0.352529
Si Si6 0.006708 0.824342 0.406500
Si Si7 0.243630 0.672299 0.899351
O O1 0.572594 0.748258 0.274407
O O2 0.688885 0.762951 0.177247
O O3 0.634545 0.000000 0.202706
O O4 0.682378 0.791521 0.043284
O O5 0.395453 0.773608 0.391981
O O6 0.316824 0.807371 0.621204
O O7 0.440709 0.729924 0.459987
O O8 0.416532 0.000000 0.448571
O O9 0.360488 0.500000 0.416891
O O10 0.267537 0.291736 0.545989
O O11 0.353065 0.307188 0.316620
O O12 0.809987 0.805805 0.237275
O O13 0.779791 0.719066 0.147536
O O14 0.768734 0.000000 0.196523
O O15 0.760960 0.000000 0.401922
O O16 0.000000 0.772929 0.500000
O O17 0.013104 0.000000 0.390219
O O18 0.263105 0.500000 0.872684
#
# Coordination Sequence:
#
# PCOD8095149 Si02
#       7
#     8   8   8   8   8   8   8
#     4  10  21  36  52  69  92 124 157 190 233 279
#     4  10  20  32  46  67  97 130 160 189 229 282
#     4   9  15  25  42  63  90 123 158 194 229 270
#     4   9  17  29  46  69  97 128 158 189 231 279
#     4   8  15  26  40  62  92 124 156 190 231 278
#     4  11  23  36  51  72  95 120 155 196 232 271
#     4  10  20  33  50  72  95 120 155 196 232 271
#
# _framework density 17.341937999999999
#
# number of rings (size 3 to 8) (size 9 to 14) (size 15 to 20)
#    0.000    2.429    0.000    3.857    0.000    8.571 
#    0.000    0.000    0.000    0.000    0.000    1.000 
#    0.000    8.000    0.000    0.000    0.000    0.000 
#
# Total GULP energy -347080.827299 kJ/mol
# GULP energy per Si atom -12395.743832 kJ/mol
# Density = 1.730247 g / cm^3
# Si number density = 17.341938 Si / 1000 Ang^3
#
#
#
# Elastic Constant Matrix: (Units=GPa)
#
#
# Indices 1 2 3 4 5 6 
#
# 1 125.3929 36.9883 32.0998 -0.0001 24.5893 0.0009
# 2 36.9883 67.1937 29.4837 0.0039 8.2112 0.0002
# 3 32.0998 29.4837 41.0979 0.0043 9.2324 -0.0011
# 4 -0.0001 0.0039 0.0043 23.6496 -0.0010 1.2753
# 5 24.5893 8.2112 9.2324 -0.0010 22.2464 -0.0001
# 6 0.0009 0.0002 -0.0011 1.2753 -0.0001 31.9166
#
#
#
# Elastic Compliance Matrix: (Units=1/GPa)
#
#
# Indices 1 2 3 4 5 6 
#
# 1 0.012210 -0.003349 -0.004831 0.000001 -0.010256 -0.000001
# 2 -0.003349 0.022697 -0.013914 -0.000001 0.001098 0.000000
# 3 -0.004831 -0.013914 0.039408 -0.000005 -0.005879 0.000002
# 4 0.000001 -0.000001 -0.000005 0.042375 0.000003 -0.001693
# 5 -0.010256 0.001098 -0.005879 0.000003 0.058321 0.000000
# 6 -0.000001 0.000000 0.000002 -0.001693 0.000000 0.031399
#
#
# Mechanical properties :
#
#
# Convention : Reuss Voigt Hill
#
# Bulk Modulus (GPa) = 33.19139 47.86979 40.53059
# Shear Modulus (GPa) = 19.18351 24.57004 21.87677
#
# Velocity S-wave (km/s) = 3.32955 3.76812 3.55561
# Velocity P-wave (km/s) = 5.82771 6.82606 6.34654
#
# Compressibility (1/GPa) = 0.03012830
#
# Stress axis : x y z
#
# Youngs Moduli (GPa) = 81.89700 44.05931 25.37556
#
# Poissons Ratio (x) = 0.14753 0.12259
# Poissons Ratio (y) = 0.27423 0.35307
# Poissons Ratio (z) = 0.39564 0.61304
#
# Static dielectric constant tensor:
#      x y z
#    x 3.574550 -0.000010 0.285240 
#    y -0.000010 3.323980 0.000010 
#    z 0.285240 0.000010 2.844790 
# 
# 
# High freq. dielectric constant tensor:
#      x y z
#    x 1.682580 0.000000 0.025500 
#    y 0.000000 1.684290 0.000000 
#    z 0.025500 0.000000 1.613590 
# 
# From -- ./inp_files/295107.got.cif
#   From: 2010.06.25/outbox.cif.g09.slc.cpg/sg12_148_cif.got.tgz:295107.got - 2010.06.28 00:19:55.
