data_PCOD8095827
_publ_section_title
;
Structure prediction by ZEFSAII (Michael W. Deem and Ramdas Pophale) SiO2 
 PCOD8095827
Probable space group: C 2/M
;
_chemical_formula_sum "Si O2"
_cell_formula_units_Z 56
_cell_length_a 27.566338
_cell_length_b 8.768256
_cell_length_c 23.863831
_cell_angle_alpha 90.000000
_cell_angle_beta 29.999971
_cell_angle_gamma 90.000000
_cell_volume 2884.045358
_symmetry_space_group_name_H-M "C 2/M"
_symmetry_group_IT_number 12
_symmetry_cell_setting 'monoclinic'
loop_
_space_group_symop_operation_xyz
x,y,z
-x,y,-z
-x,-y,-z
x,-y,z
1/2+x,1/2+y,z
1/2-x,1/2+y,-z
1/2-x,1/2-y,-z
1/2+x,1/2-y,z
loop_
_atom_site_type_symbol
_atom_site_label
_atom_site_fract_x
_atom_site_fract_y
_atom_site_fract_z
Si Si1 0.354269 0.319624 0.906203
Si Si2 0.855040 0.818209 0.240333
Si Si3 0.571216 0.818745 0.381175
Si Si4 0.430352 0.318455 0.949377
Si Si5 0.286389 0.318010 0.188790
Si Si6 0.714563 0.820165 0.478059
Si Si7 0.505537 0.820077 0.324537
O O1 0.344747 0.500000 0.916335
O O2 0.394074 0.258227 0.925708
O O3 0.427673 0.269554 0.785031
O O4 0.250000 0.250000 0.000000
O O5 0.821452 0.755080 0.213695
O O6 0.781065 0.756389 0.361233
O O7 0.961993 0.754391 0.146929
O O8 0.855041 0.000000 0.239521
O O9 0.500000 0.751705 0.500000
O O10 0.679085 0.754290 0.283492
O O11 0.533384 0.765087 0.358742
O O12 0.571983 0.000000 0.383924
O O13 0.431557 0.500000 0.949325
O O14 0.358711 0.254864 0.068888
O O15 0.286177 0.500000 0.188775
O O16 0.750000 0.750000 0.500000
O O17 0.604680 0.771263 0.576175
O O18 0.724928 0.000000 0.471841
O O19 0.521984 0.000000 0.300554
#
# Coordination Sequence:
#
# PCOD8095827 Si02
#       7
#     8   8   8   8   8   8   8
#     4  11  22  36  54  76 104 137 172 210 254 305
#     4   9  16  27  44  69 100 130 162 202 251 302
#     4   9  16  27  45  70 100 132 167 212 264 310
#     4   9  17  28  44  68  98 130 163 204 253 303
#     4   9  15  24  41  66  96 127 159 201 254 306
#     4  10  20  33  50  73 102 136 172 210 251 300
#     4  10  20  34  52  76 105 135 171 214 260 309
#
# _framework density 19.417171
#
# number of rings (size 3 to 8) (size 9 to 14) (size 15 to 20)
#    0.000    2.429    0.000    3.429    0.000    9.143 
#    0.000    0.000    0.000    0.429    0.000    7.000 
#    0.000   13.714    0.000    0.000    0.000    0.000 
#
# Total GULP energy -347230.521535 kJ/mol
# GULP energy per Si atom -12401.090055 kJ/mol
# Density = 1.937298 g / cm^3
# Si number density = 19.417171 Si / 1000 Ang^3
#
#
#
# Elastic Constant Matrix: (Units=GPa)
#
#
# Indices 1 2 3 4 5 6 
#
# 1 220.1166 24.8997 117.4589 0.0030 -2.1277 -0.0004
# 2 24.8997 16.3890 25.0273 0.0236 -0.8708 -0.0084
# 3 117.4589 25.0273 210.4965 0.0121 -0.8670 -0.0077
# 4 0.0030 0.0236 0.0121 19.3112 -0.0035 2.3545
# 5 -2.1277 -0.8708 -0.8670 -0.0035 48.4226 0.0001
# 6 -0.0004 -0.0084 -0.0077 2.3545 0.0001 22.6668
#
#
#
# Elastic Compliance Matrix: (Units=1/GPa)
#
#
# Indices 1 2 3 4 5 6 
#
# 1 0.006866 -0.005589 -0.003166 0.000008 0.000145 -0.000004
# 2 -0.005589 0.079170 -0.006290 -0.000096 0.001065 0.000037
# 3 -0.003166 -0.006290 0.007265 0.000004 -0.000122 0.000000
# 4 0.000008 -0.000096 0.000004 0.052448 0.000002 -0.005448
# 5 0.000145 0.001065 -0.000122 0.000002 0.020675 0.000000
# 6 -0.000004 0.000037 0.000000 -0.005448 0.000000 0.044683
#
#
# Mechanical properties :
#
#
# Convention : Reuss Voigt Hill
#
# Bulk Modulus (GPa) = 15.82015 86.86376 51.34195
# Shear Modulus (GPa) = 19.06449 36.72119 27.89284
#
# Velocity S-wave (km/s) = 3.13683 4.35348 3.79424
# Velocity P-wave (km/s) = 4.61354 8.37275 6.75973
#
# Compressibility (1/GPa) = 0.06321053
#
# Stress axis : x y z
#
# Youngs Moduli (GPa) = 145.63882 12.63107 137.64864
#
# Poissons Ratio (x) = 0.07059 0.43584
# Poissons Ratio (y) = 0.81397 0.86580
# Poissons Ratio (z) = 0.46114 0.07945
#
# Static dielectric constant tensor:
#      x y z
#    x 3.819580 -0.000010 -0.007300 
#    y -0.000010 2.922000 0.000020 
#    z -0.007300 0.000020 3.856880 
# 
# 
# High freq. dielectric constant tensor:
#      x y z
#    x 1.778070 0.000000 -0.000660 
#    y 0.000000 1.685770 0.000000 
#    z -0.000660 0.000000 1.778780 
# 
# From -- ./inp_files/351609.got.cif
#   From: 2010.06.25/outbox.cif.g09.slc.cpg/sg12_176_cif.got.tgz:351609.got - 2010.06.28 00:19:55.
