data_PCOD8095406
_publ_section_title
;
Structure prediction by ZEFSAII (Michael W. Deem and Ramdas Pophale) SiO2 
 PCOD8095406
Probable space group: C 2/M
;
_chemical_formula_sum "Si O2"
_cell_formula_units_Z 52
_cell_length_a 27.069053
_cell_length_b 9.354970
_cell_length_c 10.981951
_cell_angle_alpha 90.000000
_cell_angle_beta 101.837171
_cell_angle_gamma 90.000000
_cell_volume 2721.822921
_symmetry_space_group_name_H-M "C 2/M"
_symmetry_group_IT_number 12
_symmetry_cell_setting 'monoclinic'
loop_
_space_group_symop_operation_xyz
x,y,z
-x,y,-z
-x,-y,-z
x,-y,z
1/2+x,1/2+y,z
1/2-x,1/2+y,-z
1/2-x,1/2-y,-z
1/2+x,1/2-y,z
loop_
_atom_site_type_symbol
_atom_site_label
_atom_site_fract_x
_atom_site_fract_y
_atom_site_fract_z
Si Si1 0.117910 0.830436 0.152124
Si Si2 0.311966 0.337762 0.420666
Si Si3 0.219342 0.162047 0.316350
Si Si4 0.026332 0.838013 0.256533
Si Si5 0.000000 0.261215 0.500000
Si Si6 0.582026 0.330244 0.868380
Si Si7 0.395605 0.160454 0.350449
O O1 0.173538 0.772643 0.213031
O O2 0.076092 0.762822 0.224080
O O3 0.119500 0.000000 0.168181
O O4 0.104712 0.784363 0.008748
O O5 0.319544 0.500000 0.377686
O O6 0.267585 0.263081 0.319806
O O7 0.298289 0.336427 0.554076
O O8 0.363264 0.247419 0.433069
O O9 0.233350 0.000000 0.284442
O O10 0.023088 0.832025 0.401494
O O11 0.975955 0.776242 0.167737
O O12 0.030301 0.000000 0.216865
O O13 0.953865 0.353137 0.423172
O O14 0.586289 0.500000 0.846092
O O15 0.612089 0.245675 0.779490
O O16 0.374666 0.000000 0.325084
#
# Coordination Sequence:
#
# PCOD8095406 Si02
#       7
#     8   8   8   8   4   8   8
#     4   9  16  29  51  77 104 135 172 211 251 298
#     4  10  20  35  55  79 105 132 167 210 256 304
#     4   9  18  33  54  79 106 134 166 208 256 305
#     4   9  16  27  48  79 110 137 167 208 253 297
#     4  10  20  32  50  76 107 138 169 202 247 308
#     4   9  18  32  51  75 103 136 174 212 250 297
#     4  11  22  36  53  73 103 138 170 208 255 303
#
# _framework density 19.104842000000001
#
# number of rings (size 3 to 8) (size 9 to 14) (size 15 to 20)
#    0.000    2.462    0.000    2.769    0.000    5.538 
#    0.000    1.538    0.000    9.231    0.000    0.000 
#    0.000    0.000    0.000    0.000    0.000    0.000 
#
# Total GULP energy -322259.789022 kJ/mol
# GULP energy per Si atom -12394.607270 kJ/mol
# Density = 1.906136 g / cm^3
# Si number density = 19.104842 Si / 1000 Ang^3
#
#
#
# Elastic Constant Matrix: (Units=GPa)
#
#
# Indices 1 2 3 4 5 6 
#
# 1 84.8756 39.3353 33.4468 0.0000 11.3180 0.0000
# 2 39.3353 85.7962 19.9766 0.0000 0.6752 0.0000
# 3 33.4468 19.9766 90.1031 0.0000 21.4771 0.0000
# 4 0.0000 0.0000 0.0000 13.8637 0.0000 -0.4056
# 5 11.3180 0.6752 21.4771 0.0000 28.6407 0.0000
# 6 0.0000 0.0000 0.0000 -0.4056 0.0000 23.6150
#
#
#
# Elastic Compliance Matrix: (Units=1/GPa)
#
#
# Indices 1 2 3 4 5 6 
#
# 1 0.016981 -0.006843 -0.003927 0.000000 -0.003604 0.000000
# 2 -0.006843 0.015155 -0.001680 0.000000 0.003606 0.000000
# 3 -0.003927 -0.001680 0.015281 0.000000 -0.009867 0.000000
# 4 0.000000 0.000000 0.000000 0.072167 0.000000 0.001240
# 5 -0.003604 0.003606 -0.009867 0.000000 0.043654 0.000000
# 6 0.000000 0.000000 0.000000 0.001240 0.000000 0.042367
#
#
# Mechanical properties :
#
#
# Convention : Reuss Voigt Hill
#
# Bulk Modulus (GPa) = 44.40913 49.58805 46.99859
# Shear Modulus (GPa) = 21.00745 24.42497 22.71621
#
# Velocity S-wave (km/s) = 3.31960 3.57945 3.45197
# Velocity P-wave (km/s) = 6.16347 6.56471 6.36725
#
# Compressibility (1/GPa) = 0.02251789
#
# Stress axis : x y z
#
# Youngs Moduli (GPa) = 58.88767 65.98292 65.44266
#
# Poissons Ratio (x) = 0.45150 0.25702
# Poissons Ratio (y) = 0.40295 0.10992
# Poissons Ratio (z) = 0.23128 0.11083
#
# Static dielectric constant tensor:
#      x y z
#    x 3.694190 0.000000 0.112870 
#    y 0.000000 3.214830 0.000000 
#    z 0.112870 0.000000 3.423160 
# 
# 
# High freq. dielectric constant tensor:
#      x y z
#    x 1.749090 0.000000 0.006200 
#    y 0.000000 1.706660 0.000000 
#    z 0.006200 0.000000 1.732750 
# 
# From -- ./inp_files/180084.got.cif
#   From: 2010.06.25/outbox.cif.g09.slc.cpg/sg12_91_cif.got.tgz:180084.got - 2010.06.28 00:19:55.
