data_PCOD8095543
_publ_section_title
;
Structure prediction by ZEFSAII (Michael W. Deem and Ramdas Pophale) SiO2 
 PCOD8095543
Probable space group: C 2/M
;
_chemical_formula_sum "Si O2"
_cell_formula_units_Z 56
_cell_length_a 11.725142
_cell_length_b 18.416162
_cell_length_c 15.080123
_cell_angle_alpha 90.000000
_cell_angle_beta 58.235954
_cell_angle_gamma 90.000000
_cell_volume 2768.567218
_symmetry_space_group_name_H-M "C 2/M"
_symmetry_group_IT_number 12
_symmetry_cell_setting 'monoclinic'
loop_
_space_group_symop_operation_xyz
x,y,z
-x,y,-z
-x,-y,-z
x,-y,z
1/2+x,1/2+y,z
1/2-x,1/2+y,-z
1/2-x,1/2-y,-z
1/2+x,1/2-y,z
loop_
_atom_site_type_symbol
_atom_site_label
_atom_site_fract_x
_atom_site_fract_y
_atom_site_fract_z
Si Si1 0.535459 0.315916 0.709672
Si Si2 0.617575 0.414396 0.521010
Si Si3 0.137360 0.661175 0.669928
Si Si4 0.898828 0.162202 0.119636
Si Si5 0.368985 0.914594 0.805616
Si Si6 0.762165 0.311773 0.183822
Si Si7 0.857881 0.581587 0.011461
O O1 0.579933 0.384353 0.633001
O O2 0.635742 0.247999 0.654039
O O3 0.529509 0.340526 0.814503
O O4 0.390292 0.287501 0.737113
O O5 0.500000 0.395454 0.500000
O O6 0.641253 0.500000 0.518169
O O7 0.754677 0.375961 0.437144
O O8 0.177889 0.647270 0.755329
O O9 0.993278 0.625484 0.707469
O O10 0.772290 0.108298 0.178733
O O11 0.850849 0.243557 0.117986
O O12 0.000000 0.137136 0.000000
O O13 0.390381 0.000000 0.786009
O O14 0.369368 0.889282 0.907402
O O15 0.754460 0.368552 0.106428
O O16 0.801285 0.500000 0.035833
O O17 0.000000 0.587490 0.000000
#
# Coordination Sequence:
#
# PCOD8095543 Si02
#       7
#     8   8   8   8   8   8   8
#     4  11  24  42  65  97 130 168 214 268 320 383
#     4  11  24  43  69  98 127 163 211 274 333 380
#     4  11  22  41  66  96 127 165 212 266 324 380
#     4  11  25  41  64  94 131 179 217 256 315 383
#     4  11  23  40  61  90 131 174 217 261 315 382
#     4  11  21  37  64  95 128 164 214 268 315 378
#     4  10  20  32  54  91 128 164 207 263 318 368
#
# _framework density 20.227069
#
# number of rings (size 3 to 8) (size 9 to 14) (size 15 to 20)
#    0.000    1.143    4.286    2.143    2.000    3.143 
#    0.000    0.714    0.000    1.714    0.000    0.000 
#    0.000    0.000    0.000    0.000    0.000    0.000 
#
# Total GULP energy -347319.575646 kJ/mol
# GULP energy per Si atom -12404.270559 kJ/mol
# Density = 2.018103 g / cm^3
# Si number density = 20.227069 Si / 1000 Ang^3
#
#
#
# Elastic Constant Matrix: (Units=GPa)
#
#
# Indices 1 2 3 4 5 6 
#
# 1 95.7255 28.1958 36.6480 0.0000 -14.0716 0.0000
# 2 28.1958 67.4588 41.8862 0.0000 6.5802 0.0000
# 3 36.6480 41.8862 99.0103 0.0000 -7.3264 0.0000
# 4 0.0000 0.0000 0.0000 34.9046 0.0000 -2.1572
# 5 -14.0716 6.5802 -7.3264 0.0000 29.2913 0.0000
# 6 0.0000 0.0000 0.0000 -2.1572 0.0000 30.3138
#
#
#
# Elastic Compliance Matrix: (Units=1/GPa)
#
#
# Indices 1 2 3 4 5 6 
#
# 1 0.013927 -0.004949 -0.002531 0.000000 0.007169 0.000000
# 2 -0.004949 0.023273 -0.008738 0.000000 -0.009791 0.000000
# 3 -0.002531 -0.008738 0.015068 0.000000 0.004516 0.000000
# 4 0.000000 0.000000 0.000000 0.028776 0.000000 0.002048
# 5 0.007169 -0.009791 0.004516 0.000000 0.040913 0.000000
# 6 0.000000 0.000000 0.000000 0.002048 0.000000 0.033134
#
#
# Mechanical properties :
#
#
# Convention : Reuss Voigt Hill
#
# Bulk Modulus (GPa) = 50.42478 52.85051 51.63765
# Shear Modulus (GPa) = 25.75482 29.26626 27.51054
#
# Velocity S-wave (km/s) = 3.57218 3.80792 3.69193
# Velocity P-wave (km/s) = 6.48054 6.74678 6.61500
#
# Compressibility (1/GPa) = 0.01983152
#
# Stress axis : x y z
#
# Youngs Moduli (GPa) = 71.80262 42.96762 66.36718
#
# Poissons Ratio (x) = 0.21265 0.16796
# Poissons Ratio (y) = 0.35535 0.57995
# Poissons Ratio (z) = 0.18172 0.37547
#
# Static dielectric constant tensor:
#      x y z
#    x 3.714810 0.000000 -0.005710 
#    y 0.000000 3.621910 0.000000 
#    z -0.005710 0.000000 3.542310 
# 
# 
# High freq. dielectric constant tensor:
#      x y z
#    x 1.794210 0.000000 -0.006780 
#    y 0.000000 1.790810 0.000000 
#    z -0.006780 0.000000 1.780240 
# 
# From -- ./inp_files/133877.got.cif
#   From: 2010.06.25/outbox.cif.g09.slc.cpg/sg12_67_cif.got.tgz:133877.got - 2010.06.28 00:19:55.
