data_PCOD8095211
_publ_section_title
;
Structure prediction by ZEFSAII (Michael W. Deem and Ramdas Pophale) SiO2 
 PCOD8095211
Probable space group: C 2/M
;
_chemical_formula_sum "Si O2"
_cell_formula_units_Z 32
_cell_length_a 22.888456
_cell_length_b 9.103894
_cell_length_c 25.218994
_cell_angle_alpha 90.000000
_cell_angle_beta 157.412738
_cell_angle_gamma 90.000000
_cell_volume 2018.387378
_symmetry_space_group_name_H-M "C 2/M"
_symmetry_group_IT_number 12
_symmetry_cell_setting 'monoclinic'
loop_
_space_group_symop_operation_xyz
x,y,z
-x,y,-z
-x,-y,-z
x,-y,z
1/2+x,1/2+y,z
1/2-x,1/2+y,-z
1/2-x,1/2-y,-z
1/2+x,1/2-y,z
loop_
_atom_site_type_symbol
_atom_site_label
_atom_site_fract_x
_atom_site_fract_y
_atom_site_fract_z
Si Si1 0.721506 0.834068 0.529990
Si Si2 0.766917 0.170789 0.360009
Si Si3 0.839065 0.670403 0.843616
Si Si4 0.543868 0.834040 0.620776
O O1 0.750000 0.750000 0.500000
O O2 0.808346 0.751482 0.651713
O O3 0.540245 0.833585 0.391965
O O4 0.783973 0.000000 0.577609
O O5 0.664065 0.197821 0.222188
O O6 0.934049 0.241747 0.488840
O O7 0.786593 0.000000 0.389445
O O8 0.815003 0.500000 0.837121
O O9 0.707919 0.759877 0.763693
O O10 0.000000 0.728006 0.000000
O O11 0.561926 0.000000 0.614524
#
# Coordination Sequence:
#
# PCOD8095211 Si02
#       4
#     8   8   8   8
#     4   9  18  30  48  73  96 119 156 199 237 278
#     4   9  17  30  49  70  96 126 156 195 236 276
#     4  10  20  32  47  70  99 130 161 191 231 282
#     4   9  19  31  47  71  97 123 157 198 236 279
#
# _framework density 15.854241
#
# number of rings (size 3 to 8) (size 9 to 14) (size 15 to 20)
#    1.500    1.250    0.000    2.250    0.000    5.500 
#    0.000    0.000    0.000    1.500    0.000    0.000 
#    0.000    0.000    0.000    0.000    0.000    0.000 
#
# Total GULP energy -198214.414509 kJ/mol
# GULP energy per Si atom -12388.400907 kJ/mol
# Density = 1.581816 g / cm^3
# Si number density = 15.854241 Si / 1000 Ang^3
#
#
#
# Elastic Constant Matrix: (Units=GPa)
#
#
# Indices 1 2 3 4 5 6 
#
# 1 79.0778 50.0132 38.5925 -0.0039 -16.1480 -0.0010
# 2 50.0132 125.4827 53.1767 -0.0038 -8.1561 -0.0011
# 3 38.5925 53.1767 109.9941 -0.0066 -4.2744 -0.0015
# 4 -0.0039 -0.0038 -0.0066 15.2872 -0.0034 5.3362
# 5 -16.1480 -8.1561 -4.2744 -0.0034 8.9230 -0.0007
# 6 -0.0010 -0.0011 -0.0015 5.3362 -0.0007 28.8377
#
#
#
# Elastic Compliance Matrix: (Units=1/GPa)
#
#
# Indices 1 2 3 4 5 6 
#
# 1 0.027515 -0.006097 -0.005083 0.000013 0.041787 -0.000001
# 2 -0.006097 0.011818 -0.003651 -0.000001 -0.001980 0.000000
# 3 -0.005083 -0.003651 0.012383 0.000002 -0.006604 0.000000
# 4 0.000013 -0.000001 0.000002 0.069931 0.000050 -0.012940
# 5 0.041787 -0.001980 -0.006604 0.000050 0.182720 -0.000004
# 6 -0.000001 0.000000 0.000000 -0.012940 -0.000004 0.037071
#
#
# Mechanical properties :
#
#
# Convention : Reuss Voigt Hill
#
# Bulk Modulus (GPa) = 45.34072 66.45771 55.89922
# Shear Modulus (GPa) = 13.21172 22.12773 17.66972
#
# Velocity S-wave (km/s) = 2.88987 3.73996 3.34205
# Velocity P-wave (km/s) = 6.30838 7.78837 7.08711
#
# Compressibility (1/GPa) = 0.02205523
#
# Stress axis : x y z
#
# Youngs Moduli (GPa) = 36.34333 84.61869 80.75424
#
# Poissons Ratio (x) = 0.51589 0.41045
# Poissons Ratio (y) = 0.22157 0.29485
# Poissons Ratio (z) = 0.18472 0.30896
#
# Static dielectric constant tensor:
#      x y z
#    x 2.821030 0.000000 -0.033180 
#    y 0.000000 3.141320 0.000000 
#    z -0.033180 0.000000 2.735340 
# 
# 
# High freq. dielectric constant tensor:
#      x y z
#    x 1.597550 0.000000 -0.007880 
#    y 0.000000 1.628010 0.000000 
#    z -0.007880 0.000000 1.568500 
# 
# From -- ./inp_files/81855.got.cif
#   From: 2010.06.25/outbox.cif.g09.slc.cpg/sg12_41_cif.got.tgz:81855.got - 2010.06.28 00:19:55.
