data_PCOD8095596
_publ_section_title
;
Structure prediction by ZEFSAII (Michael W. Deem and Ramdas Pophale) SiO2 
 PCOD8095596
Probable space group: C 2/M
;
_chemical_formula_sum "Si O2"
_cell_formula_units_Z 56
_cell_length_a 19.259885
_cell_length_b 8.983051
_cell_length_c 23.224080
_cell_angle_alpha 90.000000
_cell_angle_beta 51.962189
_cell_angle_gamma 90.000000
_cell_volume 3164.638791
_symmetry_space_group_name_H-M "C 2/M"
_symmetry_group_IT_number 12
_symmetry_cell_setting 'monoclinic'
loop_
_space_group_symop_operation_xyz
x,y,z
-x,y,-z
-x,-y,-z
x,-y,z
1/2+x,1/2+y,z
1/2-x,1/2+y,-z
1/2-x,1/2-y,-z
1/2+x,1/2-y,z
loop_
_atom_site_type_symbol
_atom_site_label
_atom_site_fract_x
_atom_site_fract_y
_atom_site_fract_z
Si Si1 0.612824 0.674746 0.784853
Si Si2 0.421862 0.825383 0.497780
Si Si3 0.340404 0.825236 0.936599
Si Si4 0.802891 0.323355 0.654329
Si Si5 0.003083 0.326050 0.933363
Si Si6 0.951830 0.174729 0.786845
Si Si7 0.459067 0.823512 0.660819
O O1 0.619180 0.500000 0.791870
O O2 0.707372 0.743648 0.718506
O O3 0.583537 0.746569 0.859936
O O4 0.544139 0.715468 0.769817
O O5 0.500000 0.782101 0.500000
O O6 0.333769 0.761645 0.574734
O O7 0.451302 0.769763 0.419112
O O8 0.411824 0.000000 0.498123
O O9 0.410702 0.787344 0.950363
O O10 0.372403 0.757727 0.859776
O O11 0.326419 0.000000 0.935981
O O12 0.250000 0.750000 0.000000
O O13 0.796472 0.500000 0.653624
O O14 0.873006 0.280112 0.667674
O O15 0.023075 0.500000 0.921738
O O16 0.000000 0.265414 0.000000
O O17 0.956003 0.230660 0.720099
O O18 0.932735 0.000000 0.798236
O O19 0.461100 0.000000 0.672411
#
# Coordination Sequence:
#
# PCOD8095596 Si02
#       7
#     8   8   8   8   8   8   8
#     4   9  18  32  49  68  92 124 158 191 228 272
#     4   7  11  22  43  69  93 117 150 195 239 275
#     4  10  20  35  54  73  95 123 155 191 230 276
#     4   8  14  27  48  72  93 117 157 202 237 272
#     4   9  19  35  52  70  94 123 152 186 232 280
#     4  10  20  33  47  66  97 131 157 186 230 280
#     4   9  16  28  49  73  93 119 159 201 236 273
#
# _framework density 17.695544000000002
#
# number of rings (size 3 to 8) (size 9 to 14) (size 15 to 20)
#    0.000    3.143    0.000    2.571    0.000    2.571 
#    0.000    4.286    0.000    4.714    0.000    0.000 
#    0.000    0.000    0.000    0.000    0.000    0.000 
#
# Total GULP energy -346937.640989 kJ/mol
# GULP energy per Si atom -12390.630035 kJ/mol
# Density = 1.765527 g / cm^3
# Si number density = 17.695544 Si / 1000 Ang^3
#
#
#
# Elastic Constant Matrix: (Units=GPa)
#
#
# Indices 1 2 3 4 5 6 
#
# 1 63.7743 27.6693 81.6030 0.0000 -2.4083 0.0000
# 2 27.6693 42.3944 50.0859 -0.0001 -0.1820 -0.0001
# 3 81.6030 50.0859 210.0432 0.0000 -6.4745 0.0000
# 4 0.0000 -0.0001 0.0000 24.8200 0.0000 5.4528
# 5 -2.4083 -0.1820 -6.4745 0.0000 33.9612 0.0000
# 6 0.0000 -0.0001 0.0000 5.4528 0.0000 17.0398
#
#
#
# Elastic Compliance Matrix: (Units=1/GPa)
#
#
# Indices 1 2 3 4 5 6 
#
# 1 0.033495 -0.009043 -0.010849 0.000000 0.000259 0.000000
# 2 -0.009043 0.035340 -0.004957 0.000000 -0.001397 0.000000
# 3 -0.010849 -0.004957 0.010193 0.000000 0.001147 0.000000
# 4 0.000000 0.000000 0.000000 0.043337 0.000000 -0.013868
# 5 0.000259 -0.001397 0.001147 0.000000 0.029675 0.000000
# 6 0.000000 0.000000 0.000000 -0.013868 0.000000 0.063124
#
#
# Mechanical properties :
#
#
# Convention : Reuss Voigt Hill
#
# Bulk Modulus (GPa) = 34.09327 70.54756 52.32042
# Shear Modulus (GPa) = 18.20577 25.62111 21.91344
#
# Velocity S-wave (km/s) = 3.21102 3.80924 3.52285
# Velocity P-wave (km/s) = 5.74943 7.70071 6.79548
#
# Compressibility (1/GPa) = 0.02933130
#
# Stress axis : x y z
#
# Youngs Moduli (GPa) = 29.85519 28.29636 98.10582
#
# Poissons Ratio (x) = 0.25588 1.06432
# Poissons Ratio (y) = 0.26998 0.48630
# Poissons Ratio (z) = 0.32389 0.14026
#
# Static dielectric constant tensor:
#      x y z
#    x 3.191500 0.000000 -0.131650 
#    y 0.000000 2.992470 0.000000 
#    z -0.131650 0.000000 3.863410 
# 
# 
# High freq. dielectric constant tensor:
#      x y z
#    x 1.660700 0.000000 -0.001350 
#    y 0.000000 1.655160 0.000000 
#    z -0.001350 0.000000 1.708920 
# 
# From -- ./inp_files/280445.got.cif
#   From: 2010.06.25/outbox.cif.g09.slc.cpg/sg12_141_cif.got.tgz:280445.got - 2010.06.28 00:19:55.
