data_PCOD8095141
_publ_section_title
;
Structure prediction by ZEFSAII (Michael W. Deem and Ramdas Pophale) SiO2 
 PCOD8095141
Probable space group: C 2/M
;
_chemical_formula_sum "Si O2"
_cell_formula_units_Z 56
_cell_length_a 15.204468
_cell_length_b 9.263279
_cell_length_c 23.100710
_cell_angle_alpha 90.000000
_cell_angle_beta 109.559192
_cell_angle_gamma 90.000000
_cell_volume 3065.834528
_symmetry_space_group_name_H-M "C 2/M"
_symmetry_group_IT_number 12
_symmetry_cell_setting 'monoclinic'
loop_
_space_group_symop_operation_xyz
x,y,z
-x,y,-z
-x,-y,-z
x,-y,z
1/2+x,1/2+y,z
1/2-x,1/2+y,-z
1/2-x,1/2-y,-z
1/2+x,1/2-y,z
loop_
_atom_site_type_symbol
_atom_site_label
_atom_site_fract_x
_atom_site_fract_y
_atom_site_fract_z
Si Si1 0.335226 0.671752 0.712528
Si Si2 0.345732 0.671066 0.359908
Si Si3 0.555996 0.671179 0.375321
Si Si4 0.872350 0.168523 0.071279
Si Si5 0.574594 0.671108 0.148007
Si Si6 0.100511 0.829222 0.506696
Si Si7 0.303146 0.331507 0.930258
O O1 0.322784 0.500000 0.707136
O O2 0.233348 0.743752 0.692198
O O3 0.396666 0.732753 0.672359
O O4 0.388476 0.722490 0.781799
O O5 0.332352 0.500000 0.348742
O O6 0.447701 0.719974 0.358405
O O7 0.332263 0.716999 0.425340
O O8 0.556993 0.500000 0.372668
O O9 0.619986 0.724371 0.444897
O O10 0.794637 0.250192 0.090764
O O11 0.970769 0.231071 0.114924
O O12 0.861837 0.000000 0.082016
O O13 0.862922 0.200789 0.000976
O O14 0.571968 0.500000 0.142738
O O15 0.640695 0.731510 0.111939
O O16 0.000000 0.765157 0.500000
O O17 0.095213 0.000000 0.504943
O O18 0.282157 0.500000 0.919200
#
# Coordination Sequence:
#
# PCOD8095141 Si02
#       7
#     8   8   8   8   8   8   8
#     4  10  20  32  46  67  94 124 157 188 223 271
#     4   9  17  31  50  69  90 118 154 194 232 272
#     4   8  15  29  48  67  89 120 155 189 227 275
#     4   9  17  31  52  74  93 118 155 192 224 266
#     4   9  18  32  48  66  93 129 159 181 218 277
#     4   7  11  23  45  68  86 111 150 190 228 272
#     4   9  17  31  51  73  95 119 150 190 233 270
#
# _framework density 18.265825
#
# number of rings (size 3 to 8) (size 9 to 14) (size 15 to 20)
#    0.000    3.286    0.000    2.143    0.000    3.429 
#    0.000    4.286    0.000    7.286    0.000    0.000 
#    0.000    0.000    0.000    0.000    0.000    0.000 
#
# Total GULP energy -346901.234092 kJ/mol
# GULP energy per Si atom -12389.329789 kJ/mol
# Density = 1.822425 g / cm^3
# Si number density = 18.265825 Si / 1000 Ang^3
#
#
#
# Elastic Constant Matrix: (Units=GPa)
#
#
# Indices 1 2 3 4 5 6 
#
# 1 98.7153 23.5486 57.7271 0.0000 6.0288 0.0000
# 2 23.5486 20.5720 23.0728 0.0000 4.8750 0.0000
# 3 57.7271 23.0728 113.7712 0.0000 5.6694 0.0000
# 4 0.0000 0.0000 0.0000 16.6804 0.0000 4.5282
# 5 6.0288 4.8750 5.6694 0.0000 23.3706 0.0000
# 6 0.0000 0.0000 0.0000 4.5282 0.0000 25.1453
#
#
#
# Elastic Compliance Matrix: (Units=1/GPa)
#
#
# Indices 1 2 3 4 5 6 
#
# 1 0.016503 -0.012231 -0.005879 0.000000 -0.000280 0.000000
# 2 -0.012231 0.074459 -0.008379 0.000000 -0.010344 0.000000
# 3 -0.005879 -0.008379 0.013472 0.000000 -0.000004 0.000000
# 4 0.000000 0.000000 0.000000 0.063032 0.000000 -0.011351
# 5 -0.000280 -0.010344 -0.000004 0.000000 0.045020 0.000000
# 6 0.000000 0.000000 0.000000 -0.011351 0.000000 0.041813
#
#
# Mechanical properties :
#
#
# Convention : Reuss Voigt Hill
#
# Bulk Modulus (GPa) = 19.43398 49.08393 34.25895
# Shear Modulus (GPa) = 15.41173 21.61993 18.51583
#
# Velocity S-wave (km/s) = 2.90788 3.44412 3.18730
# Velocity P-wave (km/s) = 4.68370 6.53807 5.68697
#
# Compressibility (1/GPa) = 0.05145627
#
# Stress axis : x y z
#
# Youngs Moduli (GPa) = 60.59545 13.43022 74.22734
#
# Poissons Ratio (x) = 0.16426 0.43640
# Poissons Ratio (y) = 0.74112 0.62196
# Poissons Ratio (z) = 0.35625 0.11253
#
# Static dielectric constant tensor:
#      x y z
#    x 3.428970 0.000000 -0.131360 
#    y 0.000000 2.841260 0.000000 
#    z -0.131360 0.000000 3.679090 
# 
# 
# High freq. dielectric constant tensor:
#      x y z
#    x 1.705870 0.000000 -0.002530 
#    y 0.000000 1.654530 0.000000 
#    z -0.002530 0.000000 1.717760 
# 
# From -- ./inp_files/309446.got.cif
#   From: 2010.06.25/outbox.cif.g09.slc.cpg/sg12_155_cif.got.tgz:309446.got - 2010.06.28 00:19:55.
