data_PCOD8095356
_publ_section_title
;
Structure prediction by ZEFSAII (Michael W. Deem and Ramdas Pophale) SiO2 
 PCOD8095356
Probable space group: C 2/M
;
_chemical_formula_sum "Si O2"
_cell_formula_units_Z 48
_cell_length_a 29.735955
_cell_length_b 9.055877
_cell_length_c 18.405561
_cell_angle_alpha 90.000000
_cell_angle_beta 30.779323
_cell_angle_gamma 90.000000
_cell_volume 2536.324173
_symmetry_space_group_name_H-M "C 2/M"
_symmetry_group_IT_number 12
_symmetry_cell_setting 'monoclinic'
loop_
_space_group_symop_operation_xyz
x,y,z
-x,y,-z
-x,-y,-z
x,-y,z
1/2+x,1/2+y,z
1/2-x,1/2+y,-z
1/2-x,1/2-y,-z
1/2+x,1/2-y,z
loop_
_atom_site_type_symbol
_atom_site_label
_atom_site_fract_x
_atom_site_fract_y
_atom_site_fract_z
Si Si1 0.937902 0.328366 0.675307
Si Si2 0.508637 0.171869 0.726777
Si Si3 0.316084 0.329512 0.567791
Si Si4 0.613377 0.671121 0.380393
Si Si5 0.480961 0.328984 0.909944
Si Si6 0.359379 0.329347 0.210763
O O1 0.929447 0.500000 0.668178
O O2 0.862801 0.239108 0.732880
O O3 0.934821 0.300992 0.766412
O O4 0.031550 0.266355 0.520896
O O5 0.599532 0.253629 0.584414
O O6 0.465940 0.231039 0.859798
O O7 0.530525 0.000000 0.703325
O O8 0.322231 0.500000 0.538005
O O9 0.312027 0.308312 0.661554
O O10 0.228050 0.264390 0.655688
O O11 0.588128 0.500000 0.407091
O O12 0.469220 0.500000 0.906168
O O13 0.578028 0.300861 0.807324
O O14 0.408789 0.279363 0.068895
O O15 0.333383 0.500000 0.241189
#
# Coordination Sequence:
#
# PCOD8095356 Si02
#       6
#     8   8   8   8   8   8
#     4   9  16  26  42  66  95 126 159 194 234 281
#     4  10  20  32  49  75 103 130 162 201 243 286
#     4  10  20  32  49  75 103 130 162 201 243 286
#     4   9  16  26  42  66  95 126 159 194 234 281
#     4   9  19  36  55  73  95 126 163 201 244 295
#     4   9  19  36  55  73  95 126 163 201 244 295
#
# _framework density 18.925027
#
# number of rings (size 3 to 8) (size 9 to 14) (size 15 to 20)
#    0.000    2.667    0.000    4.000    0.000    6.000 
#    0.000    1.667    0.000    1.000    0.000    0.000 
#    0.000    0.000    0.000    0.000    0.000    0.000 
#
# Total GULP energy -297403.530620 kJ/mol
# GULP energy per Si atom -12391.813776 kJ/mol
# Density = 1.888195 g / cm^3
# Si number density = 18.925027 Si / 1000 Ang^3
#
#
#
# Elastic Constant Matrix: (Units=GPa)
#
#
# Indices 1 2 3 4 5 6 
#
# 1 53.3849 17.3643 1.4047 -0.0050 25.6101 0.0050
# 2 17.3643 62.4102 7.6699 -0.0069 11.4480 0.0104
# 3 1.4047 7.6699 21.4208 -0.0059 11.3070 0.0069
# 4 -0.0050 -0.0069 -0.0059 24.3134 0.0049 3.0115
# 5 25.6101 11.4480 11.3070 0.0049 25.9171 -0.0043
# 6 0.0050 0.0104 0.0069 3.0115 -0.0043 33.4878
#
#
#
# Elastic Compliance Matrix: (Units=1/GPa)
#
#
# Indices 1 2 3 4 5 6 
#
# 1 0.047023 -0.006309 0.028883 0.000029 -0.056280 -0.000021
# 2 -0.006309 0.018415 -0.006726 0.000003 0.001035 -0.000003
# 3 0.028883 -0.006726 0.078855 0.000039 -0.059973 -0.000030
# 4 0.000029 0.000003 0.000039 0.041593 -0.000055 -0.003740
# 5 -0.056280 0.001035 -0.059973 -0.000055 0.119906 0.000041
# 6 -0.000021 -0.000003 -0.000030 -0.003740 0.000041 0.030198
#
#
# Mechanical properties :
#
#
# Convention : Reuss Voigt Hill
#
# Bulk Modulus (GPa) = 5.68217 21.12152 13.40185
# Shear Modulus (GPa) = 13.77573 24.12880 18.95227
#
# Velocity S-wave (km/s) = 2.70091 3.57454 3.16799
# Velocity P-wave (km/s) = 3.56869 5.31238 4.52531
#
# Compressibility (1/GPa) = 0.17598911
#
# Stress axis : x y z
#
# Youngs Moduli (GPa) = 21.26607 54.30280 12.68156
#
# Poissons Ratio (x) = 0.34261 -0.36629
# Poissons Ratio (y) = 0.13417 0.08530
# Poissons Ratio (z) = -0.61423 0.36525
#
# Static dielectric constant tensor:
#      x y z
#    x 4.303300 0.000000 0.280860 
#    y 0.000000 3.475800 0.000010 
#    z 0.280860 0.000010 2.950240 
# 
# 
# High freq. dielectric constant tensor:
#      x y z
#    x 1.752490 0.000000 0.016560 
#    y 0.000000 1.744360 0.000000 
#    z 0.016560 0.000000 1.679960 
# 
# From -- ./inp_files/123532.got.cif
#   From: 2010.06.25/outbox.cif.g09.slc.cpg/sg12_62_cif.got.tgz:123532.got - 2010.06.28 00:19:55.
