data_PCOD8095213
_publ_section_title
;
Structure prediction by ZEFSAII (Michael W. Deem and Ramdas Pophale) SiO2 
 PCOD8095213
Probable space group: C 2/M
;
_chemical_formula_sum "Si O2"
_cell_formula_units_Z 56
_cell_length_a 25.332958
_cell_length_b 9.361946
_cell_length_c 13.901554
_cell_angle_alpha 90.000000
_cell_angle_beta 105.015598
_cell_angle_gamma 90.000000
_cell_volume 3184.398912
_symmetry_space_group_name_H-M "C 2/M"
_symmetry_group_IT_number 12
_symmetry_cell_setting 'monoclinic'
loop_
_space_group_symop_operation_xyz
x,y,z
-x,y,-z
-x,-y,-z
x,-y,z
1/2+x,1/2+y,z
1/2-x,1/2+y,-z
1/2-x,1/2-y,-z
1/2+x,1/2-y,z
loop_
_atom_site_type_symbol
_atom_site_label
_atom_site_fract_x
_atom_site_fract_y
_atom_site_fract_z
Si Si1 0.397483 0.834524 0.484590
Si Si2 0.631449 0.336174 0.242140
Si Si3 0.039308 0.665494 0.292208
Si Si4 0.805228 0.165226 0.532905
Si Si5 0.679764 0.167608 0.887960
Si Si6 0.921622 0.331107 0.283535
Si Si7 0.302992 0.332861 0.913609
O O1 0.441071 0.808545 0.589327
O O2 0.345412 0.734458 0.474529
O O3 0.423108 0.784692 0.395688
O O4 0.378646 0.000000 0.472881
O O5 0.614281 0.500000 0.222401
O O6 0.575736 0.248596 0.231536
O O7 0.671914 0.313775 0.349712
O O8 0.663647 0.280637 0.163776
O O9 0.043136 0.500000 0.266450
O O10 0.977030 0.724081 0.257877
O O11 0.750000 0.250000 0.500000
O O12 0.796057 0.000000 0.503030
O O13 0.632493 0.227629 0.795184
O O14 0.738659 0.201524 0.868204
O O15 0.672920 0.000000 0.904026
O O16 0.672946 0.247349 0.985457
O O17 0.921643 0.500000 0.278536
O O18 0.311413 0.500000 0.936670
#
# Coordination Sequence:
#
# PCOD8095213 Si02
#       7
#     8   8   8   8   8   8   8
#     4   9  17  30  50  72 100 134 165 198 240 287
#     4   9  19  34  52  70  95 134 167 194 244 301
#     4   9  17  31  50  76 102 128 166 206 237 282
#     4  10  20  32  47  71 102 131 165 202 239 290
#     4   9  18  32  52  75  96 123 161 205 249 293
#     4   9  17  30  52  76 100 130 166 202 245 294
#     4   9  18  34  53  71  95 126 162 202 248 298
#
# _framework density 17.585737000000002
#
# number of rings (size 3 to 8) (size 9 to 14) (size 15 to 20)
#    0.000    2.857    0.000    0.857    2.000    2.857 
#    0.000    2.857    0.000    7.714    0.000    0.000 
#    0.000    0.000    0.000    0.000    0.000    0.000 
#
# Total GULP energy -347155.937770 kJ/mol
# GULP energy per Si atom -12398.426349 kJ/mol
# Density = 1.754571 g / cm^3
# Si number density = 17.585737 Si / 1000 Ang^3
#
#
#
# Elastic Constant Matrix: (Units=GPa)
#
#
# Indices 1 2 3 4 5 6 
#
# 1 154.4135 50.9852 71.2960 0.0000 -12.5154 0.0000
# 2 50.9852 52.7177 30.6222 0.0000 -4.7505 0.0000
# 3 71.2960 30.6222 79.4396 0.0000 -12.3099 0.0000
# 4 0.0000 0.0000 0.0000 24.4682 0.0000 -2.7117
# 5 -12.5154 -4.7505 -12.3099 0.0000 31.3058 0.0000
# 6 0.0000 0.0000 0.0000 -2.7117 0.0000 28.0186
#
#
#
# Elastic Compliance Matrix: (Units=1/GPa)
#
#
# Indices 1 2 3 4 5 6 
#
# 1 0.013012 -0.007474 -0.008696 0.000000 0.000648 0.000000
# 2 -0.007474 0.028735 -0.004426 0.000000 -0.000368 0.000000
# 3 -0.008696 -0.004426 0.022848 0.000000 0.004836 0.000000
# 4 0.000000 0.000000 0.000000 0.041312 0.000000 0.003998
# 5 0.000648 -0.000368 0.004836 0.000000 0.034048 0.000000
# 6 0.000000 0.000000 0.000000 0.003998 0.000000 0.036078
#
#
# Mechanical properties :
#
#
# Convention : Reuss Voigt Hill
#
# Bulk Modulus (GPa) = 42.72987 65.81972 54.27480
# Shear Modulus (GPa) = 22.21954 25.66970 23.94462
#
# Velocity S-wave (km/s) = 3.55843 3.82473 3.69398
# Velocity P-wave (km/s) = 6.42137 7.55076 7.00885
#
# Compressibility (1/GPa) = 0.02340283
#
# Stress axis : x y z
#
# Youngs Moduli (GPa) = 76.85287 34.80042 43.76670
#
# Poissons Ratio (x) = 0.26011 0.38061
# Poissons Ratio (y) = 0.57443 0.19370
# Poissons Ratio (z) = 0.66834 0.15401
#
# Static dielectric constant tensor:
#      x y z
#    x 3.930310 0.000000 -0.129730 
#    y 0.000000 3.103440 0.000000 
#    z -0.129730 0.000000 3.333440 
# 
# 
# High freq. dielectric constant tensor:
#      x y z
#    x 1.689510 0.000000 -0.002960 
#    y 0.000000 1.662020 0.000000 
#    z -0.002960 0.000000 1.666310 
# 
# From -- ./inp_files/243272.got.cif
#   From: 2010.06.25/outbox.cif.g09.slc.cpg/sg12_122_cif.got.tgz:243272.got - 2010.06.28 00:19:55.
