data_PCOD8095591
_publ_section_title
;
Structure prediction by ZEFSAII (Michael W. Deem and Ramdas Pophale) SiO2 
 PCOD8095591
Probable space group: C 2/M
;
_chemical_formula_sum "Si O2"
_cell_formula_units_Z 56
_cell_length_a 27.715292
_cell_length_b 9.137746
_cell_length_c 18.560298
_cell_angle_alpha 90.000000
_cell_angle_beta 141.063450
_cell_angle_gamma 90.000000
_cell_volume 2954.069451
_symmetry_space_group_name_H-M "C 2/M"
_symmetry_group_IT_number 12
_symmetry_cell_setting 'monoclinic'
loop_
_space_group_symop_operation_xyz
x,y,z
-x,y,-z
-x,-y,-z
x,-y,z
1/2+x,1/2+y,z
1/2-x,1/2+y,-z
1/2-x,1/2-y,-z
1/2+x,1/2-y,z
loop_
_atom_site_type_symbol
_atom_site_label
_atom_site_fract_x
_atom_site_fract_y
_atom_site_fract_z
Si Si1 0.418748 0.826115 0.557822
Si Si2 0.331375 0.669360 0.340276
Si Si3 0.934908 0.167906 0.327474
Si Si4 0.812351 0.329518 0.915672
Si Si5 0.965214 0.165604 0.748093
Si Si6 0.519442 0.828843 0.941967
Si Si7 0.360517 0.661201 0.101268
O O1 0.346125 0.766286 0.428225
O O2 0.495772 0.778371 0.605630
O O3 0.413760 0.756552 0.631751
O O4 0.415707 0.000000 0.560417
O O5 0.320318 0.500000 0.349657
O O6 0.404731 0.686328 0.373132
O O7 0.255564 0.733002 0.213199
O O8 0.863565 0.202483 0.189774
O O9 0.963185 0.000000 0.346613
O O10 0.800114 0.500000 0.910387
O O11 0.892287 0.287243 0.970873
O O12 0.808281 0.268000 0.992668
O O13 0.961875 0.242132 0.822377
O O14 0.051785 0.169602 0.821743
O O15 0.933909 0.000000 0.717725
O O16 0.505169 0.000000 0.913102
O O17 0.500000 0.779918 0.000000
O O18 0.326386 0.500000 0.049962
#
# Coordination Sequence:
#
# PCOD8095591 Si02
#       7
#     8   8   8   8   8   8   8
#     4  11  21  32  48  70  95 124 163 206 242 278
#     4  10  20  33  47  64  93 132 168 200 235 280
#     4   9  18  32  48  66  91 127 167 204 241 277
#     4   9  18  31  47  69  96 128 161 190 233 291
#     4   9  17  31  51  73  97 126 159 194 234 283
#     4   9  17  31  53  80 106 126 148 189 241 286
#     4   8  15  28  45  65  91 122 155 194 238 280
#
# _framework density 18.956900999999998
#
# number of rings (size 3 to 8) (size 9 to 14) (size 15 to 20)
#    0.000    2.714    0.000    3.000    0.000    7.143 
#    0.000    0.000    0.000    0.857    0.000    0.000 
#    0.000    0.000    0.000    0.000    0.000    0.000 
#
# Total GULP energy -347135.461252 kJ/mol
# GULP energy per Si atom -12397.695045 kJ/mol
# Density = 1.891375 g / cm^3
# Si number density = 18.956901 Si / 1000 Ang^3
#
#
#
# Elastic Constant Matrix: (Units=GPa)
#
#
# Indices 1 2 3 4 5 6 
#
# 1 18.4029 19.5095 15.9207 0.0000 -20.7640 0.0000
# 2 19.5095 97.8007 66.1679 0.0000 -18.1552 0.0000
# 3 15.9207 66.1679 144.2364 0.0000 -28.3960 0.0000
# 4 0.0000 0.0000 0.0000 37.0413 0.0000 -7.5606
# 5 -20.7640 -18.1552 -28.3960 0.0000 30.1506 0.0000
# 6 0.0000 0.0000 0.0000 -7.5606 0.0000 15.6573
#
#
#
# Elastic Compliance Matrix: (Units=1/GPa)
#
#
# Indices 1 2 3 4 5 6 
#
# 1 0.345302 -0.044347 0.029204 0.000000 0.238602 0.000000
# 2 -0.044347 0.020761 -0.010043 0.000000 -0.027498 0.000000
# 3 0.029204 -0.010043 0.013609 0.000000 0.026882 0.000000
# 4 0.000000 0.000000 0.000000 0.029949 0.000000 0.014462
# 5 0.238602 -0.027498 0.026882 0.000000 0.206246 0.000000
# 6 0.000000 0.000000 0.000000 0.014462 0.000000 0.070851
#
#
# Mechanical properties :
#
#
# Convention : Reuss Voigt Hill
#
# Bulk Modulus (GPa) = 3.03674 51.51514 27.27594
# Shear Modulus (GPa) = 5.90418 27.15930 16.53174
#
# Velocity S-wave (km/s) = 1.76672 3.78919 2.95629
# Velocity P-wave (km/s) = 2.40148 6.81013 5.10612
#
# Compressibility (1/GPa) = 0.32930057
#
# Stress axis : x y z
#
# Youngs Moduli (GPa) = 2.89601 48.16664 73.48180
#
# Poissons Ratio (x) = 2.13605 -2.14594
# Poissons Ratio (y) = 0.12843 0.73795
# Poissons Ratio (z) = -0.08457 0.48372
#
# Static dielectric constant tensor:
#      x y z
#    x 3.141790 0.000000 -0.292320 
#    y 0.000000 3.406430 0.000000 
#    z -0.292320 0.000000 3.761190 
# 
# 
# High freq. dielectric constant tensor:
#      x y z
#    x 1.691810 0.000000 -0.024200 
#    y 0.000000 1.726200 0.000000 
#    z -0.024200 0.000000 1.749070 
# 
# From -- ./inp_files/280981.got.cif
#   From: 2010.06.25/outbox.cif.g09.slc.cpg/sg12_141_cif.got.tgz:280981.got - 2010.06.28 00:19:55.
