data_PCOD8095585
_publ_section_title
;
Structure prediction by ZEFSAII (Michael W. Deem and Ramdas Pophale) SiO2 
 PCOD8095585
Probable space group: C 2/M
;
_chemical_formula_sum "Si O2"
_cell_formula_units_Z 64
_cell_length_a 25.012116
_cell_length_b 8.539171
_cell_length_c 23.615175
_cell_angle_alpha 90.000000
_cell_angle_beta 138.224675
_cell_angle_gamma 90.000000
_cell_volume 3360.232655
_symmetry_space_group_name_H-M "C 2/M"
_symmetry_group_IT_number 12
_symmetry_cell_setting 'monoclinic'
loop_
_space_group_symop_operation_xyz
x,y,z
-x,y,-z
-x,-y,-z
x,-y,z
1/2+x,1/2+y,z
1/2-x,1/2+y,-z
1/2-x,1/2-y,-z
1/2+x,1/2-y,z
loop_
_atom_site_type_symbol
_atom_site_label
_atom_site_fract_x
_atom_site_fract_y
_atom_site_fract_z
Si Si1 0.988024 0.317174 0.735492
Si Si2 0.810121 0.819944 0.717565
Si Si3 0.186009 0.817352 0.406558
Si Si4 0.255273 0.317689 0.226249
Si Si5 0.492542 0.685468 0.860633
Si Si6 0.258589 0.819904 0.066612
Si Si7 0.384397 0.319640 0.242775
Si Si8 0.870339 0.316501 0.964930
O O1 0.995468 0.500000 0.751824
O O2 0.020925 0.235435 0.819358
O O3 0.037287 0.272699 0.717216
O O4 0.897081 0.271587 0.650253
O O5 0.779992 0.789509 0.629922
O O6 0.750058 0.733322 0.712962
O O7 0.900873 0.758079 0.795091
O O8 0.806680 0.000000 0.731378
O O9 0.250000 0.750000 0.500000
O O10 0.170545 0.000000 0.405198
O O11 0.268453 0.500000 0.232752
O O12 0.336782 0.248111 0.260689
O O13 0.170158 0.274036 0.127909
O O14 0.501149 0.500000 0.872497
O O15 0.537147 0.770537 0.949221
O O16 0.319048 0.698792 0.142618
O O17 0.288541 0.000000 0.091961
O O18 0.250000 0.750000 0.000000
O O19 0.171570 0.802018 0.024899
O O20 0.408754 0.500000 0.270603
O O21 0.857720 0.500000 0.968005
#
# Coordination Sequence:
#
# PCOD8095585 Si02
#       8
#     8   8   8   8   8   8   8   8
#     4  11  21  34  55  83 110 141 176 217 267 318
#     4   9  20  36  55  78 107 138 173 214 262 315
#     4  10  21  39  62  90 116 140 167 206 258 315
#     4   9  20  35  52  73 102 142 186 223 263 310
#     4  10  20  34  50  73 104 141 181 227 276 320
#     4  11  20  30  44  64  92 131 176 224 272 317
#     4  10  20  35  51  72 103 139 177 220 262 311
#     4  10  20  33  46  67  98 136 182 229 269 312
#
# _framework density 19.046299000000001
#
# number of rings (size 3 to 8) (size 9 to 14) (size 15 to 20)
#    0.000    2.000    0.000    6.000    0.000    6.500 
#    0.000    2.500    0.000    0.750    0.000    5.250 
#    0.000    0.000    0.000    0.000    0.000    0.000 
#
# Total GULP energy -396449.622615 kJ/mol
# GULP energy per Si atom -12389.050707 kJ/mol
# Density = 1.900295 g / cm^3
# Si number density = 19.046299 Si / 1000 Ang^3
#
#
#
# Elastic Constant Matrix: (Units=GPa)
#
#
# Indices 1 2 3 4 5 6 
#
# 1 110.7294 24.6516 27.2814 0.0000 -16.5592 0.0000
# 2 24.6516 70.3509 14.9410 0.0001 -6.3660 -0.0002
# 3 27.2814 14.9410 54.2036 0.0000 -12.0847 0.0000
# 4 0.0000 0.0001 0.0000 27.8197 0.0000 0.8839
# 5 -16.5592 -6.3660 -12.0847 0.0000 17.2662 0.0000
# 6 0.0000 -0.0002 0.0000 0.8839 0.0000 30.8651
#
#
#
# Elastic Compliance Matrix: (Units=1/GPa)
#
#
# Indices 1 2 3 4 5 6 
#
# 1 0.011620 -0.002648 -0.003379 0.000000 0.007803 0.000000
# 2 -0.002648 0.015847 -0.002724 0.000000 0.001397 0.000000
# 3 -0.003379 -0.002724 0.023644 0.000000 0.012303 0.000000
# 4 0.000000 0.000000 0.000000 0.035979 0.000000 -0.001030
# 5 0.007803 0.001397 0.012303 0.000000 0.074526 0.000000
# 6 0.000000 0.000000 0.000000 -0.001030 0.000000 0.032429
#
#
# Mechanical properties :
#
#
# Convention : Reuss Voigt Hill
#
# Bulk Modulus (GPa) = 29.75416 41.00355 35.37885
# Shear Modulus (GPa) = 22.44677 26.41750 24.43213
#
# Velocity S-wave (km/s) = 3.43671 3.72831 3.58547
# Velocity P-wave (km/s) = 5.60392 6.33315 5.97966
#
# Compressibility (1/GPa) = 0.03360875
#
# Stress axis : x y z
#
# Youngs Moduli (GPa) = 86.05883 63.10232 42.29490
#
# Poissons Ratio (x) = 0.16710 0.14291
# Poissons Ratio (y) = 0.22789 0.11521
# Poissons Ratio (z) = 0.29078 0.17189
#
# Static dielectric constant tensor:
#      x y z
#    x 3.710280 0.000000 -0.003130 
#    y 0.000000 3.687260 0.000000 
#    z -0.003130 0.000000 3.234500 
# 
# 
# High freq. dielectric constant tensor:
#      x y z
#    x 1.740300 0.000000 -0.002790 
#    y 0.000000 1.744730 0.000000 
#    z -0.002790 0.000000 1.707290 
# 
# From -- ./inp_files/324221.got.cif
#   From: 2010.06.25/outbox.cif.g09.slc.cpg/sg12_163_cif.got.tgz:324221.got - 2010.06.28 00:19:55.
