data_PCOD8095681
_publ_section_title
;
Structure prediction by ZEFSAII (Michael W. Deem and Ramdas Pophale) SiO2 
 PCOD8095681
Probable space group: C 2/M
;
_chemical_formula_sum "Si O2"
_cell_formula_units_Z 64
_cell_length_a 20.347867
_cell_length_b 19.487348
_cell_length_c 22.299519
_cell_angle_alpha 90.000000
_cell_angle_beta 24.146894
_cell_angle_gamma 90.000000
_cell_volume 3617.201087
_symmetry_space_group_name_H-M "C 2/M"
_symmetry_group_IT_number 12
_symmetry_cell_setting 'monoclinic'
loop_
_space_group_symop_operation_xyz
x,y,z
-x,y,-z
-x,-y,-z
x,-y,z
1/2+x,1/2+y,z
1/2-x,1/2+y,-z
1/2-x,1/2-y,-z
1/2+x,1/2-y,z
loop_
_atom_site_type_symbol
_atom_site_label
_atom_site_fract_x
_atom_site_fract_y
_atom_site_fract_z
Si Si1 0.988326 0.823733 0.577845
Si Si2 0.091946 0.919606 0.082323
Si Si3 0.397582 0.424042 0.424131
Si Si4 0.756536 0.919602 0.417738
Si Si5 0.487964 0.833932 0.578371
Si Si6 0.355301 0.333946 0.078357
Si Si7 0.644014 0.823721 0.922160
Si Si8 0.245801 0.924044 0.075916
O O1 0.042603 0.744996 0.538806
O O2 0.806932 0.834627 0.750005
O O3 0.000000 0.849094 0.500000
O O4 0.111622 0.869095 0.514549
O O5 0.220408 0.902979 0.027799
O O6 0.913786 0.895599 0.250029
O O7 0.091503 0.000000 0.068146
O O8 0.150510 0.878842 0.976083
O O9 0.353960 0.500000 0.485213
O O10 0.275962 0.402953 0.472245
O O11 0.573580 0.425996 0.250023
O O12 0.602634 0.878838 0.523951
O O13 0.727705 0.000000 0.431980
O O14 0.500000 0.859025 0.500000
O O15 0.306842 0.845077 0.750003
O O16 0.379779 0.255015 0.038807
O O17 0.500000 0.359038 0.000000
O O18 0.640750 0.869086 0.985427
O O19 0.500000 0.849082 0.000000
O O20 0.324346 0.000000 0.014848
#
# Coordination Sequence:
#
# PCOD8095681 Si02
#       8
#     8   8   8   8   8   8   8   8
#     4   9  18  32  49  71  98 127 160 195 232 277
#     4   9  18  33  52  72  94 123 159 196 235 282
#     4   8  15  30  51  72  96 127 159 191 232 283
#     4   9  18  33  52  72  94 123 159 196 235 282
#     4  10  20  33  49  70  97 127 158 195 237 280
#     4  10  20  33  49  70  97 127 158 195 237 280
#     4   9  18  32  49  71  98 127 160 195 232 277
#     4   8  15  30  51  72  96 127 159 191 232 283
#
# _framework density 17.693237
#
# number of rings (size 3 to 8) (size 9 to 14) (size 15 to 20)
#    0.000    3.000    0.000    2.250    0.000    3.500 
#    0.000    1.250    0.000    1.500    0.000    0.000 
#    0.000    0.000    0.000    0.000    0.000    0.000 
#
# Total GULP energy -396771.084372 kJ/mol
# GULP energy per Si atom -12399.096387 kJ/mol
# Density = 1.765297 g / cm^3
# Si number density = 17.693237 Si / 1000 Ang^3
#
#
#
# Elastic Constant Matrix: (Units=GPa)
#
#
# Indices 1 2 3 4 5 6 
#
# 1 157.8566 82.6353 47.7245 -0.0063 -0.4830 0.0103
# 2 82.6353 77.3929 34.4179 0.0376 -0.4845 -0.0345
# 3 47.7245 34.4179 49.7526 0.0097 -0.5754 -0.0093
# 4 -0.0063 0.0376 0.0097 18.6499 -0.0017 -0.1557
# 5 -0.4830 -0.4845 -0.5754 -0.0017 29.8843 0.0166
# 6 0.0103 -0.0345 -0.0093 -0.1557 0.0166 35.6598
#
#
#
# Elastic Compliance Matrix: (Units=1/GPa)
#
#
# Indices 1 2 3 4 5 6 
#
# 1 0.015123 -0.014004 -0.004819 0.000036 -0.000075 -0.000019
# 2 -0.014004 0.031631 -0.008447 -0.000064 0.000124 0.000032
# 3 -0.004819 -0.008447 0.030570 0.000000 0.000374 0.000001
# 4 0.000036 -0.000064 0.000000 0.053622 0.000003 0.000234
# 5 -0.000075 0.000124 0.000374 0.000003 0.033470 -0.000015
# 6 -0.000019 0.000032 0.000001 0.000234 -0.000015 0.028044
#
#
# Mechanical properties :
#
#
# Convention : Reuss Voigt Hill
#
# Bulk Modulus (GPa) = 43.89247 68.28415 56.08831
# Shear Modulus (GPa) = 19.63900 24.85377 22.24639
#
# Velocity S-wave (km/s) = 3.33524 3.75200 3.54974
# Velocity P-wave (km/s) = 6.30025 7.57939 6.96923
#
# Compressibility (1/GPa) = 0.02278295
#
# Stress axis : x y z
#
# Youngs Moduli (GPa) = 66.12601 31.61408 32.71180
#
# Poissons Ratio (x) = 0.44274 0.15764
# Poissons Ratio (y) = 0.92605 0.27632
# Poissons Ratio (z) = 0.31867 0.26705
#
# Static dielectric constant tensor:
#      x y z
#    x 3.479970 -0.000040 -0.004580 
#    y -0.000040 3.381830 0.000090 
#    z -0.004580 0.000090 3.011350 
# 
# 
# High freq. dielectric constant tensor:
#      x y z
#    x 1.693010 0.000000 -0.000330 
#    y 0.000000 1.682120 0.000010 
#    z -0.000330 0.000010 1.659330 
# 
# From -- ./inp_files/317342.got.cif
#   From: 2010.06.25/outbox.cif.g09.slc.cpg/sg12_159_cif.got.tgz:317342.got - 2010.06.28 00:19:55.
