data_PCOD8095474
_publ_section_title
;
Structure prediction by ZEFSAII (Michael W. Deem and Ramdas Pophale) SiO2 
 PCOD8095474
Probable space group: C 2/M
;
_chemical_formula_sum "Si O2"
_cell_formula_units_Z 40
_cell_length_a 26.124933
_cell_length_b 10.296488
_cell_length_c 8.890646
_cell_angle_alpha 90.000000
_cell_angle_beta 96.604956
_cell_angle_gamma 90.000000
_cell_volume 2375.666766
_symmetry_space_group_name_H-M "C 2/M"
_symmetry_group_IT_number 12
_symmetry_cell_setting 'monoclinic'
loop_
_space_group_symop_operation_xyz
x,y,z
-x,y,-z
-x,-y,-z
x,-y,z
1/2+x,1/2+y,z
1/2-x,1/2+y,-z
1/2-x,1/2-y,-z
1/2+x,1/2-y,z
loop_
_atom_site_type_symbol
_atom_site_label
_atom_site_fract_x
_atom_site_fract_y
_atom_site_fract_z
Si Si1 0.678905 0.000000 0.785635
Si Si2 0.943058 0.154223 0.009138
Si Si3 0.214220 0.000000 0.326400
Si Si4 0.841603 0.770841 0.860029
Si Si5 0.202469 0.500000 0.140078
Si Si6 0.137812 0.772239 0.805001
Si Si7 0.810006 0.000000 0.334608
O O1 0.725124 0.000000 0.682753
O O2 0.643511 0.873762 0.744808
O O3 0.701998 0.000000 0.960172
O O4 0.921821 0.201341 0.165801
O O5 0.943557 0.000000 0.003084
O O6 0.903702 0.207132 0.866519
O O7 0.000000 0.211583 0.000000
O O8 0.189271 0.871129 0.251003
O O9 0.207227 0.000000 0.500863
O O10 0.826861 0.625838 0.803608
O O11 0.826998 0.792100 0.032062
O O12 0.261153 0.500000 0.210126
O O13 0.155721 0.872593 0.684369
#
# Coordination Sequence:
#
# PCOD8095474 Si02
#       7
#     4   8   4   8   4   8   4
#     4  10  20  32  52  72 105 134 169 200 250 306
#     4   9  16  31  58  80  97 124 165 213 262 294
#     4  12  22  32  48  73 106 143 176 202 238 292
#     4   9  18  35  51  76  98 134 166 209 252 295
#     4  10  20  32  52  72 105 134 169 200 250 306
#     4   9  18  35  51  76  98 134 166 209 252 295
#     4  12  22  32  48  73 106 143 176 202 238 292
#
# _framework density 16.837378000000001
#
# number of rings (size 3 to 8) (size 9 to 14) (size 15 to 20)
#    1.200    1.000    2.000    3.000    0.000    6.400 
#    0.000    2.000    0.000    2.400    0.000    0.000 
#    0.000    4.800    0.000    0.000    0.000    0.000 
#
# Total GULP energy -247830.232194 kJ/mol
# GULP energy per Si atom -12391.511610 kJ/mol
# Density = 1.679906 g / cm^3
# Si number density = 16.837378 Si / 1000 Ang^3
#
#
#
# Elastic Constant Matrix: (Units=GPa)
#
#
# Indices 1 2 3 4 5 6 
#
# 1 129.4255 55.6518 18.3929 0.0000 -22.3750 0.0000
# 2 55.6518 139.7083 30.5699 0.0000 -15.1109 0.0000
# 3 18.3929 30.5699 39.8410 0.0000 -19.0893 0.0000
# 4 0.0000 0.0000 0.0000 7.2732 0.0000 5.2899
# 5 -22.3750 -15.1109 -19.0893 0.0000 14.1289 0.0000
# 6 0.0000 0.0000 0.0000 5.2899 0.0000 -7.7597
#
#
#
# Elastic Compliance Matrix: (Units=1/GPa)
#
#
# Indices 1 2 3 4 5 6 
#
# 1 0.014274 -0.004947 0.015602 0.000000 0.038393 0.000000
# 2 -0.004947 0.010320 -0.011626 0.000000 -0.012506 0.000000
# 3 0.015602 -0.011626 0.092724 0.000000 0.137551 0.000000
# 4 0.000000 0.000000 0.000000 0.091917 0.000000 0.062661
# 5 0.038393 -0.012506 0.137551 0.000000 0.304046 0.000000
# 6 0.000000 0.000000 0.000000 0.062661 0.000000 -0.086154
#
#
# Mechanical properties :
#
#
# Convention : Reuss Voigt Hill
#
# Bulk Modulus (GPa) = 8.66749 57.57824 33.12286
# Shear Modulus (GPa) = 10.69457 16.35248 13.52352
#
# Velocity S-wave (km/s) = 2.52299 3.11979 2.83713
# Velocity P-wave (km/s) = 3.69408 6.87375 5.51791
#
# Compressibility (1/GPa) = 0.11537368
#
# Stress axis : x y z
#
# Youngs Moduli (GPa) = 70.05834 96.90099 10.78475
#
# Poissons Ratio (x) = 0.47938 -0.16826
# Poissons Ratio (y) = 0.34659 0.12539
# Poissons Ratio (z) = -1.09303 1.12661
#
# Static dielectric constant tensor:
#      x y z
#    x 3.172210 0.000000 -0.100940 
#    y 0.000000 3.303080 0.000000 
#    z -0.100940 0.000000 2.777620 
# 
# 
# High freq. dielectric constant tensor:
#      x y z
#    x 1.634040 0.000000 -0.011420 
#    y 0.000000 1.663900 0.000000 
#    z -0.011420 0.000000 1.605560 
# 
# From -- ./inp_files/101241.got.cif
#   From: 2010.06.25/outbox.cif.g09.slc.cpg/sg12_51_cif.got.tgz:101241.got - 2010.06.28 00:19:55.
