data_PCOD8095169
_publ_section_title
;
Structure prediction by ZEFSAII (Michael W. Deem and Ramdas Pophale) SiO2 
 PCOD8095169
Probable space group: C 2/M
;
_chemical_formula_sum "Si O2"
_cell_formula_units_Z 64
_cell_length_a 24.530402
_cell_length_b 9.724813
_cell_length_c 15.642815
_cell_angle_alpha 90.000000
_cell_angle_beta 68.499284
_cell_angle_gamma 90.000000
_cell_volume 3471.975067
_symmetry_space_group_name_H-M "C 2/M"
_symmetry_group_IT_number 12
_symmetry_cell_setting 'monoclinic'
loop_
_space_group_symop_operation_xyz
x,y,z
-x,y,-z
-x,-y,-z
x,-y,z
1/2+x,1/2+y,z
1/2-x,1/2+y,-z
1/2-x,1/2-y,-z
1/2+x,1/2-y,z
loop_
_atom_site_type_symbol
_atom_site_label
_atom_site_fract_x
_atom_site_fract_y
_atom_site_fract_z
Si Si1 0.935983 0.336469 0.065380
Si Si2 0.410118 0.161804 0.573905
Si Si3 0.308033 0.653629 0.671378
Si Si4 0.090757 0.336117 0.729892
Si Si5 0.488245 0.162328 0.372621
Si Si6 0.793538 0.842279 0.873325
Si Si7 0.663245 0.840906 0.009376
Si Si8 0.785677 0.343236 0.412438
O O1 0.936947 0.500000 0.069620
O O2 0.917977 0.276622 0.169267
O O3 0.887817 0.287326 0.024236
O O4 0.000000 0.281099 0.000000
O O5 0.349466 0.239608 0.600258
O O6 0.446025 0.214141 0.471827
O O7 0.445242 0.205798 0.640911
O O8 0.397992 0.000000 0.578609
O O9 0.334612 0.500000 0.651590
O O10 0.301650 0.702324 0.771696
O O11 0.245697 0.658116 0.661235
O O12 0.093758 0.500000 0.733040
O O13 0.034694 0.283728 0.706069
O O14 0.149504 0.284522 0.647006
O O15 0.485242 0.000000 0.374528
O O16 0.837252 0.748409 0.903932
O O17 0.810179 0.000000 0.881461
O O18 0.725392 0.815831 0.929695
O O19 0.653059 0.000000 0.039384
O O20 0.788746 0.500000 0.446683
O O21 0.750000 0.250000 0.500000
#
# Coordination Sequence:
#
# PCOD8095169 Si02
#       8
#     8   8   8   8   8   8   8   8
#     4   9  17  28  45  72 101 125 156 202 247 286
#     4   9  17  30  48  70  95 123 157 198 237 276
#     4  10  20  32  46  69  99 127 156 190 233 285
#     4   9  16  28  47  69  96 131 163 194 241 294
#     4   8  15  28  46  68  94 124 158 195 238 283
#     4   9  18  32  49  68  94 127 156 188 235 289
#     4   9  17  31  50  71  93 118 155 200 241 280
#     4  10  20  33  51  74 100 131 164 198 238 285
#
# _framework density 18.433311
#
# number of rings (size 3 to 8) (size 9 to 14) (size 15 to 20)
#    0.000    2.875    0.000    2.250    0.000    6.000 
#    0.000    3.750    0.000    3.375    0.000    0.000 
#    0.000    0.000    0.000    0.000    0.000    0.000 
#
# Total GULP energy -396570.560917 kJ/mol
# GULP energy per Si atom -12392.830029 kJ/mol
# Density = 1.839136 g / cm^3
# Si number density = 18.433311 Si / 1000 Ang^3
#
#
#
# Elastic Constant Matrix: (Units=GPa)
#
#
# Indices 1 2 3 4 5 6 
#
# 1 93.4541 15.3530 26.9422 0.0000 18.3574 0.0000
# 2 15.3530 32.1629 19.6469 0.0000 3.7578 0.0000
# 3 26.9422 19.6469 85.1108 0.0000 13.1782 0.0000
# 4 0.0000 0.0000 0.0000 22.0174 0.0000 1.7322
# 5 18.3574 3.7578 13.1782 0.0000 33.1272 0.0000
# 6 0.0000 0.0000 0.0000 1.7322 0.0000 20.6828
#
#
#
# Elastic Compliance Matrix: (Units=1/GPa)
#
#
# Indices 1 2 3 4 5 6 
#
# 1 0.013220 -0.004217 -0.002292 0.000000 -0.005936 0.000000
# 2 -0.004217 0.037562 -0.007500 0.000000 0.001059 0.000000
# 3 -0.002292 -0.007500 0.014789 0.000000 -0.003762 0.000000
# 4 0.000000 0.000000 0.000000 0.045720 0.000000 -0.003829
# 5 -0.005936 0.001059 -0.003762 0.000000 0.034852 0.000000
# 6 0.000000 0.000000 0.000000 -0.003829 0.000000 0.048670
#
#
# Mechanical properties :
#
#
# Convention : Reuss Voigt Hill
#
# Bulk Modulus (GPa) = 26.62926 37.17913 31.90419
# Shear Modulus (GPa) = 21.24503 25.08453 23.16478
#
# Velocity S-wave (km/s) = 3.39858 3.69294 3.54881
# Velocity P-wave (km/s) = 5.46609 6.19654 5.84274
#
# Compressibility (1/GPa) = 0.03755268
#
# Stress axis : x y z
#
# Youngs Moduli (GPa) = 75.64288 26.62250 67.61855
#
# Poissons Ratio (x) = 0.11226 0.15501
# Poissons Ratio (y) = 0.31897 0.50714
# Poissons Ratio (z) = 0.17341 0.19967
#
# Static dielectric constant tensor:
#      x y z
#    x 3.679190 0.000000 0.226360 
#    y 0.000000 2.975980 0.000000 
#    z 0.226360 0.000000 3.505100 
# 
# 
# High freq. dielectric constant tensor:
#      x y z
#    x 1.728750 0.000000 0.012880 
#    y 0.000000 1.660840 0.000000 
#    z 0.012880 0.000000 1.713920 
# 
# From -- ./inp_files/232454.got.cif
#   From: 2010.06.25/outbox.cif.g09.slc.cpg/sg12_117_cif.got.tgz:232454.got - 2010.06.28 00:19:55.
