data_PCOD8095394
_publ_section_title
;
Structure prediction by ZEFSAII (Michael W. Deem and Ramdas Pophale) SiO2 
 PCOD8095394
Probable space group: C 2/M
;
_chemical_formula_sum "Si O2"
_cell_formula_units_Z 64
_cell_length_a 31.282766
_cell_length_b 8.952924
_cell_length_c 14.513596
_cell_angle_alpha 90.000000
_cell_angle_beta 62.552558
_cell_angle_gamma 90.000000
_cell_volume 3607.290770
_symmetry_space_group_name_H-M "C 2/M"
_symmetry_group_IT_number 12
_symmetry_cell_setting 'monoclinic'
loop_
_space_group_symop_operation_xyz
x,y,z
-x,y,-z
-x,-y,-z
x,-y,z
1/2+x,1/2+y,z
1/2-x,1/2+y,-z
1/2-x,1/2-y,-z
1/2+x,1/2-y,z
loop_
_atom_site_type_symbol
_atom_site_label
_atom_site_fract_x
_atom_site_fract_y
_atom_site_fract_z
Si Si1 0.554513 0.326316 0.050174
Si Si2 0.329294 0.678015 0.570928
Si Si3 0.634633 0.172282 0.083881
Si Si4 0.724266 0.174843 0.879340
Si Si5 0.176374 0.673423 0.234304
Si Si6 0.634589 0.822268 0.639428
Si Si7 0.056276 0.174848 0.840215
Si Si8 0.721545 0.173438 0.673319
O O1 0.564219 0.500000 0.048554
O O2 0.586518 0.247585 0.095066
O O3 0.499165 0.289458 0.126723
O O4 0.568061 0.274422 0.933134
O O5 0.333047 0.500000 0.566067
O O6 0.343218 0.734791 0.658825
O O7 0.365852 0.749880 0.461552
O O8 0.275165 0.736858 0.601135
O O9 0.638192 0.197543 0.189905
O O10 0.631295 0.000000 0.060815
O O11 0.682475 0.236863 0.987104
O O12 0.772244 0.267723 0.852504
O O13 0.706512 0.205684 0.793092
O O14 0.735816 0.000000 0.883101
O O15 0.181331 0.500000 0.255634
O O16 0.586936 0.772917 0.739668
O O17 0.681304 0.755232 0.646754
O O18 0.635216 0.000000 0.631116
O O19 0.067439 0.000000 0.815627
O O20 0.722838 0.000000 0.651227
#
# Coordination Sequence:
#
# PCOD8095394 Si02
#       8
#     8   8   8   8   8   8   8   8
#     4   9  19  35  55  76 102 133 165 199 240 294
#     4  10  20  35  51  68  97 137 172 208 248 289
#     4  10  20  32  50  75 103 131 165 209 253 293
#     4   9  17  31  48  70 102 137 167 199 241 294
#     4  10  20  33  48  71 101 133 169 211 250 289
#     4  11  20  31  51  77 101 130 167 206 247 297
#     4   9  19  36  53  75 105 133 161 199 244 293
#     4   8  16  29  46  70 100 130 163 199 238 285
#
# _framework density 17.741847
#
# number of rings (size 3 to 8) (size 9 to 14) (size 15 to 20)
#    0.000    2.500    0.000    4.125    0.000    3.500 
#    0.000    8.125    0.000    0.750    0.000    5.250 
#    0.000    0.000    0.000    0.000    0.000    0.000 
#
# Total GULP energy -396783.726925 kJ/mol
# GULP energy per Si atom -12399.491466 kJ/mol
# Density = 1.770147 g / cm^3
# Si number density = 17.741847 Si / 1000 Ang^3
#
#
#
# Elastic Constant Matrix: (Units=GPa)
#
#
# Indices 1 2 3 4 5 6 
#
# 1 97.8827 44.5072 50.0775 0.0000 10.9075 0.0000
# 2 44.5072 71.1615 49.8077 0.0000 2.7437 0.0000
# 3 50.0775 49.8077 120.9764 0.0000 2.3345 0.0000
# 4 0.0000 0.0000 0.0000 29.8540 0.0000 -0.4991
# 5 10.9075 2.7437 2.3345 0.0000 16.2328 0.0000
# 6 0.0000 0.0000 0.0000 -0.4991 0.0000 28.0815
#
#
#
# Elastic Compliance Matrix: (Units=1/GPa)
#
#
# Indices 1 2 3 4 5 6 
#
# 1 0.016461 -0.007436 -0.003573 0.000000 -0.009290 0.000000
# 2 -0.007436 0.023177 -0.006503 0.000000 0.002014 0.000000
# 3 -0.003573 -0.006503 0.012389 0.000000 0.001718 0.000000
# 4 0.000000 0.000000 0.000000 0.033506 0.000000 0.000596
# 5 -0.009290 0.002014 0.001718 0.000000 0.067258 0.000000
# 6 0.000000 0.000000 0.000000 0.000596 0.000000 0.035621
#
#
# Mechanical properties :
#
#
# Convention : Reuss Voigt Hill
#
# Bulk Modulus (GPa) = 58.81356 64.31172 61.56264
# Shear Modulus (GPa) = 21.82399 24.54223 23.18311
#
# Velocity S-wave (km/s) = 3.51106 3.72330 3.61874
# Velocity P-wave (km/s) = 7.04687 7.40346 7.22737
#
# Compressibility (1/GPa) = 0.01700288
#
# Stress axis : x y z
#
# Youngs Moduli (GPa) = 60.75073 43.14531 80.71414
#
# Poissons Ratio (x) = 0.32084 0.28839
# Poissons Ratio (y) = 0.45175 0.52490
# Poissons Ratio (z) = 0.21706 0.28058
#
# Static dielectric constant tensor:
#      x y z
#    x 3.232950 0.000000 0.067960 
#    y 0.000000 3.126930 0.000000 
#    z 0.067960 0.000000 3.271360 
# 
# 
# High freq. dielectric constant tensor:
#      x y z
#    x 1.669000 0.000000 0.010210 
#    y 0.000000 1.678630 0.000000 
#    z 0.010210 0.000000 1.684640 
# 
# From -- ./inp_files/248994.got.cif
#   From: 2010.06.25/outbox.cif.g09.slc.cpg/sg12_125_cif.got.tgz:248994.got - 2010.06.28 00:19:55.
