data_PCOD8095817
_publ_section_title
;
Structure prediction by ZEFSAII (Michael W. Deem and Ramdas Pophale) SiO2 
 PCOD8095817
Probable space group: C 2/M
;
_chemical_formula_sum "Si O2"
_cell_formula_units_Z 40
_cell_length_a 20.691947
_cell_length_b 9.392386
_cell_length_c 12.574933
_cell_angle_alpha 90.000000
_cell_angle_beta 74.991710
_cell_angle_gamma 90.000000
_cell_volume 2360.532073
_symmetry_space_group_name_H-M "C 2/M"
_symmetry_group_IT_number 12
_symmetry_cell_setting 'monoclinic'
loop_
_space_group_symop_operation_xyz
x,y,z
-x,y,-z
-x,-y,-z
x,-y,z
1/2+x,1/2+y,z
1/2-x,1/2+y,-z
1/2-x,1/2-y,-z
1/2+x,1/2-y,z
loop_
_atom_site_type_symbol
_atom_site_label
_atom_site_fract_x
_atom_site_fract_y
_atom_site_fract_z
Si Si1 0.599073 0.163075 0.282944
Si Si2 0.578342 0.339060 0.489349
Si Si3 0.569802 0.831483 0.928495
Si Si4 0.681788 0.833045 0.040651
Si Si5 0.053968 0.664530 0.697373
O O1 0.616497 0.261001 0.376795
O O2 0.651685 0.199822 0.169086
O O3 0.525272 0.193698 0.269218
O O4 0.604737 0.000000 0.317612
O O5 0.500000 0.333433 0.500000
O O6 0.604967 0.500000 0.486622
O O7 0.592839 0.258554 0.593703
O O8 0.581780 0.789659 0.800667
O O9 0.565335 0.000000 0.944098
O O10 0.500000 0.764478 0.000000
O O11 0.631101 0.773366 0.972596
O O12 0.694875 0.000000 0.019652
O O13 0.750000 0.750000 0.000000
O O14 0.069022 0.500000 0.665970
#
# Coordination Sequence:
#
# PCOD8095817 Si02
#       5
#     8   8   8   8   8
#     4   9  16  28  47  69  93 124 163 200 232 276
#     4   9  17  27  41  66 100 129 152 189 244 294
#     4   9  15  28  51  75  96 123 163 206 240 276
#     4  10  20  33  50  73 101 131 162 198 241 290
#     4   9  15  26  48  73  94 119 158 203 239 276
#
# _framework density 16.945333000000002
#
# number of rings (size 3 to 8) (size 9 to 14) (size 15 to 20)
#    0.000    2.800    2.000    0.600    0.000    3.200 
#    0.000    1.000    0.000    2.400    0.000    0.000 
#    0.000    0.000    0.000    0.000    0.000    0.000 
#
# Total GULP energy -247973.650691 kJ/mol
# GULP energy per Si atom -12398.682535 kJ/mol
# Density = 1.690676 g / cm^3
# Si number density = 16.945333 Si / 1000 Ang^3
#
#
#
# Elastic Constant Matrix: (Units=GPa)
#
#
# Indices 1 2 3 4 5 6 
#
# 1 84.4113 38.2647 65.5439 0.0000 3.4945 0.0000
# 2 38.2647 79.9780 72.3648 0.0000 -1.2288 0.0000
# 3 65.5439 72.3648 147.3850 0.0000 4.9136 0.0000
# 4 0.0000 0.0000 0.0000 19.2661 0.0000 -5.5437
# 5 3.4945 -1.2288 4.9136 0.0000 18.5505 0.0000
# 6 0.0000 0.0000 0.0000 -5.5437 0.0000 19.8191
#
#
#
# Elastic Compliance Matrix: (Units=1/GPa)
#
#
# Indices 1 2 3 4 5 6 
#
# 1 0.018433 -0.002674 -0.006823 0.000000 -0.001842 0.000000
# 2 -0.002674 0.023257 -0.010390 0.000000 0.004796 0.000000
# 3 -0.006823 -0.010390 0.015034 0.000000 -0.003385 0.000000
# 4 0.000000 0.000000 0.000000 0.056448 0.000000 0.015789
# 5 -0.001842 0.004796 -0.003385 0.000000 0.055468 0.000000
# 6 0.000000 0.000000 0.000000 0.015789 0.000000 0.054873
#
#
# Mechanical properties :
#
#
# Convention : Reuss Voigt Hill
#
# Bulk Modulus (GPa) = 58.99677 73.79124 66.39400
# Shear Modulus (GPa) = 18.59171 20.56721 19.57946
#
# Velocity S-wave (km/s) = 3.31593 3.48766 3.40288
# Velocity P-wave (km/s) = 7.03932 7.73689 7.39634
#
# Compressibility (1/GPa) = 0.01695008
#
# Stress axis : x y z
#
# Youngs Moduli (GPa) = 54.24995 42.99721 66.51777
#
# Poissons Ratio (x) = 0.11496 0.45387
# Poissons Ratio (y) = 0.14505 0.69112
# Poissons Ratio (z) = 0.37016 0.44674
#
# Static dielectric constant tensor:
#      x y z
#    x 2.826370 0.000000 0.120030 
#    y 0.000000 3.021400 0.000000 
#    z 0.120030 0.000000 3.363080 
# 
# 
# High freq. dielectric constant tensor:
#      x y z
#    x 1.607740 0.000000 0.005990 
#    y 0.000000 1.631510 0.000000 
#    z 0.005990 0.000000 1.670790 
# 
# From -- ./inp_files/151633.got.cif
#   From: 2010.06.25/outbox.cif.g09.slc.cpg/sg12_76_cif.got.tgz:151633.got - 2010.06.28 00:19:55.
