data_PCOD8095853
_publ_section_title
;
Structure prediction by ZEFSAII (Michael W. Deem and Ramdas Pophale) SiO2 
 PCOD8095853
Probable space group: C 2/M
;
_chemical_formula_sum "Si O2"
_cell_formula_units_Z 64
_cell_length_a 23.894623
_cell_length_b 9.293891
_cell_length_c 21.220115
_cell_angle_alpha 90.000000
_cell_angle_beta 52.028884
_cell_angle_gamma 90.000000
_cell_volume 3714.912579
_symmetry_space_group_name_H-M "C 2/M"
_symmetry_group_IT_number 12
_symmetry_cell_setting 'monoclinic'
loop_
_space_group_symop_operation_xyz
x,y,z
-x,y,-z
-x,-y,-z
x,-y,z
1/2+x,1/2+y,z
1/2-x,1/2+y,-z
1/2-x,1/2-y,-z
1/2+x,1/2-y,z
loop_
_atom_site_type_symbol
_atom_site_label
_atom_site_fract_x
_atom_site_fract_y
_atom_site_fract_z
Si Si1 0.965647 0.670030 0.152137
Si Si2 0.144412 0.665926 0.557514
Si Si3 0.139241 0.668384 0.143672
Si Si4 0.602510 0.332043 0.043820
Si Si5 0.245909 0.165631 0.406835
Si Si6 0.192276 0.669262 0.768196
Si Si7 0.014994 0.667028 0.720649
Si Si8 0.729809 0.334017 0.863243
O O1 0.982066 0.500000 0.137512
O O2 0.891097 0.709288 0.171848
O O3 0.964635 0.727675 0.224700
O O4 0.029031 0.755979 0.073705
O O5 0.142064 0.500000 0.539155
O O6 0.174752 0.750940 0.476578
O O7 0.192267 0.691656 0.585792
O O8 0.066181 0.729696 0.630213
O O9 0.144948 0.500000 0.121544
O O10 0.136591 0.759010 0.081661
O O11 0.206173 0.721817 0.137216
O O12 0.068163 0.696384 0.234789
O O13 0.590016 0.500000 0.066390
O O14 0.655734 0.308209 0.949328
O O15 0.273127 0.224132 0.320863
O O16 0.225151 0.000000 0.416383
O O17 0.202211 0.500000 0.768243
O O18 0.232461 0.745903 0.797094
O O19 0.033941 0.500000 0.709626
O O20 0.741769 0.500000 0.838281
#
# Coordination Sequence:
#
# PCOD8095853 Si02
#       8
#     8   8   8   8   8   8   8   8
#     4   9  17  32  51  71  96 129 166 199 237 288
#     4   9  15  26  47  73  98 122 151 191 240 287
#     4   9  18  34  55  73  93 127 166 204 243 285
#     4  10  20  33  50  74 101 124 154 206 257 290
#     4   9  17  29  45  70 101 126 153 193 237 283
#     4  10  20  34  52  70  96 134 170 201 234 284
#     4   8  13  26  50  73  93 119 156 200 238 276
#     4  10  22  36  49  70  99 130 164 203 248 290
#
# _framework density 17.227861999999998
#
# number of rings (size 3 to 8) (size 9 to 14) (size 15 to 20)
#    0.000    2.750    1.250    1.500    0.000    3.000 
#    0.000    5.000    0.000    0.750    0.000    5.250 
#    0.000    0.000    0.000    0.000    0.000    0.000 
#
# Total GULP energy -396699.374965 kJ/mol
# GULP energy per Si atom -12396.855468 kJ/mol
# Density = 1.718865 g / cm^3
# Si number density = 17.227862 Si / 1000 Ang^3
#
#
#
# Elastic Constant Matrix: (Units=GPa)
#
#
# Indices 1 2 3 4 5 6 
#
# 1 42.8875 21.2654 20.0756 0.0000 7.8523 0.0002
# 2 21.2654 48.6488 37.3515 -0.0016 3.8492 0.0009
# 3 20.0756 37.3515 91.1007 -0.0004 -1.0521 0.0010
# 4 0.0000 -0.0016 -0.0004 29.0239 0.0004 0.9856
# 5 7.8523 3.8492 -1.0521 0.0004 21.0320 -0.0003
# 6 0.0002 0.0009 0.0010 0.9856 -0.0003 25.2811
#
#
#
# Elastic Compliance Matrix: (Units=1/GPa)
#
#
# Indices 1 2 3 4 5 6 
#
# 1 0.031888 -0.011187 -0.002556 0.000000 -0.009986 0.000000
# 2 -0.011187 0.034729 -0.011806 0.000002 -0.002770 -0.000001
# 3 -0.002556 -0.011806 0.016426 0.000000 0.003937 0.000000
# 4 0.000000 0.000002 0.000000 0.034500 -0.000001 -0.001345
# 5 -0.009986 -0.002770 0.003937 -0.000001 0.051979 0.000001
# 6 0.000000 -0.000001 0.000000 -0.001345 0.000001 0.039608
#
#
# Mechanical properties :
#
#
# Convention : Reuss Voigt Hill
#
# Bulk Modulus (GPa) = 31.30222 37.78023 34.54122
# Shear Modulus (GPa) = 18.45872 21.99704 20.22788
#
# Velocity S-wave (km/s) = 3.27685 3.57715 3.43029
# Velocity P-wave (km/s) = 5.70315 6.24809 5.98183
#
# Compressibility (1/GPa) = 0.03194662
#
# Stress axis : x y z
#
# Youngs Moduli (GPa) = 31.35941 28.79460 60.87928
#
# Poissons Ratio (x) = 0.32211 0.15561
# Poissons Ratio (y) = 0.35080 0.71872
# Poissons Ratio (z) = 0.08015 0.33994
#
# Static dielectric constant tensor:
#      x y z
#    x 3.062090 0.000000 -0.236210 
#    y 0.000000 3.062420 0.000000 
#    z -0.236210 0.000000 3.388920 
# 
# 
# High freq. dielectric constant tensor:
#      x y z
#    x 1.641840 0.000000 -0.016890 
#    y 0.000000 1.648010 0.000000 
#    z -0.016890 0.000000 1.669960 
# 
# From -- ./inp_files/324090.got.cif
#   From: 2010.06.25/outbox.cif.g09.slc.cpg/sg12_163_cif.got.tgz:324090.got - 2010.06.28 00:19:55.
