data_PCOD8095541
_publ_section_title
;
Structure prediction by ZEFSAII (Michael W. Deem and Ramdas Pophale) SiO2 
 PCOD8095541
Probable space group: C 2/M
;
_chemical_formula_sum "Si O2"
_cell_formula_units_Z 64
_cell_length_a 24.182534
_cell_length_b 8.946217
_cell_length_c 29.546323
_cell_angle_alpha 90.000000
_cell_angle_beta 33.197371
_cell_angle_gamma 90.000000
_cell_volume 3499.842447
_symmetry_space_group_name_H-M "C 2/M"
_symmetry_group_IT_number 12
_symmetry_cell_setting 'monoclinic'
loop_
_space_group_symop_operation_xyz
x,y,z
-x,y,-z
-x,-y,-z
x,-y,z
1/2+x,1/2+y,z
1/2-x,1/2+y,-z
1/2-x,1/2-y,-z
1/2+x,1/2-y,z
loop_
_atom_site_type_symbol
_atom_site_label
_atom_site_fract_x
_atom_site_fract_y
_atom_site_fract_z
Si Si1 0.623207 0.823561 0.202547
Si Si2 0.464113 0.325409 0.476094
Si Si3 0.063543 0.328005 0.728819
Si Si4 0.642517 0.675412 0.285407
Si Si5 0.302700 0.324893 0.236815
Si Si6 0.241371 0.325292 0.379907
Si Si7 0.503848 0.170765 0.870246
Si Si8 0.774429 0.674604 0.030652
O O1 0.513656 0.781213 0.257648
O O2 0.625906 0.766110 0.251368
O O3 0.710391 0.744410 0.114638
O O4 0.641761 0.000000 0.187665
O O5 0.500000 0.261700 0.500000
O O6 0.442186 0.500000 0.494832
O O7 0.548498 0.286538 0.381749
O O8 0.361205 0.246420 0.531382
O O9 0.094960 0.500000 0.703628
O O10 0.165377 0.232436 0.653828
O O11 0.007810 0.293561 0.814182
O O12 0.651674 0.500000 0.269061
O O13 0.744817 0.731566 0.238546
O O14 0.291826 0.500000 0.234516
O O15 0.257880 0.279495 0.316342
O O16 0.420320 0.278456 0.154376
O O17 0.233773 0.500000 0.391497
O O18 0.536154 0.000000 0.857314
O O19 0.390854 0.202288 0.964370
O O20 0.750486 0.500000 0.042357
O O21 0.750000 0.750000 0.000000
#
# Coordination Sequence:
#
# PCOD8095541 Si02
#       8
#     8   8   8   8   8   8   8   8
#     4  11  23  40  59  84 117 154 191 234 288 340
#     4  10  20  36  58  83 111 147 191 233 280 339
#     4   9  18  35  56  79 112 151 187 224 279 339
#     4  11  23  39  59  83 113 153 192 231 283 345
#     4  10  20  34  54  84 116 148 184 231 286 336
#     4  10  20  32  54  87 116 142 183 237 286 327
#     4   9  18  34  56  83 113 146 186 232 279 331
#     4  11  21  36  59  88 118 150 193 238 283 334
#
# _framework density 18.286538
#
# number of rings (size 3 to 8) (size 9 to 14) (size 15 to 20)
#    0.000    1.875    2.500    1.875    0.000    4.250 
#    0.000    1.250    0.000    3.750    0.000    0.000 
#    0.000    0.000    0.000    0.000    0.000    0.000 
#
# Total GULP energy -396931.391740 kJ/mol
# GULP energy per Si atom -12404.105992 kJ/mol
# Density = 1.824492 g / cm^3
# Si number density = 18.286538 Si / 1000 Ang^3
#
#
#
# Elastic Constant Matrix: (Units=GPa)
#
#
# Indices 1 2 3 4 5 6 
#
# 1 112.4851 47.7867 58.5089 -0.0071 -15.3058 0.0137
# 2 47.7867 77.7208 54.5498 -0.0035 -11.3090 -0.0198
# 3 58.5089 54.5498 102.0301 -0.0009 -14.5111 -0.0047
# 4 -0.0071 -0.0035 -0.0009 30.9597 0.0001 -2.1747
# 5 -15.3058 -11.3090 -14.5111 0.0001 26.0829 -0.0043
# 6 0.0137 -0.0198 -0.0047 -2.1747 -0.0043 32.6547
#
#
#
# Elastic Compliance Matrix: (Units=1/GPa)
#
#
# Indices 1 2 3 4 5 6 
#
# 1 0.013905 -0.004479 -0.005098 0.000002 0.003381 -0.000009
# 2 -0.004479 0.022263 -0.009051 0.000002 0.001989 0.000014
# 3 -0.005098 -0.009051 0.018005 -0.000002 0.003101 0.000000
# 4 0.000002 0.000002 -0.000002 0.032452 0.000001 0.002161
# 5 0.003381 0.001989 0.003101 0.000001 0.042911 0.000006
# 6 -0.000009 0.000014 0.000000 0.002161 0.000006 0.030767
#
#
# Mechanical properties :
#
#
# Convention : Reuss Voigt Hill
#
# Bulk Modulus (GPa) = 59.11812 68.21409 63.66610
# Shear Modulus (GPa) = 24.60662 26.69884 25.65273
#
# Velocity S-wave (km/s) = 3.67224 3.82518 3.74949
# Velocity P-wave (km/s) = 7.09785 7.54276 7.32368
#
# Compressibility (1/GPa) = 0.01691529
#
# Stress axis : x y z
#
# Youngs Moduli (GPa) = 71.91792 44.91810 55.54135
#
# Poissons Ratio (x) = 0.20120 0.28315
# Poissons Ratio (y) = 0.32214 0.50272
# Poissons Ratio (z) = 0.36663 0.40656
#
# Static dielectric constant tensor:
#      x y z
#    x 3.434810 -0.000020 0.090280 
#    y -0.000020 3.400820 -0.000010 
#    z 0.090280 -0.000010 3.845300 
# 
# 
# High freq. dielectric constant tensor:
#      x y z
#    x 1.700440 0.000000 -0.020720 
#    y 0.000000 1.716890 0.000000 
#    z -0.020720 0.000000 1.703890 
# 
# From -- ./inp_files/382314.got.cif
#   From: 2010.06.25/outbox.cif.g09.slc.cpg/sg12_192_cif.got.tgz:382314.got - 2010.06.28 00:19:55.
