data_PCOD8095111
_publ_section_title
;
Structure prediction by ZEFSAII (Michael W. Deem and Ramdas Pophale) SiO2 
 PCOD8095111
Probable space group: C 2/M
;
_chemical_formula_sum "Si O2"
_cell_formula_units_Z 64
_cell_length_a 29.016709
_cell_length_b 9.071343
_cell_length_c 14.064785
_cell_angle_alpha 90.000000
_cell_angle_beta 106.840538
_cell_angle_gamma 90.000000
_cell_volume 3543.372865
_symmetry_space_group_name_H-M "C 2/M"
_symmetry_group_IT_number 12
_symmetry_cell_setting 'monoclinic'
loop_
_space_group_symop_operation_xyz
x,y,z
-x,y,-z
-x,-y,-z
x,-y,z
1/2+x,1/2+y,z
1/2-x,1/2+y,-z
1/2-x,1/2-y,-z
1/2+x,1/2-y,z
loop_
_atom_site_type_symbol
_atom_site_label
_atom_site_fract_x
_atom_site_fract_y
_atom_site_fract_z
Si Si1 0.298418 0.666391 0.509984
Si Si2 0.679574 0.672561 0.185883
Si Si3 0.563542 0.825358 0.618995
Si Si4 0.541871 0.174285 0.396811
Si Si5 0.298606 0.829612 0.994763
Si Si6 0.385512 0.328342 0.683793
Si Si7 0.843900 0.330906 0.213905
Si Si8 0.770655 0.832701 0.290292
O O1 0.291976 0.500000 0.543180
O O2 0.250000 0.750000 0.500000
O O3 0.343849 0.737349 0.590075
O O4 0.306399 0.674230 0.401491
O O5 0.688044 0.500000 0.172778
O O6 0.678838 0.756654 0.085631
O O7 0.629906 0.699180 0.215420
O O8 0.722521 0.736066 0.277506
O O9 0.513203 0.768451 0.632787
O O10 0.568122 0.775085 0.511142
O O11 0.606976 0.765297 0.711241
O O12 0.562734 0.000000 0.621257
O O13 0.566025 0.244554 0.317399
O O14 0.544244 0.000000 0.387192
O O15 0.285831 0.000000 0.967140
O O16 0.250000 0.750000 0.000000
O O17 0.341680 0.818610 0.098329
O O18 0.393678 0.500000 0.668953
O O19 0.836898 0.500000 0.243052
O O20 0.798633 0.234318 0.218445
O O21 0.755227 0.000000 0.258287
#
# Coordination Sequence:
#
# PCOD8095111 Si02
#       8
#     8   8   8   8   8   8   8   8
#     4  10  20  32  45  67 100 136 170 206 245 297
#     4  11  22  36  52  69  99 142 178 213 259 307
#     4   8  16  33  55  82 108 133 169 210 256 312
#     4   9  17  32  57  82 106 135 170 211 252 308
#     4  11  22  35  53  76 103 136 177 222 263 309
#     4  10  21  35  50  72 105 140 174 212 260 313
#     4  10  20  34  54  75 102 137 168 208 266 317
#     4  11  21  31  48  74 103 133 171 215 253 303
#
# _framework density 18.061886000000001
#
# number of rings (size 3 to 8) (size 9 to 14) (size 15 to 20)
#    0.000    2.000    2.500    2.625    0.000    2.500 
#    0.000    1.875    0.000    0.750    0.000    5.250 
#    0.000    0.000    0.000    0.000    0.000    0.000 
#
# Total GULP energy -396632.484461 kJ/mol
# GULP energy per Si atom -12394.765139 kJ/mol
# Density = 1.802078 g / cm^3
# Si number density = 18.061886 Si / 1000 Ang^3
#
#
#
# Elastic Constant Matrix: (Units=GPa)
#
#
# Indices 1 2 3 4 5 6 
#
# 1 92.3086 35.7512 36.5088 0.0000 -17.4964 0.0000
# 2 35.7512 75.7633 31.6740 0.0000 -13.2776 0.0000
# 3 36.5088 31.6740 85.7477 0.0000 -10.1896 0.0000
# 4 0.0000 0.0000 0.0000 25.0878 0.0000 -6.6646
# 5 -17.4964 -13.2776 -10.1896 0.0000 30.1904 0.0000
# 6 0.0000 0.0000 0.0000 -6.6646 0.0000 26.0078
#
#
#
# Elastic Compliance Matrix: (Units=1/GPa)
#
#
# Indices 1 2 3 4 5 6 
#
# 1 0.015266 -0.004496 -0.004191 0.000000 0.005456 0.000000
# 2 -0.004496 0.017733 -0.004187 0.000000 0.003781 0.000000
# 3 -0.004191 -0.004187 0.015091 0.000000 0.000823 0.000000
# 4 0.000000 0.000000 0.000000 0.042772 0.000000 0.010960
# 5 0.005456 0.003781 0.000823 0.000000 0.038225 0.000000
# 6 0.000000 0.000000 0.000000 0.010960 0.000000 0.041259
#
#
# Mechanical properties :
#
#
# Convention : Reuss Voigt Hill
#
# Bulk Modulus (GPa) = 44.75651 51.29864 48.02757
# Shear Modulus (GPa) = 24.56510 26.24957 25.40733
#
# Velocity S-wave (km/s) = 3.69189 3.81637 3.75465
# Velocity P-wave (km/s) = 6.55795 6.91974 6.74127
#
# Compressibility (1/GPa) = 0.02234312
#
# Stress axis : x y z
#
# Youngs Moduli (GPa) = 65.50527 56.39079 66.26483
#
# Poissons Ratio (x) = 0.25351 0.27771
# Poissons Ratio (y) = 0.29448 0.27746
# Poissons Ratio (z) = 0.27453 0.23612
#
# Static dielectric constant tensor:
#      x y z
#    x 3.304200 0.000000 0.062050 
#    y 0.000000 3.305190 0.000000 
#    z 0.062050 0.000000 3.539450 
# 
# 
# High freq. dielectric constant tensor:
#      x y z
#    x 1.678830 0.000000 -0.009690 
#    y 0.000000 1.690810 0.000000 
#    z -0.009690 0.000000 1.697180 
# 
# From -- ./inp_files/248496.got.cif
#   From: 2010.06.25/outbox.cif.g09.slc.cpg/sg12_125_cif.got.tgz:248496.got - 2010.06.28 00:19:55.
