data_PCOD8095173
_publ_section_title
;
Structure prediction by ZEFSAII (Michael W. Deem and Ramdas Pophale) SiO2 
 PCOD8095173
Probable space group: C 2/M
;
_chemical_formula_sum "Si O2"
_cell_formula_units_Z 60
_cell_length_a 26.924537
_cell_length_b 9.183806
_cell_length_c 17.038543
_cell_angle_alpha 90.000000
_cell_angle_beta 126.959164
_cell_angle_gamma 90.000000
_cell_volume 3366.550177
_symmetry_space_group_name_H-M "C 2/M"
_symmetry_group_IT_number 12
_symmetry_cell_setting 'monoclinic'
loop_
_space_group_symop_operation_xyz
x,y,z
-x,y,-z
-x,-y,-z
x,-y,z
1/2+x,1/2+y,z
1/2-x,1/2+y,-z
1/2-x,1/2-y,-z
1/2+x,1/2-y,z
loop_
_atom_site_type_symbol
_atom_site_label
_atom_site_fract_x
_atom_site_fract_y
_atom_site_fract_z
Si Si1 0.655984 0.171928 0.387858
Si Si2 0.601178 0.825682 0.880235
Si Si3 0.296099 0.671582 0.103723
Si Si4 0.128238 0.162379 0.059373
Si Si5 0.718365 0.667777 0.576983
Si Si6 0.738207 0.832588 0.215623
Si Si7 0.530759 0.835793 0.197856
Si Si8 0.500000 0.741564 0.000000
O O1 0.664809 0.239983 0.482865
O O2 0.713691 0.217303 0.388382
O O3 0.593970 0.240755 0.288174
O O4 0.651050 0.000000 0.391996
O O5 0.635764 0.744634 0.841686
O O6 0.529621 0.770518 0.814968
O O7 0.608077 0.000000 0.880937
O O8 0.633049 0.772890 0.991079
O O9 0.298233 0.500000 0.087624
O O10 0.276221 0.703656 0.173492
O O11 0.250000 0.750000 0.000000
O O12 0.177779 0.229350 0.167491
O O13 0.059608 0.146989 0.031612
O O14 0.148472 0.000000 0.052944
O O15 0.706204 0.500000 0.545515
O O16 0.715970 0.698508 0.667746
O O17 0.715340 0.000000 0.196428
O O18 0.521766 0.835709 0.095283
O O19 0.535820 0.000000 0.230016
#
# Coordination Sequence:
#
# PCOD8095173 Si02
#       8
#     8   8   8   8   8   8   8   4
#     4   9  17  32  53  76 103 132 167 210 254 301
#     4  10  20  34  51  72 100 135 175 209 249 307
#     4  11  21  34  53  76 103 135 171 215 263 311
#     4  11  21  32  47  70 103 137 169 207 252 302
#     4   9  18  33  52  76 102 131 168 210 256 307
#     4  10  21  35  53  74 100 133 172 213 255 308
#     4   9  18  32  52  75 100 137 176 210 250 307
#     4  10  20  32  46  72 107 138 169 206 249 302
#
# _framework density 17.822398
#
# number of rings (size 3 to 8) (size 9 to 14) (size 15 to 20)
#    0.000    2.133    1.333    2.400    0.000    3.733 
#    0.000    6.667    0.000    0.800    0.000    5.600 
#    0.000    0.000    0.000    0.000    0.000    0.000 
#
# Total GULP energy -371844.587789 kJ/mol
# GULP energy per Si atom -12394.819593 kJ/mol
# Density = 1.778183 g / cm^3
# Si number density = 17.822398 Si / 1000 Ang^3
#
#
#
# Elastic Constant Matrix: (Units=GPa)
#
#
# Indices 1 2 3 4 5 6 
#
# 1 97.0713 36.5553 59.9886 0.0000 -0.1791 0.0000
# 2 36.5553 67.6061 35.8743 0.0000 0.0539 0.0000
# 3 59.9886 35.8743 131.6568 0.0000 4.5014 0.0000
# 4 0.0000 0.0000 0.0000 21.1116 0.0000 -1.2056
# 5 -0.1791 0.0539 4.5014 0.0000 27.5445 0.0000
# 6 0.0000 0.0000 0.0000 -1.2056 0.0000 23.5435
#
#
#
# Elastic Compliance Matrix: (Units=1/GPa)
#
#
# Indices 1 2 3 4 5 6 
#
# 1 0.015986 -0.005565 -0.005804 0.000000 0.001063 0.000000
# 2 -0.005565 0.019244 -0.002721 0.000000 0.000371 0.000000
# 3 -0.005804 -0.002721 0.011044 0.000000 -0.001837 0.000000
# 4 0.000000 0.000000 0.000000 0.047506 0.000000 0.002433
# 5 0.001063 0.000371 -0.001837 0.000000 0.036611 0.000000
# 6 0.000000 0.000000 0.000000 0.002433 0.000000 0.042599
#
#
# Mechanical properties :
#
#
# Convention : Reuss Voigt Hill
#
# Bulk Modulus (GPa) = 55.26359 62.35229 58.80794
# Shear Modulus (GPa) = 24.13108 25.36767 24.74938
#
# Velocity S-wave (km/s) = 3.68363 3.77684 3.73053
# Velocity P-wave (km/s) = 7.01195 7.35395 7.18499
#
# Compressibility (1/GPa) = 0.01809510
#
# Stress axis : x y z
#
# Youngs Moduli (GPa) = 62.55456 51.96433 90.54509
#
# Poissons Ratio (x) = 0.28917 0.52552
# Poissons Ratio (y) = 0.34811 0.24635
# Poissons Ratio (z) = 0.36306 0.14138
#
# Static dielectric constant tensor:
#      x y z
#    x 3.522400 0.000000 0.113320 
#    y 0.000000 3.167900 0.000000 
#    z 0.113320 0.000000 3.367720 
# 
# 
# High freq. dielectric constant tensor:
#      x y z
#    x 1.683640 0.000000 0.003510 
#    y 0.000000 1.681380 0.000000 
#    z 0.003510 0.000000 1.673580 
# 
# From -- ./inp_files/291914.got.cif
#   From: 2010.06.25/outbox.cif.g09.slc.cpg/sg12_146_cif.got.tgz:291914.got - 2010.06.28 00:19:55.
