data_PCOD8095977
_publ_section_title
;
Structure prediction by ZEFSAII (Michael W. Deem and Ramdas Pophale) SiO2 
 PCOD8095977
Probable space group: C 2/M
;
_chemical_formula_sum "Si O2"
_cell_formula_units_Z 64
_cell_length_a 30.373314
_cell_length_b 8.426629
_cell_length_c 14.872274
_cell_angle_alpha 90.000000
_cell_angle_beta 79.135132
_cell_angle_gamma 90.000000
_cell_volume 3738.245811
_symmetry_space_group_name_H-M "C 2/M"
_symmetry_group_IT_number 12
_symmetry_cell_setting 'monoclinic'
loop_
_space_group_symop_operation_xyz
x,y,z
-x,y,-z
-x,-y,-z
x,-y,z
1/2+x,1/2+y,z
1/2-x,1/2+y,-z
1/2-x,1/2-y,-z
1/2+x,1/2-y,z
loop_
_atom_site_type_symbol
_atom_site_label
_atom_site_fract_x
_atom_site_fract_y
_atom_site_fract_z
Si Si1 0.718767 0.681988 0.192418
Si Si2 0.781155 0.685061 0.616291
Si Si3 0.188129 0.182847 0.890744
Si Si4 0.054458 0.311541 0.068905
Si Si5 0.685233 0.686619 0.573798
Si Si6 0.131578 0.687263 0.750523
Si Si7 0.542599 0.812132 0.873377
Si Si8 0.850081 0.684737 0.915536
O O1 0.733570 0.500000 0.178671
O O2 0.705667 0.720213 0.299724
O O3 0.758948 0.791568 0.141920
O O4 0.675503 0.712080 0.148013
O O5 0.785461 0.500000 0.634261
O O6 0.730900 0.732909 0.607400
O O7 0.815337 0.735167 0.524458
O O8 0.164117 0.224678 0.807024
O O9 0.179805 0.000000 0.918393
O O10 0.170077 0.292395 0.977422
O O11 0.056393 0.500000 0.063775
O O12 0.098324 0.252443 0.105477
O O13 0.007801 0.253430 0.133852
O O14 0.055857 0.244301 0.966416
O O15 0.679616 0.500000 0.565987
O O16 0.643920 0.759651 0.645219
O O17 0.137551 0.500000 0.760664
O O18 0.080106 0.742480 0.787379
O O19 0.541671 0.000000 0.879640
O O20 0.846653 0.500000 0.891610
#
# Coordination Sequence:
#
# PCOD8095977 Si02
#       8
#     8   8   8   8   8   8   8   8
#     4  12  24  37  52  71  99 135 172 210 250 295
#     4  10  20  35  53  74  99 130 167 208 247 294
#     4  12  23  35  48  69 102 137 174 211 245 292
#     4   8  14  27  48  73  99 128 165 209 248 290
#     4  10  20  33  51  74 103 133 163 204 250 299
#     4  11  19  30  51  77 103 135 169 205 248 298
#     4   8  14  26  47  75 101 127 164 206 249 293
#     4  11  21  35  53  73  98 134 175 212 249 292
#
# _framework density 17.120328000000001
#
# number of rings (size 3 to 8) (size 9 to 14) (size 15 to 20)
#    0.000    1.750    2.500    4.875    0.000    1.000 
#    0.000    0.000    0.000    3.750    0.000    0.875 
#    0.000    7.000    0.000    0.000    0.000    0.000 
#
# Total GULP energy -396789.373744 kJ/mol
# GULP energy per Si atom -12399.667929 kJ/mol
# Density = 1.708136 g / cm^3
# Si number density = 17.120328 Si / 1000 Ang^3
#
#
#
# Elastic Constant Matrix: (Units=GPa)
#
#
# Indices 1 2 3 4 5 6 
#
# 1 114.2273 14.1733 47.0816 0.0000 -15.7156 0.0000
# 2 14.1733 49.9238 11.1163 0.0000 -1.7145 0.0000
# 3 47.0816 11.1163 81.5382 0.0000 -15.5063 0.0000
# 4 0.0000 0.0000 0.0000 26.2265 0.0000 0.9451
# 5 -15.7156 -1.7145 -15.5063 0.0000 25.1439 0.0000
# 6 0.0000 0.0000 0.0000 0.9451 0.0000 15.7402
#
#
#
# Elastic Compliance Matrix: (Units=1/GPa)
#
#
# Indices 1 2 3 4 5 6 
#
# 1 0.011947 -0.001944 -0.005935 0.000000 0.003675 0.000000
# 2 -0.001944 0.020977 -0.001922 0.000000 -0.000970 0.000000
# 3 -0.005935 -0.001922 0.017245 0.000000 0.006795 0.000000
# 4 0.000000 0.000000 0.000000 0.038212 0.000000 -0.002294
# 5 0.003675 -0.000970 0.006795 0.000000 0.046192 0.000000
# 6 0.000000 0.000000 0.000000 -0.002294 0.000000 0.063669
#
#
# Mechanical properties :
#
#
# Convention : Reuss Voigt Hill
#
# Bulk Modulus (GPa) = 32.71353 43.38132 38.04742
# Shear Modulus (GPa) = 21.92657 24.97667 23.45162
#
# Velocity S-wave (km/s) = 3.58262 3.82368 3.70511
# Velocity P-wave (km/s) = 6.02188 6.69986 6.36990
#
# Compressibility (1/GPa) = 0.03056839
#
# Stress axis : x y z
#
# Youngs Moduli (GPa) = 83.69977 47.67110 57.98723
#
# Poissons Ratio (x) = 0.09268 0.34414
# Poissons Ratio (y) = 0.16273 0.11143
# Poissons Ratio (z) = 0.49674 0.09161
#
# Static dielectric constant tensor:
#      x y z
#    x 3.428030 0.000000 -0.212200 
#    y 0.000000 3.031320 0.000000 
#    z -0.212200 0.000000 3.182450 
# 
# 
# High freq. dielectric constant tensor:
#      x y z
#    x 1.644970 0.000000 -0.014890 
#    y 0.000000 1.654640 0.000000 
#    z -0.014890 0.000000 1.644320 
# 
# From -- ./inp_files/243956.got.cif
#   From: 2010.06.25/outbox.cif.g09.slc.cpg/sg12_122_cif.got.tgz:243956.got - 2010.06.28 00:19:55.
