data_PCOD8095321
_publ_section_title
;
Structure prediction by ZEFSAII (Michael W. Deem and Ramdas Pophale) SiO2 
 PCOD8095321
Probable space group: C 2/M
;
_chemical_formula_sum "Si O2"
_cell_formula_units_Z 64
_cell_length_a 23.075572
_cell_length_b 9.431600
_cell_length_c 20.657783
_cell_angle_alpha 90.000000
_cell_angle_beta 52.484965
_cell_angle_gamma 90.000000
_cell_volume 3566.159337
_symmetry_space_group_name_H-M "C 2/M"
_symmetry_group_IT_number 12
_symmetry_cell_setting 'monoclinic'
loop_
_space_group_symop_operation_xyz
x,y,z
-x,y,-z
-x,-y,-z
x,-y,z
1/2+x,1/2+y,z
1/2-x,1/2+y,-z
1/2-x,1/2-y,-z
1/2+x,1/2-y,z
loop_
_atom_site_type_symbol
_atom_site_label
_atom_site_fract_x
_atom_site_fract_y
_atom_site_fract_z
Si Si1 0.482244 0.663340 0.187018
Si Si2 0.208819 0.168834 0.269897
Si Si3 0.758855 0.165662 0.896159
Si Si4 0.551172 0.333993 0.409065
Si Si5 0.655882 0.162369 0.739148
Si Si6 0.317910 0.163185 0.429170
Si Si7 0.044708 0.162503 0.647160
Si Si8 0.144493 0.834819 0.048055
O O1 0.465243 0.500000 0.184597
O O2 0.418410 0.752537 0.196241
O O3 0.487172 0.692232 0.260255
O O4 0.559646 0.709163 0.104408
O O5 0.214744 0.219908 0.191725
O O6 0.133616 0.229617 0.352642
O O7 0.278448 0.226368 0.262377
O O8 0.206454 0.000000 0.274692
O O9 0.822438 0.202034 0.904002
O O10 0.740441 0.000000 0.907533
O O11 0.684589 0.246570 0.965133
O O12 0.500000 0.264626 0.500000
O O13 0.556422 0.500000 0.419427
O O14 0.518382 0.303030 0.360865
O O15 0.679621 0.178930 0.649266
O O16 0.640451 0.000000 0.768035
O O17 0.250000 0.250000 0.500000
O O18 0.388845 0.232649 0.413441
O O19 0.312287 0.000000 0.454697
O O20 0.071932 0.000000 0.621871
O O21 0.154719 0.000000 0.026044
#
# Coordination Sequence:
#
# PCOD8095321 Si02
#       8
#     8   8   8   8   8   8   8   8
#     4   9  17  31  50  71  98 129 161 200 244 289
#     4   9  17  31  49  71 101 129 159 203 249 290
#     4   9  17  30  50  75 100 128 159 197 246 291
#     4   9  17  27  47  76  99 123 159 202 245 291
#     4   9  19  33  50  71  96 127 165 205 244 288
#     4  10  20  32  49  71  95 126 163 205 247 287
#     4   9  17  30  49  73  97 122 159 201 244 292
#     4   9  17  30  50  75 102 127 159 201 241 288
#
# _framework density 17.946477999999999
#
# number of rings (size 3 to 8) (size 9 to 14) (size 15 to 20)
#    0.000    2.875    0.000    1.125    1.750    4.000 
#    0.000    1.250    0.000    7.125    0.000    0.000 
#    0.000    0.000    0.000    0.000    0.000    0.000 
#
# Total GULP energy -396756.365570 kJ/mol
# GULP energy per Si atom -12398.636424 kJ/mol
# Density = 1.790563 g / cm^3
# Si number density = 17.946478 Si / 1000 Ang^3
#
#
#
# Elastic Constant Matrix: (Units=GPa)
#
#
# Indices 1 2 3 4 5 6 
#
# 1 120.9103 36.0139 64.4894 0.0000 -23.0528 0.0002
# 2 36.0139 52.9616 36.8975 0.0001 -17.9452 0.0002
# 3 64.4894 36.8975 115.3206 0.0000 -28.1331 0.0000
# 4 0.0000 0.0001 0.0000 25.7967 0.0000 -6.3068
# 5 -23.0528 -17.9452 -28.1331 0.0000 33.0213 0.0000
# 6 0.0002 0.0002 0.0000 -6.3068 0.0000 24.7413
#
#
#
# Elastic Compliance Matrix: (Units=1/GPa)
#
#
# Indices 1 2 3 4 5 6 
#
# 1 0.012748 -0.004309 -0.005239 0.000000 0.002094 0.000000
# 2 -0.004309 0.027704 -0.004438 0.000000 0.008267 0.000000
# 3 -0.005239 -0.004438 0.014569 0.000000 0.006343 0.000000
# 4 0.000000 0.000000 0.000000 0.041341 0.000000 0.010538
# 5 0.002094 0.008267 0.006343 0.000000 0.041642 0.000000
# 6 0.000000 0.000000 0.000000 0.010538 0.000000 0.043105
#
#
# Mechanical properties :
#
#
# Convention : Reuss Voigt Hill
#
# Bulk Modulus (GPa) = 36.97006 62.66600 49.81803
# Shear Modulus (GPa) = 22.92563 26.83129 24.87846
#
# Velocity S-wave (km/s) = 3.57801 3.87081 3.72729
# Velocity P-wave (km/s) = 6.14121 7.41429 6.80757
#
# Compressibility (1/GPa) = 0.02704891
#
# Stress axis : x y z
#
# Youngs Moduli (GPa) = 78.44549 36.09523 68.64069
#
# Poissons Ratio (x) = 0.15553 0.35963
# Poissons Ratio (y) = 0.33800 0.30462
# Poissons Ratio (z) = 0.41100 0.16019
#
# Static dielectric constant tensor:
#      x y z
#    x 3.507510 0.000000 -0.169280 
#    y 0.000000 3.152890 0.000000 
#    z -0.169280 0.000000 3.423970 
# 
# 
# High freq. dielectric constant tensor:
#      x y z
#    x 1.695570 0.000000 -0.011070 
#    y 0.000000 1.661750 0.000000 
#    z -0.011070 0.000000 1.694300 
# 
# From -- ./inp_files/324081.got.cif
#   From: 2010.06.25/outbox.cif.g09.slc.cpg/sg12_163_cif.got.tgz:324081.got - 2010.06.28 00:19:55.
