data_PCOD8095744
_publ_section_title
;
Structure prediction by ZEFSAII (Michael W. Deem and Ramdas Pophale) SiO2 
 PCOD8095744
Probable space group: C 2/M
;
_chemical_formula_sum "Si O2"
_cell_formula_units_Z 56
_cell_length_a 27.894105
_cell_length_b 8.951814
_cell_length_c 12.120211
_cell_angle_alpha 90.000000
_cell_angle_beta 109.360682
_cell_angle_gamma 90.000000
_cell_volume 2855.306427
_symmetry_space_group_name_H-M "C 2/M"
_symmetry_group_IT_number 12
_symmetry_cell_setting 'monoclinic'
loop_
_space_group_symop_operation_xyz
x,y,z
-x,y,-z
-x,-y,-z
x,-y,z
1/2+x,1/2+y,z
1/2-x,1/2+y,-z
1/2-x,1/2-y,-z
1/2+x,1/2-y,z
loop_
_atom_site_type_symbol
_atom_site_label
_atom_site_fract_x
_atom_site_fract_y
_atom_site_fract_z
Si Si1 0.441746 0.178189 0.472491
Si Si2 0.861970 0.670415 0.229730
Si Si3 0.593038 0.174073 0.320960
Si Si4 0.491653 0.333686 0.865608
Si Si5 0.750464 0.828132 0.880888
Si Si6 0.103480 0.170303 0.947849
Si Si7 0.658821 0.822844 0.175558
O O1 0.500000 0.237700 0.500000
O O2 0.403176 0.233917 0.348004
O O3 0.416482 0.246247 0.565502
O O4 0.442973 0.000000 0.477483
O O5 0.876242 0.500000 0.210612
O O6 0.803551 0.681272 0.225060
O O7 0.859847 0.769918 0.118677
O O8 0.543942 0.208148 0.210434
O O9 0.643611 0.224203 0.290781
O O10 0.596225 0.000000 0.341384
O O11 0.469571 0.500000 0.825086
O O12 0.547155 0.313419 0.854917
O O13 0.500000 0.309545 0.000000
O O14 0.789689 0.754230 0.825319
O O15 0.765828 0.000000 0.912425
O O16 0.750000 0.750000 0.000000
O O17 0.116686 0.000000 0.987528
O O18 0.111926 0.267414 0.064358
O O19 0.664633 0.000000 0.169235
#
# Coordination Sequence:
#
# PCOD8095744 Si02
#       7
#     8   8   8   8   8   8   8
#     4   9  18  36  61  86 113 146 187 238 289 337
#     4  10  21  37  59  84 111 145 190 238 286 341
#     4  10  21  36  57  83 111 149 194 240 284 336
#     4  10  20  33  49  76 113 149 182 223 285 348
#     4  11  22  36  57  85 116 151 191 238 288 342
#     4  11  21  33  53  80 113 149 185 230 285 344
#     4  11  22  35  53  81 115 148 187 234 287 342
#
# _framework density 19.612606
#
# number of rings (size 3 to 8) (size 9 to 14) (size 15 to 20)
#    0.000    1.714    2.857    2.143    0.000    3.714 
#    0.000    1.429    0.000    2.571    0.000    0.000 
#    0.000    0.000    0.000    0.000    0.000    0.000 
#
# Total GULP energy -346953.410334 kJ/mol
# GULP energy per Si atom -12391.193226 kJ/mol
# Density = 1.956797 g / cm^3
# Si number density = 19.612606 Si / 1000 Ang^3
#
#
#
# Elastic Constant Matrix: (Units=GPa)
#
#
# Indices 1 2 3 4 5 6 
#
# 1 117.9104 38.5708 60.6388 0.0000 -15.1319 0.0000
# 2 38.5708 56.6035 24.4119 0.0000 -10.9868 0.0000
# 3 60.6388 24.4119 75.8053 0.0000 -13.0134 0.0000
# 4 0.0000 0.0000 0.0000 9.9678 0.0000 1.2787
# 5 -15.1319 -10.9868 -13.0134 0.0000 39.7312 0.0000
# 6 0.0000 0.0000 0.0000 1.2787 0.0000 24.4518
#
#
#
# Elastic Compliance Matrix: (Units=1/GPa)
#
#
# Indices 1 2 3 4 5 6 
#
# 1 0.016169 -0.006190 -0.010784 0.000000 0.000914 0.000000
# 2 -0.006190 0.023417 -0.001995 0.000000 0.003465 0.000000
# 3 -0.010784 -0.001995 0.022951 0.000000 0.002858 0.000000
# 4 0.000000 0.000000 0.000000 0.101001 0.000000 -0.005282
# 5 0.000914 0.003465 0.002858 0.000000 0.027412 0.000000
# 6 0.000000 0.000000 0.000000 -0.005282 0.000000 0.041173
#
#
# Mechanical properties :
#
#
# Convention : Reuss Voigt Hill
#
# Bulk Modulus (GPa) = 40.64966 55.28470 47.96718
# Shear Modulus (GPa) = 17.96878 23.27666 20.62272
#
# Velocity S-wave (km/s) = 3.03014 3.44876 3.24621
# Velocity P-wave (km/s) = 5.74575 6.64140 6.20974
#
# Compressibility (1/GPa) = 0.02460045
#
# Stress axis : x y z
#
# Youngs Moduli (GPa) = 61.84689 42.70319 43.57072
#
# Poissons Ratio (x) = 0.26431 0.46986
# Poissons Ratio (y) = 0.38280 0.08693
# Poissons Ratio (z) = 0.66694 0.08520
#
# Static dielectric constant tensor:
#      x y z
#    x 4.004640 0.000000 -0.123120 
#    y 0.000000 3.412760 0.000000 
#    z -0.123120 0.000000 3.580570 
# 
# 
# High freq. dielectric constant tensor:
#      x y z
#    x 1.781100 0.000000 -0.008960 
#    y 0.000000 1.746980 0.000000 
#    z -0.008960 0.000000 1.741760 
# 
# From -- ./inp_files/186806.got.cif
#   From: 2010.06.25/outbox.cif.g09.slc.cpg/sg12_94_cif.got.tgz:186806.got - 2010.06.28 00:19:55.
