data_PCOD8095397
_publ_section_title
;
Structure prediction by ZEFSAII (Michael W. Deem and Ramdas Pophale) SiO2 
 PCOD8095397
Probable space group: C 2/M
;
_chemical_formula_sum "Si O2"
_cell_formula_units_Z 64
_cell_length_a 15.313267
_cell_length_b 9.472770
_cell_length_c 25.372243
_cell_angle_alpha 90.000000
_cell_angle_beta 107.616848
_cell_angle_gamma 90.000000
_cell_volume 3507.865719
_symmetry_space_group_name_H-M "C 2/M"
_symmetry_group_IT_number 12
_symmetry_cell_setting 'monoclinic'
loop_
_space_group_symop_operation_xyz
x,y,z
-x,y,-z
-x,-y,-z
x,-y,z
1/2+x,1/2+y,z
1/2-x,1/2+y,-z
1/2-x,1/2-y,-z
1/2+x,1/2-y,z
loop_
_atom_site_type_symbol
_atom_site_label
_atom_site_fract_x
_atom_site_fract_y
_atom_site_fract_z
Si Si1 0.005890 0.664142 0.062275
Si Si2 0.302332 0.163850 0.053612
Si Si3 0.248228 0.667451 0.743852
Si Si4 0.180127 0.834453 0.130284
Si Si5 0.473287 0.846190 0.555111
Si Si6 0.813249 0.839355 0.549106
Si Si7 0.626917 0.664660 0.327899
Si Si8 0.051541 0.339346 0.676169
O O1 0.030082 0.500000 0.073622
O O2 0.085644 0.754480 0.103010
O O3 0.910066 0.702855 0.073384
O O4 0.000000 0.705152 0.000000
O O5 0.258114 0.202085 0.101714
O O6 0.289946 0.000000 0.037334
O O7 0.250000 0.250000 0.000000
O O8 0.243291 0.500000 0.738769
O O9 0.280859 0.718630 0.806944
O O10 0.320398 0.723017 0.713741
O O11 0.146433 0.728031 0.714375
O O12 0.157912 0.000000 0.126648
O O13 0.500000 0.838765 0.500000
O O14 0.415186 0.707763 0.554877
O O15 0.555766 0.836440 0.612653
O O16 0.423819 0.000000 0.555176
O O17 0.750000 0.750000 0.500000
O O18 0.802598 0.813724 0.609941
O O19 0.797476 0.000000 0.530723
O O20 0.600417 0.500000 0.318277
O O21 0.533565 0.751678 0.316710
O O22 0.040216 0.500000 0.694391
#
# Coordination Sequence:
#
# PCOD8095397 Si02
#       8
#     8   8   8   8   8   8   8   8
#     4  10  20  35  55  80 113 146 173 212 269 317
#     4  10  20  34  54  79 109 142 174 214 262 310
#     4   9  19  36  57  78 104 143 183 217 260 318
#     4  10  21  36  55  82 109 138 184 224 254 309
#     4   9  18  31  51  77 104 133 173 216 264 326
#     4  10  20  32  50  75 104 135 172 219 271 323
#     4   9  19  36  56  75 104 141 177 219 271 321
#     4   9  18  34  56  78 104 139 179 222 265 314
#
# _framework density 18.244712
#
# number of rings (size 3 to 8) (size 9 to 14) (size 15 to 20)
#    0.000    2.500    1.250    0.375    1.750    2.500 
#    0.000    3.125    0.000    0.000    0.000    0.000 
#    0.000    0.000    0.000    0.000    0.000    0.000 
#
# Total GULP energy -396588.978481 kJ/mol
# GULP energy per Si atom -12393.405578 kJ/mol
# Density = 1.820319 g / cm^3
# Si number density = 18.244712 Si / 1000 Ang^3
#
#
#
# Elastic Constant Matrix: (Units=GPa)
#
#
# Indices 1 2 3 4 5 6 
#
# 1 140.5062 51.4717 89.4596 0.0000 3.5256 0.0000
# 2 51.4717 60.9800 58.3152 0.0000 3.4352 0.0000
# 3 89.4596 58.3152 160.6019 0.0000 2.7783 0.0000
# 4 0.0000 0.0000 0.0000 20.3759 0.0000 1.5594
# 5 3.5256 3.4352 2.7783 0.0000 32.6913 0.0000
# 6 0.0000 0.0000 0.0000 1.5594 0.0000 21.1687
#
#
#
# Elastic Compliance Matrix: (Units=1/GPa)
#
#
# Indices 1 2 3 4 5 6 
#
# 1 0.012256 -0.005827 -0.004705 0.000000 -0.000309 0.000000
# 2 -0.005827 0.028007 -0.006894 0.000000 -0.001729 0.000000
# 3 -0.004705 -0.006894 0.011346 0.000000 0.000268 0.000000
# 4 0.000000 0.000000 0.000000 0.049356 0.000000 -0.003636
# 5 -0.000309 -0.001729 0.000268 0.000000 0.030781 0.000000
# 6 0.000000 0.000000 0.000000 -0.003636 0.000000 0.047507
#
#
# Mechanical properties :
#
#
# Convention : Reuss Voigt Hill
#
# Bulk Modulus (GPa) = 59.67969 84.50902 72.09435
# Shear Modulus (GPa) = 22.75917 25.70331 24.23124
#
# Velocity S-wave (km/s) = 3.53574 3.75748 3.64830
# Velocity P-wave (km/s) = 7.03209 8.07745 7.57283
#
# Compressibility (1/GPa) = 0.01675612
#
# Stress axis : x y z
#
# Youngs Moduli (GPa) = 81.59586 35.70488 88.13632
#
# Poissons Ratio (x) = 0.20807 0.41471
# Poissons Ratio (y) = 0.47549 0.60758
# Poissons Ratio (z) = 0.38394 0.24614
#
# Static dielectric constant tensor:
#      x y z
#    x 3.032130 0.000000 0.102650 
#    y 0.000000 3.322990 0.000000 
#    z 0.102650 0.000000 3.792610 
# 
# 
# High freq. dielectric constant tensor:
#      x y z
#    x 1.702500 0.000000 0.000500 
#    y 0.000000 1.693690 0.000000 
#    z 0.000500 0.000000 1.714260 
# 
# From -- ./inp_files/359898.got.cif
#   From: 2010.06.25/outbox.cif.g09.slc.cpg/sg12_180_cif.got.tgz:359898.got - 2010.06.28 00:19:55.
