data_PCOD8095789
_publ_section_title
;
Structure prediction by ZEFSAII (Michael W. Deem and Ramdas Pophale) SiO2 
 PCOD8095789
Probable space group: C 2/M
;
_chemical_formula_sum "Si O2"
_cell_formula_units_Z 64
_cell_length_a 16.143504
_cell_length_b 9.507923
_cell_length_c 23.857948
_cell_angle_alpha 90.000000
_cell_angle_beta 111.790025
_cell_angle_gamma 90.000000
_cell_volume 3400.337788
_symmetry_space_group_name_H-M "C 2/M"
_symmetry_group_IT_number 12
_symmetry_cell_setting 'monoclinic'
loop_
_space_group_symop_operation_xyz
x,y,z
-x,y,-z
-x,-y,-z
x,-y,z
1/2+x,1/2+y,z
1/2-x,1/2+y,-z
1/2-x,1/2-y,-z
1/2+x,1/2-y,z
loop_
_atom_site_type_symbol
_atom_site_label
_atom_site_fract_x
_atom_site_fract_y
_atom_site_fract_z
Si Si1 0.595117 0.154417 0.873059
Si Si2 0.512259 0.341990 0.232772
Si Si3 0.406613 0.155523 0.004609
Si Si4 0.966306 0.163528 0.429253
Si Si5 0.900455 0.166453 0.633947
Si Si6 0.784539 0.668903 0.362274
Si Si7 0.205035 0.155781 0.106031
Si Si8 0.200654 0.842191 0.227045
O O1 0.563898 0.249403 0.813905
O O2 0.576821 0.222670 0.929536
O O3 0.699321 0.137784 0.895612
O O4 0.549115 0.000000 0.857036
O O5 0.475298 0.500000 0.230693
O O6 0.539517 0.275973 0.299688
O O7 0.596677 0.339474 0.213694
O O8 0.361943 0.000000 0.999963
O O9 0.500000 0.137188 0.000000
O O10 0.347693 0.252982 0.951324
O O11 0.876974 0.255006 0.400007
O O12 0.000000 0.187359 0.500000
O O13 0.048789 0.214662 0.410070
O O14 0.943698 0.000000 0.411677
O O15 0.796191 0.215577 0.614840
O O16 0.897322 0.000000 0.638531
O O17 0.797370 0.500000 0.367704
O O18 0.756911 0.723118 0.292934
O O19 0.211710 0.232212 0.169152
O O20 0.160334 0.000000 0.100923
O O21 0.236928 0.000000 0.229464
#
# Coordination Sequence:
#
# PCOD8095789 Si02
#       8
#     8   8   8   8   8   8   8   8
#     4  10  21  33  47  72 103 128 156 206 260 296
#     4   9  17  32  54  74  94 128 171 205 243 306
#     4  10  21  36  50  66  95 132 165 201 248 300
#     4  10  21  36  54  79 113 147 177 216 267 317
#     4   8  17  35  55  77 109 145 178 218 269 318
#     4   9  18  35  58  79 105 143 183 222 263 314
#     4  10  20  33  50  72  97 125 161 205 251 299
#     4   8  16  32  52  74  98 126 163 209 257 298
#
# _framework density 18.821660000000001
#
# number of rings (size 3 to 8) (size 9 to 14) (size 15 to 20)
#    0.000    2.750    0.000    2.625    1.750    2.000 
#    0.000    3.750    0.000    0.000    0.000    0.000 
#    0.000    0.000    0.000    0.000    0.000    0.000 
#
# Total GULP energy -396457.224162 kJ/mol
# GULP energy per Si atom -12389.288255 kJ/mol
# Density = 1.877882 g / cm^3
# Si number density = 18.821660 Si / 1000 Ang^3
#
#
#
# Elastic Constant Matrix: (Units=GPa)
#
#
# Indices 1 2 3 4 5 6 
#
# 1 72.0097 23.8285 29.2026 0.0000 -5.0600 0.0000
# 2 23.8285 51.9194 30.3000 0.0000 11.0361 0.0000
# 3 29.2026 30.3000 87.6444 0.0000 -7.2267 0.0000
# 4 0.0000 0.0000 0.0000 21.1276 0.0000 2.9507
# 5 -5.0600 11.0361 -7.2267 0.0000 37.3807 0.0000
# 6 0.0000 0.0000 0.0000 2.9507 0.0000 14.0516
#
#
#
# Elastic Compliance Matrix: (Units=1/GPa)
#
#
# Indices 1 2 3 4 5 6 
#
# 1 0.017808 -0.007183 -0.003126 0.000000 0.003927 0.000000
# 2 -0.007183 0.030321 -0.009052 0.000000 -0.011674 0.000000
# 3 -0.003126 -0.009052 0.016022 0.000000 0.005347 0.000000
# 4 0.000000 0.000000 0.000000 0.048761 0.000000 -0.010239
# 5 0.003927 -0.011674 0.005347 0.000000 0.031764 0.000000
# 6 0.000000 0.000000 0.000000 -0.010239 0.000000 0.073317
#
#
# Mechanical properties :
#
#
# Convention : Reuss Voigt Hill
#
# Bulk Modulus (GPa) = 39.32625 42.02619 40.67622
# Shear Modulus (GPa) = 18.85434 23.06146 20.95790
#
# Velocity S-wave (km/s) = 3.16846 3.50417 3.34053
# Velocity P-wave (km/s) = 5.85875 6.22490 6.04460
#
# Compressibility (1/GPa) = 0.02542831
#
# Stress axis : x y z
#
# Youngs Moduli (GPa) = 56.15544 32.98001 62.41561
#
# Poissons Ratio (x) = 0.23690 0.19513
# Poissons Ratio (y) = 0.40337 0.56498
# Poissons Ratio (z) = 0.17556 0.29853
#
# Static dielectric constant tensor:
#      x y z
#    x 3.425240 0.000000 -0.261830 
#    y 0.000000 3.459070 0.000000 
#    z -0.261830 0.000000 3.567500 
# 
# 
# High freq. dielectric constant tensor:
#      x y z
#    x 1.732970 0.000000 -0.013420 
#    y 0.000000 1.694630 0.000000 
#    z -0.013420 0.000000 1.738610 
# 
# From -- ./inp_files/309938.got.cif
#   From: 2010.06.25/outbox.cif.g09.slc.cpg/sg12_155_cif.got.tgz:309938.got - 2010.06.28 00:19:55.
