data_PCOD8095473
_publ_section_title
;
Structure prediction by ZEFSAII (Michael W. Deem and Ramdas Pophale) SiO2 
 PCOD8095473
Probable space group: C 2/M
;
_chemical_formula_sum "Si O2"
_cell_formula_units_Z 56
_cell_length_a 14.318503
_cell_length_b 24.329661
_cell_length_c 9.584611
_cell_angle_alpha 90.000000
_cell_angle_beta 102.314467
_cell_angle_gamma 90.000000
_cell_volume 3262.113458
_symmetry_space_group_name_H-M "C 2/M"
_symmetry_group_IT_number 12
_symmetry_cell_setting 'monoclinic'
loop_
_space_group_symop_operation_xyz
x,y,z
-x,y,-z
-x,-y,-z
x,-y,z
1/2+x,1/2+y,z
1/2-x,1/2+y,-z
1/2-x,1/2-y,-z
1/2+x,1/2-y,z
loop_
_atom_site_type_symbol
_atom_site_label
_atom_site_fract_x
_atom_site_fract_y
_atom_site_fract_z
Si Si1 0.645124 0.668285 0.267431
Si Si2 0.280402 0.349518 0.414594
Si Si3 0.583978 0.825643 0.438385
Si Si4 0.498330 0.240224 0.161132
Si Si5 0.177851 0.259977 0.708288
Si Si6 0.549804 0.438209 0.157283
Si Si7 0.581155 0.438040 0.627936
O O1 0.652327 0.668804 0.436529
O O2 0.550773 0.701163 0.191043
O O3 0.740149 0.695270 0.230496
O O4 0.634606 0.604875 0.215568
O O5 0.174205 0.365282 0.436966
O O6 0.271958 0.298383 0.305845
O O7 0.323200 0.402051 0.350209
O O8 0.500000 0.856757 0.500000
O O9 0.548949 0.804155 0.277169
O O10 0.617824 0.775993 0.550610
O O11 0.388946 0.246358 0.177347
O O12 0.500000 0.220587 0.000000
O O13 0.594013 0.500000 0.171901
O O14 0.460756 0.434513 0.232523
O O15 0.500000 0.421914 0.000000
O O16 0.500000 0.414253 0.500000
O O17 0.608782 0.500000 0.592575
#
# Coordination Sequence:
#
# PCOD8095473 Si02
#       7
#     8   8   8   8   8   8   8
#     4  11  19  33  50  75 101 133 175 205 249 300
#     4  11  18  32  54  74  97 134 171 214 247 299
#     4   9  18  34  50  67  95 134 170 201 248 304
#     4  11  21  32  45  70 106 134 161 209 251 294
#     4  10  20  32  52  71  97 138 174 202 249 311
#     4  10  21  36  51  73 107 141 168 201 252 305
#     4  10  20  33  53  78 101 130 168 208 250 299
#
# _framework density 17.166785000000001
#
# number of rings (size 3 to 8) (size 9 to 14) (size 15 to 20)
#    0.000    1.714    4.286    2.143    0.000    0.571 
#    2.571    0.000    0.000    0.429    0.000    3.000 
#    0.000    1.143    0.000    0.000    0.000    0.000 
#
# Total GULP energy -347092.225800 kJ/mol
# GULP energy per Si atom -12396.150921 kJ/mol
# Density = 1.712771 g / cm^3
# Si number density = 17.166785 Si / 1000 Ang^3
#
#
#
# Elastic Constant Matrix: (Units=GPa)
#
#
# Indices 1 2 3 4 5 6 
#
# 1 125.5021 57.0014 33.3939 0.0000 -5.4338 0.0000
# 2 57.0014 81.4694 24.8236 0.0000 5.8685 0.0000
# 3 33.3939 24.8236 84.2876 0.0000 -12.8341 0.0000
# 4 0.0000 0.0000 0.0000 18.1340 0.0000 3.4907
# 5 -5.4338 5.8685 -12.8341 0.0000 17.0192 0.0000
# 6 0.0000 0.0000 0.0000 3.4907 0.0000 32.4948
#
#
#
# Elastic Compliance Matrix: (Units=1/GPa)
#
#
# Indices 1 2 3 4 5 6 
#
# 1 0.012622 -0.008799 -0.001507 0.000000 0.005928 0.000000
# 2 -0.008799 0.020844 -0.004717 0.000000 -0.013554 0.000000
# 3 -0.001507 -0.004717 0.015844 0.000000 0.013093 0.000000
# 4 0.000000 0.000000 0.000000 0.056309 0.000000 -0.006049
# 5 0.005928 -0.013554 0.013093 0.000000 0.075197 0.000000
# 6 0.000000 0.000000 0.000000 -0.006049 0.000000 0.031424
#
#
# Mechanical properties :
#
#
# Convention : Reuss Voigt Hill
#
# Bulk Modulus (GPa) = 51.90613 57.96631 54.93622
# Shear Modulus (GPa) = 20.10401 25.26563 22.68482
#
# Velocity S-wave (km/s) = 3.42585 3.84053 3.63910
# Velocity P-wave (km/s) = 6.77869 7.31479 7.05183
#
# Compressibility (1/GPa) = 0.01926555
#
# Stress axis : x y z
#
# Youngs Moduli (GPa) = 79.22689 47.97453 63.11633
#
# Poissons Ratio (x) = 0.42213 0.09510
# Poissons Ratio (y) = 0.69712 0.29769
# Poissons Ratio (z) = 0.11937 0.22627
#
# Static dielectric constant tensor:
#      x y z
#    x 3.274540 0.000000 -0.091270 
#    y 0.000000 3.035240 0.000000 
#    z -0.091270 0.000000 3.134500 
# 
# 
# High freq. dielectric constant tensor:
#      x y z
#    x 1.661230 0.000000 -0.010020 
#    y 0.000000 1.629660 0.000000 
#    z -0.010020 0.000000 1.658330 
# 
# From -- ./inp_files/65319.got.cif
#   From: 2010.06.25/outbox.cif.g09.slc.cpg/sg12_33_cif.got.tgz:65319.got - 2010.06.28 00:19:55.
