data_PCOD8095060
_publ_section_title
;
Structure prediction by ZEFSAII (Michael W. Deem and Ramdas Pophale) SiO2 
 PCOD8095060
Probable space group: C 2/M
;
_chemical_formula_sum "Si O2"
_cell_formula_units_Z 48
_cell_length_a 25.509020
_cell_length_b 21.707767
_cell_length_c 11.498165
_cell_angle_alpha 90.000000
_cell_angle_beta 23.424666
_cell_angle_gamma 90.000000
_cell_volume 2531.171187
_symmetry_space_group_name_H-M "C 2/M"
_symmetry_group_IT_number 12
_symmetry_cell_setting 'monoclinic'
loop_
_space_group_symop_operation_xyz
x,y,z
-x,y,-z
-x,-y,-z
x,-y,z
1/2+x,1/2+y,z
1/2-x,1/2+y,-z
1/2-x,1/2-y,-z
1/2+x,1/2-y,z
loop_
_atom_site_type_symbol
_atom_site_label
_atom_site_fract_x
_atom_site_fract_y
_atom_site_fract_z
Si Si1 0.111591 0.933411 0.367009
Si Si2 0.942682 0.172195 0.801177
Si Si3 0.372332 0.675763 0.196637
Si Si4 0.704752 0.849886 0.120571
Si Si5 0.959650 0.310447 0.751147
Si Si6 0.382955 0.178329 0.160807
O O1 0.000000 0.943334 0.500000
O O2 0.061693 0.877037 0.549259
O O3 0.130194 0.000000 0.393653
O O4 0.252751 0.916156 0.019723
O O5 0.008239 0.240212 0.675228
O O6 0.864884 0.154856 0.077388
O O7 0.839918 0.174841 0.903230
O O8 0.374551 0.749080 0.195604
O O9 0.250088 0.648320 0.517822
O O10 0.500000 0.648175 0.000000
O O11 0.584882 0.852299 0.457194
O O12 0.654545 0.808393 0.114500
O O13 0.902378 0.339529 0.986194
O O14 0.500000 0.150448 0.000000
#
# Coordination Sequence:
#
# PCOD8095060 Si02
#       6
#     8   8   8   8   8   8
#     4   9  20  36  53  72  98 140 181 209 247 301
#     4  10  20  31  52  74 107 137 168 216 258 311
#     4   9  18  29  46  72  98 136 175 208 250 301
#     4  10  21  32  48  78 107 135 168 210 261 312
#     4  10  21  29  49  80 109 135 165 206 270 317
#     4   9  17  31  45  65 106 143 168 197 247 323
#
# _framework density 18.963553000000001
#
# number of rings (size 3 to 8) (size 9 to 14) (size 15 to 20)
#    0.000    2.500    0.000    1.500   11.667    2.667 
#    0.000    1.667    0.000    0.500    0.000    0.000 
#    0.000    7.333    0.000    0.000    0.000    0.000 
#
# Total GULP energy -297331.306375 kJ/mol
# GULP energy per Si atom -12388.804432 kJ/mol
# Density = 1.892039 g / cm^3
# Si number density = 18.963553 Si / 1000 Ang^3
#
#
#
# Elastic Constant Matrix: (Units=GPa)
#
#
# Indices 1 2 3 4 5 6 
#
# 1 95.8650 11.4919 53.4060 -0.0005 14.5687 0.0001
# 2 11.4919 74.6142 49.0259 -0.0003 7.7199 0.0002
# 3 53.4060 49.0259 166.6744 0.0000 17.3827 0.0004
# 4 -0.0005 -0.0003 0.0000 -9.1308 0.0011 7.1437
# 5 14.5687 7.7199 17.3827 0.0011 34.1414 -0.0004
# 6 0.0001 0.0002 0.0004 7.1437 -0.0004 -1.1274
#
#
#
# Elastic Compliance Matrix: (Units=1/GPa)
#
#
# Indices 1 2 3 4 5 6 
#
# 1 0.013186 0.001086 -0.004153 0.000000 -0.003758 0.000002
# 2 0.001086 0.016761 -0.005106 0.000000 -0.001654 0.000001
# 3 -0.004153 -0.005106 0.009005 0.000000 -0.001658 -0.000001
# 4 0.000000 0.000000 0.000000 0.027673 0.000001 0.175354
# 5 -0.003758 -0.001654 -0.001658 0.000001 0.032112 -0.000003
# 6 0.000002 0.000001 -0.000001 0.175354 -0.000003 0.224130
#
#
# Mechanical properties :
#
#
# Convention : Reuss Voigt Hill
#
# Bulk Modulus (GPa) = 44.23241 62.77790 53.50516
# Shear Modulus (GPa) = 14.41976 19.65864 17.03920
#
# Velocity S-wave (km/s) = 2.76051 3.22320 3.00079
# Velocity P-wave (km/s) = 5.79104 6.85773 6.34683
#
# Compressibility (1/GPa) = 0.02260786
#
# Stress axis : x y z
#
# Youngs Moduli (GPa) = 75.84034 59.66302 111.04879
#
# Poissons Ratio (x) = -0.06482 0.46114
# Poissons Ratio (y) = -0.08240 0.56698
# Poissons Ratio (z) = 0.31493 0.30462
#
# Static dielectric constant tensor:
#      x y z
#    x 3.492280 0.000000 0.089210 
#    y 0.000000 3.204780 0.000000 
#    z 0.089210 0.000000 3.732390 
# 
# 
# High freq. dielectric constant tensor:
#      x y z
#    x 1.734310 0.000000 0.005710 
#    y 0.000000 1.665450 0.000000 
#    z 0.005710 0.000000 1.749610 
# 
# From -- ./inp_files/185011.got.cif
#   From: 2010.06.25/outbox.cif.g09.slc.cpg/sg12_93_cif.got.tgz:185011.got - 2010.06.28 00:19:55.
