data_PCOD8095998
_publ_section_title
;
Structure prediction by ZEFSAII (Michael W. Deem and Ramdas Pophale) SiO2 
 PCOD8095998
Probable space group: C 2/M
;
_chemical_formula_sum "Si O2"
_cell_formula_units_Z 64
_cell_length_a 14.601951
_cell_length_b 9.473856
_cell_length_c 27.029067
_cell_angle_alpha 90.000000
_cell_angle_beta 105.456762
_cell_angle_gamma 90.000000
_cell_volume 3603.877281
_symmetry_space_group_name_H-M "C 2/M"
_symmetry_group_IT_number 12
_symmetry_cell_setting 'monoclinic'
loop_
_space_group_symop_operation_xyz
x,y,z
-x,y,-z
-x,-y,-z
x,-y,z
1/2+x,1/2+y,z
1/2-x,1/2+y,-z
1/2-x,1/2-y,-z
1/2+x,1/2-y,z
loop_
_atom_site_type_symbol
_atom_site_label
_atom_site_fract_x
_atom_site_fract_y
_atom_site_fract_z
Si Si1 0.467575 0.160563 0.755187
Si Si2 0.973864 0.836868 0.941815
Si Si3 0.154314 0.167775 0.500489
Si Si4 0.268327 0.839916 0.769720
Si Si5 0.038260 0.833238 0.577672
Si Si6 0.925365 0.832299 0.307290
Si Si7 0.430026 0.164619 0.130154
Si Si8 0.223174 0.160882 0.132494
O O1 0.354555 0.170630 0.743823
O O2 0.493173 0.260678 0.713451
O O3 0.518119 0.215781 0.812400
O O4 0.500219 0.000000 0.749018
O O5 0.861809 0.812759 0.918056
O O6 0.032667 0.749040 0.910974
O O7 0.002237 0.000000 0.939512
O O8 0.000000 0.781568 0.000000
O O9 0.250000 0.250000 0.500000
O O10 0.118034 0.216751 0.549722
O O11 0.069142 0.214080 0.451208
O O12 0.174064 0.000000 0.500964
O O13 0.175753 0.781724 0.728535
O O14 0.293400 0.752475 0.821553
O O15 0.252114 0.000000 0.784833
O O16 0.065499 0.774498 0.635548
O O17 0.039842 0.000000 0.577045
O O18 0.937987 0.000000 0.306872
O O19 0.319267 0.201792 0.118319
O O20 0.450008 0.000000 0.124084
O O21 0.227189 0.000000 0.151338
#
# Coordination Sequence:
#
# PCOD8095998 Si02
#       8
#     8   8   8   8   8   8   8   8
#     4  10  20  34  51  76 108 137 168 212 262 306
#     4  10  22  38  55  78 105 132 170 219 261 303
#     4   9  17  33  57  78 102 139 180 218 260 308
#     4  10  20  33  51  75 102 134 172 210 250 303
#     4   8  17  34  52  74 107 143 173 210 262 315
#     4  10  20  34  53  77 105 138 178 214 251 308
#     4  10  20  35  55  77 103 135 169 207 258 315
#     4  10  20  35  55  75 101 135 168 206 256 309
#
# _framework density 17.758649999999999
#
# number of rings (size 3 to 8) (size 9 to 14) (size 15 to 20)
#    0.000    2.375    2.500    0.750    0.000    3.250 
#    0.000    3.750    0.000    0.000    0.000    0.000 
#    0.000    0.000    0.000    0.000    0.000    0.000 
#
# Total GULP energy -396803.491429 kJ/mol
# GULP energy per Si atom -12400.109107 kJ/mol
# Density = 1.771823 g / cm^3
# Si number density = 17.758650 Si / 1000 Ang^3
#
#
#
# Elastic Constant Matrix: (Units=GPa)
#
#
# Indices 1 2 3 4 5 6 
#
# 1 103.7655 30.0674 31.6925 0.0000 -7.7579 0.0000
# 2 30.0674 38.7886 29.8860 0.0000 -8.5439 0.0000
# 3 31.6925 29.8860 110.1411 0.0000 -11.0642 0.0000
# 4 0.0000 0.0000 0.0000 21.8410 0.0000 -6.4808
# 5 -7.7579 -8.5439 -11.0642 0.0000 25.4081 0.0000
# 6 0.0000 0.0000 0.0000 -6.4808 0.0000 32.0462
#
#
#
# Elastic Compliance Matrix: (Units=1/GPa)
#
#
# Indices 1 2 3 4 5 6 
#
# 1 0.012562 -0.008723 -0.001210 0.000000 0.000376 0.000000
# 2 -0.008723 0.040053 -0.007605 0.000000 0.007493 0.000000
# 3 -0.001210 -0.007605 0.011709 0.000000 0.002172 0.000000
# 4 0.000000 0.000000 0.000000 0.048708 0.000000 0.009850
# 5 0.000376 0.007493 0.002172 0.000000 0.042938 0.000000
# 6 0.000000 0.000000 0.000000 0.009850 0.000000 0.033197
#
#
# Mechanical properties :
#
#
# Convention : Reuss Voigt Hill
#
# Bulk Modulus (GPa) = 34.19057 48.44299 41.31678
# Shear Modulus (GPa) = 21.36815 26.59567 23.98191
#
# Velocity S-wave (km/s) = 3.47256 3.87411 3.67881
# Velocity P-wave (km/s) = 5.94751 6.88109 6.43126
#
# Compressibility (1/GPa) = 0.02924783
#
# Stress axis : x y z
#
# Youngs Moduli (GPa) = 79.60311 24.96715 85.40197
#
# Poissons Ratio (x) = 0.21778 0.10335
# Poissons Ratio (y) = 0.69435 0.64951
# Poissons Ratio (z) = 0.09633 0.18988
#
# Static dielectric constant tensor:
#      x y z
#    x 3.399230 0.000000 0.116530 
#    y 0.000000 3.123190 0.000000 
#    z 0.116530 0.000000 3.500310 
# 
# 
# High freq. dielectric constant tensor:
#      x y z
#    x 1.697900 0.000000 0.004420 
#    y 0.000000 1.668910 0.000000 
#    z 0.004420 0.000000 1.684740 
# 
# From -- ./inp_files/339337.got.cif
#   From: 2010.06.25/outbox.cif.g09.slc.cpg/sg12_170_cif.got.tgz:339337.got - 2010.06.28 00:19:55.
