data_PCOD8095624
_publ_section_title
;
Structure prediction by ZEFSAII (Michael W. Deem and Ramdas Pophale) SiO2 
 PCOD8095624
Probable space group: C 2/M
;
_chemical_formula_sum "Si O2"
_cell_formula_units_Z 64
_cell_length_a 24.724205
_cell_length_b 8.812860
_cell_length_c 16.536871
_cell_angle_alpha 90.000000
_cell_angle_beta 70.503267
_cell_angle_gamma 90.000000
_cell_volume 3396.627063
_symmetry_space_group_name_H-M "C 2/M"
_symmetry_group_IT_number 12
_symmetry_cell_setting 'monoclinic'
loop_
_space_group_symop_operation_xyz
x,y,z
-x,y,-z
-x,-y,-z
x,-y,z
1/2+x,1/2+y,z
1/2-x,1/2+y,-z
1/2-x,1/2-y,-z
1/2+x,1/2-y,z
loop_
_atom_site_type_symbol
_atom_site_label
_atom_site_fract_x
_atom_site_fract_y
_atom_site_fract_z
Si Si1 0.604837 0.819453 0.730416
Si Si2 0.509102 0.332424 0.257362
Si Si3 0.307140 0.679378 0.201910
Si Si4 0.367718 0.678702 0.757401
Si Si5 0.350458 0.173771 0.459753
Si Si6 0.695632 0.820104 0.354566
Si Si7 0.043396 0.832716 0.543986
Si Si8 0.254606 0.678756 0.910319
O O1 0.537700 0.772579 0.764690
O O2 0.633521 0.748870 0.795457
O O3 0.640897 0.751492 0.633998
O O4 0.608095 0.000000 0.730131
O O5 0.509953 0.500000 0.215459
O O6 0.573608 0.260979 0.228878
O O7 0.491367 0.350386 0.357530
O O8 0.312586 0.500000 0.191809
O O9 0.256743 0.729734 0.288462
O O10 0.295254 0.749099 0.119987
O O11 0.373007 0.500000 0.741287
O O12 0.355346 0.750380 0.675092
O O13 0.316323 0.722751 0.843223
O O14 0.305196 0.238051 0.549919
O O15 0.410104 0.200263 0.475726
O O16 0.337175 0.000000 0.451281
O O17 0.687194 0.000000 0.357465
O O18 0.000000 0.772304 0.500000
O O19 0.069511 0.000000 0.508885
O O20 0.245286 0.500000 0.919299
O O21 0.250000 0.750000 0.000000
#
# Coordination Sequence:
#
# PCOD8095624 Si02
#       8
#     8   8   8   8   8   8   8   8
#     4  10  20  33  48  69  99 137 178 214 250 293
#     4   9  17  30  47  68  96 131 169 207 246 291
#     4  10  20  35  54  75 100 132 169 208 251 298
#     4   9  18  32  52  77 103 131 165 205 249 297
#     4   9  18  30  42  61  93 131 171 213 253 293
#     4   9  18  31  47  69  98 132 171 215 260 300
#     4   9  16  25  39  60  87 122 166 212 252 289
#     4  10  20  36  59  86 110 130 155 192 243 301
#
# _framework density 18.842220000000001
#
# number of rings (size 3 to 8) (size 9 to 14) (size 15 to 20)
#    0.000    2.625    0.000    1.875    0.000    4.250 
#    0.000    2.500    0.000    0.750    0.000    5.250 
#    0.000    0.000    0.000    0.000    0.000    0.000 
#
# Total GULP energy -396441.398087 kJ/mol
# GULP energy per Si atom -12388.793690 kJ/mol
# Density = 1.879933 g / cm^3
# Si number density = 18.842220 Si / 1000 Ang^3
#
#
#
# Elastic Constant Matrix: (Units=GPa)
#
#
# Indices 1 2 3 4 5 6 
#
# 1 99.1022 28.4866 23.2692 0.0000 24.1777 0.0000
# 2 28.4866 49.8283 20.3184 0.0000 9.7513 0.0000
# 3 23.2692 20.3184 60.4867 0.0000 17.3093 0.0000
# 4 0.0000 0.0000 0.0000 23.4898 0.0000 3.7005
# 5 24.1777 9.7513 17.3093 0.0000 24.1690 0.0000
# 6 0.0000 0.0000 0.0000 3.7005 0.0000 29.0649
#
#
#
# Elastic Compliance Matrix: (Units=1/GPa)
#
#
# Indices 1 2 3 4 5 6 
#
# 1 0.014867 -0.006018 -0.000172 0.000000 -0.012321 0.000000
# 2 -0.006018 0.026135 -0.006502 0.000000 0.000132 0.000000
# 3 -0.000172 -0.006502 0.022618 0.000000 -0.013404 0.000000
# 4 0.000000 0.000000 0.000000 0.043443 0.000000 -0.005531
# 5 -0.012321 0.000132 -0.013404 0.000000 0.063247 0.000000
# 6 0.000000 0.000000 0.000000 -0.005531 0.000000 0.035110
#
#
# Mechanical properties :
#
#
# Convention : Reuss Voigt Hill
#
# Bulk Modulus (GPa) = 26.15289 39.28508 32.71898
# Shear Modulus (GPa) = 20.52979 24.50091 22.51535
#
# Velocity S-wave (km/s) = 3.30443 3.60991 3.46054
# Velocity P-wave (km/s) = 5.33565 6.18627 5.77664
#
# Compressibility (1/GPa) = 0.03823669
#
# Stress axis : x y z
#
# Youngs Moduli (GPa) = 67.26432 38.26327 44.21182
#
# Poissons Ratio (x) = 0.23027 0.00760
# Poissons Ratio (y) = 0.40480 0.28745
# Poissons Ratio (z) = 0.01156 0.24878
#
# Static dielectric constant tensor:
#      x y z
#    x 3.387560 0.000000 0.005480 
#    y 0.000000 3.368180 0.000000 
#    z 0.005480 0.000000 3.348740 
# 
# 
# High freq. dielectric constant tensor:
#      x y z
#    x 1.727750 0.000000 0.007950 
#    y 0.000000 1.723040 0.000000 
#    z 0.007950 0.000000 1.705870 
# 
# From -- ./inp_files/287596.got.cif
#   From: 2010.06.25/outbox.cif.g09.slc.cpg/sg12_144_cif.got.tgz:287596.got - 2010.06.28 00:19:55.
