data_PCOD8095196
_publ_section_title
;
Structure prediction by ZEFSAII (Michael W. Deem and Ramdas Pophale) SiO2 
 PCOD8095196
Probable space group: C 2/M
;
_chemical_formula_sum "Si O2"
_cell_formula_units_Z 48
_cell_length_a 16.521392
_cell_length_b 23.093904
_cell_length_c 13.674552
_cell_angle_alpha 90.000000
_cell_angle_beta 34.141173
_cell_angle_gamma 90.000000
_cell_volume 2928.201729
_symmetry_space_group_name_H-M "C 2/M"
_symmetry_group_IT_number 12
_symmetry_cell_setting 'monoclinic'
loop_
_space_group_symop_operation_xyz
x,y,z
-x,y,-z
-x,-y,-z
x,-y,z
1/2+x,1/2+y,z
1/2-x,1/2+y,-z
1/2-x,1/2-y,-z
1/2+x,1/2-y,z
loop_
_atom_site_type_symbol
_atom_site_label
_atom_site_fract_x
_atom_site_fract_y
_atom_site_fract_z
Si Si1 0.418126 0.659293 0.371874
Si Si2 0.418114 0.159285 0.291883
Si Si3 0.917178 0.226160 0.180478
Si Si4 0.417182 0.226152 0.485158
Si Si5 0.082770 0.567010 0.015915
Si Si6 0.082769 0.067008 0.318542
O O1 0.250009 0.644176 0.552897
O O2 0.451407 0.677821 0.227624
O O3 0.464015 0.710977 0.398794
O O4 0.515003 0.603490 0.297820
O O5 0.463996 0.210967 0.173188
O O6 0.451402 0.177813 0.369566
O O7 0.514997 0.103483 0.172181
O O8 0.749996 0.226786 0.322510
O O9 0.000000 0.209374 0.000000
O O10 0.500000 0.209362 0.500000
O O11 0.060843 0.500000 0.064174
O O12 0.250000 0.582657 0.834841
O O13 0.000000 0.583898 0.000000
O O14 0.000000 0.083879 0.500000
O O15 0.060859 0.000000 0.314091
#
# Coordination Sequence:
#
# PCOD8095196 Si02
#       6
#     8   8   8   8   8   8
#     4   9  18  32  48  68  95 124 153 187 228 272
#     4   9  18  32  48  68  95 124 153 187 228 272
#     4   9  18  31  47  69  96 123 152 188 228 271
#     4   9  18  31  47  69  96 123 152 188 228 271
#     4  10  20  32  47  69  95 122 153 189 228 271
#     4  10  20  32  47  69  95 122 153 189 228 271
#
# _framework density 16.392313000000001
#
# number of rings (size 3 to 8) (size 9 to 14) (size 15 to 20)
#    0.000    2.667    0.000    4.000    0.000    7.333 
#    0.000    3.333    0.000    1.000    0.000    0.000 
#    0.000    0.000    0.000    0.000    0.000    0.000 
#
# Total GULP energy -297635.266754 kJ/mol
# GULP energy per Si atom -12401.469448 kJ/mol
# Density = 1.635500 g / cm^3
# Si number density = 16.392313 Si / 1000 Ang^3
#
#
#
# Elastic Constant Matrix: (Units=GPa)
#
#
# Indices 1 2 3 4 5 6 
#
# 1 118.8310 51.7935 47.0759 0.0109 2.2989 -0.0125
# 2 51.7935 78.7251 53.1181 -0.0047 -2.8018 0.0008
# 3 47.0759 53.1181 113.5436 0.0034 8.9992 -0.0141
# 4 0.0109 -0.0047 0.0034 27.8260 -0.0072 -2.5084
# 5 2.2989 -2.8018 8.9992 -0.0072 21.1223 0.0142
# 6 -0.0125 0.0008 -0.0141 -2.5084 0.0142 26.6234
#
#
#
# Elastic Compliance Matrix: (Units=1/GPa)
#
#
# Indices 1 2 3 4 5 6 
#
# 1 0.012113 -0.006891 -0.001678 -0.000006 -0.001517 0.000005
# 2 -0.006891 0.023350 -0.008664 0.000009 0.007539 -0.000012
# 3 -0.001678 -0.008664 0.014109 -0.000003 -0.006978 0.000010
# 4 -0.000006 0.000009 -0.000003 0.036245 0.000013 0.003415
# 5 -0.001517 0.007539 -0.006978 0.000013 0.051482 -0.000031
# 6 0.000005 -0.000012 0.000010 0.003415 -0.000031 0.037883
#
#
# Mechanical properties :
#
#
# Convention : Reuss Voigt Hill
#
# Bulk Modulus (GPa) = 66.19876 68.34163 67.27020
# Shear Modulus (GPa) = 23.29002 25.72181 24.50592
#
# Velocity S-wave (km/s) = 3.77343 3.96553 3.87067
# Velocity P-wave (km/s) = 7.71082 7.92143 7.81683
#
# Compressibility (1/GPa) = 0.01510602
#
# Stress axis : x y z
#
# Youngs Moduli (GPa) = 82.55656 42.82604 70.87492
#
# Poissons Ratio (x) = 0.29511 0.11894
# Poissons Ratio (y) = 0.56888 0.61408
# Poissons Ratio (z) = 0.13854 0.37106
#
# Static dielectric constant tensor:
#      x y z
#    x 2.993900 -0.000010 -0.042470 
#    y -0.000010 2.972590 0.000020 
#    z -0.042470 0.000020 3.014070 
# 
# 
# High freq. dielectric constant tensor:
#      x y z
#    x 1.626660 0.000000 -0.006930 
#    y 0.000000 1.619310 0.000000 
#    z -0.006930 0.000000 1.629940 
# 
# From -- ./inp_files/77701.got.cif
#   From: 2010.06.25/outbox.cif.g09.slc.cpg/sg12_39_cif.got.tgz:77701.got - 2010.06.28 00:19:55.
