data_PCOD8095296
_publ_section_title
;
Structure prediction by ZEFSAII (Michael W. Deem and Ramdas Pophale) SiO2 
 PCOD8095296
Probable space group: C 2/M
;
_chemical_formula_sum "Si O2"
_cell_formula_units_Z 64
_cell_length_a 28.895912
_cell_length_b 9.065652
_cell_length_c 15.711067
_cell_angle_alpha 90.000000
_cell_angle_beta 61.936180
_cell_angle_gamma 90.000000
_cell_volume 3631.771355
_symmetry_space_group_name_H-M "C 2/M"
_symmetry_group_IT_number 12
_symmetry_cell_setting 'monoclinic'
loop_
_space_group_symop_operation_xyz
x,y,z
-x,y,-z
-x,-y,-z
x,-y,z
1/2+x,1/2+y,z
1/2-x,1/2+y,-z
1/2-x,1/2-y,-z
1/2+x,1/2-y,z
loop_
_atom_site_type_symbol
_atom_site_label
_atom_site_fract_x
_atom_site_fract_y
_atom_site_fract_z
Si Si1 0.660758 0.670808 0.055433
Si Si2 0.704770 0.170604 0.859005
Si Si3 0.324126 0.330363 0.766917
Si Si4 0.446986 0.666454 0.937624
Si Si5 0.081386 0.325488 0.396371
Si Si6 0.519930 0.174813 0.612293
Si Si7 0.042813 0.325425 0.780650
Si Si8 0.116445 0.171190 0.838477
O O1 0.677048 0.500000 0.029867
O O2 0.671681 0.730497 0.140447
O O3 0.599387 0.692498 0.089485
O O4 0.695567 0.766509 0.961271
O O5 0.765538 0.191261 0.782592
O O6 0.671566 0.257018 0.817060
O O7 0.688127 0.000000 0.873073
O O8 0.341226 0.500000 0.752056
O O9 0.362473 0.243712 0.671337
O O10 0.469314 0.500000 0.910724
O O11 0.492676 0.782004 0.880258
O O12 0.425942 0.694868 0.050484
O O13 0.086944 0.500000 0.387505
O O14 0.063306 0.273767 0.506123
O O15 0.037818 0.269356 0.366053
O O16 0.534760 0.237114 0.692116
O O17 0.518323 0.000000 0.616229
O O18 0.049965 0.500000 0.776664
O O19 0.095095 0.250143 0.772402
O O20 0.126427 0.000000 0.811532
#
# Coordination Sequence:
#
# PCOD8095296 Si02
#       8
#     8   8   8   8   8   8   8   8
#     4   9  18  32  48  69 102 137 163 194 237 285
#     4  10  20  33  49  70  98 130 165 206 243 278
#     4  10  20  32  48  74 104 129 159 202 246 283
#     4   9  18  31  46  67  98 132 162 194 234 282
#     4   9  17  33  55  74  98 132 163 191 233 292
#     4   8  17  33  51  75 103 127 156 198 242 282
#     4  11  20  30  49  74  98 125 161 203 243 286
#     4  10  21  36  50  66  95 132 167 203 242 286
#
# _framework density 17.622254000000002
#
# number of rings (size 3 to 8) (size 9 to 14) (size 15 to 20)
#    0.000    2.500    0.000    4.125    0.000    5.500 
#    0.000    3.125    0.000    0.750    0.000    0.000 
#    0.000    0.000    0.000    0.000    0.000    0.000 
#
# Total GULP energy -396834.881981 kJ/mol
# GULP energy per Si atom -12401.090062 kJ/mol
# Density = 1.758215 g / cm^3
# Si number density = 17.622254 Si / 1000 Ang^3
#
#
#
# Elastic Constant Matrix: (Units=GPa)
#
#
# Indices 1 2 3 4 5 6 
#
# 1 98.9297 45.6134 56.2627 0.0000 6.1676 0.0000
# 2 45.6134 74.2268 36.0092 0.0000 -2.5839 0.0000
# 3 56.2627 36.0092 72.2085 0.0000 -1.3089 0.0000
# 4 0.0000 0.0000 0.0000 23.5107 0.0000 -3.1572
# 5 6.1676 -2.5839 -1.3089 0.0000 28.9581 0.0000
# 6 0.0000 0.0000 0.0000 -3.1572 0.0000 29.9141
#
#
#
# Elastic Compliance Matrix: (Units=1/GPa)
#
#
# Indices 1 2 3 4 5 6 
#
# 1 0.021047 -0.006762 -0.013130 0.000000 -0.005680 0.000000
# 2 -0.006762 0.019985 -0.004643 0.000000 0.003014 0.000000
# 3 -0.013130 -0.004643 0.026460 0.000000 0.003578 0.000000
# 4 0.000000 0.000000 0.000000 0.043145 0.000000 0.004554
# 5 -0.005680 0.003014 0.003578 0.000000 0.036173 0.000000
# 6 0.000000 0.000000 0.000000 0.004554 0.000000 0.033910
#
#
# Mechanical properties :
#
#
# Convention : Reuss Voigt Hill
#
# Bulk Modulus (GPa) = 54.28366 57.90394 56.09380
# Shear Modulus (GPa) = 21.19270 23.64190 22.41730
#
# Velocity S-wave (km/s) = 3.47163 3.66675 3.57052
# Velocity P-wave (km/s) = 6.85131 7.13137 6.99275
#
# Compressibility (1/GPa) = 0.01842175
#
# Stress axis : x y z
#
# Youngs Moduli (GPa) = 47.51190 50.03840 37.79314
#
# Poissons Ratio (x) = 0.33834 0.49624
# Poissons Ratio (y) = 0.32126 0.17547
# Poissons Ratio (z) = 0.62385 0.23232
#
# Static dielectric constant tensor:
#      x y z
#    x 3.361850 0.000000 0.173430 
#    y 0.000000 3.147570 0.000000 
#    z 0.173430 0.000000 3.185300 
# 
# 
# High freq. dielectric constant tensor:
#      x y z
#    x 1.685820 0.000000 0.005640 
#    y 0.000000 1.673910 0.000000 
#    z 0.005640 0.000000 1.657320 
# 
# From -- ./inp_files/248961.got.cif
#   From: 2010.06.25/outbox.cif.g09.slc.cpg/sg12_125_cif.got.tgz:248961.got - 2010.06.28 00:19:55.
