data_PCOD8095256
_publ_section_title
;
Structure prediction by ZEFSAII (Michael W. Deem and Ramdas Pophale) SiO2 
 PCOD8095256
Probable space group: C 2/M
;
_chemical_formula_sum "Si O2"
_cell_formula_units_Z 64
_cell_length_a 14.789389
_cell_length_b 8.960303
_cell_length_c 27.091563
_cell_angle_alpha 90.000000
_cell_angle_beta 106.431472
_cell_angle_gamma 90.000000
_cell_volume 3443.479322
_symmetry_space_group_name_H-M "C 2/M"
_symmetry_group_IT_number 12
_symmetry_cell_setting 'monoclinic'
loop_
_space_group_symop_operation_xyz
x,y,z
-x,y,-z
-x,-y,-z
x,-y,z
1/2+x,1/2+y,z
1/2-x,1/2+y,-z
1/2-x,1/2-y,-z
1/2+x,1/2-y,z
loop_
_atom_site_type_symbol
_atom_site_label
_atom_site_fract_x
_atom_site_fract_y
_atom_site_fract_z
Si Si1 0.612138 0.177176 0.375734
Si Si2 0.843913 0.323248 0.186268
Si Si3 0.714062 0.674256 0.922625
Si Si4 0.466468 0.176045 0.736503
Si Si5 0.607942 0.325860 0.006471
Si Si6 0.768443 0.672673 0.749080
Si Si7 0.012395 0.323196 0.556575
Si Si8 0.810340 0.173547 0.369157
O O1 0.547322 0.241751 0.321065
O O2 0.574178 0.233334 0.422705
O O3 0.719182 0.229489 0.385483
O O4 0.609144 0.000000 0.371028
O O5 0.845547 0.500000 0.180562
O O6 0.831223 0.251825 0.131246
O O7 0.760865 0.276477 0.210213
O O8 0.940835 0.256484 0.223802
O O9 0.725615 0.500000 0.914846
O O10 0.818989 0.738597 0.947411
O O11 0.640448 0.706953 0.955488
O O12 0.375964 0.217354 0.755120
O O13 0.477795 0.000000 0.734689
O O14 0.616248 0.500000 0.020558
O O15 0.500000 0.271230 0.000000
O O16 0.759944 0.500000 0.763072
O O17 0.704468 0.704758 0.691108
O O18 0.014042 0.500000 0.553604
O O19 0.106843 0.272501 0.597211
O O20 0.000000 0.253606 0.500000
O O21 0.831254 0.000000 0.381914
#
# Coordination Sequence:
#
# PCOD8095256 Si02
#       8
#     8   8   8   8   8   8   8   8
#     4   8  15  31  51  69  95 131 166 200 248 304
#     4  11  21  33  52  78 108 139 170 207 250 296
#     4  10  21  36  54  79 110 141 173 210 254 302
#     4   8  16  31  51  72  96 132 171 203 243 303
#     4   9  19  38  61  81 104 136 175 219 260 295
#     4   9  18  34  53  74  99 129 169 210 252 302
#     4  10  20  32  48  72 100 129 163 205 252 302
#     4   9  18  33  53  72  94 129 168 207 250 301
#
# _framework density 18.585851999999999
#
# number of rings (size 3 to 8) (size 9 to 14) (size 15 to 20)
#    0.000    2.750    0.000    3.000    0.000    4.000 
#    0.000    4.375    0.000    2.250    0.000    0.000 
#    0.000    0.000    0.000    0.000    0.000    0.000 
#
# Total GULP energy -396696.081912 kJ/mol
# GULP energy per Si atom -12396.752560 kJ/mol
# Density = 1.854355 g / cm^3
# Si number density = 18.585852 Si / 1000 Ang^3
#
#
#
# Elastic Constant Matrix: (Units=GPa)
#
#
# Indices 1 2 3 4 5 6 
#
# 1 80.9965 23.4790 16.9535 0.0000 -12.8863 0.0000
# 2 23.4790 32.1030 25.7095 0.0000 -4.6799 0.0000
# 3 16.9535 25.7095 58.1946 0.0000 -20.8450 0.0000
# 4 0.0000 0.0000 0.0000 21.8975 0.0000 6.9902
# 5 -12.8863 -4.6799 -20.8450 0.0000 19.0845 0.0000
# 6 0.0000 0.0000 0.0000 6.9902 0.0000 23.7156
#
#
#
# Elastic Compliance Matrix: (Units=1/GPa)
#
#
# Indices 1 2 3 4 5 6 
#
# 1 0.018607 -0.018279 0.009116 0.000000 0.018038 0.000000
# 2 -0.018279 0.070646 -0.039590 0.000000 -0.038260 0.000000
# 3 0.009116 -0.039590 0.050505 0.000000 0.051611 0.000000
# 4 0.000000 0.000000 0.000000 0.050410 0.000000 -0.014858
# 5 0.018038 -0.038260 0.051611 0.000000 0.111567 0.000000
# 6 0.000000 0.000000 0.000000 -0.014858 0.000000 0.046546
#
#
# Mechanical properties :
#
#
# Convention : Reuss Voigt Hill
#
# Bulk Modulus (GPa) = 23.66770 33.73089 28.69929
# Shear Modulus (GPa) = 10.87262 19.94967 15.41114
#
# Velocity S-wave (km/s) = 2.42129 3.27980 2.88268
# Velocity P-wave (km/s) = 4.53638 5.70358 5.15314
#
# Compressibility (1/GPa) = 0.04225167
#
# Stress axis : x y z
#
# Youngs Moduli (GPa) = 53.74437 14.15506 19.80012
#
# Poissons Ratio (x) = 0.25874 -0.18050
# Poissons Ratio (y) = 0.98240 0.78388
# Poissons Ratio (z) = -0.48993 0.56040
#
# Static dielectric constant tensor:
#      x y z
#    x 3.734560 0.000000 -0.183800 
#    y 0.000000 3.103790 0.000000 
#    z -0.183800 0.000000 3.677780 
# 
# 
# High freq. dielectric constant tensor:
#      x y z
#    x 1.730240 0.000000 -0.003360 
#    y 0.000000 1.693990 0.000000 
#    z -0.003360 0.000000 1.723000 
# 
# From -- ./inp_files/359928.got.cif
#   From: 2010.06.25/outbox.cif.g09.slc.cpg/sg12_180_cif.got.tgz:359928.got - 2010.06.28 00:19:55.
