data_PCOD8095115
_publ_section_title
;
Structure prediction by ZEFSAII (Michael W. Deem and Ramdas Pophale) SiO2 
 PCOD8095115
Probable space group: C 2/M
;
_chemical_formula_sum "Si O2"
_cell_formula_units_Z 56
_cell_length_a 27.481723
_cell_length_b 9.032917
_cell_length_c 22.179158
_cell_angle_alpha 90.000000
_cell_angle_beta 39.540645
_cell_angle_gamma 90.000000
_cell_volume 3505.104926
_symmetry_space_group_name_H-M "C 2/M"
_symmetry_group_IT_number 12
_symmetry_cell_setting 'monoclinic'
loop_
_space_group_symop_operation_xyz
x,y,z
-x,y,-z
-x,-y,-z
x,-y,z
1/2+x,1/2+y,z
1/2-x,1/2+y,-z
1/2-x,1/2-y,-z
1/2+x,1/2-y,z
loop_
_atom_site_type_symbol
_atom_site_label
_atom_site_fract_x
_atom_site_fract_y
_atom_site_fract_z
Si Si1 0.115288 0.175142 0.901836
Si Si2 0.762874 0.667355 0.385823
Si Si3 0.931215 0.675895 0.523287
Si Si4 0.265323 0.174161 0.706285
Si Si5 0.092520 0.828695 0.578286
Si Si6 0.076403 0.672014 0.713428
Si Si7 0.012455 0.824608 0.889798
O O1 0.204409 0.230257 0.815449
O O2 0.073010 0.232393 0.881765
O O3 0.110649 0.000000 0.902723
O O4 0.071646 0.223883 0.004469
O O5 0.766075 0.500000 0.357393
O O6 0.769003 0.779634 0.324924
O O7 0.683768 0.693719 0.496600
O O8 0.833529 0.699429 0.362151
O O9 0.931021 0.500000 0.513833
O O10 0.852200 0.732918 0.630720
O O11 0.940880 0.752329 0.449573
O O12 0.000000 0.728013 0.500000
O O13 0.268176 0.000000 0.704976
O O14 0.053588 0.752133 0.673123
O O15 0.069403 0.000000 0.599031
O O16 0.056682 0.500000 0.726595
O O17 0.025558 0.739833 0.815190
O O18 0.018014 0.000000 0.872960
#
# Coordination Sequence:
#
# PCOD8095115 Si02
#       7
#     8   8   8   8   8   8   8
#     4   8  14  25  42  63  85 115 154 187 211 245
#     4   9  18  29  40  60  89 118 149 182 213 251
#     4   9  18  32  49  70  93 113 138 179 227 268
#     4   9  15  26  46  66  86 117 151 178 212 259
#     4  10  20  32  46  63  85 117 153 183 214 258
#     4  11  20  29  41  62  91 121 150 181 220 259
#     4   9  16  27  42  60  86 119 154 186 212 245
#
# _framework density 15.976696
#
# number of rings (size 3 to 8) (size 9 to 14) (size 15 to 20)
#    0.000    2.714    1.429    2.143    0.000    1.429 
#    0.000    2.143    0.000    0.000    0.000    1.000 
#    0.000    0.000    0.000    0.000    0.000    0.000 
#
# Total GULP energy -346972.964463 kJ/mol
# GULP energy per Si atom -12391.891588 kJ/mol
# Density = 1.594033 g / cm^3
# Si number density = 15.976696 Si / 1000 Ang^3
#
#
#
# Elastic Constant Matrix: (Units=GPa)
#
#
# Indices 1 2 3 4 5 6 
#
# 1 83.2164 32.7731 62.1384 -0.0029 3.9442 -0.0017
# 2 32.7731 36.6751 38.7552 -0.0126 4.2710 0.0058
# 3 62.1384 38.7552 131.9951 -0.0020 10.8094 -0.0007
# 4 -0.0029 -0.0126 -0.0020 22.0963 0.0038 5.4203
# 5 3.9442 4.2710 10.8094 0.0038 17.0176 0.0025
# 6 -0.0017 0.0058 -0.0007 5.4203 0.0025 17.9963
#
#
#
# Elastic Compliance Matrix: (Units=1/GPa)
#
#
# Indices 1 2 3 4 5 6 
#
# 1 0.022015 -0.012749 -0.006819 -0.000007 0.002429 0.000008
# 2 -0.012749 0.047032 -0.007471 0.000032 -0.004103 -0.000026
# 3 -0.006819 -0.007471 0.013394 -0.000004 -0.005052 0.000004
# 4 -0.000007 0.000032 -0.000004 0.048867 -0.000012 -0.014718
# 5 0.002429 -0.004103 -0.005052 -0.000012 0.062439 -0.000003
# 6 0.000008 -0.000026 0.000004 -0.014718 -0.000003 0.060000
#
#
# Mechanical properties :
#
#
# Convention : Reuss Voigt Hill
#
# Bulk Modulus (GPa) = 35.25981 57.69111 46.47546
# Shear Modulus (GPa) = 15.75894 19.30335 17.53114
#
# Velocity S-wave (km/s) = 3.14406 3.47972 3.31614
# Velocity P-wave (km/s) = 5.94118 7.23412 6.61929
#
# Compressibility (1/GPa) = 0.02836090
#
# Stress axis : x y z
#
# Youngs Moduli (GPa) = 45.42373 21.26202 74.66229
#
# Poissons Ratio (x) = 0.27108 0.50915
# Poissons Ratio (y) = 0.57913 0.55781
# Poissons Ratio (z) = 0.30976 0.15885
#
# Static dielectric constant tensor:
#      x y z
#    x 2.735750 -0.000010 -0.191180 
#    y -0.000010 2.910990 0.000020 
#    z -0.191180 0.000020 3.408630 
# 
# 
# High freq. dielectric constant tensor:
#      x y z
#    x 1.566510 0.000000 0.000010 
#    y 0.000000 1.604860 0.000000 
#    z 0.000010 0.000000 1.620270 
# 
# From -- ./inp_files/291800.got.cif
#   From: 2010.06.25/outbox.cif.g09.slc.cpg/sg12_146_cif.got.tgz:291800.got - 2010.06.28 00:19:55.
