data_PCOD8095272
_publ_section_title
;
Structure prediction by ZEFSAII (Michael W. Deem and Ramdas Pophale) SiO2 
 PCOD8095272
Probable space group: C 2/M
;
_chemical_formula_sum "Si O2"
_cell_formula_units_Z 48
_cell_length_a 22.132340
_cell_length_b 9.320726
_cell_length_c 28.633136
_cell_angle_alpha 90.000000
_cell_angle_beta 28.298001
_cell_angle_gamma 90.000000
_cell_volume 2800.122318
_symmetry_space_group_name_H-M "C 2/M"
_symmetry_group_IT_number 12
_symmetry_cell_setting 'monoclinic'
loop_
_space_group_symop_operation_xyz
x,y,z
-x,y,-z
-x,-y,-z
x,-y,z
1/2+x,1/2+y,z
1/2-x,1/2+y,-z
1/2-x,1/2-y,-z
1/2+x,1/2-y,z
loop_
_atom_site_type_symbol
_atom_site_label
_atom_site_fract_x
_atom_site_fract_y
_atom_site_fract_z
Si Si1 0.724310 0.664964 0.165624
Si Si2 0.296238 0.832980 0.539309
Si Si3 0.950943 0.837794 0.980769
Si Si4 0.562632 0.335170 0.633102
Si Si5 0.681439 0.165415 0.796179
Si Si6 0.145463 0.167379 0.408998
O O1 0.756981 0.500000 0.132907
O O2 0.578424 0.702221 0.252715
O O3 0.746295 0.700725 0.204992
O O4 0.813890 0.760450 0.071346
O O5 0.405077 0.763760 0.432978
O O6 0.158036 0.805839 0.610754
O O7 0.293683 0.758646 0.591035
O O8 0.327177 0.000000 0.523821
O O9 0.052680 0.758084 0.878531
O O10 0.935438 0.000000 0.973609
O O11 0.000000 0.829750 0.000000
O O12 0.569847 0.500000 0.611043
O O13 0.777332 0.207302 0.689893
O O14 0.640738 0.000000 0.821527
O O15 0.000000 0.213257 0.500000
O O16 0.155796 0.000000 0.414556
#
# Coordination Sequence:
#
# PCOD8095272 Si02
#       6
#     8   8   8   8   8   8
#     4   9  16  29  50  71  91 119 158 196 228 273
#     4  10  20  32  48  72  99 126 157 195 239 281
#     4   9  17  28  43  67  98 124 147 186 239 283
#     4   9  18  33  51  70  95 127 160 195 234 279
#     4   9  17  29  47  69  92 123 159 191 227 275
#     4  10  20  34  51  70  95 128 163 195 230 279
#
# _framework density 17.142108
#
# number of rings (size 3 to 8) (size 9 to 14) (size 15 to 20)
#    0.000    2.667    0.000    2.000    0.000    7.000 
#    0.000    3.333    0.000    1.000    0.000    0.000 
#    0.000    0.000    0.000    0.000    0.000    0.000 
#
# Total GULP energy -297650.656528 kJ/mol
# GULP energy per Si atom -12402.110689 kJ/mol
# Density = 1.710309 g / cm^3
# Si number density = 17.142108 Si / 1000 Ang^3
#
#
#
# Elastic Constant Matrix: (Units=GPa)
#
#
# Indices 1 2 3 4 5 6 
#
# 1 55.0247 39.5651 45.0807 -0.0001 -2.0547 -0.0003
# 2 39.5651 92.4842 71.9448 -0.0005 -3.4635 -0.0011
# 3 45.0807 71.9448 152.9714 -0.0004 -11.4044 -0.0001
# 4 -0.0001 -0.0005 -0.0004 26.6382 -0.0001 1.6501
# 5 -2.0547 -3.4635 -11.4044 -0.0001 23.5934 0.0001
# 6 -0.0003 -0.0011 -0.0001 1.6501 0.0001 25.5248
#
#
#
# Elastic Compliance Matrix: (Units=1/GPa)
#
#
# Indices 1 2 3 4 5 6 
#
# 1 0.027803 -0.008677 -0.004178 0.000000 -0.000872 0.000000
# 2 -0.008677 0.019805 -0.006844 0.000000 -0.001156 0.000001
# 3 -0.004178 -0.006844 0.011292 0.000000 0.004090 0.000000
# 4 0.000000 0.000000 0.000000 0.037691 0.000000 -0.002437
# 5 -0.000872 -0.001156 0.004090 0.000000 0.044116 0.000000
# 6 0.000000 0.000001 0.000000 -0.002437 0.000000 0.039335
#
#
# Mechanical properties :
#
#
# Convention : Reuss Voigt Hill
#
# Bulk Modulus (GPa) = 51.27341 68.18461 59.72901
# Shear Modulus (GPa) = 22.12976 24.74393 23.43684
#
# Velocity S-wave (km/s) = 3.59689 3.80341 3.70159
# Velocity P-wave (km/s) = 6.87211 7.69093 7.29302
#
# Compressibility (1/GPa) = 0.01950329
#
# Stress axis : x y z
#
# Youngs Moduli (GPa) = 35.96755 50.49148 88.55866
#
# Poissons Ratio (x) = 0.43812 0.36996
# Poissons Ratio (y) = 0.31209 0.60608
# Poissons Ratio (z) = 0.15026 0.34556
#
# Static dielectric constant tensor:
#      x y z
#    x 2.945700 0.000000 -0.128180 
#    y 0.000000 3.260810 0.000000 
#    z -0.128180 0.000000 3.268400 
# 
# 
# High freq. dielectric constant tensor:
#      x y z
#    x 1.628360 0.000000 -0.011900 
#    y 0.000000 1.664690 0.000000 
#    z -0.011900 0.000000 1.667250 
# 
# From -- ./inp_files/172237.got.cif
#   From: 2010.06.25/outbox.cif.g09.slc.cpg/sg12_87_cif.got.tgz:172237.got - 2010.06.28 00:19:55.
