data_PCOD8095517
_publ_section_title
;
Structure prediction by ZEFSAII (Michael W. Deem and Ramdas Pophale) SiO2 
 PCOD8095517
Probable space group: C 2/M
;
_chemical_formula_sum "Si O2"
_cell_formula_units_Z 56
_cell_length_a 33.697517
_cell_length_b 8.843685
_cell_length_c 15.009247
_cell_angle_alpha 90.000000
_cell_angle_beta 134.397931
_cell_angle_gamma 90.000000
_cell_volume 3195.884348
_symmetry_space_group_name_H-M "C 2/M"
_symmetry_group_IT_number 12
_symmetry_cell_setting 'monoclinic'
loop_
_space_group_symop_operation_xyz
x,y,z
-x,y,-z
-x,-y,-z
x,-y,z
1/2+x,1/2+y,z
1/2-x,1/2+y,-z
1/2-x,1/2-y,-z
1/2+x,1/2-y,z
loop_
_atom_site_type_symbol
_atom_site_label
_atom_site_fract_x
_atom_site_fract_y
_atom_site_fract_z
Si Si1 0.365397 0.321982 0.149603
Si Si2 0.199067 0.675761 0.104490
Si Si3 0.674682 0.822376 0.450277
Si Si4 0.990094 0.177792 0.385540
Si Si5 0.814891 0.677963 0.240490
Si Si6 0.405977 0.177227 0.529459
Si Si7 0.286871 0.825657 0.675771
O O1 0.357293 0.500000 0.153057
O O2 0.429496 0.274008 0.256923
O O3 0.329350 0.229495 0.163793
O O4 0.344162 0.275367 0.018989
O O5 0.194435 0.500000 0.070624
O O6 0.261541 0.730347 0.188032
O O7 0.182623 0.701166 0.182386
O O8 0.621242 0.761686 0.420809
O O9 0.673088 0.773712 0.343436
O O10 0.730052 0.765832 0.585070
O O11 0.675469 0.000000 0.463590
O O12 0.000000 0.244987 0.500000
O O13 0.034845 0.243801 0.387623
O O14 0.997772 0.000000 0.399185
O O15 0.801712 0.500000 0.221110
O O16 0.865896 0.721134 0.384603
O O17 0.416606 0.000000 0.548723
O O18 0.270736 0.000000 0.637353
#
# Coordination Sequence:
#
# PCOD8095517 Si02
#       7
#     8   8   8   8   8   8   8
#     4  11  23  38  54  73 101 140 177 215 258 305
#     4  11  22  35  52  77 107 141 175 211 253 305
#     4   9  17  32  51  77 107 134 167 208 256 305
#     4  10  21  37  55  74  99 133 174 217 259 302
#     4  11  21  34  52  78 108 140 171 207 255 308
#     4  10  20  32  53  80 107 135 166 210 258 303
#     4   9  18  31  51  76 105 137 169 207 253 304
#
# _framework density 17.522537
#
# number of rings (size 3 to 8) (size 9 to 14) (size 15 to 20)
#    0.000    1.857    2.857    1.714    0.000    3.143 
#    0.000    0.000    0.000    0.857    0.000    6.000 
#    0.000    0.000    0.000    0.000    0.000    0.000 
#
# Total GULP energy -347202.812919 kJ/mol
# GULP energy per Si atom -12400.100461 kJ/mol
# Density = 1.748265 g / cm^3
# Si number density = 17.522537 Si / 1000 Ang^3
#
#
#
# Elastic Constant Matrix: (Units=GPa)
#
#
# Indices 1 2 3 4 5 6 
#
# 1 121.8064 20.9118 41.6093 0.0000 -10.3348 0.0000
# 2 20.9118 27.3292 17.3892 0.0000 0.2490 0.0000
# 3 41.6093 17.3892 76.9516 0.0000 -6.6175 0.0000
# 4 0.0000 0.0000 0.0000 25.3471 0.0000 4.0138
# 5 -10.3348 0.2490 -6.6175 0.0000 25.0356 0.0000
# 6 0.0000 0.0000 0.0000 4.0138 0.0000 25.2916
#
#
#
# Elastic Compliance Matrix: (Units=1/GPa)
#
#
# Indices 1 2 3 4 5 6 
#
# 1 0.010957 -0.005645 -0.004354 0.000000 0.003428 0.000000
# 2 -0.005645 0.045872 -0.007729 0.000000 -0.004830 0.000000
# 3 -0.004354 -0.007729 0.017342 0.000000 0.002863 0.000000
# 4 0.000000 0.000000 0.000000 0.040469 0.000000 -0.006422
# 5 0.003428 -0.004830 0.002863 0.000000 0.042163 0.000000
# 6 0.000000 0.000000 0.000000 -0.006422 0.000000 0.040558
#
#
# Mechanical properties :
#
#
# Convention : Reuss Voigt Hill
#
# Bulk Modulus (GPa) = 25.82953 42.87865 34.35409
# Shear Modulus (GPa) = 20.34801 24.87998 22.61400
#
# Velocity S-wave (km/s) = 3.41141 3.77222 3.59634
# Velocity P-wave (km/s) = 5.50361 6.59519 6.07397
#
# Compressibility (1/GPa) = 0.03871537
#
# Stress axis : x y z
#
# Youngs Moduli (GPa) = 91.26422 21.79967 57.66191
#
# Poissons Ratio (x) = 0.12306 0.25108
# Poissons Ratio (y) = 0.51518 0.44567
# Poissons Ratio (z) = 0.39740 0.16849
#
# Static dielectric constant tensor:
#      x y z
#    x 3.544450 0.000000 -0.198240 
#    y 0.000000 3.226410 0.000000 
#    z -0.198240 0.000000 3.192430 
# 
# 
# High freq. dielectric constant tensor:
#      x y z
#    x 1.680810 0.000000 -0.012820 
#    y 0.000000 1.679430 0.000000 
#    z -0.012820 0.000000 1.658480 
# 
# From -- ./inp_files/237815.got.cif
#   From: 2010.06.25/outbox.cif.g09.slc.cpg/sg12_119_cif.got.tgz:237815.got - 2010.06.28 00:19:55.
