data_PCOD8095553
_publ_section_title
;
Structure prediction by ZEFSAII (Michael W. Deem and Ramdas Pophale) SiO2 
 PCOD8095553
Probable space group: C 2/M
;
_chemical_formula_sum "Si O2"
_cell_formula_units_Z 40
_cell_length_a 18.352768
_cell_length_b 19.258378
_cell_length_c 11.659105
_cell_angle_alpha 90.000000
_cell_angle_beta 148.452815
_cell_angle_gamma 90.000000
_cell_volume 2156.029503
_symmetry_space_group_name_H-M "C 2/M"
_symmetry_group_IT_number 12
_symmetry_cell_setting 'monoclinic'
loop_
_space_group_symop_operation_xyz
x,y,z
-x,y,-z
-x,-y,-z
x,-y,z
1/2+x,1/2+y,z
1/2-x,1/2+y,-z
1/2-x,1/2-y,-z
1/2+x,1/2-y,z
loop_
_atom_site_type_symbol
_atom_site_label
_atom_site_fract_x
_atom_site_fract_y
_atom_site_fract_z
Si Si1 0.661863 0.804070 0.960745
Si Si2 0.011069 0.423194 0.380076
Si Si3 0.879301 0.799060 0.425073
Si Si4 0.772851 0.160220 0.713427
Si Si5 0.511615 0.317264 0.195718
O O1 0.606131 0.869748 0.818074
O O2 0.532862 0.763220 0.845749
O O3 0.750000 0.750000 0.000000
O O4 0.757430 0.836951 0.190271
O O5 0.980669 0.500000 0.288861
O O6 0.169124 0.404019 0.555012
O O7 0.000000 0.424052 0.500000
O O8 0.822599 0.726214 0.393139
O O9 0.938430 0.845158 0.611386
O O10 0.000000 0.779246 0.500000
O O11 0.859112 0.176140 0.715116
O O12 0.877181 0.143589 0.960816
#
# Coordination Sequence:
#
# PCOD8095553 Si02
#       5
#     8   8   8   8   8
#     4  11  20  33  57  87 116 146 193 241 285 334
#     4  11  23  38  58  82 117 157 192 234 288 351
#     4  11  19  30  54  86 113 141 182 246 289 327
#     4  10  20  35  54  84 119 144 192 234 294 335
#     4  10  20  32  55  88 112 147 184 249 286 330
#
# _framework density 18.552620999999998
#
# number of rings (size 3 to 8) (size 9 to 14) (size 15 to 20)
#    0.000    1.400    4.000    3.600    0.000    0.000 
#    0.000    2.000    0.000    5.400    0.000    0.000 
#    0.000    0.000    0.000    0.000    0.000    0.000 
#
# Total GULP energy -247799.352183 kJ/mol
# GULP energy per Si atom -12389.967609 kJ/mol
# Density = 1.851039 g / cm^3
# Si number density = 18.552621 Si / 1000 Ang^3
#
#
#
# Elastic Constant Matrix: (Units=GPa)
#
#
# Indices 1 2 3 4 5 6 
#
# 1 110.5550 34.8141 59.2019 0.0000 9.0329 0.0000
# 2 34.8141 99.0846 52.1916 0.0000 4.7020 0.0000
# 3 59.2019 52.1916 147.6496 0.0000 -19.1476 0.0000
# 4 0.0000 0.0000 0.0000 20.6012 0.0000 -6.9215
# 5 9.0329 4.7020 -19.1476 0.0000 39.9946 0.0000
# 6 0.0000 0.0000 0.0000 -6.9215 0.0000 3.3801
#
#
#
# Elastic Compliance Matrix: (Units=1/GPa)
#
#
# Indices 1 2 3 4 5 6 
#
# 1 0.012759 -0.001452 -0.005282 0.000000 -0.005240 0.000000
# 2 -0.001452 0.013131 -0.004496 0.000000 -0.003368 0.000000
# 3 -0.005282 -0.004496 0.011412 0.000000 0.007185 0.000000
# 4 0.000000 0.000000 0.000000 0.155571 0.000000 0.318565
# 5 -0.005240 -0.003368 0.007185 0.000000 0.030023 0.000000
# 6 0.000000 0.000000 0.000000 0.318565 0.000000 0.948174
#
#
# Mechanical properties :
#
#
# Convention : Reuss Voigt Hill
#
# Bulk Modulus (GPa) = 67.38058 72.18940 69.78499
# Shear Modulus (GPa) = 4.17196 26.86731 15.51963
#
# Velocity S-wave (km/s) = 1.50120 3.80961 2.89540
# Velocity P-wave (km/s) = 6.27712 7.63845 6.99100
#
# Compressibility (1/GPa) = 0.01484107
#
# Stress axis : x y z
#
# Youngs Moduli (GPa) = 78.37435 76.15769 87.62850
#
# Poissons Ratio (x) = 0.11059 0.46287
# Poissons Ratio (y) = 0.11380 0.39398
# Poissons Ratio (z) = 0.41399 0.34241
#
# Static dielectric constant tensor:
#      x y z
#    x 3.055850 0.000000 -0.285250 
#    y 0.000000 3.078390 0.000000 
#    z -0.285250 0.000000 4.090790 
# 
# 
# High freq. dielectric constant tensor:
#      x y z
#    x 1.727940 0.000000 0.002770 
#    y 0.000000 1.647600 0.000000 
#    z 0.002770 0.000000 1.753800 
# 
# From -- ./inp_files/132310.got.cif
#   From: 2010.06.25/outbox.cif.g09.slc.cpg/sg12_67_cif.got.tgz:132310.got - 2010.06.28 00:19:55.
