data_PCOD8095268
_publ_section_title
;
Structure prediction by ZEFSAII (Michael W. Deem and Ramdas Pophale) SiO2 
 PCOD8095268
Probable space group: C 2/M
;
_chemical_formula_sum "Si O2"
_cell_formula_units_Z 60
_cell_length_a 5.211829
_cell_length_b 22.641903
_cell_length_c 28.408778
_cell_angle_alpha 90.000000
_cell_angle_beta 118.729677
_cell_angle_gamma 90.000000
_cell_volume 2939.709216
_symmetry_space_group_name_H-M "C 2/M"
_symmetry_group_IT_number 12
_symmetry_cell_setting 'monoclinic'
loop_
_space_group_symop_operation_xyz
x,y,z
-x,y,-z
-x,-y,-z
x,-y,z
1/2+x,1/2+y,z
1/2-x,1/2+y,-z
1/2-x,1/2-y,-z
1/2+x,1/2-y,z
loop_
_atom_site_type_symbol
_atom_site_label
_atom_site_fract_x
_atom_site_fract_y
_atom_site_fract_z
Si Si1 0.531363 0.331287 0.902601
Si Si2 0.500000 0.359104 0.000000
Si Si3 0.052809 0.567194 0.080541
Si Si4 0.684380 0.930043 0.287538
Si Si5 0.575234 0.281162 0.814208
Si Si6 0.344077 0.929548 0.348099
Si Si7 0.830169 0.429587 0.530602
Si Si8 0.559749 0.117851 0.177780
O O1 0.550999 0.315476 0.959660
O O2 0.657861 0.397901 0.909935
O O3 0.694144 0.285601 0.880549
O O4 0.193378 0.332985 0.854077
O O5 0.223598 0.401138 0.967330
O O6 0.073873 0.500000 0.064599
O O7 0.034163 0.567473 0.135835
O O8 0.504708 0.904606 0.315894
O O9 0.525754 0.910436 0.225793
O O10 0.013883 0.905271 0.319442
O O11 0.688415 0.000000 0.289574
O O12 0.239005 0.261573 0.790927
O O13 0.627251 0.347638 0.799214
O O14 0.511293 0.905215 0.408756
O O15 0.347016 0.000000 0.348214
O O16 0.500000 0.405272 0.500000
O O17 0.830822 0.500000 0.530815
O O18 0.000000 0.405294 0.500000
#
# Coordination Sequence:
#
# PCOD8095268 Si02
#       8
#     8   4   8   8   8   8   8   8
#     4  10  22  38  58  81 106 132 173 214 257 321
#     4  10  21  38  54  78 114 138 168 214 257 308
#     4  10  21  35  55  79 110 143 176 210 255 306
#     4  10  20  32  48  72 108 141 174 215 259 305
#     4  11  22  41  64  82 103 130 168 216 265 320
#     4   9  18  29  42  66  99 139 181 223 262 296
#     4   9  15  24  40  59  86 129 185 235 260 280
#     4  10  22  37  57  79 104 136 176 216 256 327
#
# _framework density 20.410181000000001
#
# number of rings (size 3 to 8) (size 9 to 14) (size 15 to 20)
#    0.000    2.133    1.333    1.800    3.733    6.933 
#    0.000    0.667    0.000    0.000    0.000    0.000 
#    0.000    0.000    0.000    0.000    0.000   46.667 
#
# Total GULP energy -371689.403709 kJ/mol
# GULP energy per Si atom -12389.646790 kJ/mol
# Density = 2.036373 g / cm^3
# Si number density = 20.410181 Si / 1000 Ang^3
#
#
#
# Elastic Constant Matrix: (Units=GPa)
#
#
# Indices 1 2 3 4 5 6 
#
# 1 130.1791 1.7201 44.8983 0.0000 -15.7263 0.0000
# 2 1.7201 5.7474 -10.6575 0.0000 2.5824 0.0000
# 3 44.8983 -10.6575 130.1763 0.0000 -14.9681 0.0000
# 4 0.0000 0.0000 0.0000 10.7413 0.0000 -3.4130
# 5 -15.7263 2.5824 -14.9681 0.0000 33.4131 0.0000
# 6 0.0000 0.0000 0.0000 -3.4130 0.0000 20.5841
#
#
#
# Elastic Compliance Matrix: (Units=1/GPa)
#
#
# Indices 1 2 3 4 5 6 
#
# 1 0.009609 -0.011666 -0.003843 0.000000 0.003702 0.000000
# 2 -0.011666 0.221770 0.020641 0.000000 -0.013384 0.000000
# 3 -0.003843 0.020641 0.010866 0.000000 0.001463 0.000000
# 4 0.000000 0.000000 0.000000 0.098277 0.000000 0.016295
# 5 0.003702 -0.013384 0.001463 0.000000 0.033361 0.000000
# 6 0.000000 0.000000 0.000000 0.016295 0.000000 0.051283
#
#
# Mechanical properties :
#
#
# Convention : Reuss Voigt Hill
#
# Bulk Modulus (GPa) = 3.96028 37.55829 20.75929
# Shear Modulus (GPa) = 10.01861 28.29050 19.15455
#
# Velocity S-wave (km/s) = 2.21795 3.72707 3.06679
# Velocity P-wave (km/s) = 2.91610 6.07973 4.76795
#
# Compressibility (1/GPa) = 0.25250718
#
# Stress axis : x y z
#
# Youngs Moduli (GPa) = 104.07192 4.50917 92.03328
#
# Poissons Ratio (x) = 0.05260 0.35373
# Poissons Ratio (y) = 1.21412 -1.89965
# Poissons Ratio (z) = 0.40000 -0.09307
#
# Static dielectric constant tensor:
#      x y z
#    x 4.052420 0.000000 -0.194360 
#    y 0.000000 3.201500 0.000000 
#    z -0.194360 0.000000 3.647860 
# 
# 
# High freq. dielectric constant tensor:
#      x y z
#    x 1.819850 0.000000 -0.019060 
#    y 0.000000 1.739050 0.000000 
#    z -0.019060 0.000000 1.780430 
# 
# From -- ./inp_files/331593.got.cif
#   From: 2010.06.25/outbox.cif.g09.slc.cpg/sg12_166_cif.got.tgz:331593.got - 2010.06.28 00:19:55.
