data_PCOD8095729
_publ_section_title
;
Structure prediction by ZEFSAII (Michael W. Deem and Ramdas Pophale) SiO2 
 PCOD8095729
Probable space group: C 2/M
;
_chemical_formula_sum "Si O2"
_cell_formula_units_Z 64
_cell_length_a 31.039749
_cell_length_b 21.637096
_cell_length_c 9.822137
_cell_angle_alpha 90.000000
_cell_angle_beta 32.030982
_cell_angle_gamma 90.000000
_cell_volume 3498.714168
_symmetry_space_group_name_H-M "C 2/M"
_symmetry_group_IT_number 12
_symmetry_cell_setting 'monoclinic'
loop_
_space_group_symop_operation_xyz
x,y,z
-x,y,-z
-x,-y,-z
x,-y,z
1/2+x,1/2+y,z
1/2-x,1/2+y,-z
1/2-x,1/2-y,-z
1/2+x,1/2-y,z
loop_
_atom_site_type_symbol
_atom_site_label
_atom_site_fract_x
_atom_site_fract_y
_atom_site_fract_z
Si Si1 0.161563 0.868067 0.331379
Si Si2 0.101286 0.735476 0.470569
Si Si3 0.587252 0.769752 0.019082
Si Si4 0.188333 0.297060 0.485414
Si Si5 0.807208 0.698577 0.040731
Si Si6 0.340806 0.638012 0.164652
Si Si7 0.593041 0.570657 0.760808
Si Si8 0.093092 0.071386 0.255931
O O1 0.112128 0.805229 0.496451
O O2 0.129568 0.922751 0.512604
O O3 0.146496 0.888252 0.217012
O O4 0.257705 0.858143 0.105922
O O5 0.141136 0.686836 0.471583
O O6 0.148011 0.734156 0.201854
O O7 0.007763 0.718069 0.713393
O O8 0.625512 0.818702 0.025843
O O9 0.620862 0.779908 0.777831
O O10 0.608032 0.699578 0.007575
O O11 0.244621 0.351612 0.395191
O O12 0.245855 0.239799 0.294470
O O13 0.356338 0.616062 0.276859
O O14 0.370399 0.582324 0.990466
O O15 0.600284 0.500000 0.790687
O O16 0.500000 0.591853 0.000000
O O17 0.000000 0.093653 0.500000
O O18 0.099116 0.000000 0.280380
#
# Coordination Sequence:
#
# PCOD8095729 Si02
#       8
#     8   8   8   8   8   8   8   8
#     4  11  20  34  51  69 100 138 166 196 247 292
#     4  11  20  32  51  76 104 134 168 201 243 301
#     4  11  20  32  51  76 104 134 168 201 243 301
#     4  10  20  33  49  73 102 133 168 205 243 296
#     4  10  20  33  49  73 102 133 168 205 243 296
#     4  11  20  34  51  69 100 138 166 196 247 292
#     4  11  22  34  49  72 100 131 171 210 238 278
#     4  11  22  34  49  72 100 131 171 210 238 278
#
# _framework density 18.292434
#
# number of rings (size 3 to 8) (size 9 to 14) (size 15 to 20)
#    0.000    1.250    0.000   11.250    0.000    2.000 
#    0.000    0.000    0.000    0.000    0.000    0.000 
#    0.000   70.000    0.000    0.000    0.000    0.000 
#
# Total GULP energy -396685.647429 kJ/mol
# GULP energy per Si atom -12396.426482 kJ/mol
# Density = 1.825080 g / cm^3
# Si number density = 18.292434 Si / 1000 Ang^3
#
#
#
# Elastic Constant Matrix: (Units=GPa)
#
#
# Indices 1 2 3 4 5 6 
#
# 1 85.7583 13.2074 8.8785 0.0000 -4.5309 0.0000
# 2 13.2074 37.1318 12.7967 0.0000 -5.5575 0.0000
# 3 8.8785 12.7967 68.2024 0.0000 -1.9607 0.0000
# 4 0.0000 0.0000 0.0000 11.2086 0.0000 -0.1325
# 5 -4.5309 -5.5575 -1.9607 0.0000 38.2875 0.0000
# 6 0.0000 0.0000 0.0000 -0.1325 0.0000 29.1244
#
#
#
# Elastic Compliance Matrix: (Units=1/GPa)
#
#
# Indices 1 2 3 4 5 6 
#
# 1 0.012408 -0.003997 -0.000841 0.000000 0.000845 0.000000
# 2 -0.003997 0.030677 -0.005129 0.000000 0.003717 0.000000
# 3 -0.000841 -0.005129 0.015733 0.000000 -0.000038 0.000000
# 4 0.000000 0.000000 0.000000 0.089222 0.000000 0.000406
# 5 0.000845 0.003717 -0.000038 0.000000 0.026756 0.000000
# 6 0.000000 0.000000 0.000000 0.000406 0.000000 0.034337
#
#
# Mechanical properties :
#
#
# Convention : Reuss Voigt Hill
#
# Bulk Modulus (GPa) = 25.71744 28.98420 27.35082
# Shear Modulus (GPa) = 20.65885 26.13812 23.39848
#
# Velocity S-wave (km/s) = 3.36425 3.78418 3.58038
# Velocity P-wave (km/s) = 5.40190 5.91377 5.66362
#
# Compressibility (1/GPa) = 0.03888412
#
# Stress axis : x y z
#
# Youngs Moduli (GPa) = 80.59339 32.59813 63.56107
#
# Poissons Ratio (x) = 0.13030 0.05345
# Poissons Ratio (y) = 0.32214 0.32598
# Poissons Ratio (z) = 0.06778 0.16718
#
# Static dielectric constant tensor:
#      x y z
#    x 3.883580 0.000000 -0.132050 
#    y 0.000000 2.968510 0.000000 
#    z -0.132050 0.000000 3.316550 
# 
# 
# High freq. dielectric constant tensor:
#      x y z
#    x 1.738080 0.000000 0.008290 
#    y 0.000000 1.653440 0.000000 
#    z 0.008290 0.000000 1.708400 
# 
# From -- ./inp_files/78751.got.cif
#   From: 2010.06.25/outbox.cif.g09.slc.cpg/sg12_40_cif.got.tgz:78751.got - 2010.06.28 00:19:55.
