data_PCOD8095448
_publ_section_title
;
Structure prediction by ZEFSAII (Michael W. Deem and Ramdas Pophale) SiO2 
 PCOD8095448
Probable space group: C 2/M
;
_chemical_formula_sum "Si O2"
_cell_formula_units_Z 48
_cell_length_a 19.106310
_cell_length_b 8.717447
_cell_length_c 30.289797
_cell_angle_alpha 90.000000
_cell_angle_beta 150.674940
_cell_angle_gamma 90.000000
_cell_volume 2470.866077
_symmetry_space_group_name_H-M "C 2/M"
_symmetry_group_IT_number 12
_symmetry_cell_setting 'monoclinic'
loop_
_space_group_symop_operation_xyz
x,y,z
-x,y,-z
-x,-y,-z
x,-y,z
1/2+x,1/2+y,z
1/2-x,1/2+y,-z
1/2-x,1/2-y,-z
1/2+x,1/2-y,z
loop_
_atom_site_type_symbol
_atom_site_label
_atom_site_fract_x
_atom_site_fract_y
_atom_site_fract_z
Si Si1 0.695670 0.317472 0.247387
Si Si2 0.188674 0.682198 0.421729
Si Si3 0.867777 0.317552 0.257546
Si Si4 0.664755 0.818409 0.584549
Si Si5 0.351443 0.317970 0.933418
Si Si6 0.882091 0.181041 0.048459
O O1 0.694460 0.500000 0.245346
O O2 0.806069 0.256267 0.270585
O O3 0.747761 0.260568 0.324203
O O4 0.535839 0.253404 0.149335
O O5 0.200585 0.500000 0.428808
O O6 0.250000 0.750000 0.500000
O O7 0.269929 0.742789 0.423226
O O8 0.025671 0.740576 0.333139
O O9 0.863459 0.500000 0.256300
O O10 0.773088 0.249412 0.165627
O O11 0.500000 0.768188 0.500000
O O12 0.676018 0.000000 0.585058
O O13 0.351780 0.500000 0.928388
O O14 0.500000 0.246880 0.000000
O O15 0.338654 0.264916 0.976140
O O16 0.887506 0.000000 0.056186
O O17 0.750000 0.250000 0.000000
#
# Coordination Sequence:
#
# PCOD8095448 Si02
#       6
#     8   8   8   8   8   8
#     4   9  17  32  53  78 107 142 182 221 269 325
#     4  11  23  38  59  85 112 141 179 228 277 329
#     4   9  17  31  53  80 107 138 180 226 268 317
#     4  10  21  38  59  81 110 148 185 224 274 331
#     4   9  15  28  51  79 106 136 181 226 261 305
#     4  10  20  32  51  78 109 144 179 222 269 319
#
# _framework density 19.426386999999998
#
# number of rings (size 3 to 8) (size 9 to 14) (size 15 to 20)
#    0.000    2.333    1.667    1.500    2.333    3.000 
#    0.000    0.000    0.000    2.500    0.000    0.000 
#    0.000    0.000    0.000    0.000    0.000    0.000 
#
# Total GULP energy -297412.475715 kJ/mol
# GULP energy per Si atom -12392.186488 kJ/mol
# Density = 1.938217 g / cm^3
# Si number density = 19.426387 Si / 1000 Ang^3
#
#
#
# Elastic Constant Matrix: (Units=GPa)
#
#
# Indices 1 2 3 4 5 6 
#
# 1 207.5333 36.0646 116.6200 0.0000 3.6191 -0.0001
# 2 36.0646 19.4013 28.0862 0.0001 -2.2144 0.0000
# 3 116.6200 28.0862 196.1849 0.0001 -4.0810 0.0000
# 4 0.0000 0.0001 0.0001 16.1563 0.0000 4.6803
# 5 3.6191 -2.2144 -4.0810 0.0000 44.0376 0.0001
# 6 -0.0001 0.0000 0.0000 4.6803 0.0001 26.8435
#
#
#
# Elastic Compliance Matrix: (Units=1/GPa)
#
#
# Indices 1 2 3 4 5 6 
#
# 1 0.008903 -0.011387 -0.003697 0.000000 -0.001647 0.000000
# 2 -0.011387 0.079837 -0.004567 0.000000 0.004527 0.000000
# 3 -0.003697 -0.004567 0.007965 0.000000 0.000812 0.000000
# 4 0.000000 0.000000 0.000000 0.065188 0.000000 -0.011366
# 5 -0.001647 0.004527 0.000812 0.000000 0.023146 0.000000
# 6 0.000000 0.000000 0.000000 -0.011366 0.000000 0.039235
#
#
# Mechanical properties :
#
#
# Convention : Reuss Voigt Hill
#
# Bulk Modulus (GPa) = 17.41984 87.18456 52.30220
# Shear Modulus (GPa) = 17.68601 33.56406 25.62503
#
# Velocity S-wave (km/s) = 3.02058 4.16114 3.63586
# Velocity P-wave (km/s) = 4.59910 8.25007 6.67890
#
# Compressibility (1/GPa) = 0.05740579
#
# Stress axis : x y z
#
# Youngs Moduli (GPa) = 112.31976 12.52548 125.54491
#
# Poissons Ratio (x) = 0.14262 0.46408
# Poissons Ratio (y) = 1.27894 0.57334
# Poissons Ratio (z) = 0.41519 0.05720
#
# Static dielectric constant tensor:
#      x y z
#    x 4.009340 0.000000 0.323110 
#    y 0.000000 2.998170 0.000000 
#    z 0.323110 0.000000 4.239540 
# 
# 
# High freq. dielectric constant tensor:
#      x y z
#    x 1.774850 0.000000 -0.002170 
#    y 0.000000 1.697490 0.000000 
#    z -0.002170 0.000000 1.778620 
# 
# From -- ./inp_files/295365.got.cif
#   From: 2010.06.25/outbox.cif.g09.slc.cpg/sg12_148_cif.got.tgz:295365.got - 2010.06.28 00:19:55.
