data_PCOD8095035
_publ_section_title
;
Structure prediction by ZEFSAII (Michael W. Deem and Ramdas Pophale) SiO2 
 PCOD8095035
Probable space group: C 2/M
;
_chemical_formula_sum "Si O2"
_cell_formula_units_Z 40
_cell_length_a 17.662722
_cell_length_b 20.837978
_cell_length_c 8.881808
_cell_angle_alpha 90.000000
_cell_angle_beta 138.073296
_cell_angle_gamma 90.000000
_cell_volume 2184.276748
_symmetry_space_group_name_H-M "C 2/M"
_symmetry_group_IT_number 12
_symmetry_cell_setting 'monoclinic'
loop_
_space_group_symop_operation_xyz
x,y,z
-x,y,-z
-x,-y,-z
x,-y,z
1/2+x,1/2+y,z
1/2-x,1/2+y,-z
1/2-x,1/2-y,-z
1/2+x,1/2-y,z
loop_
_atom_site_type_symbol
_atom_site_label
_atom_site_fract_x
_atom_site_fract_y
_atom_site_fract_z
Si Si1 0.939698 0.572471 0.071624
Si Si2 0.882135 0.337992 0.552773
Si Si3 0.977609 0.796755 0.641281
Si Si4 0.238775 0.660793 0.317182
Si Si5 0.712442 0.714837 0.095673
O O1 0.916707 0.500000 0.090808
O O2 0.022403 0.606639 0.315274
O O3 0.819848 0.609558 0.881874
O O4 0.000000 0.575330 0.000000
O O5 0.945819 0.270701 0.670923
O O6 0.798827 0.351170 0.568563
O O7 0.806247 0.337388 0.287495
O O8 0.875522 0.847723 0.510742
O O9 0.000000 0.784325 0.500000
O O10 0.092350 0.820911 0.892876
O O11 0.204430 0.732658 0.216672
O O12 0.750000 0.750000 0.000000
#
# Coordination Sequence:
#
# PCOD8095035 Si02
#       5
#     8   8   8   8   8
#     4   9  18  34  54  74 100 134 172 215 255 293
#     4  10  20  31  49  77 103 129 172 210 247 301
#     4  11  19  30  49  76 103 139 160 199 263 311
#     4  10  20  31  49  76 101 132 171 210 246 301
#     4  11  19  30  49  74 107 138 159 202 258 310
#
# _framework density 18.312697
#
# number of rings (size 3 to 8) (size 9 to 14) (size 15 to 20)
#    0.000    1.800    6.000    2.400    0.000    2.400 
#    0.000    0.000    0.000    7.200    0.000    5.600 
#    0.000    0.000    0.000    0.000    0.000    0.000 
#
# Total GULP energy -247912.445342 kJ/mol
# GULP energy per Si atom -12395.622267 kJ/mol
# Density = 1.827102 g / cm^3
# Si number density = 18.312697 Si / 1000 Ang^3
#
#
#
# Elastic Constant Matrix: (Units=GPa)
#
#
# Indices 1 2 3 4 5 6 
#
# 1 60.4939 11.2605 33.1855 0.0000 11.7976 0.0000
# 2 11.2605 83.0556 53.7237 0.0000 15.6899 0.0000
# 3 33.1855 53.7237 183.4602 0.0000 29.1415 0.0000
# 4 0.0000 0.0000 0.0000 25.1934 0.0000 2.9602
# 5 11.7976 15.6899 29.1415 0.0000 33.7262 0.0000
# 6 0.0000 0.0000 0.0000 2.9602 0.0000 8.6421
#
#
#
# Elastic Compliance Matrix: (Units=1/GPa)
#
#
# Indices 1 2 3 4 5 6 
#
# 1 0.018858 0.000018 -0.002744 0.000000 -0.004234 0.000000
# 2 0.000018 0.015252 -0.003873 0.000000 -0.003755 0.000000
# 3 -0.002744 -0.003873 0.007699 0.000000 -0.003891 0.000000
# 4 0.000000 0.000000 0.000000 0.041358 0.000000 -0.014166
# 5 -0.004234 -0.003755 -0.003891 0.000000 0.036241 0.000000
# 6 0.000000 0.000000 0.000000 -0.014166 0.000000 0.120565
#
#
# Mechanical properties :
#
#
# Convention : Reuss Voigt Hill
#
# Bulk Modulus (GPa) = 34.95062 58.14992 46.55027
# Shear Modulus (GPa) = 19.03250 28.76833 23.90041
#
# Velocity S-wave (km/s) = 3.22732 3.96782 3.61657
# Velocity P-wave (km/s) = 5.74581 7.26734 6.55090
#
# Compressibility (1/GPa) = 0.02861180
#
# Stress axis : x y z
#
# Youngs Moduli (GPa) = 53.02723 65.56329 129.88045
#
# Poissons Ratio (x) = -0.00118 0.35638
# Poissons Ratio (y) = -0.00095 0.50306
# Poissons Ratio (z) = 0.14550 0.25394
#
# Static dielectric constant tensor:
#      x y z
#    x 3.323540 0.000000 0.274360 
#    y 0.000000 3.078910 0.000000 
#    z 0.274360 0.000000 3.911850 
# 
# 
# High freq. dielectric constant tensor:
#      x y z
#    x 1.703730 0.000000 0.010040 
#    y 0.000000 1.645020 0.000000 
#    z 0.010040 0.000000 1.729820 
# 
# From -- ./inp_files/77768.got.cif
#   From: 2010.06.25/outbox.cif.g09.slc.cpg/sg12_39_cif.got.tgz:77768.got - 2010.06.28 00:19:55.
