data_PCOD8095246
_publ_section_title
;
Structure prediction by ZEFSAII (Michael W. Deem and Ramdas Pophale) SiO2 
 PCOD8095246
Probable space group: C 2/M
;
_chemical_formula_sum "Si O2"
_cell_formula_units_Z 64
_cell_length_a 19.278583
_cell_length_b 9.342252
_cell_length_c 24.965135
_cell_angle_alpha 90.000000
_cell_angle_beta 124.724632
_cell_angle_gamma 90.000000
_cell_volume 3695.550812
_symmetry_space_group_name_H-M "C 2/M"
_symmetry_group_IT_number 12
_symmetry_cell_setting 'monoclinic'
loop_
_space_group_symop_operation_xyz
x,y,z
-x,y,-z
-x,-y,-z
x,-y,z
1/2+x,1/2+y,z
1/2-x,1/2+y,-z
1/2-x,1/2-y,-z
1/2+x,1/2-y,z
loop_
_atom_site_type_symbol
_atom_site_label
_atom_site_fract_x
_atom_site_fract_y
_atom_site_fract_z
Si Si1 0.288711 0.157361 0.941054
Si Si2 0.179263 0.169707 0.795395
Si Si3 0.026190 0.169842 0.799900
Si Si4 0.686202 0.834951 0.688772
Si Si5 0.251694 0.666984 0.445498
Si Si6 0.591790 0.335119 0.560463
Si Si7 0.843781 0.165016 0.683316
Si Si8 0.124246 0.841738 0.941499
O O1 0.255087 0.214018 0.868997
O O2 0.211139 0.150705 0.947543
O O3 0.327357 0.000000 0.950591
O O4 0.363770 0.253601 0.998352
O O5 0.090115 0.219839 0.781484
O O6 0.193220 0.255788 0.747739
O O7 0.179806 0.000000 0.784460
O O8 0.054626 0.229893 0.870941
O O9 0.932664 0.222471 0.744812
O O10 0.032087 0.000000 0.807018
O O11 0.614043 0.762329 0.621001
O O12 0.776593 0.818242 0.700827
O O13 0.661679 0.000000 0.686424
O O14 0.231887 0.500000 0.445832
O O15 0.250000 0.750000 0.500000
O O16 0.343013 0.690216 0.459134
O O17 0.179428 0.734946 0.376671
O O18 0.500000 0.288148 0.500000
O O19 0.592854 0.500000 0.579710
O O20 0.849818 0.000000 0.666565
O O21 0.095726 0.000000 0.946579
#
# Coordination Sequence:
#
# PCOD8095246 Si02
#       8
#     8   8   8   8   8   8   8   8
#     4   8  14  24  39  62  90 118 147 183 230 274
#     4   9  17  30  48  68  92 123 158 192 225 271
#     4   8  15  29  49  70  90 119 159 194 225 268
#     4  10  20  32  48  71  97 123 150 187 235 275
#     4  10  20  34  52  73  96 121 152 189 228 272
#     4   9  19  36  55  71  89 121 161 190 218 268
#     4   9  18  34  52  68  92 125 157 188 225 272
#     4   8  13  23  41  64  88 114 147 188 230 269
#
# _framework density 17.318121000000001
#
# number of rings (size 3 to 8) (size 9 to 14) (size 15 to 20)
#    0.000    3.125    0.000    2.250    0.000    2.750 
#    0.000    8.125    0.000    0.750    0.000    5.250 
#    0.000    0.000    0.000    0.000    0.000    0.000 
#
# Total GULP energy -396672.027631 kJ/mol
# GULP energy per Si atom -12396.000863 kJ/mol
# Density = 1.727870 g / cm^3
# Si number density = 17.318121 Si / 1000 Ang^3
#
#
#
# Elastic Constant Matrix: (Units=GPa)
#
#
# Indices 1 2 3 4 5 6 
#
# 1 45.6041 36.6019 64.6436 0.0000 1.4236 0.0000
# 2 36.6019 90.9577 84.2031 0.0000 -6.4800 0.0000
# 3 64.6436 84.2031 175.8982 0.0000 -0.8869 0.0000
# 4 0.0000 0.0000 0.0000 35.5032 0.0000 -4.7583
# 5 1.4236 -6.4800 -0.8869 0.0000 26.7948 0.0000
# 6 0.0000 0.0000 0.0000 -4.7583 0.0000 21.2617
#
#
#
# Elastic Compliance Matrix: (Units=1/GPa)
#
#
# Indices 1 2 3 4 5 6 
#
# 1 0.047642 -0.005851 -0.014730 0.000000 -0.004434 0.000000
# 2 -0.005851 0.021011 -0.007882 0.000000 0.005131 0.000000
# 3 -0.014730 -0.007882 0.014868 0.000000 -0.000631 0.000000
# 4 0.000000 0.000000 0.000000 0.029037 0.000000 0.006499
# 5 -0.004434 0.005131 -0.000631 0.000000 0.038776 0.000000
# 6 0.000000 0.000000 0.000000 0.006499 0.000000 0.048487
#
#
# Mechanical properties :
#
#
# Convention : Reuss Voigt Hill
#
# Bulk Modulus (GPa) = 37.60065 75.92859 56.76462
# Shear Modulus (GPa) = 18.82437 25.17938 22.00187
#
# Velocity S-wave (km/s) = 3.30051 3.81718 3.56821
# Velocity P-wave (km/s) = 6.02357 7.96031 7.05868
#
# Compressibility (1/GPa) = 0.02659528
#
# Stress axis : x y z
#
# Youngs Moduli (GPa) = 20.98974 47.59512 67.25695
#
# Poissons Ratio (x) = 0.27848 0.99071
# Poissons Ratio (y) = 0.12281 0.53010
# Poissons Ratio (z) = 0.30918 0.37513
#
# Static dielectric constant tensor:
#      x y z
#    x 2.971190 0.000000 0.105500 
#    y 0.000000 3.282910 0.000000 
#    z 0.105500 0.000000 3.484530 
# 
# 
# High freq. dielectric constant tensor:
#      x y z
#    x 1.635400 0.000000 0.000890 
#    y 0.000000 1.658410 0.000000 
#    z 0.000890 0.000000 1.682810 
# 
# From -- ./inp_files/346206.got.cif
#   From: 2010.06.25/outbox.cif.g09.slc.cpg/sg12_174_cif.got.tgz:346206.got - 2010.06.28 00:19:55.
