data_PCOD8095133
_publ_section_title
;
Structure prediction by ZEFSAII (Michael W. Deem and Ramdas Pophale) SiO2 
 PCOD8095133
Probable space group: C 2/M
;
_chemical_formula_sum "Si O2"
_cell_formula_units_Z 56
_cell_length_a 19.312961
_cell_length_b 9.243935
_cell_length_c 26.208714
_cell_angle_alpha 90.000000
_cell_angle_beta 137.515397
_cell_angle_gamma 90.000000
_cell_volume 3160.147882
_symmetry_space_group_name_H-M "C 2/M"
_symmetry_group_IT_number 12
_symmetry_cell_setting 'monoclinic'
loop_
_space_group_symop_operation_xyz
x,y,z
-x,y,-z
-x,-y,-z
x,-y,z
1/2+x,1/2+y,z
1/2-x,1/2+y,-z
1/2-x,1/2-y,-z
1/2+x,1/2-y,z
loop_
_atom_site_type_symbol
_atom_site_label
_atom_site_fract_x
_atom_site_fract_y
_atom_site_fract_z
Si Si1 0.056318 0.828953 0.214796
Si Si2 0.342995 0.828576 0.930282
Si Si3 0.296097 0.328783 0.617219
Si Si4 0.030973 0.828689 0.365086
Si Si5 0.435684 0.828453 0.514839
Si Si6 0.528193 0.829318 0.096071
Si Si7 0.116504 0.828683 0.804087
O O1 0.151164 0.777225 0.301536
O O2 0.065122 0.750829 0.166161
O O3 0.951601 0.777712 0.185187
O O4 0.058167 0.000000 0.207305
O O5 0.395077 0.776852 0.906366
O O6 0.229502 0.758988 0.871818
O O7 0.336210 0.000000 0.925695
O O8 0.412726 0.782259 0.016656
O O9 0.295721 0.500000 0.616740
O O10 0.362972 0.277289 0.604669
O O11 0.180615 0.268313 0.552932
O O12 0.013980 0.746193 0.408788
O O13 0.936035 0.781512 0.277587
O O14 0.032038 0.000000 0.375427
O O15 0.500000 0.782316 0.500000
O O16 0.438176 0.000000 0.523755
O O17 0.534560 0.000000 0.108562
O O18 0.123030 0.000000 0.807993
#
# Coordination Sequence:
#
# PCOD8095133 Si02
#       7
#     8   8   8   8   8   8   8
#     4   9  17  30  48  67  88 116 148 182 220 261
#     4   8  15  29  46  63  88 122 152 176 213 266
#     4   8  16  32  49  64  87 120 151 176 214 269
#     4   9  17  31  51  69  85 112 152 190 216 248
#     4  10  20  32  46  66  93 121 145 174 220 272
#     4   9  17  29  46  67  90 117 148 182 219 259
#     4   8  15  29  48  67  87 116 151 181 215 262
#
# _framework density 17.720690000000001
#
# number of rings (size 3 to 8) (size 9 to 14) (size 15 to 20)
#    0.000    3.286    0.000    3.000    0.000    2.000 
#    0.000    5.000    0.000    1.714    0.000    0.000 
#    0.000    0.000    0.000    0.000    0.000    0.000 
#
# Total GULP energy -347031.236345 kJ/mol
# GULP energy per Si atom -12393.972727 kJ/mol
# Density = 1.768036 g / cm^3
# Si number density = 17.720690 Si / 1000 Ang^3
#
#
#
# Elastic Constant Matrix: (Units=GPa)
#
#
# Indices 1 2 3 4 5 6 
#
# 1 51.0530 9.8343 17.1781 0.0000 -3.5772 0.0000
# 2 9.8343 21.2234 14.9373 0.0000 -9.4039 0.0000
# 3 17.1781 14.9373 64.8060 0.0000 -14.3657 0.0000
# 4 0.0000 0.0000 0.0000 28.3422 0.0000 -8.8298
# 5 -3.5772 -9.4039 -14.3657 0.0000 39.5594 0.0000
# 6 0.0000 0.0000 0.0000 -8.8298 0.0000 17.3038
#
#
#
# Elastic Compliance Matrix: (Units=1/GPa)
#
#
# Indices 1 2 3 4 5 6 
#
# 1 0.022517 -0.007945 -0.004464 0.000000 -0.001474 0.000000
# 2 -0.007945 0.062470 -0.009962 0.000000 0.010514 0.000000
# 3 -0.004464 -0.009962 0.019897 0.000000 0.004454 0.000000
# 4 0.000000 0.000000 0.000000 0.041952 0.000000 0.021407
# 5 -0.001474 0.010514 0.004454 0.000000 0.029262 0.000000
# 6 0.000000 0.000000 0.000000 0.021407 0.000000 0.068714
#
#
# Mechanical properties :
#
#
# Convention : Reuss Voigt Hill
#
# Bulk Modulus (GPa) = 16.62738 24.55354 20.59046
# Shear Modulus (GPa) = 16.14981 23.38327 19.76654
#
# Velocity S-wave (km/s) = 3.02214 3.63650 3.34346
# Velocity P-wave (km/s) = 4.64555 5.61410 5.15263
#
# Compressibility (1/GPa) = 0.06014177
#
# Stress axis : x y z
#
# Youngs Moduli (GPa) = 44.41167 16.00781 50.25780
#
# Poissons Ratio (x) = 0.12718 0.22434
# Poissons Ratio (y) = 0.35284 0.50068
# Poissons Ratio (z) = 0.19825 0.15947
#
# Static dielectric constant tensor:
#      x y z
#    x 3.609860 0.000000 0.359320 
#    y 0.000000 2.755360 0.000000 
#    z 0.359320 0.000000 3.564460 
# 
# 
# High freq. dielectric constant tensor:
#      x y z
#    x 1.686050 0.000000 0.003690 
#    y 0.000000 1.635300 0.000000 
#    z 0.003690 0.000000 1.696710 
# 
# From -- ./inp_files/315408.got.cif
#   From: 2010.06.25/outbox.cif.g09.slc.cpg/sg12_158_cif.got.tgz:315408.got - 2010.06.28 00:19:55.
