data_PCOD8095467
_publ_section_title
;
Structure prediction by ZEFSAII (Michael W. Deem and Ramdas Pophale) SiO2 
 PCOD8095467
Probable space group: C 2/M
;
_chemical_formula_sum "Si O2"
_cell_formula_units_Z 64
_cell_length_a 16.107487
_cell_length_b 17.611939
_cell_length_c 18.580805
_cell_angle_alpha 90.000000
_cell_angle_beta 40.123487
_cell_angle_gamma 90.000000
_cell_volume 3396.878763
_symmetry_space_group_name_H-M "C 2/M"
_symmetry_group_IT_number 12
_symmetry_cell_setting 'monoclinic'
loop_
_space_group_symop_operation_xyz
x,y,z
-x,y,-z
-x,-y,-z
x,-y,z
1/2+x,1/2+y,z
1/2-x,1/2+y,-z
1/2-x,1/2-y,-z
1/2+x,1/2-y,z
loop_
_atom_site_type_symbol
_atom_site_label
_atom_site_fract_x
_atom_site_fract_y
_atom_site_fract_z
Si Si1 0.714500 0.215684 0.139764
Si Si2 0.931891 0.584440 0.117919
Si Si3 0.479970 0.318680 0.342950
Si Si4 0.142699 0.914257 0.335253
Si Si5 0.619897 0.674831 0.744226
Si Si6 0.631759 0.274562 0.442912
Si Si7 0.088623 0.292164 0.077492
Si Si8 0.361280 0.412498 0.127829
O O1 0.590632 0.255707 0.256645
O O2 0.681877 0.185314 0.081521
O O3 0.759533 0.145289 0.159025
O O4 0.829268 0.277343 0.050374
O O5 0.968924 0.500000 0.117922
O O6 0.780922 0.593687 0.206567
O O7 0.987311 0.639692 0.141386
O O8 0.000000 0.607781 0.000000
O O9 0.540841 0.391347 0.341680
O O10 0.406884 0.349308 0.320535
O O11 0.374931 0.280022 0.465906
O O12 0.137516 0.860224 0.408005
O O13 0.115424 0.000000 0.379252
O O14 0.746610 0.726922 0.664095
O O15 0.492322 0.716879 0.854552
O O16 0.636041 0.604104 0.787893
O O17 0.500000 0.236031 0.500000
O O18 0.316882 0.500000 0.146668
O O19 0.500000 0.399332 0.000000
#
# Coordination Sequence:
#
# PCOD8095467 Si02
#       8
#     8   8   8   8   8   8   8   8
#     4  10  21  37  56  85 109 144 189 235 277 331
#     4  10  20  32  51  82 117 149 179 219 277 341
#     4  10  22  35  58  87 116 146 192 232 281 326
#     4  10  20  35  55  83 117 151 184 224 281 340
#     4  11  21  38  59  85 111 149 187 239 277 332
#     4  10  20  36  59  86 111 150 189 236 278 334
#     4  10  20  34  59  82 111 144 185 227 283 330
#     4  11  23  38  57  82 113 152 191 232 287 341
#
# _framework density 18.840826
#
# number of rings (size 3 to 8) (size 9 to 14) (size 15 to 20)
#    0.000    1.750    2.500    2.625    1.750    3.250 
#    0.000    0.000    0.000    3.375    0.000    0.000 
#    0.000    0.000    0.000    0.000    0.000    0.000 
#
# Total GULP energy -396661.042923 kJ/mol
# GULP energy per Si atom -12395.657591 kJ/mol
# Density = 1.879794 g / cm^3
# Si number density = 18.840826 Si / 1000 Ang^3
#
#
#
# Elastic Constant Matrix: (Units=GPa)
#
#
# Indices 1 2 3 4 5 6 
#
# 1 94.8996 44.8950 27.4044 0.0003 8.0032 -0.0001
# 2 44.8950 80.4822 26.9236 0.0003 3.1648 -0.0001
# 3 27.4044 26.9236 86.5556 0.0008 10.1095 -0.0002
# 4 0.0003 0.0003 0.0008 14.0523 -0.0003 0.7245
# 5 8.0032 3.1648 10.1095 -0.0003 31.9118 0.0001
# 6 -0.0001 -0.0001 -0.0002 0.7245 0.0001 16.9201
#
#
#
# Elastic Compliance Matrix: (Units=1/GPa)
#
#
# Indices 1 2 3 4 5 6 
#
# 1 0.014896 -0.007513 -0.002108 0.000000 -0.002323 0.000000
# 2 -0.007513 0.017657 -0.003250 0.000000 0.001162 0.000000
# 3 -0.002108 -0.003250 0.013637 -0.000001 -0.003469 0.000000
# 4 0.000000 0.000000 -0.000001 0.071320 0.000001 -0.003054
# 5 -0.002323 0.001162 -0.003469 0.000001 0.032903 0.000000
# 6 0.000000 0.000000 0.000000 -0.003054 0.000000 0.059232
#
#
# Mechanical properties :
#
#
# Convention : Reuss Voigt Hill
#
# Bulk Modulus (GPa) = 48.90156 51.15371 50.02763
# Shear Modulus (GPa) = 20.64383 23.42446 22.03415
#
# Velocity S-wave (km/s) = 3.31372 3.52985 3.42349
# Velocity P-wave (km/s) = 6.37593 6.61986 6.49904
#
# Compressibility (1/GPa) = 0.02044925
#
# Stress axis : x y z
#
# Youngs Moduli (GPa) = 67.13056 56.63353 73.33176
#
# Poissons Ratio (x) = 0.42549 0.15459
# Poissons Ratio (y) = 0.50435 0.23829
# Poissons Ratio (z) = 0.14151 0.18403
#
# Static dielectric constant tensor:
#      x y z
#    x 3.594880 0.000000 -0.023120 
#    y 0.000000 3.245290 0.000000 
#    z -0.023120 0.000000 3.692010 
# 
# 
# High freq. dielectric constant tensor:
#      x y z
#    x 1.730400 0.000000 -0.001300 
#    y 0.000000 1.707550 0.000000 
#    z -0.001300 0.000000 1.747790 
# 
# From -- ./inp_files/271688.got.cif
#   From: 2010.06.25/outbox.cif.g09.slc.cpg/sg12_136_cif.got.tgz:271688.got - 2010.06.28 00:19:55.
