data_PCOD8095848
_publ_section_title
;
Structure prediction by ZEFSAII (Michael W. Deem and Ramdas Pophale) SiO2 
 PCOD8095848
Probable space group: C 2/M
;
_chemical_formula_sum "Si O2"
_cell_formula_units_Z 64
_cell_length_a 19.142541
_cell_length_b 9.257835
_cell_length_c 24.514463
_cell_angle_alpha 90.000000
_cell_angle_beta 54.668576
_cell_angle_gamma 90.000000
_cell_volume 3544.263823
_symmetry_space_group_name_H-M "C 2/M"
_symmetry_group_IT_number 12
_symmetry_cell_setting 'monoclinic'
loop_
_space_group_symop_operation_xyz
x,y,z
-x,y,-z
-x,-y,-z
x,-y,z
1/2+x,1/2+y,z
1/2-x,1/2+y,-z
1/2-x,1/2-y,-z
1/2+x,1/2-y,z
loop_
_atom_site_type_symbol
_atom_site_label
_atom_site_fract_x
_atom_site_fract_y
_atom_site_fract_z
Si Si1 0.735527 0.335038 0.922034
Si Si2 0.202688 0.330402 0.827555
Si Si3 0.164328 0.830200 0.555783
Si Si4 0.178543 0.166110 0.673204
Si Si5 0.870459 0.164320 0.927686
Si Si6 0.566553 0.333515 0.825268
Si Si7 0.002120 0.171324 0.560726
Si Si8 0.815860 0.169002 0.674751
O O1 0.750745 0.500000 0.897109
O O2 0.726908 0.235099 0.874016
O O3 0.817221 0.280477 0.918273
O O4 0.651493 0.321883 0.998168
O O5 0.191427 0.500000 0.838980
O O6 0.113375 0.264138 0.848574
O O7 0.277212 0.289989 0.750944
O O8 0.250000 0.750000 0.500000
O O9 0.145865 0.795990 0.627524
O O10 0.084031 0.768547 0.557078
O O11 0.176899 0.000000 0.539930
O O12 0.100673 0.202952 0.749284
O O13 0.263084 0.256253 0.649995
O O14 0.205516 0.000000 0.665657
O O15 0.967822 0.206392 0.873231
O O16 0.851131 0.000000 0.916670
O O17 0.583236 0.500000 0.832858
O O18 0.914356 0.221373 0.629714
O O19 0.000000 0.232400 0.500000
O O20 0.008352 0.000000 0.557166
O O21 0.809389 0.000000 0.665768
#
# Coordination Sequence:
#
# PCOD8095848 Si02
#       8
#     8   8   8   8   8   8   8   8
#     4  10  20  34  52  74 102 134 168 208 253 300
#     4  10  20  33  51  76 104 133 167 206 248 298
#     4  10  20  33  50  73  99 128 163 200 241 289
#     4   9  18  32  51  74  99 127 159 200 248 294
#     4   9  19  35  54  75  99 131 170 210 253 300
#     4   9  18  34  54  74  99 131 166 207 256 304
#     4   9  17  30  50  74  97 125 163 203 241 284
#     4   9  18  33  53  74  97 128 164 202 242 288
#
# _framework density 18.057345999999999
#
# number of rings (size 3 to 8) (size 9 to 14) (size 15 to 20)
#    0.000    2.625    0.000    1.500    0.000    4.500 
#    0.000    6.875    0.000    3.750    0.000    0.000 
#    0.000    0.000    0.000    0.000    0.000    0.000 
#
# Total GULP energy -396809.951024 kJ/mol
# GULP energy per Si atom -12400.310969 kJ/mol
# Density = 1.801625 g / cm^3
# Si number density = 18.057346 Si / 1000 Ang^3
#
#
#
# Elastic Constant Matrix: (Units=GPa)
#
#
# Indices 1 2 3 4 5 6 
#
# 1 129.9623 39.2071 73.1205 -0.0001 -5.7645 0.0001
# 2 39.2071 50.1072 34.0308 -0.0003 -0.7666 0.0000
# 3 73.1205 34.0308 97.4748 0.0000 -7.4518 0.0000
# 4 -0.0001 -0.0003 0.0000 24.8747 0.0000 2.0424
# 5 -5.7645 -0.7666 -7.4518 0.0000 38.0572 -0.0001
# 6 0.0001 0.0000 0.0000 2.0424 -0.0001 27.4945
#
#
#
# Elastic Compliance Matrix: (Units=1/GPa)
#
#
# Indices 1 2 3 4 5 6 
#
# 1 0.014245 -0.005113 -0.008877 0.000000 0.000317 0.000000
# 2 -0.005113 0.028057 -0.006067 0.000000 -0.001397 0.000000
# 3 -0.008877 -0.006067 0.019212 0.000000 0.002295 0.000000
# 4 0.000000 0.000000 0.000000 0.040448 0.000000 -0.003005
# 5 0.000317 -0.001397 0.002295 0.000000 0.026745 0.000000
# 6 0.000000 0.000000 0.000000 -0.003005 0.000000 0.036594
#
#
# Mechanical properties :
#
#
# Convention : Reuss Voigt Hill
#
# Bulk Modulus (GPa) = 46.72743 63.36235 55.04489
# Shear Modulus (GPa) = 23.52408 26.83100 25.17754
#
# Velocity S-wave (km/s) = 3.61327 3.85889 3.73810
# Velocity P-wave (km/s) = 6.58339 7.41757 7.01290
#
# Compressibility (1/GPa) = 0.02140071
#
# Stress axis : x y z
#
# Youngs Moduli (GPa) = 70.19770 35.64213 52.05186
#
# Poissons Ratio (x) = 0.18223 0.46206
# Poissons Ratio (y) = 0.35891 0.31578
# Poissons Ratio (z) = 0.62315 0.21623
#
# Static dielectric constant tensor:
#      x y z
#    x 3.383730 0.000000 0.007890 
#    y 0.000000 3.247390 0.000000 
#    z 0.007890 0.000000 3.543350 
# 
# 
# High freq. dielectric constant tensor:
#      x y z
#    x 1.695740 0.000000 0.000170 
#    y 0.000000 1.687140 0.000000 
#    z 0.000170 0.000000 1.708750 
# 
# From -- ./inp_files/346039.got.cif
#   From: 2010.06.25/outbox.cif.g09.slc.cpg/sg12_174_cif.got.tgz:346039.got - 2010.06.28 00:19:55.
