data_PCOD8095971
_publ_section_title
;
Structure prediction by ZEFSAII (Michael W. Deem and Ramdas Pophale) SiO2 
 PCOD8095971
Probable space group: C 2/M
;
_chemical_formula_sum "Si O2"
_cell_formula_units_Z 56
_cell_length_a 18.165712
_cell_length_b 9.227889
_cell_length_c 20.278190
_cell_angle_alpha 90.000000
_cell_angle_beta 63.391167
_cell_angle_gamma 90.000000
_cell_volume 3039.225183
_symmetry_space_group_name_H-M "C 2/M"
_symmetry_group_IT_number 12
_symmetry_cell_setting 'monoclinic'
loop_
_space_group_symop_operation_xyz
x,y,z
-x,y,-z
-x,-y,-z
x,-y,z
1/2+x,1/2+y,z
1/2-x,1/2+y,-z
1/2-x,1/2-y,-z
1/2+x,1/2-y,z
loop_
_atom_site_type_symbol
_atom_site_label
_atom_site_fract_x
_atom_site_fract_y
_atom_site_fract_z
Si Si1 0.602468 0.329057 0.140973
Si Si2 0.582419 0.672121 0.000003
Si Si3 0.728254 0.668008 0.713640
Si Si4 0.941902 0.831990 0.286364
Si Si5 0.872867 0.336361 0.429660
Si Si6 0.256565 0.329059 0.140966
Si Si7 0.302521 0.336361 0.570347
O O1 0.617953 0.500000 0.136181
O O2 0.588586 0.272545 0.072392
O O3 0.523213 0.285008 0.215159
O O4 0.680520 0.250005 0.138965
O O5 0.577935 0.500000 0.000001
O O6 0.500000 0.737473 0.000000
O O7 0.660977 0.727456 0.927617
O O8 0.748723 0.500000 0.694129
O O9 0.634957 0.702656 0.730076
O O10 0.738356 0.714977 0.784850
O O11 0.793184 0.759777 0.644837
O O12 0.938022 0.740228 0.355173
O O13 0.942866 0.000000 0.305869
O O14 0.902166 0.500000 0.431745
O O15 0.784019 0.334226 0.431965
O O16 0.869549 0.250001 0.500005
O O17 0.245867 0.500000 0.136169
O O18 0.333905 0.500000 0.568262
#
# Coordination Sequence:
#
# PCOD8095971 Si02
#       7
#     8   8   8   8   8   8   8
#     4  10  20  33  51  74 101 133 166 203 247 294
#     4   9  17  32  55  79 100 127 168 210 244 285
#     4   9  17  30  48  70  96 128 168 209 246 288
#     4   9  17  30  48  70  96 128 168 209 246 288
#     4   9  16  26  43  69  99 129 161 201 249 296
#     4  10  20  33  51  74 101 133 166 203 247 294
#     4   9  16  26  43  69  99 129 161 201 249 296
#
# _framework density 18.425749
#
# number of rings (size 3 to 8) (size 9 to 14) (size 15 to 20)
#    0.000    2.714    0.000    2.143    0.000    8.000 
#    0.000    0.000    0.000    4.286    0.000    6.000 
#    0.000    0.000    0.000    0.000    0.000    0.000 
#
# Total GULP energy -347225.836517 kJ/mol
# GULP energy per Si atom -12400.922733 kJ/mol
# Density = 1.838381 g / cm^3
# Si number density = 18.425749 Si / 1000 Ang^3
#
#
#
# Elastic Constant Matrix: (Units=GPa)
#
#
# Indices 1 2 3 4 5 6 
#
# 1 99.3957 42.3980 78.2811 0.0000 -0.5272 0.0001
# 2 42.3980 78.5835 78.4088 -0.0001 1.4906 0.0002
# 3 78.2811 78.4088 204.7811 0.0000 4.8747 0.0000
# 4 0.0000 -0.0001 0.0000 26.6386 0.0000 0.0841
# 5 -0.5272 1.4906 4.8747 0.0000 4.5956 0.0000
# 6 0.0001 0.0002 0.0000 0.0841 0.0000 24.5854
#
#
#
# Elastic Compliance Matrix: (Units=1/GPa)
#
#
# Indices 1 2 3 4 5 6 
#
# 1 0.015357 -0.003868 -0.004577 0.000000 0.007871 0.000000
# 2 -0.003868 0.021580 -0.006778 0.000000 -0.000254 0.000000
# 3 -0.004577 -0.006778 0.009426 0.000000 -0.008325 0.000000
# 4 0.000000 0.000000 0.000000 0.037540 0.000000 -0.000128
# 5 0.007871 -0.000254 -0.008325 0.000000 0.227414 0.000000
# 6 0.000000 0.000000 0.000000 -0.000128 0.000000 0.040675
#
#
# Mechanical properties :
#
#
# Convention : Reuss Voigt Hill
#
# Bulk Modulus (GPa) = 62.82490 86.77070 74.79780
# Shear Modulus (GPa) = 12.89509 23.40875 18.15192
#
# Velocity S-wave (km/s) = 2.64832 3.56819 3.14210
# Velocity P-wave (km/s) = 6.59710 8.01063 7.33798
#
# Compressibility (1/GPa) = 0.01591726
#
# Stress axis : x y z
#
# Youngs Moduli (GPa) = 65.11644 46.33873 106.08673
#
# Poissons Ratio (x) = 0.17925 0.48553
# Poissons Ratio (y) = 0.25189 0.71907
# Poissons Ratio (z) = 0.29802 0.31409
#
# Static dielectric constant tensor:
#      x y z
#    x 3.096940 0.000000 0.022810 
#    y 0.000000 3.273530 0.000000 
#    z 0.022810 0.000000 3.646140 
# 
# 
# High freq. dielectric constant tensor:
#      x y z
#    x 1.683350 0.000000 0.002130 
#    y 0.000000 1.697640 0.000000 
#    z 0.002130 0.000000 1.734570 
# 
# From -- ./inp_files/275503.got.cif
#   From: 2010.06.25/outbox.cif.g09.slc.cpg/sg12_138_cif.got.tgz:275503.got - 2010.06.28 00:19:55.
