data_PCOD8095845
_publ_section_title
;
Structure prediction by ZEFSAII (Michael W. Deem and Ramdas Pophale) SiO2 
 PCOD8095845
Probable space group: C 2/M
;
_chemical_formula_sum "Si O2"
_cell_formula_units_Z 64
_cell_length_a 31.881290
_cell_length_b 8.988950
_cell_length_c 15.862236
_cell_angle_alpha 90.000000
_cell_angle_beta 53.012193
_cell_angle_gamma 90.000000
_cell_volume 3631.010486
_symmetry_space_group_name_H-M "C 2/M"
_symmetry_group_IT_number 12
_symmetry_cell_setting 'monoclinic'
loop_
_space_group_symop_operation_xyz
x,y,z
-x,y,-z
-x,-y,-z
x,-y,z
1/2+x,1/2+y,z
1/2-x,1/2+y,-z
1/2-x,1/2-y,-z
1/2+x,1/2-y,z
loop_
_atom_site_type_symbol
_atom_site_label
_atom_site_fract_x
_atom_site_fract_y
_atom_site_fract_z
Si Si1 0.848204 0.676785 0.701238
Si Si2 0.633768 0.176000 0.970000
Si Si3 0.723136 0.171696 0.455020
Si Si4 0.529119 0.326143 0.051581
Si Si5 0.398123 0.174774 0.809449
Si Si6 0.009638 0.323822 0.737848
Si Si7 0.264866 0.671902 0.221560
Si Si8 0.386279 0.822662 0.478740
O O1 0.852162 0.500000 0.697660
O O2 0.872030 0.748808 0.757935
O O3 0.787294 0.722142 0.765668
O O4 0.881545 0.736482 0.580704
O O5 0.586497 0.252605 0.976444
O O6 0.688684 0.223122 0.864732
O O7 0.626267 0.000000 0.971765
O O8 0.631691 0.228775 0.070180
O O9 0.750000 0.250000 0.500000
O O10 0.757173 0.198103 0.330085
O O11 0.664132 0.234577 0.513014
O O12 0.719970 0.000000 0.481394
O O13 0.535685 0.500000 0.061285
O O14 0.500000 0.293255 0.000000
O O15 0.493994 0.254617 0.167592
O O16 0.459395 0.218616 0.741402
O O17 0.391974 0.000000 0.808193
O O18 0.012406 0.500000 0.749904
O O19 0.060768 0.261621 0.627841
O O20 0.278403 0.500000 0.186533
O O21 0.386079 0.000000 0.480370
#
# Coordination Sequence:
#
# PCOD8095845 Si02
#       8
#     8   8   8   8   8   8   8   8
#     4   8  14  27  47  70  98 129 159 194 235 277
#     4  10  20  33  50  73  99 124 156 200 242 281
#     4   9  18  32  48  68  94 124 161 199 236 282
#     4  10  21  36  52  70  94 125 161 196 233 285
#     4   8  15  27  44  70  99 124 156 197 236 278
#     4   9  17  30  49  74 101 124 153 196 240 281
#     4   9  18  32  49  69  96 130 164 197 235 283
#     4   8  15  28  46  69  96 125 156 192 235 283
#
# _framework density 17.625948000000001
#
# number of rings (size 3 to 8) (size 9 to 14) (size 15 to 20)
#    0.000    3.125    0.000    3.000    0.000    3.500 
#    0.000    5.625    0.000    3.750    0.000    3.500 
#    0.000    0.000    0.000    0.000    0.000    0.000 
#
# Total GULP energy -396673.528903 kJ/mol
# GULP energy per Si atom -12396.047778 kJ/mol
# Density = 1.758583 g / cm^3
# Si number density = 17.625948 Si / 1000 Ang^3
#
#
#
# Elastic Constant Matrix: (Units=GPa)
#
#
# Indices 1 2 3 4 5 6 
#
# 1 142.1916 43.0613 90.5418 0.0000 12.1794 -0.0001
# 2 43.0613 42.9441 40.2855 -0.0002 2.9488 -0.0006
# 3 90.5418 40.2855 118.9134 0.0000 -10.1889 0.0000
# 4 0.0000 -0.0002 0.0000 21.9926 0.0000 -3.5192
# 5 12.1794 2.9488 -10.1889 0.0000 34.3955 0.0000
# 6 -0.0001 -0.0006 0.0000 -3.5192 0.0000 20.5330
#
#
#
# Elastic Compliance Matrix: (Units=1/GPa)
#
#
# Indices 1 2 3 4 5 6 
#
# 1 0.017015 -0.005201 -0.011975 0.000000 -0.009127 0.000000
# 2 -0.005201 0.037210 -0.008990 0.000001 -0.004011 0.000001
# 3 -0.011975 -0.008990 0.021550 0.000000 0.011395 0.000000
# 4 0.000000 0.000001 0.000000 0.046752 0.000000 0.008013
# 5 -0.009127 -0.004011 0.011395 0.000000 0.036025 0.000000
# 6 0.000000 0.000001 0.000000 0.008013 0.000000 0.050075
#
#
# Mechanical properties :
#
#
# Convention : Reuss Voigt Hill
#
# Bulk Modulus (GPa) = 42.65770 72.42511 57.54141
# Shear Modulus (GPa) = 18.60314 24.06160 21.33237
#
# Velocity S-wave (km/s) = 3.25228 3.69877 3.48269
# Velocity P-wave (km/s) = 6.19333 7.70846 6.99206
#
# Compressibility (1/GPa) = 0.02344243
#
# Stress axis : x y z
#
# Youngs Moduli (GPa) = 58.77192 26.87479 46.40456
#
# Poissons Ratio (x) = 0.13977 0.55572
# Poissons Ratio (y) = 0.30565 0.41717
# Poissons Ratio (z) = 0.70382 0.24160
#
# Static dielectric constant tensor:
#      x y z
#    x 3.578150 0.000000 0.053450 
#    y 0.000000 2.909930 0.000000 
#    z 0.053450 0.000000 3.457010 
# 
# 
# High freq. dielectric constant tensor:
#      x y z
#    x 1.688330 0.000000 0.000140 
#    y 0.000000 1.643810 0.000000 
#    z 0.000140 0.000000 1.686000 
# 
# From -- ./inp_files/249000.got.cif
#   From: 2010.06.25/outbox.cif.g09.slc.cpg/sg12_125_cif.got.tgz:249000.got - 2010.06.28 00:19:55.
