data_PCOD8095900
_publ_section_title
;
Structure prediction by ZEFSAII (Michael W. Deem and Ramdas Pophale) SiO2 
 PCOD8095900
Probable space group: C 2/M
;
_chemical_formula_sum "Si O2"
_cell_formula_units_Z 40
_cell_length_a 26.777879
_cell_length_b 10.192688
_cell_length_c 25.281993
_cell_angle_alpha 90.000000
_cell_angle_beta 18.607836
_cell_angle_gamma 90.000000
_cell_volume 2201.851096
_symmetry_space_group_name_H-M "C 2/M"
_symmetry_group_IT_number 12
_symmetry_cell_setting 'monoclinic'
loop_
_space_group_symop_operation_xyz
x,y,z
-x,y,-z
-x,-y,-z
x,-y,z
1/2+x,1/2+y,z
1/2-x,1/2+y,-z
1/2-x,1/2-y,-z
1/2+x,1/2-y,z
loop_
_atom_site_type_symbol
_atom_site_label
_atom_site_fract_x
_atom_site_fract_y
_atom_site_fract_z
Si Si1 0.882510 0.849741 0.975574
Si Si2 0.965461 0.354335 0.708864
Si Si3 0.595153 0.211134 0.685727
Si Si4 0.201452 0.859224 0.428389
Si Si5 0.021548 0.348163 0.917880
O O1 0.002512 0.831746 0.806014
O O2 0.915099 0.750509 0.990718
O O3 0.895719 0.000000 0.981843
O O4 0.710387 0.814667 0.127709
O O5 0.004683 0.500000 0.648295
O O6 0.982902 0.356044 0.755189
O O7 0.081011 0.254440 0.563426
O O8 0.750000 0.250000 0.500000
O O9 0.657136 0.120066 0.670927
O O10 0.293659 0.827603 0.281470
O O11 0.112883 0.000000 0.513473
O O12 0.971030 0.500000 0.958892
O O13 0.000000 0.307805 0.000000
#
# Coordination Sequence:
#
# PCOD8095900 Si02
#       5
#     8   8   8   8   8
#     4  10  21  35  52  77 105 134 170 210 253 302
#     4  10  20  33  50  75 108 140 169 205 250 299
#     4   9  18  31  49  72 101 136 169 202 242 290
#     4   9  18  32  52  76 100 131 172 211 251 300
#     4   9  19  37  58  77  98 128 169 215 260 306
#
# _framework density 18.166533999999999
#
# number of rings (size 3 to 8) (size 9 to 14) (size 15 to 20)
#    0.000    2.600    0.000    1.200    0.000   12.400 
#    0.000    1.000    0.000    6.000    0.000    0.000 
#    0.000    0.000    0.000    0.000    0.000    0.000 
#
# Total GULP energy -247764.607655 kJ/mol
# GULP energy per Si atom -12388.230383 kJ/mol
# Density = 1.812519 g / cm^3
# Si number density = 18.166534 Si / 1000 Ang^3
#
#
#
# Elastic Constant Matrix: (Units=GPa)
#
#
# Indices 1 2 3 4 5 6 
#
# 1 95.2645 52.7694 67.1918 -0.0017 12.4104 0.0001
# 2 52.7694 118.7974 66.3582 -0.0024 -0.6241 0.0001
# 3 67.1918 66.3582 112.3230 -0.0123 4.9980 0.0021
# 4 -0.0017 -0.0024 -0.0123 30.4819 0.0033 -1.3996
# 5 12.4104 -0.6241 4.9980 0.0033 30.5259 0.0001
# 6 0.0001 0.0001 0.0021 -1.3996 0.0001 21.7238
#
#
#
# Elastic Compliance Matrix: (Units=1/GPa)
#
#
# Indices 1 2 3 4 5 6 
#
# 1 0.020161 -0.003612 -0.009629 -0.000002 -0.006694 0.000001
# 2 -0.003612 0.013278 -0.005803 -0.000002 0.002690 0.000000
# 3 -0.009629 -0.005803 0.018054 0.000006 0.000840 -0.000001
# 4 -0.000002 -0.000002 0.000006 0.032904 -0.000004 0.002120
# 5 -0.006694 0.002690 0.000840 -0.000004 0.035398 0.000000
# 6 0.000001 0.000000 -0.000001 0.002120 0.000000 0.046169
#
#
# Mechanical properties :
#
#
# Convention : Reuss Voigt Hill
#
# Bulk Modulus (GPa) = 74.59984 77.66931 76.13458
# Shear Modulus (GPa) = 23.97847 25.88399 24.93123
#
# Velocity S-wave (km/s) = 3.63702 3.77877 3.70857
# Velocity P-wave (km/s) = 7.66752 7.86675 7.76777
#
# Compressibility (1/GPa) = 0.01340485
#
# Stress axis : x y z
#
# Youngs Moduli (GPa) = 49.59983 75.31271 55.39029
#
# Poissons Ratio (x) = 0.27206 0.53333
# Poissons Ratio (y) = 0.17918 0.32144
# Poissons Ratio (z) = 0.47757 0.43705
#
# Static dielectric constant tensor:
#      x y z
#    x 3.751410 0.000000 0.178230 
#    y 0.000000 3.308450 0.000010 
#    z 0.178230 0.000010 3.380390 
# 
# 
# High freq. dielectric constant tensor:
#      x y z
#    x 1.687430 0.000000 0.008070 
#    y 0.000000 1.706540 0.000000 
#    z 0.008070 0.000000 1.702480 
# 
# From -- ./inp_files/101026.got.cif
#   From: 2010.06.25/outbox.cif.g09.slc.cpg/sg12_51_cif.got.tgz:101026.got - 2010.06.28 00:19:55.
