data_PCOD8095906
_publ_section_title
;
Structure prediction by ZEFSAII (Michael W. Deem and Ramdas Pophale) SiO2 
 PCOD8095906
Probable space group: C 2/M
;
_chemical_formula_sum "Si O2"
_cell_formula_units_Z 64
_cell_length_a 22.764369
_cell_length_b 8.542802
_cell_length_c 20.075869
_cell_angle_alpha 90.000000
_cell_angle_beta 124.275791
_cell_angle_gamma 90.000000
_cell_volume 3226.169308
_symmetry_space_group_name_H-M "C 2/M"
_symmetry_group_IT_number 12
_symmetry_cell_setting 'monoclinic'
loop_
_space_group_symop_operation_xyz
x,y,z
-x,y,-z
-x,-y,-z
x,-y,z
1/2+x,1/2+y,z
1/2-x,1/2+y,-z
1/2-x,1/2-y,-z
1/2+x,1/2-y,z
loop_
_atom_site_type_symbol
_atom_site_label
_atom_site_fract_x
_atom_site_fract_y
_atom_site_fract_z
Si Si1 0.925152 0.317350 0.921910
Si Si2 0.883069 0.315999 0.446120
Si Si3 0.668801 0.181507 0.905191
Si Si4 0.387904 0.813444 0.750579
Si Si5 0.478947 0.814436 0.246230
Si Si6 0.522765 0.814883 0.609667
Si Si7 0.245080 0.682866 0.421850
Si Si8 0.310707 0.323464 0.942091
O O1 0.937980 0.500000 0.920676
O O2 0.899947 0.247250 0.833924
O O3 0.860032 0.290950 0.930994
O O4 0.000000 0.246609 0.000000
O O5 0.867259 0.500000 0.446521
O O6 0.904263 0.274804 0.383299
O O7 0.815899 0.217281 0.426055
O O8 0.950844 0.254386 0.530114
O O9 0.592363 0.238295 0.834103
O O10 0.725273 0.204439 0.879676
O O11 0.669145 0.000000 0.928531
O O12 0.682436 0.296400 0.974984
O O13 0.454701 0.748420 0.752130
O O14 0.318797 0.749370 0.665980
O O15 0.384496 0.000000 0.751524
O O16 0.476029 0.737436 0.317195
O O17 0.484785 0.000000 0.255439
O O18 0.516565 0.000000 0.608519
O O19 0.233313 0.500000 0.423439
O O20 0.250000 0.750000 0.500000
O O21 0.332596 0.500000 0.937032
#
# Coordination Sequence:
#
# PCOD8095906 Si02
#       8
#     8   8   8   8   8   8   8   8
#     4  10  20  36  58  79 101 137 181 217 253 306
#     4   9  17  32  53  77 103 133 171 210 255 308
#     4   9  18  32  52  75  98 131 173 211 250 307
#     4   9  19  33  52  79 105 132 173 221 260 301
#     4   9  15  28  51  75  97 125 170 219 254 293
#     4   8  15  28  51  79 102 128 166 214 259 302
#     4  11  22  36  54  77 107 142 177 214 259 307
#     4  10  20  33  50  76 107 134 163 207 263 310
#
# _framework density 19.837766999999999
#
# number of rings (size 3 to 8) (size 9 to 14) (size 15 to 20)
#    0.000    2.625    0.000    3.000    0.000    5.750 
#    0.000    3.750    0.000    6.000    0.000    0.000 
#    0.000    0.000    0.000    0.000    0.000    0.000 
#
# Total GULP energy -396423.513090 kJ/mol
# GULP energy per Si atom -12388.234784 kJ/mol
# Density = 1.979262 g / cm^3
# Si number density = 19.837767 Si / 1000 Ang^3
#
#
#
# Elastic Constant Matrix: (Units=GPa)
#
#
# Indices 1 2 3 4 5 6 
#
# 1 159.6983 8.0073 67.6284 0.0000 5.5580 0.0000
# 2 8.0073 18.0568 13.3891 0.0000 3.3962 0.0000
# 3 67.6284 13.3891 119.1490 0.0000 1.2094 0.0000
# 4 0.0000 0.0000 0.0000 14.3864 0.0000 -0.0483
# 5 5.5580 3.3962 1.2094 0.0000 37.3715 0.0000
# 6 0.0000 0.0000 0.0000 -0.0483 0.0000 28.4300
#
#
#
# Elastic Compliance Matrix: (Units=1/GPa)
#
#
# Indices 1 2 3 4 5 6 
#
# 1 0.008287 0.000009 -0.004693 0.000000 -0.001081 0.000000
# 2 0.000009 0.061472 -0.006858 0.000000 -0.005366 0.000000
# 3 -0.004693 -0.006858 0.011818 0.000000 0.000939 0.000000
# 4 0.000000 0.000000 0.000000 0.069511 0.000000 0.000118
# 5 -0.001081 -0.005366 0.000939 0.000000 0.027376 0.000000
# 6 0.000000 0.000000 0.000000 0.000118 0.000000 0.035174
#
#
# Mechanical properties :
#
#
# Convention : Reuss Voigt Hill
#
# Bulk Modulus (GPa) = 17.09684 52.77263 34.93474
# Shear Modulus (GPa) = 19.51449 29.89618 24.70534
#
# Velocity S-wave (km/s) = 3.13981 3.88626 3.53281
# Velocity P-wave (km/s) = 4.66707 6.84085 5.85572
#
# Compressibility (1/GPa) = 0.05849033
#
# Stress axis : x y z
#
# Youngs Moduli (GPa) = 120.67745 16.26770 84.61688
#
# Poissons Ratio (x) = -0.00014 0.39714
# Poissons Ratio (y) = -0.00107 0.58032
# Poissons Ratio (z) = 0.56639 0.11157
#
# Static dielectric constant tensor:
#      x y z
#    x 3.848600 0.000000 0.006660 
#    y 0.000000 3.071300 0.000000 
#    z 0.006660 0.000000 4.012710 
# 
# 
# High freq. dielectric constant tensor:
#      x y z
#    x 1.791690 0.000000 0.002270 
#    y 0.000000 1.723070 0.000000 
#    z 0.002270 0.000000 1.774680 
# 
# From -- ./inp_files/320156.got.cif
#   From: 2010.06.25/outbox.cif.g09.slc.cpg/sg12_161_cif.got.tgz:320156.got - 2010.06.28 00:19:55.
