data_PCOD8095065
_publ_section_title
;
Structure prediction by ZEFSAII (Michael W. Deem and Ramdas Pophale) SiO2 
 PCOD8095065
Probable space group: C 2/M
;
_chemical_formula_sum "Si O2"
_cell_formula_units_Z 64
_cell_length_a 17.102209
_cell_length_b 17.021154
_cell_length_c 22.579590
_cell_angle_alpha 90.000000
_cell_angle_beta 149.829840
_cell_angle_gamma 90.000000
_cell_volume 3303.342572
_symmetry_space_group_name_H-M "C 2/M"
_symmetry_group_IT_number 12
_symmetry_cell_setting 'monoclinic'
loop_
_space_group_symop_operation_xyz
x,y,z
-x,y,-z
-x,-y,-z
x,-y,z
1/2+x,1/2+y,z
1/2-x,1/2+y,-z
1/2-x,1/2-y,-z
1/2+x,1/2-y,z
loop_
_atom_site_type_symbol
_atom_site_label
_atom_site_fract_x
_atom_site_fract_y
_atom_site_fract_z
Si Si1 0.554360 0.592467 0.809544
Si Si2 0.722346 0.154041 0.619176
Si Si3 0.358646 0.908843 0.070460
Si Si4 0.935796 0.090505 0.320255
Si Si5 0.065044 0.589370 0.625524
Si Si6 0.312358 0.909422 0.750048
Si Si7 0.204861 0.169625 0.567179
Si Si8 0.493636 0.091068 0.282047
O O1 0.538232 0.500000 0.808607
O O2 0.402272 0.633002 0.735651
O O3 0.576965 0.614753 0.756052
O O4 0.701331 0.629379 0.941434
O O5 0.665882 0.148517 0.650773
O O6 0.617720 0.094476 0.511701
O O7 0.697010 0.238532 0.574188
O O8 0.513394 0.872574 0.139948
O O9 0.368902 0.894839 0.147897
O O10 0.349253 0.000000 0.048031
O O11 0.764061 0.103397 0.235832
O O12 0.056900 0.146765 0.431544
O O13 0.988663 0.000000 0.362571
O O14 0.121342 0.500000 0.652047
O O15 0.086903 0.613525 0.708502
O O16 0.199172 0.872698 0.626791
O O17 0.327289 0.000000 0.742518
O O18 0.357987 0.146340 0.630638
O O19 0.548709 0.000000 0.319068
#
# Coordination Sequence:
#
# PCOD8095065 Si02
#       8
#     8   8   8   8   8   8   8   8
#     4  10  20  36  55  79 110 142 184 228 268 320
#     4  11  23  35  52  81 111 145 179 221 285 326
#     4   8  16  33  57  81 106 139 181 228 269 311
#     4  10  20  31  52  83 113 147 178 215 266 323
#     4  10  21  38  58  78 106 145 188 229 272 328
#     4   9  18  33  53  79 111 146 179 215 264 321
#     4  11  21  33  52  82 114 143 175 223 276 332
#     4   9  18  36  60  82 105 142 187 226 269 323
#
# _framework density 19.374314999999999
#
# number of rings (size 3 to 8) (size 9 to 14) (size 15 to 20)
#    0.000    2.250    0.000    4.500    3.500    5.500 
#    0.000    5.625    0.000    3.000    6.500    0.000 
#    0.000    0.000    0.000    0.000    0.000    0.000 
#
# Total GULP energy -396739.695427 kJ/mol
# GULP energy per Si atom -12398.115482 kJ/mol
# Density = 1.933022 g / cm^3
# Si number density = 19.374315 Si / 1000 Ang^3
#
#
#
# Elastic Constant Matrix: (Units=GPa)
#
#
# Indices 1 2 3 4 5 6 
#
# 1 147.3046 43.8719 75.8954 0.0043 -5.8486 0.0015
# 2 43.8719 61.1233 32.4049 0.0041 -1.0909 0.0029
# 3 75.8954 32.4049 143.1529 0.0078 3.3431 0.0074
# 4 0.0043 0.0041 0.0078 7.6424 0.0041 1.4621
# 5 -5.8486 -1.0909 3.3431 0.0041 15.6894 0.0025
# 6 0.0015 0.0029 0.0074 1.4621 0.0025 16.1006
#
#
#
# Elastic Compliance Matrix: (Units=1/GPa)
#
#
# Indices 1 2 3 4 5 6 
#
# 1 0.010997 -0.005294 -0.004743 -0.000001 0.004742 0.000002
# 2 -0.005294 0.021216 -0.001994 -0.000006 -0.000074 -0.000002
# 3 -0.004743 -0.001994 0.010046 -0.000004 -0.004047 -0.000003
# 4 -0.000001 -0.000006 -0.000004 0.133162 -0.000033 -0.012093
# 5 0.004742 -0.000074 -0.004047 -0.000033 0.066362 -0.000006
# 6 0.000002 -0.000002 -0.000003 -0.012093 -0.000006 0.063208
#
#
# Mechanical properties :
#
#
# Convention : Reuss Voigt Hill
#
# Bulk Modulus (GPa) = 54.95334 72.88057 63.91695
# Shear Modulus (GPa) = 14.92006 21.18040 18.05023
#
# Velocity S-wave (km/s) = 2.77807 3.30998 3.05562
# Velocity P-wave (km/s) = 6.22220 7.23234 6.74620
#
# Compressibility (1/GPa) = 0.01819726
#
# Stress axis : x y z
#
# Youngs Moduli (GPa) = 90.93079 47.13353 99.54327
#
# Poissons Ratio (x) = 0.24955 0.47211
# Poissons Ratio (y) = 0.48143 0.19849
# Poissons Ratio (z) = 0.43126 0.09398
#
# Static dielectric constant tensor:
#      x y z
#    x 3.675860 0.000000 -0.006320 
#    y 0.000000 3.297650 -0.000010 
#    z -0.006320 -0.000010 3.576930 
# 
# 
# High freq. dielectric constant tensor:
#      x y z
#    x 1.762810 0.000000 -0.002360 
#    y 0.000000 1.729530 0.000000 
#    z -0.002360 0.000000 1.739870 
# 
# From -- ./inp_files/344102.got.cif
#   From: 2010.06.25/outbox.cif.g09.slc.cpg/sg12_173_cif.got.tgz:344102.got - 2010.06.28 00:19:55.
