data_PCOD8095237
_publ_section_title
;
Structure prediction by ZEFSAII (Michael W. Deem and Ramdas Pophale) SiO2 
 PCOD8095237
Probable space group: C 2/M
;
_chemical_formula_sum "Si O2"
_cell_formula_units_Z 64
_cell_length_a 22.780275
_cell_length_b 9.116757
_cell_length_c 25.666249
_cell_angle_alpha 90.000000
_cell_angle_beta 137.761089
_cell_angle_gamma 90.000000
_cell_volume 3583.236367
_symmetry_space_group_name_H-M "C 2/M"
_symmetry_group_IT_number 12
_symmetry_cell_setting 'monoclinic'
loop_
_space_group_symop_operation_xyz
x,y,z
-x,y,-z
-x,-y,-z
x,-y,z
1/2+x,1/2+y,z
1/2-x,1/2+y,-z
1/2-x,1/2-y,-z
1/2+x,1/2-y,z
loop_
_atom_site_type_symbol
_atom_site_label
_atom_site_fract_x
_atom_site_fract_y
_atom_site_fract_z
Si Si1 0.345729 0.669011 0.303815
Si Si2 0.928634 0.661949 0.207770
Si Si3 0.340737 0.331172 0.564835
Si Si4 0.418698 0.667028 0.730301
Si Si5 0.268962 0.167090 0.159467
Si Si6 0.997938 0.665361 0.627538
Si Si7 0.667136 0.171403 0.232142
Si Si8 0.589460 0.331019 0.081892
O O1 0.373887 0.500000 0.320735
O O2 0.299782 0.709963 0.219696
O O3 0.433896 0.764432 0.369370
O O4 0.272046 0.699811 0.299285
O O5 0.947723 0.500000 0.197532
O O6 0.823220 0.692881 0.140943
O O7 0.980561 0.778067 0.206649
O O8 0.958963 0.671033 0.287476
O O9 0.329388 0.500000 0.541607
O O10 0.250000 0.250000 0.500000
O O11 0.373808 0.313918 0.645247
O O12 0.408683 0.257919 0.569284
O O13 0.419876 0.500000 0.750147
O O14 0.364512 0.764497 0.734310
O O15 0.164126 0.184504 0.085844
O O16 0.290103 0.000000 0.193353
O O17 0.976432 0.500000 0.595939
O O18 0.615769 0.246568 0.151224
O O19 0.646375 0.000000 0.215843
O O20 0.575572 0.500000 0.088597
O O21 0.500000 0.264517 0.000000
#
# Coordination Sequence:
#
# PCOD8095237 Si02
#       8
#     8   8   8   8   8   8   8   8
#     4   9  16  26  42  66  92 118 152 193 233 273
#     4   8  14  25  42  64  90 118 150 189 231 274
#     4  10  20  33  50  73  99 127 158 194 236 282
#     4  10  20  32  48  70  95 123 157 195 234 278
#     4   8  14  25  42  65  91 120 153 189 232 278
#     4   9  16  27  45  68  93 122 154 191 234 276
#     4  10  20  32  48  70  97 128 159 194 237 282
#     4   9  17  30  49  72  98 127 158 194 236 282
#
# _framework density 17.860948
#
# number of rings (size 3 to 8) (size 9 to 14) (size 15 to 20)
#    0.000    2.875    0.000    2.625    0.000    6.250 
#    0.000    0.000    0.000    1.500    0.000    5.250 
#    0.000    0.000    0.000    0.000    0.000    0.000 
#
# Total GULP energy -396528.206632 kJ/mol
# GULP energy per Si atom -12391.506457 kJ/mol
# Density = 1.782030 g / cm^3
# Si number density = 17.860948 Si / 1000 Ang^3
#
#
#
# Elastic Constant Matrix: (Units=GPa)
#
#
# Indices 1 2 3 4 5 6 
#
# 1 136.0933 66.5073 32.5665 0.0000 31.9608 0.0000
# 2 66.5073 111.3703 28.2414 0.0000 15.5099 -0.0001
# 3 32.5665 28.2414 35.0178 0.0000 22.5690 0.0000
# 4 0.0000 0.0000 0.0000 18.1126 0.0000 4.9140
# 5 31.9608 15.5099 22.5690 0.0000 28.3017 0.0000
# 6 0.0000 -0.0001 0.0000 4.9140 0.0000 31.0144
#
#
#
# Elastic Compliance Matrix: (Units=1/GPa)
#
#
# Indices 1 2 3 4 5 6 
#
# 1 0.013046 -0.006279 0.000430 0.000000 -0.011634 0.000000
# 2 -0.006279 0.014377 -0.010797 0.000000 0.007822 0.000000
# 3 0.000430 -0.010797 0.068643 0.000000 -0.049308 0.000000
# 4 0.000000 0.000000 0.000000 0.057690 0.000000 -0.009141
# 5 -0.011634 0.007822 -0.049308 0.000000 0.083505 0.000000
# 6 0.000000 0.000000 0.000000 -0.009141 0.000000 0.033691
#
#
# Mechanical properties :
#
#
# Convention : Reuss Voigt Hill
#
# Bulk Modulus (GPa) = 15.93006 59.67908 37.80457
# Shear Modulus (GPa) = 15.37653 25.83016 20.60335
#
# Velocity S-wave (km/s) = 2.93730 3.80699 3.40007
# Velocity P-wave (km/s) = 4.52127 7.26705 6.05194
#
# Compressibility (1/GPa) = 0.06277441
#
# Stress axis : x y z
#
# Youngs Moduli (GPa) = 76.65189 69.55319 14.56807
#
# Poissons Ratio (x) = 0.43676 -0.00626
# Poissons Ratio (y) = 0.48133 0.15728
# Poissons Ratio (z) = -0.03295 0.75093
#
# Static dielectric constant tensor:
#      x y z
#    x 3.713720 0.000000 0.431860 
#    y 0.000000 3.443020 0.000000 
#    z 0.431860 0.000000 2.845010 
# 
# 
# High freq. dielectric constant tensor:
#      x y z
#    x 1.705690 0.000000 0.036660 
#    y 0.000000 1.702800 0.000000 
#    z 0.036660 0.000000 1.625940 
# 
# From -- ./inp_files/346300.got.cif
#   From: 2010.06.25/outbox.cif.g09.slc.cpg/sg12_174_cif.got.tgz:346300.got - 2010.06.28 00:19:55.
