data_PCOD8095432
_publ_section_title
;
Structure prediction by ZEFSAII (Michael W. Deem and Ramdas Pophale) SiO2 
 PCOD8095432
Probable space group: C 2/M
;
_chemical_formula_sum "Si O2"
_cell_formula_units_Z 56
_cell_length_a 30.096936
_cell_length_b 9.097343
_cell_length_c 23.362920
_cell_angle_alpha 90.000000
_cell_angle_beta 153.800101
_cell_angle_gamma 90.000000
_cell_volume 2824.222348
_symmetry_space_group_name_H-M "C 2/M"
_symmetry_group_IT_number 12
_symmetry_cell_setting 'monoclinic'
loop_
_space_group_symop_operation_xyz
x,y,z
-x,y,-z
-x,-y,-z
x,-y,z
1/2+x,1/2+y,z
1/2-x,1/2+y,-z
1/2-x,1/2-y,-z
1/2+x,1/2-y,z
loop_
_atom_site_type_symbol
_atom_site_label
_atom_site_fract_x
_atom_site_fract_y
_atom_site_fract_z
Si Si1 0.700023 0.826322 0.386703
Si Si2 0.398946 0.827497 0.415154
Si Si3 0.798244 0.162918 0.106537
Si Si4 0.652423 0.828000 0.516159
Si Si5 0.968870 0.330601 0.130010
Si Si6 0.990742 0.835282 0.264290
Si Si7 0.735427 0.829220 0.155878
O O1 0.750000 0.750000 0.500000
O O2 0.745658 0.761614 0.380064
O O3 0.581913 0.788431 0.243070
O O4 0.718845 0.000000 0.412620
O O5 0.500000 0.765100 0.500000
O O6 0.398344 0.787904 0.481771
O O7 0.294451 0.759848 0.272175
O O8 0.393826 0.000000 0.398766
O O9 0.777867 0.232844 0.144689
O O10 0.917345 0.158875 0.233741
O O11 0.750870 0.000000 0.051182
O O12 0.750000 0.250000 0.000000
O O13 0.579399 0.777571 0.380691
O O14 0.674340 0.000000 0.536273
O O15 0.962337 0.500000 0.141503
O O16 0.934633 0.228916 0.143619
O O17 0.886173 0.302108 0.983853
O O18 0.032243 0.000000 0.299827
O O19 0.761406 0.000000 0.194631
#
# Coordination Sequence:
#
# PCOD8095432 Si02
#       7
#     8   8   8   8   8   8   8
#     4  11  22  37  60  90 122 157 200 246 299 358
#     4  10  23  43  64  87 116 156 204 249 298 356
#     4  10  20  32  50  81 116 150 188 233 290 354
#     4  11  23  39  60  85 117 157 199 248 305 357
#     4  10  21  37  57  83 119 156 189 236 299 354
#     4  11  21  32  53  86 118 151 194 241 293 354
#     4  10  21  38  59  84 117 156 197 243 298 356
#
# _framework density 19.828467
#
# number of rings (size 3 to 8) (size 9 to 14) (size 15 to 20)
#    0.000    1.571    2.857    2.143    0.000    3.714 
#    0.000    0.714    0.000    4.286    0.000    0.000 
#    0.000    0.000    0.000    0.000    0.000    0.000 
#
# Total GULP energy -347053.638658 kJ/mol
# GULP energy per Si atom -12394.772809 kJ/mol
# Density = 1.978334 g / cm^3
# Si number density = 19.828467 Si / 1000 Ang^3
#
#
#
# Elastic Constant Matrix: (Units=GPa)
#
#
# Indices 1 2 3 4 5 6 
#
# 1 88.3707 35.7560 26.5524 0.0000 14.9310 0.0000
# 2 35.7560 72.9562 38.9286 0.0000 -1.1960 0.0000
# 3 26.5524 38.9286 110.8814 0.0000 12.0614 0.0000
# 4 0.0000 0.0000 0.0000 32.9641 0.0000 -0.7086
# 5 14.9310 -1.1960 12.0614 0.0000 32.3893 0.0000
# 6 0.0000 0.0000 0.0000 -0.7086 0.0000 29.1061
#
#
#
# Elastic Compliance Matrix: (Units=1/GPa)
#
#
# Indices 1 2 3 4 5 6 
#
# 1 0.015776 -0.007717 -0.000257 0.000000 -0.007462 0.000000
# 2 -0.007717 0.020916 -0.006218 0.000000 0.006645 0.000000
# 3 -0.000257 -0.006218 0.011751 0.000000 -0.004487 0.000000
# 4 0.000000 0.000000 0.000000 0.030352 0.000000 0.000739
# 5 -0.007462 0.006645 -0.004487 0.000000 0.036231 0.000000
# 6 0.000000 0.000000 0.000000 0.000739 0.000000 0.034375
#
#
# Mechanical properties :
#
#
# Convention : Reuss Voigt Hill
#
# Bulk Modulus (GPa) = 49.85227 52.74248 51.29738
# Shear Modulus (GPa) = 27.10434 30.28999 28.69717
#
# Velocity S-wave (km/s) = 3.70123 3.91269 3.80843
# Velocity P-wave (km/s) = 6.59256 6.86071 6.72797
#
# Compressibility (1/GPa) = 0.02005927
#
# Stress axis : x y z
#
# Youngs Moduli (GPa) = 63.38559 47.81029 85.09688
#
# Poissons Ratio (x) = 0.36897 0.02185
# Poissons Ratio (y) = 0.48917 0.52914
# Poissons Ratio (z) = 0.01628 0.29729
#
# Static dielectric constant tensor:
#      x y z
#    x 3.871530 0.000000 0.269610 
#    y 0.000000 3.555820 0.000000 
#    z 0.269610 0.000000 3.586700 
# 
# 
# High freq. dielectric constant tensor:
#      x y z
#    x 1.767980 0.000000 0.020260 
#    y 0.000000 1.771480 0.000000 
#    z 0.020260 0.000000 1.766100 
# 
# From -- ./inp_files/329701.got.cif
#   From: 2010.06.25/outbox.cif.g09.slc.cpg/sg12_165_cif.got.tgz:329701.got - 2010.06.28 00:19:55.
