data_PCOD8095580
_publ_section_title
;
Structure prediction by ZEFSAII (Michael W. Deem and Ramdas Pophale) SiO2 
 PCOD8095580
Probable space group: C 2/M
;
_chemical_formula_sum "Si O2"
_cell_formula_units_Z 64
_cell_length_a 37.549016
_cell_length_b 9.424322
_cell_length_c 25.822109
_cell_angle_alpha 90.000000
_cell_angle_beta 156.242843
_cell_angle_gamma 90.000000
_cell_volume 3681.252745
_symmetry_space_group_name_H-M "C 2/M"
_symmetry_group_IT_number 12
_symmetry_cell_setting 'monoclinic'
loop_
_space_group_symop_operation_xyz
x,y,z
-x,y,-z
-x,-y,-z
x,-y,z
1/2+x,1/2+y,z
1/2-x,1/2+y,-z
1/2-x,1/2-y,-z
1/2+x,1/2-y,z
loop_
_atom_site_type_symbol
_atom_site_label
_atom_site_fract_x
_atom_site_fract_y
_atom_site_fract_z
Si Si1 0.900871 0.667033 0.050238
Si Si2 0.008813 0.335194 0.723495
Si Si3 0.619216 0.664352 0.583702
Si Si4 0.298839 0.668065 0.201270
Si Si5 0.629094 0.333588 0.192560
Si Si6 0.571631 0.335476 0.712466
Si Si7 0.535786 0.668310 0.965324
Si Si8 0.822007 0.334396 0.433366
O O1 0.902043 0.500000 0.039770
O O2 0.961941 0.706611 0.180213
O O3 0.801930 0.720663 0.931066
O O4 0.938989 0.750304 0.052688
O O5 0.025444 0.500000 0.734456
O O6 0.067516 0.250643 0.760267
O O7 0.905039 0.294992 0.580292
O O8 0.644568 0.500000 0.611056
O O9 0.647858 0.723849 0.677750
O O10 0.515228 0.689393 0.437967
O O11 0.674784 0.750320 0.615736
O O12 0.304602 0.500000 0.207956
O O13 0.346102 0.723646 0.211793
O O14 0.615773 0.500000 0.173096
O O15 0.601464 0.280270 0.098516
O O16 0.730462 0.290405 0.340098
O O17 0.563089 0.279542 0.149671
O O18 0.582439 0.500000 0.741437
O O19 0.541033 0.500000 0.961948
O O20 0.821720 0.500000 0.419167
#
# Coordination Sequence:
#
# PCOD8095580 Si02
#       8
#     8   8   8   8   8   8   8   8
#     4  10  20  33  46  63  91 123 151 179 217 262
#     4   9  19  33  46  62  89 122 151 182 218 256
#     4   9  16  27  45  69  93 113 140 183 228 264
#     4   9  17  29  46  66  89 118 147 179 224 271
#     4   8  15  29  50  72  92 114 141 177 221 267
#     4   9  17  30  48  67  86 113 151 188 220 259
#     4   9  17  31  50  71  92 113 142 181 222 262
#     4   9  16  29  48  66  87 119 152 177 213 264
#
# _framework density 17.385387000000001
#
# number of rings (size 3 to 8) (size 9 to 14) (size 15 to 20)
#    0.000    3.000    0.000    1.875    0.000    2.500 
#    0.000    3.750    0.000    3.000    0.000    0.000 
#    0.000    0.000    0.000    0.000    0.000    0.000 
#
# Total GULP energy -396673.938398 kJ/mol
# GULP energy per Si atom -12396.060575 kJ/mol
# Density = 1.734582 g / cm^3
# Si number density = 17.385387 Si / 1000 Ang^3
#
#
#
# Elastic Constant Matrix: (Units=GPa)
#
#
# Indices 1 2 3 4 5 6 
#
# 1 143.0042 46.6148 90.1261 0.0000 14.4631 0.0000
# 2 46.6148 35.4189 33.2378 0.0000 3.3343 0.0000
# 3 90.1261 33.2378 100.3517 0.0000 11.8254 0.0000
# 4 0.0000 0.0000 0.0000 14.9904 0.0000 1.2833
# 5 14.4631 3.3343 11.8254 0.0000 29.2043 0.0000
# 6 0.0000 0.0000 0.0000 1.2833 0.0000 30.9364
#
#
#
# Elastic Compliance Matrix: (Units=1/GPa)
#
#
# Indices 1 2 3 4 5 6 
#
# 1 0.020039 -0.013835 -0.013055 0.000000 -0.003059 0.000000
# 2 -0.013835 0.050539 -0.004664 0.000000 0.002970 0.000000
# 3 -0.013055 -0.004664 0.023532 0.000000 -0.002531 0.000000
# 4 0.000000 0.000000 0.000000 0.066947 0.000000 -0.002777
# 5 -0.003059 0.002970 -0.002531 0.000000 0.036442 0.000000
# 6 0.000000 0.000000 0.000000 -0.002777 0.000000 0.032440
#
#
# Mechanical properties :
#
#
# Convention : Reuss Voigt Hill
#
# Bulk Modulus (GPa) = 32.25433 68.74802 50.50117
# Shear Modulus (GPa) = 16.48091 22.27930 19.38010
#
# Velocity S-wave (km/s) = 3.08226 3.58368 3.34239
# Velocity P-wave (km/s) = 5.59106 7.53347 6.63374
#
# Compressibility (1/GPa) = 0.03100359
#
# Stress axis : x y z
#
# Youngs Moduli (GPa) = 49.90148 19.78671 42.49483
#
# Poissons Ratio (x) = 0.27375 0.55476
# Poissons Ratio (y) = 0.69040 0.19818
# Poissons Ratio (z) = 0.65145 0.09228
#
# Static dielectric constant tensor:
#      x y z
#    x 3.265060 0.000000 0.181030 
#    y 0.000000 2.975300 0.000000 
#    z 0.181030 0.000000 3.464600 
# 
# 
# High freq. dielectric constant tensor:
#      x y z
#    x 1.667070 0.000000 0.009610 
#    y 0.000000 1.641810 0.000000 
#    z 0.009610 0.000000 1.676930 
# 
# From -- ./inp_files/327869.got.cif
#   From: 2010.06.25/outbox.cif.g09.slc.cpg/sg12_164_cif.got.tgz:327869.got - 2010.06.28 00:19:55.
