data_PCOD8095316
_publ_section_title
;
Structure prediction by ZEFSAII (Michael W. Deem and Ramdas Pophale) SiO2 
 PCOD8095316
Probable space group: C 2/M
;
_chemical_formula_sum "Si O2"
_cell_formula_units_Z 60
_cell_length_a 24.533034
_cell_length_b 20.445454
_cell_length_c 13.391092
_cell_angle_alpha 90.000000
_cell_angle_beta 152.068305
_cell_angle_gamma 90.000000
_cell_volume 3146.285791
_symmetry_space_group_name_H-M "C 2/M"
_symmetry_group_IT_number 12
_symmetry_cell_setting 'monoclinic'
loop_
_space_group_symop_operation_xyz
x,y,z
-x,y,-z
-x,-y,-z
x,-y,z
1/2+x,1/2+y,z
1/2-x,1/2+y,-z
1/2-x,1/2-y,-z
1/2+x,1/2-y,z
loop_
_atom_site_type_symbol
_atom_site_label
_atom_site_fract_x
_atom_site_fract_y
_atom_site_fract_z
Si Si1 0.047090 0.376478 0.682575
Si Si2 0.127039 0.263476 0.580228
Si Si3 0.730245 0.317909 0.021599
Si Si4 0.500000 0.838106 0.000000
Si Si5 0.708038 0.573327 0.602312
Si Si6 0.518800 0.369515 0.425169
Si Si7 0.451354 0.073135 0.096469
Si Si8 0.743298 0.791735 0.392262
O O1 0.186395 0.370664 0.897738
O O2 0.020190 0.416885 0.739709
O O3 0.000000 0.406900 0.500000
O O4 0.992287 0.304632 0.611966
O O5 0.226346 0.305373 0.795447
O O6 0.098962 0.193257 0.584359
O O7 0.174100 0.248348 0.547164
O O8 0.750000 0.250000 0.000000
O O9 0.600460 0.345679 0.819011
O O10 0.473035 0.882084 0.857299
O O11 0.392483 0.792273 0.856780
O O12 0.712200 0.500000 0.561556
O O13 0.585411 0.580874 0.460613
O O14 0.716194 0.631582 0.533049
O O15 0.813918 0.583731 0.851931
O O16 0.500000 0.406415 0.500000
O O17 0.489492 0.000000 0.132202
O O18 0.750000 0.750000 0.500000
#
# Coordination Sequence:
#
# PCOD8095316 Si02
#       8
#     8   8   8   4   8   8   8   8
#     4  10  20  34  51  78 112 143 181 223 272 326
#     4  10  20  32  48  77 109 138 173 224 277 330
#     4  11  19  29  50  77 109 140 172 215 273 327
#     4  10  21  34  56  82 109 132 176 234 282 326
#     4   9  21  36  52  78 111 143 180 228 279 333
#     4  11  18  29  51  76 105 144 175 212 270 330
#     4  10  20  36  56  76 105 144 184 226 275 330
#     4  10  21  35  55  80 105 139 180 229 280 329
#
# _framework density 19.070104000000001
#
# number of rings (size 3 to 8) (size 9 to 14) (size 15 to 20)
#    0.000    1.867    2.667    2.200    3.733    3.200 
#    0.000    0.667    0.000    0.800    0.000    3.267 
#    0.000    0.000    0.000    0.000    0.000    0.000 
#
# Total GULP energy -371668.061688 kJ/mol
# GULP energy per Si atom -12388.935390 kJ/mol
# Density = 1.902670 g / cm^3
# Si number density = 19.070104 Si / 1000 Ang^3
#
#
#
# Elastic Constant Matrix: (Units=GPa)
#
#
# Indices 1 2 3 4 5 6 
#
# 1 96.2473 26.9863 24.2241 0.0000 -7.5563 0.0000
# 2 26.9863 75.0830 21.3188 0.0000 -9.1177 0.0000
# 3 24.2241 21.3188 56.5017 0.0000 2.7155 0.0000
# 4 0.0000 0.0000 0.0000 15.7219 0.0000 -0.3539
# 5 -7.5563 -9.1177 2.7155 0.0000 37.6946 0.0000
# 6 0.0000 0.0000 0.0000 -0.3539 0.0000 25.5765
#
#
#
# Elastic Compliance Matrix: (Units=1/GPa)
#
#
# Indices 1 2 3 4 5 6 
#
# 1 0.012484 -0.003008 -0.004318 0.000000 0.002086 0.000000
# 2 -0.003008 0.016277 -0.005030 0.000000 0.003696 0.000000
# 3 -0.004318 -0.005030 0.021622 0.000000 -0.003640 0.000000
# 4 0.000000 0.000000 0.000000 0.063625 0.000000 0.000880
# 5 0.002086 0.003696 -0.003640 0.000000 0.028103 0.000000
# 6 0.000000 0.000000 0.000000 0.000880 0.000000 0.039111
#
#
# Mechanical properties :
#
#
# Convention : Reuss Voigt Hill
#
# Bulk Modulus (GPa) = 38.95145 41.43229 40.19187
# Shear Modulus (GPa) = 23.31121 26.15212 24.73166
#
# Velocity S-wave (km/s) = 3.50007 3.70722 3.60513
# Velocity P-wave (km/s) = 6.06661 6.33230 6.20088
#
# Compressibility (1/GPa) = 0.02567299
#
# Stress axis : x y z
#
# Youngs Moduli (GPa) = 80.10481 61.43816 46.24857
#
# Poissons Ratio (x) = 0.18478 0.19968
# Poissons Ratio (y) = 0.24093 0.23261
# Poissons Ratio (z) = 0.34586 0.30901
#
# Static dielectric constant tensor:
#      x y z
#    x 3.363300 0.000000 -0.017130 
#    y 0.000000 3.542710 0.000000 
#    z -0.017130 0.000000 3.600560 
# 
# 
# High freq. dielectric constant tensor:
#      x y z
#    x 1.749190 0.000000 0.015100 
#    y 0.000000 1.719510 0.000000 
#    z 0.015100 0.000000 1.720720 
# 
# From -- ./inp_files/178039.got.cif
#   From: 2010.06.25/outbox.cif.g09.slc.cpg/sg12_90_cif.got.tgz:178039.got - 2010.06.28 00:19:55.
