data_PCOD8095913
_publ_section_title
;
Structure prediction by ZEFSAII (Michael W. Deem and Ramdas Pophale) SiO2 
 PCOD8095913
Probable space group: C 2/M
;
_chemical_formula_sum "Si O2"
_cell_formula_units_Z 48
_cell_length_a 24.508759
_cell_length_b 9.499443
_cell_length_c 11.104896
_cell_angle_alpha 90.000000
_cell_angle_beta 107.011103
_cell_angle_gamma 90.000000
_cell_volume 2472.319161
_symmetry_space_group_name_H-M "C 2/M"
_symmetry_group_IT_number 12
_symmetry_cell_setting 'monoclinic'
loop_
_space_group_symop_operation_xyz
x,y,z
-x,y,-z
-x,-y,-z
x,-y,z
1/2+x,1/2+y,z
1/2-x,1/2+y,-z
1/2-x,1/2-y,-z
1/2+x,1/2-y,z
loop_
_atom_site_type_symbol
_atom_site_label
_atom_site_fract_x
_atom_site_fract_y
_atom_site_fract_z
Si Si1 0.063607 0.834054 0.523171
Si Si2 0.934615 0.160198 0.955070
Si Si3 0.664626 0.662086 0.758481
Si Si4 0.628660 0.338003 0.332995
Si Si5 0.155916 0.335889 0.982517
Si Si6 0.781395 0.659420 0.731048
O O1 0.102984 0.798098 0.663592
O O2 0.094542 0.772373 0.424240
O O3 0.000000 0.768685 0.500000
O O4 0.057659 0.000000 0.501056
O O5 0.912558 0.182423 0.806405
O O6 0.924421 0.000000 0.991985
O O7 0.904757 0.264893 0.028754
O O8 0.000000 0.201533 0.000000
O O9 0.665746 0.500000 0.803370
O O10 0.680473 0.762820 0.879171
O O11 0.713071 0.683350 0.686437
O O12 0.644802 0.500000 0.366656
O O13 0.688311 0.257867 0.347980
O O14 0.147345 0.500000 0.951818
O O15 0.198315 0.305831 0.120138
O O16 0.797599 0.500000 0.707869
#
# Coordination Sequence:
#
# PCOD8095913 Si02
#       6
#     8   8   8   8   8   8
#     4   9  19  34  54  78 104 134 172 220 261 299
#     4   9  18  31  52  78 102 134 177 217 254 303
#     4  10  20  34  55  78 103 139 179 213 254 307
#     4   9  18  33  53  78 104 133 172 217 260 303
#     4  10  20  33  50  76 110 139 168 211 265 311
#     4   9  19  35  53  77 107 138 170 212 264 311
#
# _framework density 19.414968999999999
#
# number of rings (size 3 to 8) (size 9 to 14) (size 15 to 20)
#    0.000    2.667    0.000    1.000    2.333    2.333 
#    0.000    0.833    0.000    1.000    0.000    0.000 
#    0.000    0.000    0.000    0.000    0.000    0.000 
#
# Total GULP energy -297588.916403 kJ/mol
# GULP energy per Si atom -12399.538183 kJ/mol
# Density = 1.937078 g / cm^3
# Si number density = 19.414969 Si / 1000 Ang^3
#
#
#
# Elastic Constant Matrix: (Units=GPa)
#
#
# Indices 1 2 3 4 5 6 
#
# 1 126.8948 47.5263 34.6211 0.0000 -3.2991 0.0000
# 2 47.5263 69.4458 25.6703 0.0000 -9.4426 0.0000
# 3 34.6211 25.6703 37.0112 0.0000 -13.1225 0.0000
# 4 0.0000 0.0000 0.0000 16.3875 0.0000 -5.0571
# 5 -3.2991 -9.4426 -13.1225 0.0000 35.0474 0.0000
# 6 0.0000 0.0000 0.0000 -5.0571 0.0000 31.4540
#
#
#
# Elastic Compliance Matrix: (Units=1/GPa)
#
#
# Indices 1 2 3 4 5 6 
#
# 1 0.012337 -0.005642 -0.008941 0.000000 -0.003706 0.000000
# 2 -0.005642 0.021946 -0.009266 0.000000 0.001912 0.000000
# 3 -0.008941 -0.009266 0.046844 0.000000 0.014202 0.000000
# 4 0.000000 0.000000 0.000000 0.064208 0.000000 0.010323
# 5 -0.003706 0.001912 0.014202 0.000000 0.034017 0.000000
# 6 0.000000 0.000000 0.000000 0.010323 0.000000 0.033452
#
#
# Mechanical properties :
#
#
# Convention : Reuss Voigt Hill
#
# Bulk Modulus (GPa) = 29.91367 49.88746 39.90056
# Shear Modulus (GPa) = 18.40646 24.94672 21.67659
#
# Velocity S-wave (km/s) = 3.08239 3.58847 3.34501
# Velocity P-wave (km/s) = 5.30181 6.55138 5.95944
#
# Compressibility (1/GPa) = 0.03342954
#
# Stress axis : x y z
#
# Youngs Moduli (GPa) = 81.05962 45.56685 21.34726
#
# Poissons Ratio (x) = 0.25707 0.19087
# Poissons Ratio (y) = 0.45731 0.19780
# Poissons Ratio (z) = 0.72476 0.42222
#
# Static dielectric constant tensor:
#      x y z
#    x 3.736230 0.000000 -0.014370 
#    y 0.000000 3.341040 0.000000 
#    z -0.014370 0.000000 3.382880 
# 
# 
# High freq. dielectric constant tensor:
#      x y z
#    x 1.766690 0.000000 -0.000010 
#    y 0.000000 1.725930 0.000000 
#    z -0.000010 0.000000 1.747930 
# 
# From -- ./inp_files/172143.got.cif
#   From: 2010.06.25/outbox.cif.g09.slc.cpg/sg12_87_cif.got.tgz:172143.got - 2010.06.28 00:19:55.
