data_PCOD8095659
_publ_section_title
;
Structure prediction by ZEFSAII (Michael W. Deem and Ramdas Pophale) SiO2 
 PCOD8095659
Probable space group: C 2/M
;
_chemical_formula_sum "Si O2"
_cell_formula_units_Z 48
_cell_length_a 22.824227
_cell_length_b 8.914287
_cell_length_c 24.283279
_cell_angle_alpha 90.000000
_cell_angle_beta 34.613082
_cell_angle_gamma 90.000000
_cell_volume 2806.484006
_symmetry_space_group_name_H-M "C 2/M"
_symmetry_group_IT_number 12
_symmetry_cell_setting 'monoclinic'
loop_
_space_group_symop_operation_xyz
x,y,z
-x,y,-z
-x,-y,-z
x,-y,z
1/2+x,1/2+y,z
1/2-x,1/2+y,-z
1/2-x,1/2-y,-z
1/2+x,1/2-y,z
loop_
_atom_site_type_symbol
_atom_site_label
_atom_site_fract_x
_atom_site_fract_y
_atom_site_fract_z
Si Si1 0.645729 0.326026 0.643248
Si Si2 0.581230 0.676461 0.982782
Si Si3 0.245577 0.178469 0.774930
Si Si4 0.535425 0.322708 0.412819
Si Si5 0.114540 0.327201 0.556428
Si Si6 0.419016 0.678679 0.188530
O O1 0.618357 0.500000 0.655029
O O2 0.767871 0.302710 0.552091
O O3 0.596081 0.230385 0.632644
O O4 0.597855 0.260500 0.736824
O O5 0.587617 0.500000 0.982421
O O6 0.693033 0.731863 0.874225
O O7 0.500000 0.725128 0.000000
O O8 0.531898 0.737160 0.078656
O O9 0.354160 0.257303 0.687231
O O10 0.173730 0.232027 0.779668
O O11 0.260613 0.000000 0.762003
O O12 0.500000 0.264128 0.500000
O O13 0.542195 0.500000 0.406115
O O14 0.453384 0.269282 0.431952
O O15 0.081342 0.500000 0.578634
O O16 0.416736 0.500000 0.191192
#
# Coordination Sequence:
#
# PCOD8095659 Si02
#       6
#     8   8   8   8   8   8
#     4   9  17  30  49  71  95 122 152 189 230 271
#     4   7  11  21  41  70  97 119 148 187 226 265
#     4   9  16  28  48  72  97 124 154 188 225 270
#     4  11  23  35  47  66  94 125 154 187 229 274
#     4  10  20  33  49  69  93 122 156 191 227 270
#     4   8  13  24  46  74  98 121 152 187 226 273
#
# _framework density 17.103249999999999
#
# number of rings (size 3 to 8) (size 9 to 14) (size 15 to 20)
#    0.000    3.000    0.000    4.000    0.000    3.333 
#    0.000    0.833    0.000    6.500    0.000    0.000 
#    0.000    0.000    0.000    0.000    0.000    0.000 
#
# Total GULP energy -297326.219993 kJ/mol
# GULP energy per Si atom -12388.592500 kJ/mol
# Density = 1.706432 g / cm^3
# Si number density = 17.103250 Si / 1000 Ang^3
#
#
#
# Elastic Constant Matrix: (Units=GPa)
#
#
# Indices 1 2 3 4 5 6 
#
# 1 77.9194 15.6773 56.7882 -0.0001 17.7837 0.0000
# 2 15.6773 30.9077 30.4802 0.0000 1.9660 0.0003
# 3 56.7882 30.4802 135.1843 -0.0002 26.5977 0.0002
# 4 -0.0001 0.0000 -0.0002 14.3728 0.0001 -2.7692
# 5 17.7837 1.9660 26.5977 0.0001 31.5017 -0.0002
# 6 0.0000 0.0003 0.0002 -2.7692 -0.0002 66.5108
#
#
#
# Elastic Compliance Matrix: (Units=1/GPa)
#
#
# Indices 1 2 3 4 5 6 
#
# 1 0.019322 -0.003208 -0.006340 0.000000 -0.005355 0.000000
# 2 -0.003208 0.043237 -0.009865 0.000000 0.007442 0.000000
# 3 -0.006340 -0.009865 0.013743 0.000000 -0.007408 0.000000
# 4 0.000000 0.000000 0.000000 0.070138 0.000000 0.002920
# 5 -0.005355 0.007442 -0.007408 0.000000 0.040558 0.000000
# 6 0.000000 0.000000 0.000000 0.002920 0.000000 0.015157
#
#
# Mechanical properties :
#
#
# Convention : Reuss Voigt Hill
#
# Bulk Modulus (GPa) = 26.68435 49.98921 38.33678
# Shear Modulus (GPa) = 19.72599 31.88144 25.80371
#
# Velocity S-wave (km/s) = 3.39978 4.32216 3.88842
# Velocity P-wave (km/s) = 5.57200 7.36202 6.52865
#
# Compressibility (1/GPa) = 0.03747515
#
# Stress axis : x y z
#
# Youngs Moduli (GPa) = 51.75485 23.12830 72.76656
#
# Poissons Ratio (x) = 0.07419 0.46133
# Poissons Ratio (y) = 0.16602 0.71787
# Poissons Ratio (z) = 0.32812 0.22817
#
# Static dielectric constant tensor:
#      x y z
#    x 3.105530 0.000000 0.367920 
#    y 0.000000 2.902940 0.000000 
#    z 0.367920 0.000000 3.721460 
# 
# 
# High freq. dielectric constant tensor:
#      x y z
#    x 1.635520 0.000000 0.019430 
#    y 0.000000 1.629210 0.000000 
#    z 0.019430 0.000000 1.674910 
# 
# From -- ./inp_files/172304.got.cif
#   From: 2010.06.25/outbox.cif.g09.slc.cpg/sg12_87_cif.got.tgz:172304.got - 2010.06.28 00:19:55.
