data_PCOD8095636
_publ_section_title
;
Structure prediction by ZEFSAII (Michael W. Deem and Ramdas Pophale) SiO2 
 PCOD8095636
Probable space group: C 2/M
;
_chemical_formula_sum "Si O2"
_cell_formula_units_Z 64
_cell_length_a 28.059682
_cell_length_b 9.317457
_cell_length_c 14.414744
_cell_angle_alpha 90.000000
_cell_angle_beta 107.326126
_cell_angle_gamma 90.000000
_cell_volume 3597.658412
_symmetry_space_group_name_H-M "C 2/M"
_symmetry_group_IT_number 12
_symmetry_cell_setting 'monoclinic'
loop_
_space_group_symop_operation_xyz
x,y,z
-x,y,-z
-x,-y,-z
x,-y,z
1/2+x,1/2+y,z
1/2-x,1/2+y,-z
1/2-x,1/2-y,-z
1/2+x,1/2-y,z
loop_
_atom_site_type_symbol
_atom_site_label
_atom_site_fract_x
_atom_site_fract_y
_atom_site_fract_z
Si Si1 0.500755 0.664521 0.395132
Si Si2 0.690653 0.831314 0.870159
Si Si3 0.413826 0.162788 0.650794
Si Si4 0.610741 0.664396 0.707800
Si Si5 0.788988 0.336253 0.909631
Si Si6 0.755351 0.838463 0.595379
Si Si7 0.664068 0.835307 0.250579
Si Si8 0.856205 0.657821 0.436542
O O1 0.500000 0.730426 0.500000
O O2 0.517274 0.500000 0.413614
O O3 0.539726 0.740785 0.350173
O O4 0.448377 0.680309 0.310757
O O5 0.641558 0.761948 0.796712
O O6 0.741460 0.763501 0.858734
O O7 0.690843 0.000000 0.848365
O O8 0.687250 0.797104 0.977574
O O9 0.390285 0.205515 0.737884
O O10 0.368531 0.184354 0.551651
O O11 0.433314 0.000000 0.663679
O O12 0.628188 0.500000 0.727720
O O13 0.618745 0.716373 0.607356
O O14 0.769456 0.500000 0.898189
O O15 0.833141 0.315245 0.859261
O O16 0.750000 0.750000 0.500000
O O17 0.794202 0.768080 0.686257
O O18 0.702488 0.838150 0.616675
O O19 0.772452 0.000000 0.581401
O O20 0.676041 0.000000 0.285762
O O21 0.876778 0.500000 0.418637
#
# Coordination Sequence:
#
# PCOD8095636 Si02
#       8
#     8   8   8   8   8   8   8   8
#     4  10  21  37  53  74 103 136 179 223 263 314
#     4  10  20  35  56  84 112 137 174 220 262 313
#     4  10  20  34  52  74 102 135 172 216 261 307
#     4  11  22  35  54  77 104 139 175 218 269 315
#     4   9  19  36  59  82 109 143 174 212 264 315
#     4  11  21  32  46  69 103 140 175 209 249 299
#     4  10  20  36  53  75 105 138 177 214 258 315
#     4  10  20  33  48  72 104 136 173 214 256 306
#
# _framework density 17.789348
#
# number of rings (size 3 to 8) (size 9 to 14) (size 15 to 20)
#    0.000    1.875    2.500    1.875    0.000    5.750 
#    0.000    0.000    0.000    0.750    0.000    5.250 
#    0.000    0.000    0.000    0.000    0.000    0.000 
#
# Total GULP energy -396736.474348 kJ/mol
# GULP energy per Si atom -12398.014823 kJ/mol
# Density = 1.774886 g / cm^3
# Si number density = 17.789348 Si / 1000 Ang^3
#
#
#
# Elastic Constant Matrix: (Units=GPa)
#
#
# Indices 1 2 3 4 5 6 
#
# 1 111.9038 54.1245 43.3560 0.0000 -15.6662 0.0000
# 2 54.1245 93.8003 35.5510 0.0000 -4.1189 0.0000
# 3 43.3560 35.5510 71.1493 0.0000 -10.6427 0.0000
# 4 0.0000 0.0000 0.0000 25.3902 0.0000 2.0986
# 5 -15.6662 -4.1189 -10.6427 0.0000 28.3228 0.0000
# 6 0.0000 0.0000 0.0000 2.0986 0.0000 30.6042
#
#
#
# Elastic Compliance Matrix: (Units=1/GPa)
#
#
# Indices 1 2 3 4 5 6 
#
# 1 0.014682 -0.006352 -0.004976 0.000000 0.005328 0.000000
# 2 -0.006352 0.015909 -0.004512 0.000000 -0.002895 0.000000
# 3 -0.004976 -0.004512 0.019953 0.000000 0.004089 0.000000
# 4 0.000000 0.000000 0.000000 0.039610 0.000000 -0.002716
# 5 0.005328 -0.002895 0.004089 0.000000 0.039370 0.000000
# 6 0.000000 0.000000 0.000000 -0.002716 0.000000 0.032861
#
#
# Mechanical properties :
#
#
# Convention : Reuss Voigt Hill
#
# Bulk Modulus (GPa) = 53.00797 60.32405 56.66601
# Shear Modulus (GPa) = 24.95595 26.45159 25.70377
#
# Velocity S-wave (km/s) = 3.74954 3.86026 3.80530
# Velocity P-wave (km/s) = 6.97192 7.33844 7.15752
#
# Compressibility (1/GPa) = 0.01886509
#
# Stress axis : x y z
#
# Youngs Moduli (GPa) = 68.10904 62.85763 50.11744
#
# Poissons Ratio (x) = 0.39928 0.24939
# Poissons Ratio (y) = 0.43263 0.22611
# Poissons Ratio (z) = 0.33892 0.28358
#
# Static dielectric constant tensor:
#      x y z
#    x 3.247120 0.000000 -0.084440 
#    y 0.000000 3.435380 0.000000 
#    z -0.084440 0.000000 3.308880 
# 
# 
# High freq. dielectric constant tensor:
#      x y z
#    x 1.676970 0.000000 -0.009970 
#    y 0.000000 1.697100 0.000000 
#    z -0.009970 0.000000 1.670150 
# 
# From -- ./inp_files/244132.got.cif
#   From: 2010.06.25/outbox.cif.g09.slc.cpg/sg12_123_cif.got.tgz:244132.got - 2010.06.28 00:19:55.
