data_PCOD8095243
_publ_section_title
;
Structure prediction by ZEFSAII (Michael W. Deem and Ramdas Pophale) SiO2 
 PCOD8095243
Probable space group: C 2/M
;
_chemical_formula_sum "Si O2"
_cell_formula_units_Z 56
_cell_length_a 20.494451
_cell_length_b 9.316927
_cell_length_c 21.215486
_cell_angle_alpha 90.000000
_cell_angle_beta 48.013433
_cell_angle_gamma 90.000000
_cell_volume 3011.113200
_symmetry_space_group_name_H-M "C 2/M"
_symmetry_group_IT_number 12
_symmetry_cell_setting 'monoclinic'
loop_
_space_group_symop_operation_xyz
x,y,z
-x,y,-z
-x,-y,-z
x,-y,z
1/2+x,1/2+y,z
1/2-x,1/2+y,-z
1/2-x,1/2-y,-z
1/2+x,1/2-y,z
loop_
_atom_site_type_symbol
_atom_site_label
_atom_site_fract_x
_atom_site_fract_y
_atom_site_fract_z
Si Si1 0.665065 0.328191 0.729987
Si Si2 0.522855 0.170501 0.583445
Si Si3 0.306351 0.664654 0.044573
Si Si4 0.863766 0.670226 0.605459
Si Si5 0.446907 0.170234 0.295489
Si Si6 0.377698 0.167534 0.888788
Si Si7 0.916049 0.833466 0.089585
O O1 0.660769 0.500000 0.725672
O O2 0.764591 0.274529 0.677845
O O3 0.632039 0.253260 0.687621
O O4 0.606016 0.270700 0.826994
O O5 0.426891 0.225584 0.621509
O O6 0.597217 0.224423 0.486654
O O7 0.546312 0.229198 0.637534
O O8 0.520284 0.000000 0.588250
O O9 0.319099 0.500000 0.017106
O O10 0.206345 0.714108 0.098805
O O11 0.329973 0.690372 0.102192
O O12 0.374447 0.752616 0.957646
O O13 0.864958 0.500000 0.604927
O O14 0.536796 0.215594 0.203762
O O15 0.430129 0.000000 0.303245
O O16 0.377741 0.000000 0.902752
O O17 0.937296 0.000000 0.085225
O O18 0.000000 0.760899 0.000000
#
# Coordination Sequence:
#
# PCOD8095243 Si02
#       7
#     8   8   8   8   8   8   8
#     4  10  20  32  50  74  99 126 164 206 241 282
#     4   8  15  29  50  74 100 126 156 200 248 287
#     4   9  17  30  48  67  90 123 161 203 242 278
#     4   8  15  29  50  76  98 121 161 207 242 280
#     4  10  20  32  48  71 101 133 159 192 243 296
#     4   9  18  30  45  68  95 123 159 197 238 288
#     4   9  17  28  44  67  93 122 156 196 240 276
#
# _framework density 18.597773
#
# number of rings (size 3 to 8) (size 9 to 14) (size 15 to 20)
#    0.000    3.000    0.000    1.714    2.000    2.286 
#    0.000    0.714    0.000    3.429    0.000    2.000 
#    0.000    0.000    0.000    0.000    0.000    0.000 
#
# Total GULP energy -347047.306145 kJ/mol
# GULP energy per Si atom -12394.546648 kJ/mol
# Density = 1.855544 g / cm^3
# Si number density = 18.597773 Si / 1000 Ang^3
#
#
#
# Elastic Constant Matrix: (Units=GPa)
#
#
# Indices 1 2 3 4 5 6 
#
# 1 126.5951 19.7659 72.9979 0.0000 7.9678 -0.0001
# 2 19.7659 15.1834 17.3768 0.0000 1.0464 -0.0002
# 3 72.9979 17.3768 111.3582 0.0000 3.1920 0.0000
# 4 0.0000 0.0000 0.0000 10.9836 0.0000 3.3247
# 5 7.9678 1.0464 3.1920 0.0000 34.4035 0.0000
# 6 -0.0001 -0.0002 0.0000 3.3247 0.0000 23.7396
#
#
#
# Elastic Compliance Matrix: (Units=1/GPa)
#
#
# Indices 1 2 3 4 5 6 
#
# 1 0.013844 -0.009198 -0.007576 0.000000 -0.002223 0.000000
# 2 -0.009198 0.086349 -0.007450 0.000000 0.000195 0.000001
# 3 -0.007576 -0.007450 0.015092 0.000000 0.000581 0.000000
# 4 0.000000 0.000000 0.000000 0.095075 0.000000 -0.013315
# 5 -0.002223 0.000195 0.000581 0.000000 0.029522 0.000000
# 6 0.000000 0.000001 0.000000 -0.013315 0.000000 0.043988
#
#
# Mechanical properties :
#
#
# Convention : Reuss Voigt Hill
#
# Bulk Modulus (GPa) = 14.96197 52.60200 33.78199
# Shear Modulus (GPa) = 14.10049 23.35842 18.72945
#
# Velocity S-wave (km/s) = 2.75650 3.54782 3.17690
# Velocity P-wave (km/s) = 4.26539 6.71775 5.62680
#
# Compressibility (1/GPa) = 0.06683611
#
# Stress axis : x y z
#
# Youngs Moduli (GPa) = 72.23490 11.58091 66.26023
#
# Poissons Ratio (x) = 0.10653 0.50197
# Poissons Ratio (y) = 0.66445 0.49364
# Poissons Ratio (z) = 0.54723 0.08628
#
# Static dielectric constant tensor:
#      x y z
#    x 3.670780 0.000000 -0.010060 
#    y 0.000000 2.876650 0.000000 
#    z -0.010060 0.000000 3.628200 
# 
# 
# High freq. dielectric constant tensor:
#      x y z
#    x 1.735650 0.000000 0.000020 
#    y 0.000000 1.660580 0.000000 
#    z 0.000020 0.000000 1.723420 
# 
# From -- ./inp_files/250507.got.cif
#   From: 2010.06.25/outbox.cif.g09.slc.cpg/sg12_126_cif.got.tgz:250507.got - 2010.06.28 00:19:55.
