data_PCOD8095852
_publ_section_title
;
Structure prediction by ZEFSAII (Michael W. Deem and Ramdas Pophale) SiO2 
 PCOD8095852
Probable space group: C 2/M
;
_chemical_formula_sum "Si O2"
_cell_formula_units_Z 56
_cell_length_a 14.985342
_cell_length_b 9.453846
_cell_length_c 25.783106
_cell_angle_alpha 90.000000
_cell_angle_beta 56.546964
_cell_angle_gamma 90.000000
_cell_volume 3047.561058
_symmetry_space_group_name_H-M "C 2/M"
_symmetry_group_IT_number 12
_symmetry_cell_setting 'monoclinic'
loop_
_space_group_symop_operation_xyz
x,y,z
-x,y,-z
-x,-y,-z
x,-y,z
1/2+x,1/2+y,z
1/2-x,1/2+y,-z
1/2-x,1/2-y,-z
1/2+x,1/2-y,z
loop_
_atom_site_type_symbol
_atom_site_label
_atom_site_fract_x
_atom_site_fract_y
_atom_site_fract_z
Si Si1 0.420281 0.838633 0.695632
Si Si2 0.605281 0.159030 0.562267
Si Si3 0.229816 0.336121 0.427593
Si Si4 0.225479 0.832726 0.698556
Si Si5 0.675758 0.665202 0.087862
Si Si6 0.611866 0.334608 0.992327
Si Si7 0.012734 0.166691 0.228051
O O1 0.483654 0.826448 0.620542
O O2 0.301168 0.782478 0.721240
O O3 0.467218 0.738274 0.723749
O O4 0.421924 0.000000 0.715614
O O5 0.673796 0.270134 0.571592
O O6 0.619137 0.188190 0.495595
O O7 0.647303 0.000000 0.560453
O O8 0.257191 0.500000 0.413282
O O9 0.231006 0.267427 0.369826
O O10 0.105711 0.785286 0.751159
O O11 0.235006 0.000000 0.691887
O O12 0.703284 0.500000 0.083256
O O13 0.613681 0.696302 0.053595
O O14 0.595737 0.717934 0.158099
O O15 0.786236 0.749171 0.062174
O O16 0.629715 0.500000 0.974999
O O17 0.500000 0.286049 0.000000
O O18 0.019800 0.000000 0.233812
#
# Coordination Sequence:
#
# PCOD8095852 Si02
#       7
#     8   8   8   8   8   8   8
#     4  10  20  33  50  74 100 129 170 218 260 297
#     4   9  17  28  46  72  97 121 160 215 262 301
#     4   9  16  29  49  69  92 127 165 203 258 317
#     4   9  18  32  51  72  96 132 171 207 254 309
#     4   9  19  34  53  78 107 138 169 204 245 290
#     4   9  18  34  57  84 109 134 166 204 245 290
#     4  10  20  36  53  71 102 140 173 203 243 300
#
# _framework density 18.375347999999999
#
# number of rings (size 3 to 8) (size 9 to 14) (size 15 to 20)
#    0.000    2.714    1.429    0.000    0.000    2.571 
#    0.000    7.143    0.000    0.000    0.000    5.000 
#    0.000    0.000    0.000    0.000    0.000    0.000 
#
# Total GULP energy -346909.916887 kJ/mol
# GULP energy per Si atom -12389.639889 kJ/mol
# Density = 1.833353 g / cm^3
# Si number density = 18.375348 Si / 1000 Ang^3
#
#
#
# Elastic Constant Matrix: (Units=GPa)
#
#
# Indices 1 2 3 4 5 6 
#
# 1 111.8029 29.1588 33.3636 0.0000 -25.0293 0.0000
# 2 29.1588 27.3962 29.4580 0.0000 -7.3478 0.0001
# 3 33.3636 29.4580 101.1143 0.0000 -24.7061 0.0000
# 4 0.0000 0.0000 0.0000 22.9223 0.0000 0.1136
# 5 -25.0293 -7.3478 -24.7061 0.0000 16.1688 0.0000
# 6 0.0000 0.0001 0.0000 0.1136 0.0000 18.8862
#
#
#
# Elastic Compliance Matrix: (Units=1/GPa)
#
#
# Indices 1 2 3 4 5 6 
#
# 1 0.018829 -0.019207 0.006977 0.000000 0.031080 0.000000
# 2 -0.019207 0.072750 -0.022411 0.000000 -0.030916 0.000000
# 3 0.006977 -0.022411 0.022767 0.000000 0.035404 0.000000
# 4 0.000000 0.000000 0.000000 0.043627 0.000000 -0.000262
# 5 0.031080 -0.030916 0.035404 0.000000 0.150007 0.000000
# 6 0.000000 0.000000 0.000000 -0.000262 0.000000 0.052950
#
#
# Mechanical properties :
#
#
# Convention : Reuss Voigt Hill
#
# Bulk Modulus (GPa) = 22.19040 47.14159 34.66599
# Shear Modulus (GPa) = 11.23004 21.48435 16.35719
#
# Velocity S-wave (km/s) = 2.47482 3.42306 2.98681
# Velocity P-wave (km/s) = 4.50208 6.42912 5.54988
#
# Compressibility (1/GPa) = 0.04506453
#
# Stress axis : x y z
#
# Youngs Moduli (GPa) = 53.10823 13.74575 43.92243
#
# Poissons Ratio (x) = 0.26401 -0.30643
# Poissons Ratio (y) = 1.02004 0.98434
# Poissons Ratio (z) = -0.37052 0.30805
#
# Static dielectric constant tensor:
#      x y z
#    x 3.521040 0.000000 -0.142400 
#    y 0.000000 3.195560 0.000000 
#    z -0.142400 0.000000 3.631590 
# 
# 
# High freq. dielectric constant tensor:
#      x y z
#    x 1.704490 0.000000 -0.005540 
#    y 0.000000 1.688960 0.000000 
#    z -0.005540 0.000000 1.719300 
# 
# From -- ./inp_files/335338.got.cif
#   From: 2010.06.25/outbox.cif.g09.slc.cpg/sg12_168_cif.got.tgz:335338.got - 2010.06.28 00:19:55.
