data_PCOD8095318
_publ_section_title
;
Structure prediction by ZEFSAII (Michael W. Deem and Ramdas Pophale) SiO2 
 PCOD8095318
Probable space group: C 2/M
;
_chemical_formula_sum "Si O2"
_cell_formula_units_Z 56
_cell_length_a 31.404138
_cell_length_b 15.184392
_cell_length_c 9.371993
_cell_angle_alpha 90.000000
_cell_angle_beta 127.957673
_cell_angle_gamma 90.000000
_cell_volume 3523.699423
_symmetry_space_group_name_H-M "C 2/M"
_symmetry_group_IT_number 12
_symmetry_cell_setting 'monoclinic'
loop_
_space_group_symop_operation_xyz
x,y,z
-x,y,-z
-x,-y,-z
x,-y,z
1/2+x,1/2+y,z
1/2-x,1/2+y,-z
1/2-x,1/2-y,-z
1/2+x,1/2-y,z
loop_
_atom_site_type_symbol
_atom_site_label
_atom_site_fract_x
_atom_site_fract_y
_atom_site_fract_z
Si Si1 0.722352 0.819959 0.693110
Si Si2 0.354827 0.778105 0.708748
Si Si3 0.724708 0.856542 0.234922
Si Si4 0.302741 0.597825 0.639036
Si Si5 0.945628 0.401069 0.974022
Si Si6 0.666709 0.096536 0.843168
Si Si7 0.448929 0.896072 0.308336
O O1 0.669020 0.794058 0.496328
O O2 0.755862 0.733222 0.797700
O O3 0.760068 0.885603 0.678830
O O4 0.703883 0.855930 0.805754
O O5 0.323078 0.836495 0.755793
O O6 0.349551 0.673324 0.735848
O O7 0.414027 0.820303 0.833795
O O8 0.772461 0.902143 0.423453
O O9 0.700706 0.915386 0.059322
O O10 0.328133 0.500000 0.712635
O O11 0.918138 0.500000 0.912065
O O12 0.956621 0.372269 0.158973
O O13 0.000000 0.407956 0.000000
O O14 0.608455 0.143502 0.752309
O O15 0.655152 0.000000 0.757885
O O16 0.500000 0.855546 0.500000
O O17 0.447277 0.000000 0.326954
#
# Coordination Sequence:
#
# PCOD8095318 Si02
#       7
#     8   8   8   8   8   8   8
#     4   9  19  29  43  67  94 121 152 190 226 270
#     4   9  18  32  47  67  92 122 156 189 232 273
#     4   9  17  31  45  63  92 124 155 187 224 272
#     4   9  17  31  49  67  92 122 155 194 230 271
#     4  10  20  32  49  68  90 121 154 189 224 270
#     4  11  19  27  44  65  91 125 153 186 225 268
#     4   9  19  32  42  61  91 119 150 184 222 267
#
# _framework density 15.892388
#
# number of rings (size 3 to 8) (size 9 to 14) (size 15 to 20)
#    0.000    2.571    1.429    3.000    2.000    2.857 
#    0.000    0.000    0.000    0.429    0.000    0.000 
#    0.000    0.571    0.000    0.286    0.000    0.000 
#
# Total GULP energy -346897.720261 kJ/mol
# GULP energy per Si atom -12389.204295 kJ/mol
# Density = 1.585622 g / cm^3
# Si number density = 15.892388 Si / 1000 Ang^3
#
#
#
# Elastic Constant Matrix: (Units=GPa)
#
#
# Indices 1 2 3 4 5 6 
#
# 1 64.2176 18.1779 21.5911 0.0000 -3.9861 0.0000
# 2 18.1779 79.7090 13.1059 0.0000 6.1139 0.0000
# 3 21.5911 13.1059 56.8071 0.0000 2.5385 0.0000
# 4 0.0000 0.0000 0.0000 20.5696 0.0000 0.8202
# 5 -3.9861 6.1139 2.5385 0.0000 23.9891 0.0000
# 6 0.0000 0.0000 0.0000 0.8202 0.0000 13.3517
#
#
#
# Elastic Compliance Matrix: (Units=1/GPa)
#
#
# Indices 1 2 3 4 5 6 
#
# 1 0.019136 -0.003640 -0.006649 0.000000 0.004811 0.000000
# 2 -0.003640 0.013954 -0.001658 0.000000 -0.003986 0.000000
# 3 -0.006649 -0.001658 0.020641 0.000000 -0.002866 0.000000
# 4 0.000000 0.000000 0.000000 0.048735 0.000000 -0.002994
# 5 0.004811 -0.003986 -0.002866 0.000000 0.043804 0.000000
# 6 0.000000 0.000000 0.000000 -0.002994 0.000000 0.075081
#
#
# Mechanical properties :
#
#
# Convention : Reuss Voigt Hill
#
# Bulk Modulus (GPa) = 33.51331 34.05371 33.78351
# Shear Modulus (GPa) = 19.59325 21.43933 20.51629
#
# Velocity S-wave (km/s) = 3.51503 3.67690 3.59688
# Velocity P-wave (km/s) = 6.13249 6.28493 6.20918
#
# Compressibility (1/GPa) = 0.02983889
#
# Stress axis : x y z
#
# Youngs Moduli (GPa) = 52.25644 71.66396 48.44748
#
# Poissons Ratio (x) = 0.26085 0.32210
# Poissons Ratio (y) = 0.19021 0.08031
# Poissons Ratio (z) = 0.34743 0.11880
#
# Static dielectric constant tensor:
#      x y z
#    x 2.915590 0.000000 0.004800 
#    y 0.000000 2.892070 0.000000 
#    z 0.004800 0.000000 3.047270 
# 
# 
# High freq. dielectric constant tensor:
#      x y z
#    x 1.597960 0.000000 -0.014990 
#    y 0.000000 1.587070 0.000000 
#    z -0.014990 0.000000 1.605630 
# 
# From -- ./inp_files/87299.got.cif
#   From: 2010.06.25/outbox.cif.g09.slc.cpg/sg12_44_cif.got.tgz:87299.got - 2010.06.28 00:19:55.
