data_PCOD8095409
_publ_section_title
;
Structure prediction by ZEFSAII (Michael W. Deem and Ramdas Pophale) SiO2 
 PCOD8095409
Probable space group: C 2/M
;
_chemical_formula_sum "Si O2"
_cell_formula_units_Z 44
_cell_length_a 14.473540
_cell_length_b 22.252878
_cell_length_c 10.556695
_cell_angle_alpha 90.000000
_cell_angle_beta 137.680685
_cell_angle_gamma 90.000000
_cell_volume 2289.142924
_symmetry_space_group_name_H-M "C 2/M"
_symmetry_group_IT_number 12
_symmetry_cell_setting 'monoclinic'
loop_
_space_group_symop_operation_xyz
x,y,z
-x,y,-z
-x,-y,-z
x,-y,z
1/2+x,1/2+y,z
1/2-x,1/2+y,-z
1/2-x,1/2-y,-z
1/2+x,1/2-y,z
loop_
_atom_site_type_symbol
_atom_site_label
_atom_site_fract_x
_atom_site_fract_y
_atom_site_fract_z
Si Si1 0.822310 0.310930 0.111364
Si Si2 0.153824 0.148037 0.151285
Si Si3 0.112280 0.431144 0.507910
Si Si4 0.521951 0.879232 0.157469
Si Si5 0.772525 0.727873 0.662434
Si Si6 0.500000 0.244477 0.500000
O O1 0.711944 0.355033 0.066672
O O2 0.950319 0.298985 0.335964
O O3 0.882148 0.342982 0.048018
O O4 0.750000 0.250000 0.000000
O O5 0.251806 0.109398 0.341945
O O6 0.152017 0.218179 0.187319
O O7 0.000000 0.121743 0.000000
O O8 0.155276 0.500000 0.570907
O O9 0.054588 0.423651 0.306581
O O10 0.000000 0.412741 0.500000
O O11 0.642778 0.832646 0.251849
O O12 0.500000 0.913739 0.000000
O O13 0.750000 0.750000 0.500000
O O14 0.625292 0.714275 0.579183
#
# Coordination Sequence:
#
# PCOD8095409 Si02
#       6
#     8   8   8   8   8   4
#     4  11  20  33  53  83 125 160 191 233 295 363
#     4  11  22  37  60  91 120 157 203 251 304 366
#     4  11  24  45  67  84 112 163 220 263 297 348
#     4  12  22  37  59  93 123 158 201 249 309 370
#     4  11  19  33  57  86 129 164 191 236 308 380
#     4  10  20  32  50  76 122 170 202 226 272 360
#
# _framework density 19.221167000000001
#
# number of rings (size 3 to 8) (size 9 to 14) (size 15 to 20)
#    0.000    0.909    5.455    4.909    1.273    0.727 
#    0.000    0.000    0.000    0.000    0.000    1.909 
#    0.000    0.000    0.000    0.000    0.000    0.000 
#
# Total GULP energy -272750.867790 kJ/mol
# GULP energy per Si atom -12397.766718 kJ/mol
# Density = 1.917742 g / cm^3
# Si number density = 19.221167 Si / 1000 Ang^3
#
#
#
# Elastic Constant Matrix: (Units=GPa)
#
#
# Indices 1 2 3 4 5 6 
#
# 1 138.9660 13.0000 50.6472 0.0000 3.8874 0.0000
# 2 13.0000 51.1306 17.6299 0.0000 5.8726 0.0000
# 3 50.6472 17.6299 98.8549 0.0000 -0.5520 0.0000
# 4 0.0000 0.0000 0.0000 15.4644 0.0000 -3.2026
# 5 3.8874 5.8726 -0.5520 0.0000 47.0609 0.0000
# 6 0.0000 0.0000 0.0000 -3.2026 0.0000 19.4295
#
#
#
# Elastic Compliance Matrix: (Units=1/GPa)
#
#
# Indices 1 2 3 4 5 6 
#
# 1 0.008897 -0.000648 -0.004447 0.000000 -0.000706 0.000000
# 2 -0.000648 0.021221 -0.003467 0.000000 -0.002635 0.000000
# 3 -0.004447 -0.003467 0.013018 0.000000 0.000953 0.000000
# 4 0.000000 0.000000 0.000000 0.066950 0.000000 0.011035
# 5 -0.000706 -0.002635 0.000953 0.000000 0.021647 0.000000
# 6 0.000000 0.000000 0.000000 0.011035 0.000000 0.053287
#
#
# Mechanical properties :
#
#
# Convention : Reuss Voigt Hill
#
# Bulk Modulus (GPa) = 38.44412 50.16733 44.30572
# Shear Modulus (GPa) = 23.71757 30.23592 26.97674
#
# Velocity S-wave (km/s) = 3.51654 3.97048 3.75038
# Velocity P-wave (km/s) = 6.04421 6.86850 6.46950
#
# Compressibility (1/GPa) = 0.02601178
#
# Stress axis : x y z
#
# Youngs Moduli (GPa) = 112.39761 47.12385 76.81814
#
# Poissons Ratio (x) = 0.03052 0.34159
# Poissons Ratio (y) = 0.07280 0.26636
# Poissons Ratio (z) = 0.49980 0.16340
#
# Static dielectric constant tensor:
#      x y z
#    x 4.268710 0.000000 0.036310 
#    y 0.000000 2.865840 0.000000 
#    z 0.036310 0.000000 4.076060 
# 
# 
# High freq. dielectric constant tensor:
#      x y z
#    x 1.770350 0.000000 -0.006590 
#    y 0.000000 1.698140 0.000000 
#    z -0.006590 0.000000 1.749000 
# 
# From -- ./inp_files/148721.got.cif
#   From: 2010.06.25/outbox.cif.g09.slc.cpg/sg12_75_cif.got.tgz:148721.got - 2010.06.28 00:19:55.
