data_PCOD8095189
_publ_section_title
;
Structure prediction by ZEFSAII (Michael W. Deem and Ramdas Pophale) SiO2 
 PCOD8095189
Probable space group: C 2/M
;
_chemical_formula_sum "Si O2"
_cell_formula_units_Z 56
_cell_length_a 19.175619
_cell_length_b 9.787074
_cell_length_c 18.564104
_cell_angle_alpha 90.000000
_cell_angle_beta 115.688782
_cell_angle_gamma 90.000000
_cell_volume 3139.634437
_symmetry_space_group_name_H-M "C 2/M"
_symmetry_group_IT_number 12
_symmetry_cell_setting 'monoclinic'
loop_
_space_group_symop_operation_xyz
x,y,z
-x,y,-z
-x,-y,-z
x,-y,z
1/2+x,1/2+y,z
1/2-x,1/2+y,-z
1/2-x,1/2-y,-z
1/2+x,1/2-y,z
loop_
_atom_site_type_symbol
_atom_site_label
_atom_site_fract_x
_atom_site_fract_y
_atom_site_fract_z
Si Si1 0.173160 0.658560 0.709891
Si Si2 0.151131 0.158122 0.229158
Si Si3 0.587478 0.849663 0.812917
Si Si4 0.077949 0.659867 0.076434
Si Si5 0.962741 0.840294 0.408322
Si Si6 0.315936 0.150869 0.005741
Si Si7 0.036653 0.154182 0.295483
O O1 0.162905 0.500000 0.682626
O O2 0.260396 0.709367 0.733914
O O3 0.156587 0.681494 0.787322
O O4 0.114305 0.751209 0.637621
O O5 0.094534 0.248591 0.153918
O O6 0.122374 0.173654 0.299846
O O7 0.145998 0.000000 0.201552
O O8 0.614927 0.841558 0.906622
O O9 0.519626 0.743014 0.777812
O O10 0.553848 0.000000 0.780873
O O11 0.072112 0.500000 0.095845
O O12 0.150486 0.688247 0.056813
O O13 0.000000 0.705422 0.000000
O O14 0.000000 0.795167 0.500000
O O15 0.027710 0.807258 0.375965
O O16 0.939605 0.000000 0.398320
O O17 0.279502 0.000000 0.988166
O O18 0.250000 0.250000 0.000000
O O19 0.008435 0.000000 0.272394
#
# Coordination Sequence:
#
# PCOD8095189 Si02
#       7
#     8   8   8   8   8   8   8
#     4   9  18  32  51  74  99 128 161 199 242 287
#     4  10  20  34  51  72  99 130 165 205 247 291
#     4   9  17  31  49  67  90 123 162 200 239 284
#     4  10  21  35  50  70  98 133 171 210 251 292
#     4   9  18  34  55  77 101 128 158 194 238 291
#     4  10  20  32  47  68  94 125 162 206 250 288
#     4   9  18  32  51  73  95 123 159 196 236 285
#
# _framework density 17.836471
#
# number of rings (size 3 to 8) (size 9 to 14) (size 15 to 20)
#    0.000    2.571    0.000    1.714    0.000    5.143 
#    0.000    3.571    0.000    0.000    0.000    0.000 
#    0.000    0.000    0.000    0.000    0.000    0.000 
#
# Total GULP energy -347070.276117 kJ/mol
# GULP energy per Si atom -12395.367004 kJ/mol
# Density = 1.779587 g / cm^3
# Si number density = 17.836471 Si / 1000 Ang^3
#
#
#
# Elastic Constant Matrix: (Units=GPa)
#
#
# Indices 1 2 3 4 5 6 
#
# 1 100.6171 38.2346 39.7894 0.0000 -7.0730 0.0000
# 2 38.2346 60.5971 36.7159 0.0000 -0.8215 0.0000
# 3 39.7894 36.7159 86.6477 0.0000 -6.3496 0.0000
# 4 0.0000 0.0000 0.0000 27.2464 0.0000 4.7679
# 5 -7.0730 -0.8215 -6.3496 0.0000 21.0358 0.0000
# 6 0.0000 0.0000 0.0000 4.7679 0.0000 27.5407
#
#
#
# Elastic Compliance Matrix: (Units=1/GPa)
#
#
# Indices 1 2 3 4 5 6 
#
# 1 0.014092 -0.006832 -0.003322 0.000000 0.003469 0.000000
# 2 -0.006832 0.025599 -0.007982 0.000000 -0.003707 0.000000
# 3 -0.003322 -0.007982 0.016714 0.000000 0.003616 0.000000
# 4 0.000000 0.000000 0.000000 0.037849 0.000000 -0.006553
# 5 0.003469 -0.003707 0.003616 0.000000 0.049651 0.000000
# 6 0.000000 0.000000 0.000000 -0.006553 0.000000 0.037444
#
#
# Mechanical properties :
#
#
# Convention : Reuss Voigt Hill
#
# Bulk Modulus (GPa) = 49.66815 53.03795 51.35305
# Shear Modulus (GPa) = 22.28842 24.03938 23.16390
#
# Velocity S-wave (km/s) = 3.53880 3.67518 3.60763
# Velocity P-wave (km/s) = 6.67865 6.91444 6.79757
#
# Compressibility (1/GPa) = 0.02013363
#
# Stress axis : x y z
#
# Youngs Moduli (GPa) = 70.96022 39.06416 59.83108
#
# Poissons Ratio (x) = 0.26688 0.19877
# Poissons Ratio (y) = 0.48479 0.47755
# Poissons Ratio (z) = 0.23575 0.31180
#
# Static dielectric constant tensor:
#      x y z
#    x 3.391540 0.000000 -0.252020 
#    y 0.000000 3.288540 0.000000 
#    z -0.252020 0.000000 3.066320 
# 
# 
# High freq. dielectric constant tensor:
#      x y z
#    x 1.696280 0.000000 -0.020500 
#    y 0.000000 1.692750 0.000000 
#    z -0.020500 0.000000 1.667390 
# 
# From -- ./inp_files/275499.got.cif
#   From: 2010.06.25/outbox.cif.g09.slc.cpg/sg12_138_cif.got.tgz:275499.got - 2010.06.28 00:19:55.
