data_PCOD8095937
_publ_section_title
;
Structure prediction by ZEFSAII (Michael W. Deem and Ramdas Pophale) SiO2 
 PCOD8095937
Probable space group: C 2/M
;
_chemical_formula_sum "Si O2"
_cell_formula_units_Z 60
_cell_length_a 12.161730
_cell_length_b 18.182033
_cell_length_c 17.011883
_cell_angle_alpha 90.000000
_cell_angle_beta 56.100600
_cell_angle_gamma 90.000000
_cell_volume 3122.322530
_symmetry_space_group_name_H-M "C 2/M"
_symmetry_group_IT_number 12
_symmetry_cell_setting 'monoclinic'
loop_
_space_group_symop_operation_xyz
x,y,z
-x,y,-z
-x,-y,-z
x,-y,z
1/2+x,1/2+y,z
1/2-x,1/2+y,-z
1/2-x,1/2-y,-z
1/2+x,1/2-y,z
loop_
_atom_site_type_symbol
_atom_site_label
_atom_site_fract_x
_atom_site_fract_y
_atom_site_fract_z
Si Si1 0.833084 0.806040 0.284695
Si Si2 0.500000 0.635105 0.000000
Si Si3 0.201609 0.380654 0.934289
Si Si4 0.261848 0.723667 0.139498
Si Si5 0.472235 0.167774 0.284714
Si Si6 0.080949 0.586347 0.388334
Si Si7 0.016107 0.922307 0.158606
Si Si8 0.478596 0.082193 0.132755
O O1 0.821930 0.769703 0.203327
O O2 0.705348 0.857926 0.353008
O O3 0.871648 0.739128 0.330198
O O4 0.960375 0.859125 0.237331
O O5 0.367132 0.683516 0.040056
O O6 0.466962 0.586835 0.088934
O O7 0.258866 0.302483 0.888445
O O8 0.326594 0.429129 0.906736
O O9 0.134886 0.420309 0.887151
O O10 0.103000 0.372708 0.047768
O O11 0.120579 0.685583 0.198548
O O12 0.482974 0.121945 0.361579
O O13 0.418486 0.116278 0.236363
O O14 0.119799 0.500000 0.351864
O O15 0.000000 0.585578 0.500000
O O16 0.958301 0.000000 0.211923
O O17 0.527076 0.000000 0.131693
#
# Coordination Sequence:
#
# PCOD8095937 Si02
#       8
#     8   4   8   8   8   8   8   8
#     4  10  21  37  58  85 112 143 183 232 283 345
#     4  10  21  32  48  70 105 150 204 242 273 320
#     4  11  20  32  50  72 113 152 199 235 271 319
#     4  10  20  33  50  79 107 150 191 238 276 317
#     4  11  21  37  61  84 114 148 192 234 288 347
#     4  10  23  44  67  90 116 144 180 234 301 363
#     4  11  21  33  50  74 108 150 192 237 285 330
#     4  11  22  33  49  77 113 155 200 239 273 319
#
# _framework density 19.216463000000001
#
# number of rings (size 3 to 8) (size 9 to 14) (size 15 to 20)
#    0.000    1.467    2.667    4.200    1.867    1.600 
#    0.000    4.000    0.000    0.000    0.000    0.000 
#    0.000   11.200    0.000    0.000    0.000    0.000 
#
# Total GULP energy -371717.445526 kJ/mol
# GULP energy per Si atom -12390.581518 kJ/mol
# Density = 1.917273 g / cm^3
# Si number density = 19.216463 Si / 1000 Ang^3
#
#
#
# Elastic Constant Matrix: (Units=GPa)
#
#
# Indices 1 2 3 4 5 6 
#
# 1 71.3355 27.2951 19.2988 0.0001 0.6370 -0.0001
# 2 27.2951 115.8747 34.2321 0.0000 10.5168 0.0000
# 3 19.2988 34.2321 62.6304 0.0001 9.0901 -0.0001
# 4 0.0001 0.0000 0.0001 25.4960 -0.0001 0.3050
# 5 0.6370 10.5168 9.0901 -0.0001 21.2774 0.0001
# 6 -0.0001 0.0000 -0.0001 0.3050 0.0001 20.6252
#
#
#
# Elastic Compliance Matrix: (Units=1/GPa)
#
#
# Indices 1 2 3 4 5 6 
#
# 1 0.016127 -0.002926 -0.003742 0.000000 0.002562 0.000000
# 2 -0.002926 0.010989 -0.004615 0.000000 -0.003372 0.000000
# 3 -0.003742 -0.004615 0.020570 0.000000 -0.006395 0.000000
# 4 0.000000 0.000000 0.000000 0.039229 0.000000 -0.000580
# 5 0.002562 -0.003372 -0.006395 0.000000 0.051320 0.000000
# 6 0.000000 0.000000 0.000000 -0.000580 0.000000 0.048493
#
#
# Mechanical properties :
#
#
# Convention : Reuss Voigt Hill
#
# Bulk Modulus (GPa) = 39.80860 45.72140 42.76500
# Shear Modulus (GPa) = 22.97075 24.74736 23.85906
#
# Velocity S-wave (km/s) = 3.46116 3.59251 3.52745
# Velocity P-wave (km/s) = 6.06083 6.40724 6.23644
#
# Compressibility (1/GPa) = 0.02512020
#
# Stress axis : x y z
#
# Youngs Moduli (GPa) = 62.00666 91.00245 48.61347
#
# Poissons Ratio (x) = 0.26627 0.18191
# Poissons Ratio (y) = 0.18143 0.22436
# Poissons Ratio (z) = 0.23203 0.41999
#
# Static dielectric constant tensor:
#      x y z
#    x 3.564650 0.000000 0.058490 
#    y 0.000000 3.851650 0.000000 
#    z 0.058490 0.000000 3.155460 
# 
# 
# High freq. dielectric constant tensor:
#      x y z
#    x 1.753040 0.000000 0.001530 
#    y 0.000000 1.764270 0.000000 
#    z 0.001530 0.000000 1.702010 
# 
# From -- ./inp_files/264251.got.cif
#   From: 2010.06.25/outbox.cif.g09.slc.cpg/sg12_133_cif.got.tgz:264251.got - 2010.06.28 00:19:55.
