data_PCOD8095664
_publ_section_title
;
Structure prediction by ZEFSAII (Michael W. Deem and Ramdas Pophale) SiO2 
 PCOD8095664
Probable space group: C 2/M
;
_chemical_formula_sum "Si O2"
_cell_formula_units_Z 56
_cell_length_a 28.438882
_cell_length_b 9.072368
_cell_length_c 18.757149
_cell_angle_alpha 90.000000
_cell_angle_beta 38.052935
_cell_angle_gamma 90.000000
_cell_volume 2983.012409
_symmetry_space_group_name_H-M "C 2/M"
_symmetry_group_IT_number 12
_symmetry_cell_setting 'monoclinic'
loop_
_space_group_symop_operation_xyz
x,y,z
-x,y,-z
-x,-y,-z
x,-y,z
1/2+x,1/2+y,z
1/2-x,1/2+y,-z
1/2-x,1/2-y,-z
1/2+x,1/2-y,z
loop_
_atom_site_type_symbol
_atom_site_label
_atom_site_fract_x
_atom_site_fract_y
_atom_site_fract_z
Si Si1 0.685307 0.669536 0.914592
Si Si2 0.968409 0.333477 0.248717
Si Si3 0.655808 0.172459 0.345025
Si Si4 0.911013 0.830163 0.706396
Si Si5 0.360692 0.834244 0.898311
Si Si6 0.581284 0.670106 0.559290
Si Si7 0.021340 0.172549 0.053348
O O1 0.682096 0.500000 0.941979
O O2 0.756582 0.703708 0.779146
O O3 0.693807 0.763163 0.976942
O O4 0.609619 0.713119 0.961349
O O5 0.937506 0.500000 0.279662
O O6 0.053884 0.330545 0.175195
O O7 0.966193 0.257611 0.173979
O O8 0.915474 0.242132 0.366187
O O9 0.599638 0.246846 0.355160
O O10 0.642309 0.245123 0.437892
O O11 0.636976 0.000000 0.370833
O O12 0.855390 0.758449 0.831851
O O13 0.998375 0.811301 0.623803
O O14 0.888279 0.000000 0.724393
O O15 0.333331 0.000000 0.914943
O O16 0.604585 0.500000 0.537973
O O17 0.006025 0.000000 0.081830
O O18 0.000000 0.226152 0.000000
#
# Coordination Sequence:
#
# PCOD8095664 Si02
#       7
#     8   8   8   8   8   8   8
#     4   9  19  34  49  70 100 130 159 193 241 295
#     4   9  17  30  50  76 102 126 156 197 242 285
#     4  11  22  33  47  68  97 132 166 203 243 283
#     4  10  20  33  49  69  94 127 168 210 246 280
#     4   9  17  30  49  71  95 126 163 202 243 286
#     4  10  20  34  51  70  95 129 169 207 240 279
#     4   9  17  32  56  81 102 125 154 191 237 291
#
# _framework density 18.772969
#
# number of rings (size 3 to 8) (size 9 to 14) (size 15 to 20)
#    0.000    2.429    0.000    2.571    0.000    8.857 
#    0.000    0.000    0.000    0.857    0.000    0.000 
#    0.000    0.000    0.000    0.000    0.000    0.000 
#
# Total GULP energy -347279.005295 kJ/mol
# GULP energy per Si atom -12402.821618 kJ/mol
# Density = 1.873024 g / cm^3
# Si number density = 18.772969 Si / 1000 Ang^3
#
#
#
# Elastic Constant Matrix: (Units=GPa)
#
#
# Indices 1 2 3 4 5 6 
#
# 1 30.2514 23.8616 35.2062 -0.0209 21.2834 0.0091
# 2 23.8616 132.5874 81.5316 -0.0092 20.6815 0.0021
# 3 35.2062 81.5316 139.4503 -0.0192 34.2039 0.0095
# 4 -0.0209 -0.0092 -0.0192 38.7041 0.0000 9.8613
# 5 21.2834 20.6815 34.2039 0.0000 31.0352 0.0019
# 6 0.0091 0.0021 0.0095 9.8613 0.0019 19.2031
#
#
#
# Elastic Compliance Matrix: (Units=1/GPa)
#
#
# Indices 1 2 3 4 5 6 
#
# 1 0.070422 -0.002402 -0.006745 0.000047 -0.039260 -0.000050
# 2 -0.002402 0.011861 -0.006569 -0.000003 0.000984 0.000004
# 3 -0.006745 -0.006569 0.014399 0.000003 -0.006865 -0.000004
# 4 0.000047 -0.000003 0.000003 0.029726 -0.000033 -0.015265
# 5 -0.039260 0.000984 -0.006865 -0.000033 0.066056 0.000032
# 6 -0.000050 0.000004 -0.000004 -0.015265 0.000032 0.059914
#
#
# Mechanical properties :
#
#
# Convention : Reuss Voigt Hill
#
# Bulk Modulus (GPa) = 15.32605 64.83198 40.07901
# Shear Modulus (GPa) = 16.36335 28.56781 22.46558
#
# Velocity S-wave (km/s) = 2.95557 3.90520 3.46309
# Velocity P-wave (km/s) = 4.45295 7.41241 6.11443
#
# Compressibility (1/GPa) = 0.06524839
#
# Stress axis : x y z
#
# Youngs Moduli (GPa) = 14.20006 84.31171 69.45076
#
# Poissons Ratio (x) = 0.20253 0.46845
# Poissons Ratio (y) = 0.03411 0.45625
# Poissons Ratio (z) = 0.09578 0.55387
#
# Static dielectric constant tensor:
#      x y z
#    x 3.136290 -0.000010 0.210980 
#    y -0.000010 3.591480 0.000030 
#    z 0.210980 0.000030 3.493850 
# 
# 
# High freq. dielectric constant tensor:
#      x y z
#    x 1.688370 0.000000 0.020200 
#    y 0.000000 1.740090 0.000000 
#    z 0.020200 0.000000 1.732200 
# 
# From -- ./inp_files/280849.got.cif
#   From: 2010.06.25/outbox.cif.g09.slc.cpg/sg12_141_cif.got.tgz:280849.got - 2010.06.28 00:19:55.
