data_PCOD8095484
_publ_section_title
;
Structure prediction by ZEFSAII (Michael W. Deem and Ramdas Pophale) SiO2 
 PCOD8095484
Probable space group: C 2/M
;
_chemical_formula_sum "Si O2"
_cell_formula_units_Z 64
_cell_length_a 15.942761
_cell_length_b 26.119321
_cell_length_c 9.428482
_cell_angle_alpha 90.000000
_cell_angle_beta 115.385725
_cell_angle_gamma 90.000000
_cell_volume 3547.051832
_symmetry_space_group_name_H-M "C 2/M"
_symmetry_group_IT_number 12
_symmetry_cell_setting 'monoclinic'
loop_
_space_group_symop_operation_xyz
x,y,z
-x,y,-z
-x,-y,-z
x,-y,z
1/2+x,1/2+y,z
1/2-x,1/2+y,-z
1/2-x,1/2-y,-z
1/2+x,1/2-y,z
loop_
_atom_site_type_symbol
_atom_site_label
_atom_site_fract_x
_atom_site_fract_y
_atom_site_fract_z
Si Si1 0.095088 0.116165 0.649641
Si Si2 0.712766 0.857122 0.599584
Si Si3 0.491263 0.558516 0.156293
Si Si4 0.273243 0.293673 0.182946
Si Si5 0.319953 0.442734 0.538652
Si Si6 0.344264 0.183819 0.155811
Si Si7 0.328190 0.735137 0.664540
Si Si8 0.037106 0.700574 0.370613
O O1 0.076784 0.093631 0.795133
O O2 0.154823 0.168194 0.691287
O O3 0.153994 0.075799 0.600174
O O4 0.000000 0.128594 0.500000
O O5 0.735781 0.911971 0.551296
O O6 0.681350 0.856891 0.740315
O O7 0.810175 0.825037 0.674618
O O8 0.628675 0.835041 0.442146
O O9 0.453130 0.500000 0.128791
O O10 0.592713 0.560196 0.295344
O O11 0.500000 0.579093 0.000000
O O12 0.332603 0.244052 0.182963
O O13 0.187777 0.271904 0.212458
O O14 0.222390 0.327104 0.024435
O O15 0.282467 0.500000 0.496194
O O16 0.455435 0.176403 0.213734
O O17 0.250000 0.750000 0.500000
O O18 0.430819 0.745514 0.677198
O O19 0.000000 0.712251 0.500000
#
# Coordination Sequence:
#
# PCOD8095484 Si02
#       8
#     8   8   8   8   8   8   8   8
#     4  10  20  32  52  78 105 139 174 210 257 311
#     4   9  18  32  52  74  98 134 173 208 253 309
#     4   9  19  34  51  75 105 137 172 213 263 314
#     4  10  20  33  50  76 108 136 167 213 256 300
#     4  10  20  34  53  77 103 132 173 221 263 306
#     4   9  20  34  49  74 108 137 169 211 255 304
#     4   9  17  30  48  71  98 129 169 205 241 302
#     4   9  17  30  50  72  98 134 169 203 248 303
#
# _framework density 18.043151999999999
#
# number of rings (size 3 to 8) (size 9 to 14) (size 15 to 20)
#    0.000    2.625    0.000    2.625    1.750    7.500 
#    0.000    0.000    0.000    3.375    0.000    0.875 
#    0.000    0.000    0.000    0.000    0.000    0.000 
#
# Total GULP energy -396417.774329 kJ/mol
# GULP energy per Si atom -12388.055448 kJ/mol
# Density = 1.800209 g / cm^3
# Si number density = 18.043152 Si / 1000 Ang^3
#
#
#
# Elastic Constant Matrix: (Units=GPa)
#
#
# Indices 1 2 3 4 5 6 
#
# 1 93.3302 49.6144 23.5239 0.0000 0.1409 0.0000
# 2 49.6144 88.3024 26.6126 0.0000 -5.6107 0.0000
# 3 23.5239 26.6126 78.2545 0.0000 -7.5113 0.0000
# 4 0.0000 0.0000 0.0000 20.3867 0.0000 -2.1313
# 5 0.1409 -5.6107 -7.5113 0.0000 21.5878 0.0000
# 6 0.0000 0.0000 0.0000 -2.1313 0.0000 19.3085
#
#
#
# Elastic Compliance Matrix: (Units=1/GPa)
#
#
# Indices 1 2 3 4 5 6 
#
# 1 0.015715 -0.008369 -0.002169 0.000000 -0.003032 0.000000
# 2 -0.008369 0.017146 -0.002982 0.000000 0.003473 0.000000
# 3 -0.002169 -0.002982 0.014868 0.000000 0.004413 0.000000
# 4 0.000000 0.000000 0.000000 0.049624 0.000000 0.005478
# 5 -0.003032 0.003473 0.004413 0.000000 0.048780 0.000000
# 6 0.000000 0.000000 0.000000 0.005478 0.000000 0.052395
#
#
# Mechanical properties :
#
#
# Convention : Reuss Voigt Hill
#
# Bulk Modulus (GPa) = 48.33215 51.04321 49.68768
# Shear Modulus (GPa) = 21.50859 22.93233 22.22046
#
# Velocity S-wave (km/s) = 3.45637 3.56894 3.51311
# Velocity P-wave (km/s) = 6.54017 6.73305 6.63731
#
# Compressibility (1/GPa) = 0.02069016
#
# Stress axis : x y z
#
# Youngs Moduli (GPa) = 63.63490 58.32216 67.25635
#
# Poissons Ratio (x) = 0.48807 0.14588
# Poissons Ratio (y) = 0.53253 0.20056
# Poissons Ratio (z) = 0.13803 0.17391
#
# Static dielectric constant tensor:
#      x y z
#    x 4.569920 0.000000 0.187440 
#    y 0.000000 3.314020 0.000000 
#    z 0.187440 0.000000 3.444100 
# 
# 
# High freq. dielectric constant tensor:
#      x y z
#    x 1.695480 0.000000 -0.010350 
#    y 0.000000 1.666980 0.000000 
#    z -0.010350 0.000000 1.695120 
# 
# From -- ./inp_files/67015.got.cif
#   From: 2010.06.25/outbox.cif.g09.slc.cpg/sg12_34_cif.got.tgz:67015.got - 2010.06.28 00:19:55.
