data_PCOD8095186
_publ_section_title
;
Structure prediction by ZEFSAII (Michael W. Deem and Ramdas Pophale) SiO2 
 PCOD8095186
Probable space group: C 2/M
;
_chemical_formula_sum "Si O2"
_cell_formula_units_Z 64
_cell_length_a 22.707138
_cell_length_b 9.230919
_cell_length_c 17.535986
_cell_angle_alpha 90.000000
_cell_angle_beta 78.112325
_cell_angle_gamma 90.000000
_cell_volume 3596.847493
_symmetry_space_group_name_H-M "C 2/M"
_symmetry_group_IT_number 12
_symmetry_cell_setting 'monoclinic'
loop_
_space_group_symop_operation_xyz
x,y,z
-x,y,-z
-x,-y,-z
x,-y,z
1/2+x,1/2+y,z
1/2-x,1/2+y,-z
1/2-x,1/2-y,-z
1/2+x,1/2-y,z
loop_
_atom_site_type_symbol
_atom_site_label
_atom_site_fract_x
_atom_site_fract_y
_atom_site_fract_z
Si Si1 0.870205 0.337408 0.627159
Si Si2 0.431675 0.670840 0.238652
Si Si3 0.375868 0.338497 0.856355
Si Si4 0.039825 0.160042 0.312501
Si Si5 0.776461 0.833512 0.564175
Si Si6 0.514324 0.327392 0.079618
Si Si7 0.808355 0.333883 0.268169
Si Si8 0.784847 0.337313 0.795937
O O1 0.879416 0.500000 0.593555
O O2 0.935555 0.271260 0.630608
O O3 0.839659 0.239993 0.570118
O O4 0.828742 0.338383 0.712405
O O5 0.417883 0.500000 0.239116
O O6 0.474577 0.708483 0.299049
O O7 0.463136 0.724888 0.152105
O O8 0.371460 0.759140 0.267335
O O9 0.352598 0.500000 0.883113
O O10 0.414734 0.347155 0.769808
O O11 0.419142 0.274929 0.911547
O O12 0.318489 0.234748 0.859364
O O13 0.035919 0.000000 0.350502
O O14 0.750000 0.750000 0.500000
O O15 0.729693 0.820535 0.645077
O O16 0.788861 0.000000 0.539086
O O17 0.515073 0.500000 0.079134
O O18 0.500000 0.262939 0.000000
O O19 0.817728 0.500000 0.241896
O O20 0.774841 0.253572 0.207554
O O21 0.765788 0.500000 0.823526
#
# Coordination Sequence:
#
# PCOD8095186 Si02
#       8
#     8   8   8   8   8   8   8   8
#     4   9  16  26  43  67  91 116 148 186 226 266
#     4   9  17  29  47  70  95 124 156 189 226 270
#     4   8  13  23  41  64  89 116 148 187 227 266
#     4   8  14  25  41  63  90 118 149 185 224 265
#     4  10  20  33  49  69  93 121 151 185 227 273
#     4   8  14  26  46  71  96 123 155 189 227 272
#     4  10  20  32  47  68  94 122 151 186 229 273
#     4   9  16  26  42  64  89 116 149 189 228 267
#
# _framework density 17.793358999999999
#
# number of rings (size 3 to 8) (size 9 to 14) (size 15 to 20)
#    0.000    3.125    0.000    3.000    0.000    5.000 
#    0.000    1.875    0.000    3.000    0.000    5.250 
#    0.000    0.000    0.000    0.000    0.000    0.000 
#
# Total GULP energy -396660.051872 kJ/mol
# GULP energy per Si atom -12395.626621 kJ/mol
# Density = 1.775286 g / cm^3
# Si number density = 17.793359 Si / 1000 Ang^3
#
#
#
# Elastic Constant Matrix: (Units=GPa)
#
#
# Indices 1 2 3 4 5 6 
#
# 1 126.2508 75.6298 31.0664 0.0000 37.7796 0.0000
# 2 75.6298 130.8538 36.5227 0.0000 28.5952 0.0000
# 3 31.0664 36.5227 46.7791 0.0000 30.6347 0.0000
# 4 0.0000 0.0000 0.0000 15.0093 0.0000 6.7259
# 5 37.7796 28.5952 30.6347 0.0000 30.8640 0.0000
# 6 0.0000 0.0000 0.0000 6.7259 0.0000 32.1856
#
#
#
# Elastic Compliance Matrix: (Units=1/GPa)
#
#
# Indices 1 2 3 4 5 6 
#
# 1 0.017143 -0.007490 0.010459 0.000000 -0.024427 0.000000
# 2 -0.007490 0.013241 -0.009526 0.000000 0.006355 0.000000
# 3 0.010459 -0.009526 0.069926 0.000000 -0.073383 0.000000
# 4 0.000000 0.000000 0.000000 0.073509 0.000000 -0.015361
# 5 -0.024427 0.006355 -0.073383 0.000000 0.129251 0.000000
# 6 0.000000 0.000000 0.000000 -0.015361 0.000000 0.034280
#
#
# Mechanical properties :
#
#
# Convention : Reuss Voigt Hill
#
# Bulk Modulus (GPa) = 11.46824 65.59128 38.52976
# Shear Modulus (GPa) = 13.17427 26.32277 19.74852
#
# Velocity S-wave (km/s) = 2.72399 3.85042 3.33510
# Velocity P-wave (km/s) = 4.04385 7.53063 6.04413
#
# Compressibility (1/GPa) = 0.08719730
#
# Stress axis : x y z
#
# Youngs Moduli (GPa) = 58.33196 75.52380 14.30093
#
# Poissons Ratio (x) = 0.56565 -0.14958
# Poissons Ratio (y) = 0.43689 0.13623
# Poissons Ratio (z) = -0.61011 0.71943
#
# Static dielectric constant tensor:
#      x y z
#    x 3.353210 0.000000 0.413340 
#    y 0.000000 3.399810 0.000000 
#    z 0.413340 0.000000 3.075420 
# 
# 
# High freq. dielectric constant tensor:
#      x y z
#    x 1.686310 0.000000 0.036900 
#    y 0.000000 1.683010 0.000000 
#    z 0.036900 0.000000 1.644070 
# 
# From -- ./inp_files/281287.got.cif
#   From: 2010.06.25/outbox.cif.g09.slc.cpg/sg12_141_cif.got.tgz:281287.got - 2010.06.28 00:19:55.
