data_PCOD8095166
_publ_section_title
;
Structure prediction by ZEFSAII (Michael W. Deem and Ramdas Pophale) SiO2 
 PCOD8095166
Probable space group: C 2/M
;
_chemical_formula_sum "Si O2"
_cell_formula_units_Z 64
_cell_length_a 28.683678
_cell_length_b 8.922179
_cell_length_c 14.045450
_cell_angle_alpha 90.000000
_cell_angle_beta 73.173673
_cell_angle_gamma 90.000000
_cell_volume 3440.630488
_symmetry_space_group_name_H-M "C 2/M"
_symmetry_group_IT_number 12
_symmetry_cell_setting 'monoclinic'
loop_
_space_group_symop_operation_xyz
x,y,z
-x,y,-z
-x,-y,-z
x,-y,z
1/2+x,1/2+y,z
1/2-x,1/2+y,-z
1/2-x,1/2-y,-z
1/2+x,1/2-y,z
loop_
_atom_site_type_symbol
_atom_site_label
_atom_site_fract_x
_atom_site_fract_y
_atom_site_fract_z
Si Si1 0.100825 0.668724 0.803278
Si Si2 0.945586 0.823905 0.001287
Si Si3 0.052399 0.823624 0.497833
Si Si4 0.526744 0.832437 0.688518
Si Si5 0.365135 0.321765 0.691662
Si Si6 0.290243 0.174922 0.605465
Si Si7 0.577307 0.177738 0.184163
Si Si8 0.808933 0.675219 0.381097
O O1 0.111389 0.500000 0.833893
O O2 0.094428 0.780926 0.895192
O O3 0.049494 0.673015 0.779475
O O4 0.143406 0.721221 0.706582
O O5 0.944506 0.000000 0.983377
O O6 0.927055 0.740789 0.918746
O O7 0.000000 0.772044 0.000000
O O8 0.059948 0.771956 0.601793
O O9 0.093992 0.759507 0.405211
O O10 0.000000 0.756124 0.500000
O O11 0.052977 0.000000 0.491146
O O12 0.471275 0.775032 0.729162
O O13 0.528673 0.000000 0.645686
O O14 0.363988 0.500000 0.701944
O O15 0.314407 0.263976 0.678895
O O16 0.376591 0.250809 0.788372
O O17 0.234492 0.225948 0.634902
O O18 0.316506 0.212451 0.488882
O O19 0.292808 0.000000 0.627061
O O20 0.583589 0.000000 0.175149
O O21 0.796204 0.500000 0.377375
#
# Coordination Sequence:
#
# PCOD8095166 Si02
#       8
#     8   8   8   8   8   8   8   8
#     4  10  20  36  57  81 110 144 184 231 280 331
#     4  11  23  37  55  80 111 147 188 235 282 330
#     4  10  20  32  46  69 105 145 180 217 263 318
#     4  10  20  32  50  76 106 142 182 224 267 319
#     4  11  22  36  54  77 111 150 188 228 276 331
#     4  10  20  36  59  85 116 148 187 230 274 333
#     4  11  22  36  55  77 106 146 189 229 273 326
#     4   9  19  36  59  86 116 147 184 231 281 330
#
# _framework density 18.601241000000002
#
# number of rings (size 3 to 8) (size 9 to 14) (size 15 to 20)
#    0.000    1.750    2.500    2.250    0.000    4.750 
#    0.000    0.000    0.000    0.750    0.000    0.000 
#    0.000    0.000    0.000    0.000    0.000    0.000 
#
# Total GULP energy -396791.413070 kJ/mol
# GULP energy per Si atom -12399.731658 kJ/mol
# Density = 1.855890 g / cm^3
# Si number density = 18.601241 Si / 1000 Ang^3
#
#
#
# Elastic Constant Matrix: (Units=GPa)
#
#
# Indices 1 2 3 4 5 6 
#
# 1 88.7857 40.0889 39.0626 0.0000 16.8842 0.0000
# 2 40.0889 67.6006 36.3377 0.0000 11.0627 0.0000
# 3 39.0626 36.3377 87.1551 0.0000 12.7782 0.0000
# 4 0.0000 0.0000 0.0000 31.6570 0.0000 3.3151
# 5 16.8842 11.0627 12.7782 0.0000 28.8277 0.0000
# 6 0.0000 0.0000 0.0000 3.3151 0.0000 28.5671
#
#
#
# Elastic Compliance Matrix: (Units=1/GPa)
#
#
# Indices 1 2 3 4 5 6 
#
# 1 0.017332 -0.007250 -0.003920 0.000000 -0.005632 0.000000
# 2 -0.007250 0.022552 -0.005890 0.000000 -0.001798 0.000000
# 3 -0.003920 -0.005890 0.016062 0.000000 -0.002564 0.000000
# 4 0.000000 0.000000 0.000000 0.031977 0.000000 -0.003711
# 5 -0.005632 -0.001798 -0.002564 0.000000 0.039813 0.000000
# 6 0.000000 0.000000 0.000000 -0.003711 0.000000 0.035436
#
#
# Mechanical properties :
#
#
# Convention : Reuss Voigt Hill
#
# Bulk Modulus (GPa) = 45.81357 52.72443 49.26900
# Shear Modulus (GPa) = 24.44180 26.34719 25.39449
#
# Velocity S-wave (km/s) = 3.62883 3.76762 3.69888
# Velocity P-wave (km/s) = 6.49928 6.87988 6.69229
#
# Compressibility (1/GPa) = 0.02182760
#
# Stress axis : x y z
#
# Youngs Moduli (GPa) = 57.69668 44.34161 62.25792
#
# Poissons Ratio (x) = 0.32146 0.24404
# Poissons Ratio (y) = 0.41828 0.36669
# Poissons Ratio (z) = 0.22616 0.26117
#
# Static dielectric constant tensor:
#      x y z
#    x 3.324630 0.000000 0.074370 
#    y 0.000000 3.322740 0.000000 
#    z 0.074370 0.000000 3.310870 
# 
# 
# High freq. dielectric constant tensor:
#      x y z
#    x 1.709380 0.000000 0.011600 
#    y 0.000000 1.723320 0.000000 
#    z 0.011600 0.000000 1.708480 
# 
# From -- ./inp_files/243816.got.cif
#   From: 2010.06.25/outbox.cif.g09.slc.cpg/sg12_122_cif.got.tgz:243816.got - 2010.06.28 00:19:55.
