data_PCOD8095725
_publ_section_title
;
Structure prediction by ZEFSAII (Michael W. Deem and Ramdas Pophale) SiO2 
 PCOD8095725
Probable space group: C 2/M
;
_chemical_formula_sum "Si O2"
_cell_formula_units_Z 64
_cell_length_a 19.687676
_cell_length_b 9.339865
_cell_length_c 21.792851
_cell_angle_alpha 90.000000
_cell_angle_beta 120.871703
_cell_angle_gamma 90.000000
_cell_volume 3439.517617
_symmetry_space_group_name_H-M "C 2/M"
_symmetry_group_IT_number 12
_symmetry_cell_setting 'monoclinic'
loop_
_space_group_symop_operation_xyz
x,y,z
-x,y,-z
-x,-y,-z
x,-y,z
1/2+x,1/2+y,z
1/2-x,1/2+y,-z
1/2-x,1/2-y,-z
1/2+x,1/2-y,z
loop_
_atom_site_type_symbol
_atom_site_label
_atom_site_fract_x
_atom_site_fract_y
_atom_site_fract_z
Si Si1 0.236867 0.665620 0.183587
Si Si2 0.784948 0.836736 0.071793
Si Si3 0.890405 0.335038 0.277047
Si Si4 0.111330 0.666925 0.224619
Si Si5 0.355391 0.336260 0.528690
Si Si6 0.508073 0.848280 0.433640
Si Si7 0.541384 0.329866 0.802147
Si Si8 0.203480 0.334250 0.387723
O O1 0.260838 0.500000 0.206103
O O2 0.233253 0.696577 0.108982
O O3 0.304424 0.765254 0.242915
O O4 0.153168 0.699356 0.178253
O O5 0.877412 0.798723 0.123600
O O6 0.775770 0.000000 0.048887
O O7 0.750000 0.750000 0.000000
O O8 0.883055 0.500000 0.251603
O O9 0.925196 0.320875 0.361341
O O10 0.949533 0.249063 0.258940
O O11 0.086999 0.500000 0.218071
O O12 0.176607 0.708003 0.306691
O O13 0.032843 0.763545 0.195091
O O14 0.348211 0.500000 0.542836
O O15 0.441457 0.295582 0.546290
O O16 0.294413 0.293727 0.445870
O O17 0.348774 0.250122 0.588359
O O18 0.500000 0.879902 0.500000
O O19 0.543907 0.000000 0.422786
O O20 0.528533 0.500000 0.786628
O O21 0.188487 0.500000 0.391931
#
# Coordination Sequence:
#
# PCOD8095725 Si02
#       8
#     8   8   8   8   8   8   8   8
#     4   9  20  37  57  83 115 144 177 225 275 318
#     4   9  19  37  60  85 112 145 179 214 259 314
#     4  10  20  35  55  77 103 142 189 228 272 331
#     4  10  20  35  56  80 109 144 181 222 271 323
#     4  10  20  33  49  72  96 128 178 225 270 322
#     4  10  22  36  48  67 100 137 174 223 276 321
#     4  10  21  37  57  84 114 142 178 223 267 314
#     4   9  19  34  51  71  99 135 172 216 269 323
#
# _framework density 18.60726
#
# number of rings (size 3 to 8) (size 9 to 14) (size 15 to 20)
#    0.000    2.375    0.000    2.625    1.750    8.250 
#    0.000    0.625    0.000    3.750    0.000    0.000 
#    0.000    0.000    0.000    0.000    0.000    0.000 
#
# Total GULP energy -396531.633090 kJ/mol
# GULP energy per Si atom -12391.613534 kJ/mol
# Density = 1.856491 g / cm^3
# Si number density = 18.607260 Si / 1000 Ang^3
#
#
#
# Elastic Constant Matrix: (Units=GPa)
#
#
# Indices 1 2 3 4 5 6 
#
# 1 102.5894 51.1834 43.7839 0.0000 -5.6783 0.0000
# 2 51.1834 77.1456 55.0902 0.0000 -0.7242 0.0000
# 3 43.7839 55.0902 119.8557 0.0000 -7.5398 0.0000
# 4 0.0000 0.0000 0.0000 36.6472 0.0000 1.2140
# 5 -5.6783 -0.7242 -7.5398 0.0000 16.4549 0.0000
# 6 0.0000 0.0000 0.0000 1.2140 0.0000 34.9357
#
#
#
# Elastic Compliance Matrix: (Units=1/GPa)
#
#
# Indices 1 2 3 4 5 6 
#
# 1 0.015001 -0.009219 -0.000970 0.000000 0.004326 0.000000
# 2 -0.009219 0.025138 -0.008564 0.000000 -0.005999 0.000000
# 3 -0.000970 -0.008564 0.012963 0.000000 0.005228 0.000000
# 4 0.000000 0.000000 0.000000 0.027319 0.000000 -0.000949
# 5 0.004326 -0.005999 0.005228 0.000000 0.064396 0.000000
# 6 0.000000 0.000000 0.000000 -0.000949 0.000000 0.028657
#
#
# Mechanical properties :
#
#
# Convention : Reuss Voigt Hill
#
# Bulk Modulus (GPa) = 64.12185 66.63396 65.37791
# Shear Modulus (GPa) = 23.12894 27.57644 25.35269
#
# Velocity S-wave (km/s) = 3.52945 3.85389 3.69523
# Velocity P-wave (km/s) = 7.15156 7.46269 7.30878
#
# Compressibility (1/GPa) = 0.01559531
#
# Stress axis : x y z
#
# Youngs Moduli (GPa) = 66.66417 39.77991 77.14166
#
# Poissons Ratio (x) = 0.36672 0.07485
# Poissons Ratio (y) = 0.61456 0.66066
# Poissons Ratio (z) = 0.06469 0.34068
#
# Static dielectric constant tensor:
#      x y z
#    x 3.663060 0.000000 -0.077370 
#    y 0.000000 3.917340 0.000000 
#    z -0.077370 0.000000 3.349420 
# 
# 
# High freq. dielectric constant tensor:
#      x y z
#    x 1.710370 0.000000 -0.000310 
#    y 0.000000 1.731000 0.000000 
#    z -0.000310 0.000000 1.710970 
# 
# From -- ./inp_files/320150.got.cif
#   From: 2010.06.25/outbox.cif.g09.slc.cpg/sg12_161_cif.got.tgz:320150.got - 2010.06.28 00:19:55.
