data_PCOD8095485
_publ_section_title
;
Structure prediction by ZEFSAII (Michael W. Deem and Ramdas Pophale) SiO2 
 PCOD8095485
Probable space group: C 2/M
;
_chemical_formula_sum "Si O2"
_cell_formula_units_Z 40
_cell_length_a 23.327659
_cell_length_b 10.606255
_cell_length_c 19.309903
_cell_angle_alpha 90.000000
_cell_angle_beta 24.839601
_cell_angle_gamma 90.000000
_cell_volume 2006.987691
_symmetry_space_group_name_H-M "C 2/M"
_symmetry_group_IT_number 12
_symmetry_cell_setting 'monoclinic'
loop_
_space_group_symop_operation_xyz
x,y,z
-x,y,-z
-x,-y,-z
x,-y,z
1/2+x,1/2+y,z
1/2-x,1/2+y,-z
1/2-x,1/2-y,-z
1/2+x,1/2-y,z
loop_
_atom_site_type_symbol
_atom_site_label
_atom_site_fract_x
_atom_site_fract_y
_atom_site_fract_z
Si Si1 0.109067 0.641138 0.588654
Si Si2 0.653719 0.135906 0.810269
Si Si3 0.675255 0.358044 0.888623
Si Si4 0.900687 0.772310 0.261031
Si Si5 0.536393 0.855856 0.385719
O O1 0.050717 0.500000 0.659476
O O2 0.054502 0.719955 0.713740
O O3 0.273726 0.632594 0.408001
O O4 0.045655 0.706805 0.588645
O O5 0.709971 0.257333 0.790122
O O6 0.657271 0.160667 0.724131
O O7 0.728853 0.000000 0.742823
O O8 0.500000 0.117890 0.000000
O O9 0.675109 0.500000 0.856557
O O10 0.800082 0.345274 0.806247
O O11 0.531279 0.338675 0.083823
O O12 0.500000 0.791705 0.500000
O O13 0.486154 0.000000 0.444353
#
# Coordination Sequence:
#
# PCOD8095485 Si02
#       5
#     8   8   8   8   8
#     4  10  20  34  52  75 107 145 178 215 267 321
#     4   9  18  32  51  77 108 139 172 214 264 315
#     4  10  20  34  56  83 107 136 179 225 261 305
#     4  10  20  32  52  78 106 139 181 223 261 307
#     4   9  18  33  53  77 105 136 173 217 266 318
#
# _framework density 19.930367
#
# number of rings (size 3 to 8) (size 9 to 14) (size 15 to 20)
#    0.000    2.400    0.000    2.400    0.000    7.600 
#    0.000    0.000    0.000   11.400    0.000    0.000 
#    0.000    0.000    0.000    0.000    0.000    0.000 
#
# Total GULP energy -247769.990597 kJ/mol
# GULP energy per Si atom -12388.499530 kJ/mol
# Density = 1.988500 g / cm^3
# Si number density = 19.930367 Si / 1000 Ang^3
#
#
#
# Elastic Constant Matrix: (Units=GPa)
#
#
# Indices 1 2 3 4 5 6 
#
# 1 163.3521 53.9504 33.7504 0.0000 11.1050 0.0000
# 2 53.9504 111.0530 15.4474 0.0001 4.9720 0.0000
# 3 33.7504 15.4474 61.9266 0.0000 -2.6015 0.0000
# 4 0.0000 0.0001 0.0000 18.1116 0.0000 0.1054
# 5 11.1050 4.9720 -2.6015 0.0000 31.6715 0.0000
# 6 0.0000 0.0000 0.0000 0.1054 0.0000 26.1004
#
#
#
# Elastic Compliance Matrix: (Units=1/GPa)
#
#
# Indices 1 2 3 4 5 6 
#
# 1 0.008174 -0.003333 -0.003735 0.000000 -0.002650 0.000000
# 2 -0.003333 0.010775 -0.000896 0.000000 -0.000597 0.000000
# 3 -0.003735 -0.000896 0.018532 0.000000 0.002973 0.000000
# 4 0.000000 0.000000 0.000000 0.055215 0.000000 -0.000223
# 5 -0.002650 -0.000597 0.002973 0.000000 0.032841 0.000000
# 6 0.000000 0.000000 0.000000 -0.000223 0.000000 0.038314
#
#
# Mechanical properties :
#
#
# Convention : Reuss Voigt Hill
#
# Bulk Modulus (GPa) = 46.39708 60.29199 53.34454
# Shear Modulus (GPa) = 26.74295 30.72226 28.73261
#
# Velocity S-wave (km/s) = 3.66706 3.93043 3.80103
# Velocity P-wave (km/s) = 6.42339 7.13545 6.78876
#
# Compressibility (1/GPa) = 0.02155308
#
# Stress axis : x y z
#
# Youngs Moduli (GPa) = 122.33368 92.80477 53.96013
#
# Poissons Ratio (x) = 0.30932 0.20154
# Poissons Ratio (y) = 0.40774 0.04837
# Poissons Ratio (z) = 0.45691 0.08319
#
# Static dielectric constant tensor:
#      x y z
#    x 3.799500 0.000000 0.021480 
#    y 0.000000 3.838390 0.000000 
#    z 0.021480 0.000000 3.518540 
# 
# 
# High freq. dielectric constant tensor:
#      x y z
#    x 1.773910 0.000000 0.000410 
#    y 0.000000 1.754080 0.000000 
#    z 0.000410 0.000000 1.769200 
# 
# From -- ./inp_files/283156.got.cif
#   From: 2010.06.25/outbox.cif.g09.slc.cpg/sg12_142_cif.got.tgz:283156.got - 2010.06.28 00:19:55.
