data_PCOD8095587
_publ_section_title
;
Structure prediction by ZEFSAII (Michael W. Deem and Ramdas Pophale) SiO2 
 PCOD8095587
Probable space group: C 2/M
;
_chemical_formula_sum "Si O2"
_cell_formula_units_Z 56
_cell_length_a 28.645174
_cell_length_b 9.200070
_cell_length_c 14.349951
_cell_angle_alpha 90.000000
_cell_angle_beta 74.947039
_cell_angle_gamma 90.000000
_cell_volume 3651.985368
_symmetry_space_group_name_H-M "C 2/M"
_symmetry_group_IT_number 12
_symmetry_cell_setting 'monoclinic'
loop_
_space_group_symop_operation_xyz
x,y,z
-x,y,-z
-x,-y,-z
x,-y,z
1/2+x,1/2+y,z
1/2-x,1/2+y,-z
1/2-x,1/2-y,-z
1/2+x,1/2-y,z
loop_
_atom_site_type_symbol
_atom_site_label
_atom_site_fract_x
_atom_site_fract_y
_atom_site_fract_z
Si Si1 0.757599 0.331053 0.281917
Si Si2 0.426464 0.327932 0.195041
Si Si3 0.780052 0.669913 0.062243
Si Si4 0.484695 0.839517 0.900878
Si Si5 0.888628 0.670311 0.033529
Si Si6 0.853784 0.334499 0.346960
Si Si7 0.788278 0.331881 0.542858
O O1 0.745302 0.500000 0.298610
O O2 0.760627 0.281970 0.173371
O O3 0.808429 0.294708 0.304709
O O4 0.713861 0.240797 0.353451
O O5 0.425969 0.500000 0.190752
O O6 0.482291 0.274509 0.172400
O O7 0.398095 0.272618 0.301196
O O8 0.399675 0.263020 0.119385
O O9 0.773062 0.500000 0.051515
O O10 0.750000 0.750000 0.000000
O O11 0.836215 0.713629 0.022261
O O12 0.427788 0.795384 0.931341
O O13 0.491713 0.000000 0.853159
O O14 0.500000 0.842080 0.000000
O O15 0.890556 0.500000 0.061097
O O16 0.869829 0.500000 0.318887
O O17 0.839922 0.314821 0.463681
O O18 0.773759 0.500000 0.558104
O O19 0.750000 0.250000 0.500000
#
# Coordination Sequence:
#
# PCOD8095587 Si02
#       7
#     8   8   8   8   8   8   8
#     4   9  17  30  45  58  81 113 143 180 217 250
#     4  11  19  24  38  64  89 110 138 178 213 248
#     4  10  20  33  47  64  85 112 149 187 219 251
#     4   8  15  27  43  57  75 111 146 169 204 257
#     4   9  17  32  46  55  78 115 148 175 210 257
#     4   9  16  28  42  57  83 117 145 169 204 255
#     4   9  17  27  41  60  82 109 142 176 210 253
#
# _framework density 15.334123999999999
#
# number of rings (size 3 to 8) (size 9 to 14) (size 15 to 20)
#    0.000    2.714    1.429    3.429    0.000    6.571 
#    0.000    0.000    0.000    0.000    0.000    0.000 
#    0.000    1.143    0.000   12.857    0.000    6.429 
#
# Total GULP energy -347015.321518 kJ/mol
# GULP energy per Si atom -12393.404340 kJ/mol
# Density = 1.529922 g / cm^3
# Si number density = 15.334124 Si / 1000 Ang^3
#
#
#
# Elastic Constant Matrix: (Units=GPa)
#
#
# Indices 1 2 3 4 5 6 
#
# 1 74.1527 42.0067 55.6746 0.0000 -17.5859 0.0000
# 2 42.0067 90.3306 56.4103 0.0000 -20.4898 0.0000
# 3 55.6746 56.4103 104.7461 0.0000 -21.5130 0.0000
# 4 0.0000 0.0000 0.0000 27.1758 0.0000 -3.4601
# 5 -17.5859 -20.4898 -21.5130 0.0000 22.7718 0.0000
# 6 0.0000 0.0000 0.0000 -3.4601 0.0000 18.2550
#
#
#
# Elastic Compliance Matrix: (Units=1/GPa)
#
#
# Indices 1 2 3 4 5 6 
#
# 1 0.024372 -0.003960 -0.009539 0.000000 0.006247 0.000000
# 2 -0.003960 0.018619 -0.006340 0.000000 0.007706 0.000000
# 3 -0.009539 -0.006340 0.019041 0.000000 0.004918 0.000000
# 4 0.000000 0.000000 0.000000 0.037707 0.000000 0.007147
# 5 0.006247 0.007706 0.004918 0.000000 0.060318 0.000000
# 6 0.000000 0.000000 0.000000 0.007147 0.000000 0.056134
#
#
# Mechanical properties :
#
#
# Convention : Reuss Voigt Hill
#
# Bulk Modulus (GPa) = 44.73137 64.15697 54.44417
# Shear Modulus (GPa) = 18.98827 21.31637 20.15232
#
# Velocity S-wave (km/s) = 3.52277 3.73248 3.62914
# Velocity P-wave (km/s) = 6.76616 7.77852 7.28994
#
# Compressibility (1/GPa) = 0.02235568
#
# Stress axis : x y z
#
# Youngs Moduli (GPa) = 41.03015 53.70886 52.51819
#
# Poissons Ratio (x) = 0.21269 0.50095
# Poissons Ratio (y) = 0.16248 0.33294
# Poissons Ratio (z) = 0.39137 0.34049
#
# Static dielectric constant tensor:
#      x y z
#    x 2.839300 0.000000 -0.498560 
#    y 0.000000 2.996400 0.000000 
#    z -0.498560 0.000000 3.266660 
# 
# 
# High freq. dielectric constant tensor:
#      x y z
#    x 1.543730 0.000000 -0.042230 
#    y 0.000000 1.589280 0.000000 
#    z -0.042230 0.000000 1.576290 
# 
# From -- ./inp_files/247720.got.cif
#   From: 2010.06.25/outbox.cif.g09.slc.cpg/sg12_124_cif.got.tgz:247720.got - 2010.06.28 00:19:55.
