data_PCOD8095927
_publ_section_title
;
Structure prediction by ZEFSAII (Michael W. Deem and Ramdas Pophale) SiO2 
 PCOD8095927
Probable space group: C 2/M
;
_chemical_formula_sum "Si O2"
_cell_formula_units_Z 64
_cell_length_a 24.799374
_cell_length_b 9.367725
_cell_length_c 28.430278
_cell_angle_alpha 90.000000
_cell_angle_beta 150.108074
_cell_angle_gamma 90.000000
_cell_volume 3291.576794
_symmetry_space_group_name_H-M "C 2/M"
_symmetry_group_IT_number 12
_symmetry_cell_setting 'monoclinic'
loop_
_space_group_symop_operation_xyz
x,y,z
-x,y,-z
-x,-y,-z
x,-y,z
1/2+x,1/2+y,z
1/2-x,1/2+y,-z
1/2-x,1/2-y,-z
1/2+x,1/2-y,z
loop_
_atom_site_type_symbol
_atom_site_label
_atom_site_fract_x
_atom_site_fract_y
_atom_site_fract_z
Si Si1 0.403625 0.337195 0.962843
Si Si2 0.557427 0.660944 0.160128
Si Si3 0.913372 0.161637 0.469635
Si Si4 0.167485 0.661991 0.509715
Si Si5 0.586778 0.330922 0.287966
Si Si6 0.688391 0.666834 0.782452
Si Si7 0.240310 0.657426 0.263220
Si Si8 0.998103 0.665892 0.304693
O O1 0.365919 0.500000 0.923575
O O2 0.305911 0.226495 0.885346
O O3 0.500000 0.294693 0.000000
O O4 0.442756 0.326898 0.047027
O O5 0.598079 0.500000 0.195457
O O6 0.556551 0.723248 0.212493
O O7 0.641834 0.734349 0.188842
O O8 0.908873 0.246832 0.514263
O O9 0.798226 0.168593 0.357125
O O10 0.000000 0.232183 0.500000
O O11 0.948509 0.000000 0.508452
O O12 0.162186 0.500000 0.523441
O O13 0.291235 0.714144 0.605440
O O14 0.115169 0.679684 0.418656
O O15 0.567916 0.500000 0.280226
O O16 0.506184 0.244742 0.260860
O O17 0.679395 0.500000 0.790133
O O18 0.677060 0.687687 0.717388
O O19 0.595125 0.758027 0.736103
O O20 0.190828 0.500000 0.219022
O O21 0.967241 0.500000 0.274174
#
# Coordination Sequence:
#
# PCOD8095927 Si02
#       8
#     8   8   8   8   8   8   8   8
#     4  10  20  36  61  91 120 152 189 234 290 349
#     4  10  20  36  60  87 116 149 186 233 287 341
#     4  10  20  33  50  77 116 156 192 233 283 339
#     4  10  21  37  58  85 114 149 196 243 287 340
#     4  10  21  39  61  85 116 153 196 241 287 343
#     4  11  23  39  60  86 119 157 194 239 291 345
#     4  10  20  33  53  82 115 151 190 233 283 339
#     4  11  24  40  59  85 116 153 198 245 292 343
#
# _framework density 19.443570000000001
#
# number of rings (size 3 to 8) (size 9 to 14) (size 15 to 20)
#    0.000    1.750    2.500    1.875    0.000    4.500 
#    0.000    0.625    0.000    0.000    0.000    0.000 
#    0.000    0.000    0.000    0.000    0.000    0.000 
#
# Total GULP energy -396760.556482 kJ/mol
# GULP energy per Si atom -12398.767390 kJ/mol
# Density = 1.939932 g / cm^3
# Si number density = 19.443570 Si / 1000 Ang^3
#
#
#
# Elastic Constant Matrix: (Units=GPa)
#
#
# Indices 1 2 3 4 5 6 
#
# 1 110.6576 50.7431 23.1857 -0.0001 -5.4308 0.0000
# 2 50.7431 80.7682 23.5315 0.0001 1.3182 -0.0003
# 3 23.1857 23.5315 57.6114 0.0003 -7.1667 0.0001
# 4 -0.0001 0.0001 0.0003 24.4985 0.0000 4.5490
# 5 -5.4308 1.3182 -7.1667 0.0000 24.2953 0.0000
# 6 0.0000 -0.0003 0.0001 4.5490 0.0000 35.8267
#
#
#
# Elastic Compliance Matrix: (Units=1/GPa)
#
#
# Indices 1 2 3 4 5 6 
#
# 1 0.013106 -0.007771 -0.001748 0.000000 0.002836 0.000000
# 2 -0.007771 0.018815 -0.005087 0.000000 -0.004259 0.000000
# 3 -0.001748 -0.005087 0.020891 0.000000 0.006048 0.000000
# 4 0.000000 0.000000 0.000000 0.041804 0.000000 -0.005308
# 5 0.002836 -0.004259 0.006048 0.000000 0.043809 0.000000
# 6 0.000000 0.000000 0.000000 -0.005308 0.000000 0.028586
#
#
# Mechanical properties :
#
#
# Convention : Reuss Voigt Hill
#
# Bulk Modulus (GPa) = 42.37248 49.32865 45.85057
# Shear Modulus (GPa) = 24.49903 27.02923 25.76413
#
# Velocity S-wave (km/s) = 3.55351 3.73250 3.64410
# Velocity P-wave (km/s) = 6.21904 6.63330 6.42950
#
# Compressibility (1/GPa) = 0.02360022
#
# Stress axis : x y z
#
# Youngs Moduli (GPa) = 76.30326 53.14948 47.86678
#
# Poissons Ratio (x) = 0.41301 0.08365
# Poissons Ratio (y) = 0.59294 0.24352
# Poissons Ratio (z) = 0.13335 0.27039
#
# Static dielectric constant tensor:
#      x y z
#    x 3.489470 0.000000 -0.180120 
#    y 0.000000 3.525910 0.000000 
#    z -0.180120 0.000000 3.488450 
# 
# 
# High freq. dielectric constant tensor:
#      x y z
#    x 1.752640 0.000000 -0.011440 
#    y 0.000000 1.755190 0.000000 
#    z -0.011440 0.000000 1.749410 
# 
# From -- ./inp_files/238561.got.cif
#   From: 2010.06.25/outbox.cif.g09.slc.cpg/sg12_120_cif.got.tgz:238561.got - 2010.06.28 00:19:55.
