data_PCOD8095361
_publ_section_title
;
Structure prediction by ZEFSAII (Michael W. Deem and Ramdas Pophale) SiO2 
 PCOD8095361
Probable space group: C 2/M
;
_chemical_formula_sum "Si O2"
_cell_formula_units_Z 64
_cell_length_a 31.291545
_cell_length_b 8.640281
_cell_length_c 25.575865
_cell_angle_alpha 90.000000
_cell_angle_beta 150.216843
_cell_angle_gamma 90.000000
_cell_volume 3434.755617
_symmetry_space_group_name_H-M "C 2/M"
_symmetry_group_IT_number 12
_symmetry_cell_setting 'monoclinic'
loop_
_space_group_symop_operation_xyz
x,y,z
-x,y,-z
-x,-y,-z
x,-y,z
1/2+x,1/2+y,z
1/2-x,1/2+y,-z
1/2-x,1/2-y,-z
1/2+x,1/2-y,z
loop_
_atom_site_type_symbol
_atom_site_label
_atom_site_fract_x
_atom_site_fract_y
_atom_site_fract_z
Si Si1 0.708394 0.820205 0.567764
Si Si2 0.825287 0.821329 0.785815
Si Si3 0.884666 0.321153 0.161801
Si Si4 0.358662 0.822444 0.667420
Si Si5 0.933025 0.179147 0.643645
Si Si6 0.477358 0.822766 0.890354
Si Si7 0.659006 0.323340 0.081094
Si Si8 0.767486 0.678682 0.941409
O O1 0.747054 0.769585 0.665043
O O2 0.777245 0.783510 0.595245
O O3 0.621236 0.722867 0.465878
O O4 0.685268 0.000000 0.541831
O O5 0.909753 0.719694 0.863953
O O6 0.796649 0.795561 0.815322
O O7 0.848794 0.000000 0.799710
O O8 0.910663 0.500000 0.193570
O O9 0.814652 0.282345 0.131717
O O10 0.967622 0.217271 0.260212
O O11 0.846336 0.281288 0.063941
O O12 0.394482 0.781317 0.649055
O O13 0.435440 0.793907 0.789503
O O14 0.328082 0.000000 0.635877
O O15 0.923266 0.000000 0.646827
O O16 0.506278 0.000000 0.928242
O O17 0.558622 0.711756 0.980351
O O18 0.670157 0.500000 0.074587
O O19 0.704259 0.212303 0.087584
O O20 0.741628 0.500000 0.919713
#
# Coordination Sequence:
#
# PCOD8095361 Si02
#       8
#     8   8   8   8   8   8   8   8
#     4  10  20  36  54  72 100 138 178 218 259 301
#     4   9  20  36  52  72 101 139 179 216 255 303
#     4  10  21  38  58  80 107 137 168 204 251 306
#     4  10  20  34  50  73 106 140 175 213 255 305
#     4  12  23  34  52  78 105 135 173 213 257 307
#     4  10  20  32  49  75 106 139 175 215 257 302
#     4  11  21  33  52  77 105 138 175 212 254 306
#     4  10  21  37  57  82 109 135 166 206 253 304
#
# _framework density 18.633058999999999
#
# number of rings (size 3 to 8) (size 9 to 14) (size 15 to 20)
#    0.000    1.750    0.000    4.875    0.000    9.000 
#    0.000    0.000    0.000    0.750    0.000    5.250 
#    0.000    0.000    0.000    0.000    0.000    0.000 
#
# Total GULP energy -396969.069269 kJ/mol
# GULP energy per Si atom -12405.283415 kJ/mol
# Density = 1.859065 g / cm^3
# Si number density = 18.633059 Si / 1000 Ang^3
#
#
#
# Elastic Constant Matrix: (Units=GPa)
#
#
# Indices 1 2 3 4 5 6 
#
# 1 84.3865 17.1832 42.9823 0.0000 -10.7330 0.0000
# 2 17.1832 56.8513 27.4657 0.0000 -2.0425 0.0000
# 3 42.9823 27.4657 90.9586 0.0000 3.9549 0.0000
# 4 0.0000 0.0000 0.0000 27.7567 0.0000 3.5899
# 5 -10.7330 -2.0425 3.9549 0.0000 18.2055 0.0000
# 6 0.0000 0.0000 0.0000 3.5899 0.0000 30.2399
#
#
#
# Elastic Compliance Matrix: (Units=1/GPa)
#
#
# Indices 1 2 3 4 5 6 
#
# 1 0.018119 -0.000734 -0.008885 0.000000 0.012530 0.000000
# 2 -0.000734 0.020873 -0.006097 0.000000 0.003234 0.000000
# 3 -0.008885 -0.006097 0.017456 0.000000 -0.009714 0.000000
# 4 0.000000 0.000000 0.000000 0.036589 0.000000 -0.004344
# 5 0.012530 0.003234 -0.009714 0.000000 0.064789 0.000000
# 6 0.000000 0.000000 0.000000 -0.004344 0.000000 0.033585
#
#
# Mechanical properties :
#
#
# Convention : Reuss Voigt Hill
#
# Bulk Modulus (GPa) = 39.97319 45.27319 42.62319
# Shear Modulus (GPa) = 21.62807 24.87809 23.25308
#
# Velocity S-wave (km/s) = 3.41065 3.65795 3.53646
# Velocity P-wave (km/s) = 6.08354 6.49544 6.29286
#
# Compressibility (1/GPa) = 0.02501676
#
# Stress axis : x y z
#
# Youngs Moduli (GPa) = 55.19044 47.90863 57.28643
#
# Poissons Ratio (x) = 0.03515 0.50901
# Poissons Ratio (y) = 0.04049 0.34926
# Poissons Ratio (z) = 0.49039 0.29209
#
# Static dielectric constant tensor:
#      x y z
#    x 3.203490 0.000000 -0.160910 
#    y 0.000000 3.440130 0.000000 
#    z -0.160910 0.000000 3.560070 
# 
# 
# High freq. dielectric constant tensor:
#      x y z
#    x 1.700280 0.000000 -0.010820 
#    y 0.000000 1.734700 0.000000 
#    z -0.010820 0.000000 1.720990 
# 
# From -- ./inp_files/249134.got.cif
#   From: 2010.06.25/outbox.cif.g09.slc.cpg/sg12_125_cif.got.tgz:249134.got - 2010.06.28 00:19:55.
