data_PCOD8095706
_publ_section_title
;
Structure prediction by ZEFSAII (Michael W. Deem and Ramdas Pophale) SiO2 
 PCOD8095706
Probable space group: C 2/M
;
_chemical_formula_sum "Si O2"
_cell_formula_units_Z 48
_cell_length_a 14.919771
_cell_length_b 9.209560
_cell_length_c 20.471766
_cell_angle_alpha 90.000000
_cell_angle_beta 112.669035
_cell_angle_gamma 90.000000
_cell_volume 2595.605950
_symmetry_space_group_name_H-M "C 2/M"
_symmetry_group_IT_number 12
_symmetry_cell_setting 'monoclinic'
loop_
_space_group_symop_operation_xyz
x,y,z
-x,y,-z
-x,-y,-z
x,-y,z
1/2+x,1/2+y,z
1/2-x,1/2+y,-z
1/2-x,1/2-y,-z
1/2+x,1/2-y,z
loop_
_atom_site_type_symbol
_atom_site_label
_atom_site_fract_x
_atom_site_fract_y
_atom_site_fract_z
Si Si1 0.109791 0.167715 0.436674
Si Si2 0.354452 0.328298 0.170939
Si Si3 0.041609 0.328176 0.910212
Si Si4 0.646528 0.171799 0.068147
Si Si5 0.693178 0.830379 0.578326
Si Si6 0.896955 0.169376 0.330357
O O1 0.195539 0.202807 0.409708
O O2 0.120376 0.262455 0.504748
O O3 0.009015 0.209391 0.374431
O O4 0.112798 0.000000 0.459030
O O5 0.361780 0.500000 0.163458
O O6 0.437229 0.253374 0.151088
O O7 0.250278 0.264925 0.118826
O O8 0.371475 0.283026 0.250136
O O9 0.045462 0.500000 0.899848
O O10 0.935400 0.275884 0.903862
O O11 0.119759 0.278593 0.987187
O O12 0.648417 0.000000 0.070822
O O13 0.674240 0.758389 0.642787
O O14 0.671570 0.000000 0.576486
O O15 0.877252 0.000000 0.336363
#
# Coordination Sequence:
#
# PCOD8095706 Si02
#       6
#     8   8   8   8   8   8
#     4   9  19  36  54  72  98 130 160 195 245 295
#     4  10  20  33  49  72 101 131 163 199 240 288
#     4   9  17  32  53  73  95 128 166 202 243 287
#     4   8  16  32  52  72  97 129 163 200 244 291
#     4  10  20  34  54  77  97 122 163 208 240 277
#     4  10  21  35  50  70 101 137 162 189 242 300
#
# _framework density 18.492792000000001
#
# number of rings (size 3 to 8) (size 9 to 14) (size 15 to 20)
#    0.000    2.667    0.000    2.500    0.000    5.333 
#    0.000    2.500    0.000    0.000    0.000    0.000 
#    0.000    0.000    0.000    0.000    0.000    0.000 
#
# Total GULP energy -297633.569559 kJ/mol
# GULP energy per Si atom -12401.398732 kJ/mol
# Density = 1.845070 g / cm^3
# Si number density = 18.492792 Si / 1000 Ang^3
#
#
#
# Elastic Constant Matrix: (Units=GPa)
#
#
# Indices 1 2 3 4 5 6 
#
# 1 80.7012 32.4271 46.8221 0.0000 -20.6537 0.0000
# 2 32.4271 47.1021 39.7149 0.0000 -17.2150 0.0000
# 3 46.8221 39.7149 103.2763 0.0000 -26.3826 0.0000
# 4 0.0000 0.0000 0.0000 25.9132 0.0000 -9.4821
# 5 -20.6537 -17.2150 -26.3826 0.0000 32.3325 0.0000
# 6 0.0000 0.0000 0.0000 -9.4821 0.0000 29.4708
#
#
#
# Elastic Compliance Matrix: (Units=1/GPa)
#
#
# Indices 1 2 3 4 5 6 
#
# 1 0.019348 -0.007784 -0.004649 0.000000 0.004421 0.000000
# 2 -0.007784 0.036603 -0.008639 0.000000 0.007467 0.000000
# 3 -0.004649 -0.008639 0.016649 0.000000 0.006016 0.000000
# 4 0.000000 0.000000 0.000000 0.043740 0.000000 0.014073
# 5 0.004421 0.007467 0.006016 0.000000 0.042638 0.000000
# 6 0.000000 0.000000 0.000000 0.014073 0.000000 0.038460
#
#
# Mechanical properties :
#
#
# Convention : Reuss Voigt Hill
#
# Bulk Modulus (GPa) = 32.83450 52.11200 42.47325
# Shear Modulus (GPa) = 20.02134 25.01767 22.51951
#
# Velocity S-wave (km/s) = 3.29394 3.68208 3.49341
# Velocity P-wave (km/s) = 5.67984 6.80571 6.26811
#
# Compressibility (1/GPa) = 0.03045577
#
# Stress axis : x y z
#
# Youngs Moduli (GPa) = 51.68491 27.32051 60.06233
#
# Poissons Ratio (x) = 0.21267 0.27922
# Poissons Ratio (y) = 0.40233 0.51887
# Poissons Ratio (z) = 0.24028 0.23602
#
# Static dielectric constant tensor:
#      x y z
#    x 3.589050 0.000000 0.107590 
#    y 0.000000 3.146800 0.000000 
#    z 0.107590 0.000000 3.437110 
# 
# 
# High freq. dielectric constant tensor:
#      x y z
#    x 1.728150 0.000000 -0.003380 
#    y 0.000000 1.695600 0.000000 
#    z -0.003380 0.000000 1.713900 
# 
# From -- ./inp_files/308285.got.cif
#   From: 2010.06.25/outbox.cif.g09.slc.cpg/sg12_155_cif.got.tgz:308285.got - 2010.06.28 00:19:55.
