data_PCOD8095395
_publ_section_title
;
Structure prediction by ZEFSAII (Michael W. Deem and Ramdas Pophale) SiO2 
 PCOD8095395
Probable space group: C 2/M
;
_chemical_formula_sum "Si O2"
_cell_formula_units_Z 64
_cell_length_a 15.374613
_cell_length_b 9.296054
_cell_length_c 26.772171
_cell_angle_alpha 90.000000
_cell_angle_beta 64.531847
_cell_angle_gamma 90.000000
_cell_volume 3454.536034
_symmetry_space_group_name_H-M "C 2/M"
_symmetry_group_IT_number 12
_symmetry_cell_setting 'monoclinic'
loop_
_space_group_symop_operation_xyz
x,y,z
-x,y,-z
-x,-y,-z
x,-y,z
1/2+x,1/2+y,z
1/2-x,1/2+y,-z
1/2-x,1/2-y,-z
1/2+x,1/2-y,z
loop_
_atom_site_type_symbol
_atom_site_label
_atom_site_fract_x
_atom_site_fract_y
_atom_site_fract_z
Si Si1 0.511670 0.342474 0.555472
Si Si2 0.196849 0.168113 0.939958
Si Si3 0.810364 0.329524 0.255093
Si Si4 0.597781 0.336166 0.323398
Si Si5 0.416245 0.168907 0.326666
Si Si6 0.324564 0.836384 0.449201
Si Si7 0.111122 0.334211 0.051499
Si Si8 0.607462 0.831590 0.871040
O O1 0.500000 0.331602 0.500000
O O2 0.559424 0.500000 0.555677
O O3 0.414834 0.330855 0.612854
O O4 0.571768 0.204128 0.555580
O O5 0.309569 0.195306 0.924972
O O6 0.171451 0.244451 0.894556
O O7 0.173657 0.000000 0.941355
O O8 0.129806 0.233915 0.999508
O O9 0.805162 0.500000 0.261430
O O10 0.701771 0.267185 0.285161
O O11 0.876274 0.271040 0.284053
O O12 0.858390 0.280223 0.191693
O O13 0.592665 0.500000 0.305353
O O14 0.514632 0.250447 0.315148
O O15 0.330750 0.198136 0.388451
O O16 0.440773 0.000000 0.319033
O O17 0.250000 0.750000 0.500000
O O18 0.300070 0.000000 0.465247
O O19 0.116883 0.500000 0.032432
O O20 0.005769 0.295389 0.097919
O O21 0.626439 0.000000 0.875147
#
# Coordination Sequence:
#
# PCOD8095395 Si02
#       8
#     8   8   8   8   8   8   8   8
#     4   9  18  31  51  75  99 130 167 206 259 320
#     4  10  20  34  54  81 110 139 174 218 266 307
#     4   9  19  35  56  77  99 139 182 215 255 312
#     4   9  18  34  54  75 102 132 170 216 261 310
#     4   9  19  36  56  75 101 136 176 216 259 314
#     4  10  20  32  50  75 103 131 166 212 263 317
#     4   9  19  35  54  77 108 145 177 210 257 313
#     4  10  20  35  54  77 105 139 181 217 255 310
#
# _framework density 18.526365999999999
#
# number of rings (size 3 to 8) (size 9 to 14) (size 15 to 20)
#    0.000    2.625    0.000    1.125    1.750    4.250 
#    0.000    3.125    0.000    0.000    0.000    0.000 
#    0.000    0.000    0.000    0.000    0.000    0.000 
#
# Total GULP energy -396585.494162 kJ/mol
# GULP energy per Si atom -12393.296693 kJ/mol
# Density = 1.848420 g / cm^3
# Si number density = 18.526366 Si / 1000 Ang^3
#
#
#
# Elastic Constant Matrix: (Units=GPa)
#
#
# Indices 1 2 3 4 5 6 
#
# 1 120.2886 47.4196 86.3899 0.0000 8.2984 0.0000
# 2 47.4196 59.5537 55.6600 0.0000 8.5405 0.0000
# 3 86.3899 55.6600 152.2311 0.0000 8.6517 0.0000
# 4 0.0000 0.0000 0.0000 20.5383 0.0000 4.9985
# 5 8.2984 8.5405 8.6517 0.0000 30.4875 0.0000
# 6 0.0000 0.0000 0.0000 4.9985 0.0000 20.5282
#
#
#
# Elastic Compliance Matrix: (Units=1/GPa)
#
#
# Indices 1 2 3 4 5 6 
#
# 1 0.015428 -0.006143 -0.006473 0.000000 -0.000642 0.000000
# 2 -0.006143 0.028597 -0.006718 0.000000 -0.004433 0.000000
# 3 -0.006473 -0.006718 0.012696 0.000000 0.000041 0.000000
# 4 0.000000 0.000000 0.000000 0.051757 0.000000 -0.012603
# 5 -0.000642 -0.004433 0.000041 0.000000 0.034205 0.000000
# 6 0.000000 0.000000 0.000000 -0.012603 0.000000 0.051782
#
#
# Mechanical properties :
#
#
# Convention : Reuss Voigt Hill
#
# Bulk Modulus (GPa) = 55.38925 79.00138 67.19531
# Shear Modulus (GPa) = 20.90734 23.81772 22.36253
#
# Velocity S-wave (km/s) = 3.36299 3.58943 3.47805
# Velocity P-wave (km/s) = 6.71133 7.74041 7.24417
#
# Compressibility (1/GPa) = 0.01805404
#
# Stress axis : x y z
#
# Youngs Moduli (GPa) = 64.81789 34.96838 78.76423
#
# Poissons Ratio (x) = 0.21481 0.50982
# Poissons Ratio (y) = 0.39817 0.52914
# Poissons Ratio (z) = 0.41955 0.23492
#
# Static dielectric constant tensor:
#      x y z
#    x 2.934170 0.000000 -0.185700 
#    y 0.000000 3.364730 0.000000 
#    z -0.185700 0.000000 3.851190 
# 
# 
# High freq. dielectric constant tensor:
#      x y z
#    x 1.713580 0.000000 -0.001380 
#    y 0.000000 1.705420 0.000000 
#    z -0.001380 0.000000 1.724600 
# 
# From -- ./inp_files/375014.got.cif
#   From: 2010.06.25/outbox.cif.g09.slc.cpg/sg12_188_cif.got.tgz:375014.got - 2010.06.28 00:19:55.
