data_PCOD8095479
_publ_section_title
;
Structure prediction by ZEFSAII (Michael W. Deem and Ramdas Pophale) SiO2 
 PCOD8095479
Probable space group: C 2/M
;
_chemical_formula_sum "Si O2"
_cell_formula_units_Z 64
_cell_length_a 31.135490
_cell_length_b 14.138143
_cell_length_c 19.238901
_cell_angle_alpha 90.000000
_cell_angle_beta 26.354328
_cell_angle_gamma 90.000000
_cell_volume 3759.534427
_symmetry_space_group_name_H-M "C 2/M"
_symmetry_group_IT_number 12
_symmetry_cell_setting 'monoclinic'
loop_
_space_group_symop_operation_xyz
x,y,z
-x,y,-z
-x,-y,-z
x,-y,z
1/2+x,1/2+y,z
1/2-x,1/2+y,-z
1/2-x,1/2-y,-z
1/2+x,1/2-y,z
loop_
_atom_site_type_symbol
_atom_site_label
_atom_site_fract_x
_atom_site_fract_y
_atom_site_fract_z
Si Si1 0.202554 0.107546 0.425353
Si Si2 0.381145 0.608402 0.304146
Si Si3 0.752835 0.392304 0.623917
Si Si4 0.083068 0.610849 0.934563
Si Si5 0.928756 0.726352 0.404237
Si Si6 0.717036 0.394491 0.834722
Si Si7 0.947939 0.240002 0.902638
Si Si8 0.438347 0.108843 0.523273
O O1 0.188191 0.119147 0.528726
O O2 0.312010 0.138506 0.248867
O O3 0.123624 0.173760 0.500890
O O4 0.182825 0.000000 0.429974
O O5 0.413892 0.500000 0.246374
O O6 0.323447 0.646656 0.321048
O O7 0.476660 0.670599 0.169788
O O8 0.779400 0.500000 0.568445
O O9 0.851382 0.334960 0.473626
O O10 0.708539 0.380538 0.764389
O O11 0.077937 0.500000 0.959836
O O12 0.066850 0.666791 0.029708
O O13 0.000000 0.638470 0.000000
O O14 0.967470 0.675879 0.417210
O O15 0.020124 0.735218 0.221506
O O16 0.682523 0.500000 0.905381
O O17 0.825714 0.378179 0.703776
O O18 0.651615 0.315891 0.965325
O O19 0.500000 0.141154 0.500000
O O20 0.460278 0.000000 0.470977
#
# Coordination Sequence:
#
# PCOD8095479 Si02
#       8
#     8   8   8   8   8   8   8   8
#     4   9  19  35  49  63  94 137 179 209 235 282
#     4   9  19  32  48  70  95 131 174 215 252 286
#     4   9  18  31  48  69  96 131 171 217 255 285
#     4  10  22  33  42  61  92 137 180 209 239 275
#     4  10  20  32  52  77  98 126 165 204 253 293
#     4   9  18  33  51  75 103 128 158 202 254 303
#     4  11  22  30  48  72 103 134 165 203 249 288
#     4   9  18  36  62  84  99 120 152 196 254 314
#
# _framework density 17.023384
#
# number of rings (size 3 to 8) (size 9 to 14) (size 15 to 20)
#    0.000    2.500    0.000    3.000    5.250    2.500 
#    0.000    2.500    0.000    0.375    0.000    0.000 
#    0.000    0.000    0.000    0.000    0.000    0.000 
#
# Total GULP energy -396814.935660 kJ/mol
# GULP energy per Si atom -12400.466739 kJ/mol
# Density = 1.698464 g / cm^3
# Si number density = 17.023384 Si / 1000 Ang^3
#
#
#
# Elastic Constant Matrix: (Units=GPa)
#
#
# Indices 1 2 3 4 5 6 
#
# 1 115.7291 47.6257 43.4474 0.0000 -3.9333 0.0000
# 2 47.6257 83.7777 50.9963 0.0000 2.9785 0.0000
# 3 43.4474 50.9963 102.9496 0.0000 3.9170 0.0000
# 4 0.0000 0.0000 0.0000 27.9477 0.0000 -2.6153
# 5 -3.9333 2.9785 3.9170 0.0000 7.7301 0.0000
# 6 0.0000 0.0000 0.0000 -2.6153 0.0000 19.8191
#
#
#
# Elastic Compliance Matrix: (Units=1/GPa)
#
#
# Indices 1 2 3 4 5 6 
#
# 1 0.012360 -0.005689 -0.002774 0.000000 0.009887 0.000000
# 2 -0.005689 0.019749 -0.007120 0.000000 -0.006897 0.000000
# 3 -0.002774 -0.007120 0.014643 0.000000 -0.006088 0.000000
# 4 0.000000 0.000000 0.000000 0.036229 0.000000 0.004781
# 5 0.009887 -0.006897 -0.006088 0.000000 0.140138 0.000000
# 6 0.000000 0.000000 0.000000 0.004781 0.000000 0.051087
#
#
# Mechanical properties :
#
#
# Convention : Reuss Voigt Hill
#
# Bulk Modulus (GPa) = 64.15987 65.17723 64.66855
# Shear Modulus (GPa) = 16.09963 21.79183 18.94573
#
# Velocity S-wave (km/s) = 3.07862 3.58175 3.33967
# Velocity P-wave (km/s) = 7.09988 7.44817 7.27611
#
# Compressibility (1/GPa) = 0.01558607
#
# Stress axis : x y z
#
# Youngs Moduli (GPa) = 80.90907 50.63456 68.29386
#
# Poissons Ratio (x) = 0.28806 0.18946
# Poissons Ratio (y) = 0.46029 0.48622
# Poissons Ratio (z) = 0.22446 0.36050
#
# Static dielectric constant tensor:
#      x y z
#    x 2.899640 0.000000 -0.033530 
#    y 0.000000 3.396760 0.000000 
#    z -0.033530 0.000000 3.139930 
# 
# 
# High freq. dielectric constant tensor:
#      x y z
#    x 1.619430 0.000000 -0.001590 
#    y 0.000000 1.671100 0.000000 
#    z -0.001590 0.000000 1.655200 
# 
# From -- ./inp_files/296677.got.cif
#   From: 2010.06.25/outbox.cif.g09.slc.cpg/sg12_149_cif.got.tgz:296677.got - 2010.06.28 00:19:55.
