data_PCOD8095023
_publ_section_title
;
Structure prediction by ZEFSAII (Michael W. Deem and Ramdas Pophale) SiO2 
 PCOD8095023
Probable space group: C 2/M
;
_chemical_formula_sum "Si O2"
_cell_formula_units_Z 64
_cell_length_a 28.360449
_cell_length_b 8.856018
_cell_length_c 16.485713
_cell_angle_alpha 90.000000
_cell_angle_beta 65.237135
_cell_angle_gamma 90.000000
_cell_volume 3759.834099
_symmetry_space_group_name_H-M "C 2/M"
_symmetry_group_IT_number 12
_symmetry_cell_setting 'monoclinic'
loop_
_space_group_symop_operation_xyz
x,y,z
-x,y,-z
-x,-y,-z
x,-y,z
1/2+x,1/2+y,z
1/2-x,1/2+y,-z
1/2-x,1/2-y,-z
1/2+x,1/2-y,z
loop_
_atom_site_type_symbol
_atom_site_label
_atom_site_fract_x
_atom_site_fract_y
_atom_site_fract_z
Si Si1 0.344508 0.831630 0.631568
Si Si2 0.275914 0.325135 0.272036
Si Si3 0.498241 0.325786 0.593856
Si Si4 0.722447 0.822879 0.899726
Si Si5 0.885712 0.171509 0.456079
Si Si6 0.904208 0.672083 0.749022
Si Si7 0.672867 0.323155 0.084910
Si Si8 0.798778 0.677967 0.418439
O O1 0.284168 0.799673 0.666523
O O2 0.374881 0.707144 0.558108
O O3 0.360226 0.813930 0.712820
O O4 0.358002 0.000000 0.589963
O O5 0.291618 0.500000 0.261025
O O6 0.291218 0.255895 0.174946
O O7 0.305802 0.239784 0.322425
O O8 0.500000 0.262561 0.500000
O O9 0.480906 0.500000 0.603548
O O10 0.552985 0.305370 0.600414
O O11 0.458411 0.233167 0.676965
O O12 0.780640 0.781309 0.886589
O O13 0.715466 0.000000 0.893948
O O14 0.681217 0.763185 0.994681
O O15 0.852550 0.283984 0.424694
O O16 0.869114 0.000000 0.449303
O O17 0.912118 0.500000 0.771314
O O18 0.882461 0.769232 0.839773
O O19 0.671206 0.500000 0.068521
O O20 0.790256 0.500000 0.423443
O O21 0.750000 0.750000 0.500000
#
# Coordination Sequence:
#
# PCOD8095023 Si02
#       8
#     8   8   8   8   8   8   8   8
#     4  10  20  31  48  73 105 140 175 216 257 305
#     4  11  21  35  53  76 106 140 178 214 260 313
#     4  10  21  36  52  75 104 138 177 217 261 312
#     4  10  20  33  51  76 106 139 175 215 261 311
#     4  11  22  36  54  73 102 139 178 220 262 307
#     4  11  21  33  51  76 105 140 179 217 260 310
#     4  10  20  33  51  74 105 141 175 215 261 312
#     4  12  24  37  53  75 104 137 178 219 262 310
#
# _framework density 17.022027000000001
#
# number of rings (size 3 to 8) (size 9 to 14) (size 15 to 20)
#    0.000    1.375    3.750    3.000    0.000    3.250 
#    0.000    0.000    0.000    0.000    0.000    0.875 
#    0.000    7.000    0.000    0.000    0.000    0.000 
#
# Total GULP energy -396889.567722 kJ/mol
# GULP energy per Si atom -12402.798991 kJ/mol
# Density = 1.698328 g / cm^3
# Si number density = 17.022027 Si / 1000 Ang^3
#
#
#
# Elastic Constant Matrix: (Units=GPa)
#
#
# Indices 1 2 3 4 5 6 
#
# 1 56.1517 33.7530 28.3089 0.0000 -1.0846 0.0000
# 2 33.7530 98.9076 51.0345 0.0000 -2.6783 0.0000
# 3 28.3089 51.0345 104.5541 0.0000 -2.4417 0.0000
# 4 0.0000 0.0000 0.0000 34.5272 0.0000 0.8441
# 5 -1.0846 -2.6783 -2.4417 0.0000 21.2554 0.0000
# 6 0.0000 0.0000 0.0000 0.8441 0.0000 25.4512
#
#
#
# Elastic Compliance Matrix: (Units=1/GPa)
#
#
# Indices 1 2 3 4 5 6 
#
# 1 0.023193 -0.006248 -0.003229 0.000000 0.000025 0.000000
# 2 -0.006248 0.015216 -0.005714 0.000000 0.000942 0.000000
# 3 -0.003229 -0.005714 0.013243 0.000000 0.000636 0.000000
# 4 0.000000 0.000000 0.000000 0.028986 0.000000 -0.000961
# 5 0.000025 0.000942 0.000636 0.000000 0.047240 0.000000
# 6 0.000000 0.000000 0.000000 -0.000961 0.000000 0.039323
#
#
# Mechanical properties :
#
#
# Convention : Reuss Voigt Hill
#
# Bulk Modulus (GPa) = 47.01433 53.97845 50.49639
# Shear Modulus (GPa) = 24.42923 26.01454 25.22189
#
# Velocity S-wave (km/s) = 3.79245 3.91357 3.85349
# Velocity P-wave (km/s) = 6.84519 7.22504 7.03768
#
# Compressibility (1/GPa) = 0.02127011
#
# Stress axis : x y z
#
# Youngs Moduli (GPa) = 43.11622 65.71943 75.51380
#
# Poissons Ratio (x) = 0.41060 0.24387
# Poissons Ratio (y) = 0.26938 0.43146
# Poissons Ratio (z) = 0.13924 0.37550
#
# Static dielectric constant tensor:
#      x y z
#    x 3.013740 0.000000 0.070390 
#    y 0.000000 3.305010 0.000000 
#    z 0.070390 0.000000 3.137860 
# 
# 
# High freq. dielectric constant tensor:
#      x y z
#    x 1.628810 0.000000 0.000900 
#    y 0.000000 1.672240 0.000000 
#    z 0.000900 0.000000 1.647460 
# 
# From -- ./inp_files/248988.got.cif
#   From: 2010.06.25/outbox.cif.g09.slc.cpg/sg12_125_cif.got.tgz:248988.got - 2010.06.28 00:19:55.
