data_PCOD8095560
_publ_section_title
;
Structure prediction by ZEFSAII (Michael W. Deem and Ramdas Pophale) SiO2 
 PCOD8095560
Probable space group: C 2/M
;
_chemical_formula_sum "Si O2"
_cell_formula_units_Z 44
_cell_length_a 24.894711
_cell_length_b 9.001972
_cell_length_c 28.488666
_cell_angle_alpha 90.000000
_cell_angle_beta 159.935818
_cell_angle_gamma 90.000000
_cell_volume 2190.296170
_symmetry_space_group_name_H-M "C 2/M"
_symmetry_group_IT_number 12
_symmetry_cell_setting 'monoclinic'
loop_
_space_group_symop_operation_xyz
x,y,z
-x,y,-z
-x,-y,-z
x,-y,z
1/2+x,1/2+y,z
1/2-x,1/2+y,-z
1/2-x,1/2-y,-z
1/2+x,1/2-y,z
loop_
_atom_site_type_symbol
_atom_site_label
_atom_site_fract_x
_atom_site_fract_y
_atom_site_fract_z
Si Si1 0.980183 0.670932 0.390088
Si Si2 0.680591 0.671897 0.305608
Si Si3 0.767051 0.835636 0.283552
Si Si4 0.865139 0.675583 0.057943
Si Si5 0.271101 0.664036 0.888711
Si Si6 0.500000 0.753087 0.000000
O O1 0.942801 0.500000 0.372378
O O2 0.165918 0.695882 0.536089
O O3 0.921417 0.772057 0.384881
O O4 0.893255 0.713155 0.270184
O O5 0.630089 0.500000 0.262078
O O6 0.716640 0.724036 0.282744
O O7 0.539750 0.766418 0.212098
O O8 0.625059 0.853464 0.130159
O O9 0.804280 0.000000 0.333986
O O10 0.861206 0.500000 0.060477
O O11 0.750000 0.750000 0.000000
O O12 0.813995 0.716599 0.963259
O O13 0.255246 0.500000 0.898505
O O14 0.405045 0.652541 0.959012
#
# Coordination Sequence:
#
# PCOD8095560 Si02
#       6
#     8   8   8   8   8   4
#     4   9  21  38  58  87 124 162 199 242 300 365
#     4  11  22  39  61  86 120 160 202 249 301 358
#     4  11  21  32  52  85 126 165 203 245 296 358
#     4  12  26  44  66  91 119 156 206 256 303 357
#     4  10  20  38  63  91 123 160 202 247 301 361
#     4  10  20  32  56  88 130 162 200 244 302 358
#
# _framework density 20.088607
#
# number of rings (size 3 to 8) (size 9 to 14) (size 15 to 20)
#    0.000    1.455    1.818    3.818    0.000    8.000 
#    0.000    0.909    0.000    0.000    0.000    0.000 
#    0.000    0.000    0.000    0.000    0.000    0.000 
#
# Total GULP energy -272810.846005 kJ/mol
# GULP energy per Si atom -12400.493000 kJ/mol
# Density = 2.004288 g / cm^3
# Si number density = 20.088607 Si / 1000 Ang^3
#
#
#
# Elastic Constant Matrix: (Units=GPa)
#
#
# Indices 1 2 3 4 5 6 
#
# 1 76.4096 36.8171 54.0632 0.0019 10.4277 0.0028
# 2 36.8171 137.5451 54.2778 0.0090 9.7441 -0.0030
# 3 54.0632 54.2778 148.4831 0.0811 10.0718 -0.0059
# 4 0.0019 0.0090 0.0811 25.0719 -0.0119 5.9378
# 5 10.4277 9.7441 10.0718 -0.0119 24.0107 -0.0010
# 6 0.0028 -0.0030 -0.0059 5.9378 -0.0010 23.4262
#
#
#
# Elastic Compliance Matrix: (Units=1/GPa)
#
#
# Indices 1 2 3 4 5 6 
#
# 1 0.018957 -0.002497 -0.005661 0.000018 -0.004845 -0.000009
# 2 -0.002497 0.008940 -0.002250 0.000004 -0.001600 0.000000
# 3 -0.005661 -0.002250 0.009665 -0.000033 -0.000682 0.000011
# 4 0.000018 0.000004 -0.000033 0.042433 0.000025 -0.010755
# 5 -0.004845 -0.001600 -0.000682 0.000025 0.044688 -0.000004
# 6 -0.000009 0.000000 0.000011 -0.010755 -0.000004 0.045413
#
#
# Mechanical properties :
#
#
# Convention : Reuss Voigt Hill
#
# Bulk Modulus (GPa) = 59.71820 72.52821 66.12320
# Shear Modulus (GPa) = 25.44603 28.98707 27.21655
#
# Velocity S-wave (km/s) = 3.56292 3.80275 3.68479
# Velocity P-wave (km/s) = 6.83504 7.44740 7.14778
#
# Compressibility (1/GPa) = 0.01674531
#
# Stress axis : x y z
#
# Youngs Moduli (GPa) = 52.75060 111.85544 103.46807
#
# Poissons Ratio (x) = 0.27932 0.58572
# Poissons Ratio (y) = 0.13173 0.23283
# Poissons Ratio (z) = 0.29861 0.25171
#
# Static dielectric constant tensor:
#      x y z
#    x 3.381210 0.000010 -0.121020 
#    y 0.000010 3.554200 -0.000050 
#    z -0.121020 -0.000050 4.129930 
# 
# 
# High freq. dielectric constant tensor:
#      x y z
#    x 1.747530 0.000000 -0.008070 
#    y 0.000000 1.786870 0.000000 
#    z -0.008070 0.000000 1.803320 
# 
# From -- ./inp_files/382590.got.cif
#   From: 2010.06.25/outbox.cif.g09.slc.cpg/sg12_192_cif.got.tgz:382590.got - 2010.06.28 00:19:55.
