data_PCOD8095022
_publ_section_title
;
Structure prediction by ZEFSAII (Michael W. Deem and Ramdas Pophale) SiO2 
 PCOD8095022
Probable space group: C 2/M
;
_chemical_formula_sum "Si O2"
_cell_formula_units_Z 64
_cell_length_a 24.833007
_cell_length_b 9.308670
_cell_length_c 16.375984
_cell_angle_alpha 90.000000
_cell_angle_beta 74.250561
_cell_angle_gamma 90.000000
_cell_volume 3643.393589
_symmetry_space_group_name_H-M "C 2/M"
_symmetry_group_IT_number 12
_symmetry_cell_setting 'monoclinic'
loop_
_space_group_symop_operation_xyz
x,y,z
-x,y,-z
-x,-y,-z
x,-y,z
1/2+x,1/2+y,z
1/2-x,1/2+y,-z
1/2-x,1/2-y,-z
1/2+x,1/2-y,z
loop_
_atom_site_type_symbol
_atom_site_label
_atom_site_fract_x
_atom_site_fract_y
_atom_site_fract_z
Si Si1 0.721790 0.831534 0.816980
Si Si2 0.448372 0.330744 0.344394
Si Si3 0.562321 0.167174 0.318912
Si Si4 0.873981 0.166506 0.223514
Si Si5 0.174760 0.664988 0.180870
Si Si6 0.566246 0.657616 0.471780
Si Si7 0.937765 0.166184 0.032660
Si Si8 0.156105 0.334376 0.005810
O O1 0.681825 0.760490 0.765363
O O2 0.783522 0.764287 0.783997
O O3 0.724798 0.000000 0.798660
O O4 0.699720 0.794046 0.916791
O O5 0.462273 0.500000 0.332820
O O6 0.506865 0.247153 0.310461
O O7 0.405468 0.282114 0.292070
O O8 0.417325 0.293630 0.443012
O O9 0.610932 0.193872 0.233124
O O10 0.585105 0.227776 0.396313
O O11 0.548457 0.000000 0.335866
O O12 0.916412 0.195739 0.132392
O O13 0.856452 0.000000 0.235460
O O14 0.191253 0.500000 0.190358
O O15 0.182138 0.704592 0.082571
O O16 0.500000 0.645259 0.500000
O O17 0.591945 0.500000 0.440826
O O18 0.936239 0.000000 0.009948
O O19 0.900512 0.245687 0.981242
O O20 0.000000 0.228624 0.000000
O O21 0.139228 0.500000 0.008177
#
# Coordination Sequence:
#
# PCOD8095022 Si02
#       8
#     8   8   8   8   8   8   8   8
#     4  10  20  34  52  73  94 124 169 210 244 282
#     4   9  18  32  52  75  99 131 165 194 234 292
#     4  10  20  31  47  75 104 129 158 196 246 292
#     4   9  18  33  51  70  97 131 162 197 241 288
#     4  10  21  35  50  70  99 131 163 202 247 293
#     4   8  15  30  49  70  98 129 160 194 236 289
#     4   9  18  30  45  69  99 129 161 197 237 283
#     4   9  19  34  49  68  94 127 166 203 242 286
#
# _framework density 17.566040999999998
#
# number of rings (size 3 to 8) (size 9 to 14) (size 15 to 20)
#    0.000    2.750    0.000    1.875    1.750    5.000 
#    0.000    0.000    0.000    0.750    0.000    0.000 
#    0.000    0.000    0.000    0.000    0.000    0.000 
#
# Total GULP energy -396767.595623 kJ/mol
# GULP energy per Si atom -12398.987363 kJ/mol
# Density = 1.752606 g / cm^3
# Si number density = 17.566041 Si / 1000 Ang^3
#
#
#
# Elastic Constant Matrix: (Units=GPa)
#
#
# Indices 1 2 3 4 5 6 
#
# 1 93.1594 53.2116 35.1551 0.0000 21.7246 0.0000
# 2 53.2116 76.3641 35.3411 0.0000 12.0024 0.0000
# 3 35.1551 35.3411 73.1320 0.0000 22.3340 0.0000
# 4 0.0000 0.0000 0.0000 24.1656 0.0000 1.8838
# 5 21.7246 12.0024 22.3340 0.0000 23.3307 0.0000
# 6 0.0000 0.0000 0.0000 1.8838 0.0000 30.5188
#
#
#
# Elastic Compliance Matrix: (Units=1/GPa)
#
#
# Indices 1 2 3 4 5 6 
#
# 1 0.020940 -0.012528 -0.000036 0.000000 -0.013019 0.000000
# 2 -0.012528 0.024389 -0.007764 0.000000 0.006552 0.000000
# 3 -0.000036 -0.007764 0.022911 0.000000 -0.017905 0.000000
# 4 0.000000 0.000000 0.000000 0.041581 0.000000 -0.002567
# 5 -0.013019 0.006552 -0.017905 0.000000 0.068754 0.000000
# 6 0.000000 0.000000 0.000000 -0.002567 0.000000 0.032925
#
#
# Mechanical properties :
#
#
# Convention : Reuss Voigt Hill
#
# Bulk Modulus (GPa) = 36.25414 54.45232 45.35323
# Shear Modulus (GPa) = 19.13134 23.53286 21.33210
#
# Velocity S-wave (km/s) = 3.30375 3.66413 3.48860
# Velocity P-wave (km/s) = 5.93604 6.99765 6.48859
#
# Compressibility (1/GPa) = 0.02758306
#
# Stress axis : x y z
#
# Youngs Moduli (GPa) = 47.75584 41.00267 43.64685
#
# Poissons Ratio (x) = 0.51370 0.00156
# Poissons Ratio (y) = 0.59831 0.33888
# Poissons Ratio (z) = 0.00170 0.31835
#
# Static dielectric constant tensor:
#      x y z
#    x 3.109150 0.000000 0.174670 
#    y 0.000000 3.261440 0.000000 
#    z 0.174670 0.000000 3.487410 
# 
# 
# High freq. dielectric constant tensor:
#      x y z
#    x 1.662280 0.000000 0.010900 
#    y 0.000000 1.679280 0.000000 
#    z 0.010900 0.000000 1.669030 
# 
# From -- ./inp_files/243911.got.cif
#   From: 2010.06.25/outbox.cif.g09.slc.cpg/sg12_122_cif.got.tgz:243911.got - 2010.06.28 00:19:55.
