data_PCOD8095227
_publ_section_title
;
Structure prediction by ZEFSAII (Michael W. Deem and Ramdas Pophale) SiO2 
 PCOD8095227
Probable space group: C 2/M
;
_chemical_formula_sum "Si O2"
_cell_formula_units_Z 64
_cell_length_a 25.021232
_cell_length_b 8.896761
_cell_length_c 16.663995
_cell_angle_alpha 90.000000
_cell_angle_beta 104.381987
_cell_angle_gamma 90.000000
_cell_volume 3593.285199
_symmetry_space_group_name_H-M "C 2/M"
_symmetry_group_IT_number 12
_symmetry_cell_setting 'monoclinic'
loop_
_space_group_symop_operation_xyz
x,y,z
-x,y,-z
-x,-y,-z
x,-y,z
1/2+x,1/2+y,z
1/2-x,1/2+y,-z
1/2-x,1/2-y,-z
1/2+x,1/2-y,z
loop_
_atom_site_type_symbol
_atom_site_label
_atom_site_fract_x
_atom_site_fract_y
_atom_site_fract_z
Si Si1 0.808186 0.174975 0.033286
Si Si2 0.410382 0.826758 0.000968
Si Si3 0.973457 0.820712 0.164281
Si Si4 0.183024 0.177299 0.304753
Si Si5 0.303351 0.321922 0.343007
Si Si6 0.583551 0.172497 0.183199
Si Si7 0.692324 0.326869 0.481697
Si Si8 0.869308 0.826365 0.218369
O O1 0.850190 0.255317 0.988831
O O2 0.805891 0.000000 0.010482
O O3 0.750000 0.250000 0.000000
O O4 0.825855 0.201316 0.131407
O O5 0.427134 0.811120 0.915052
O O6 0.409484 0.000000 0.027866
O O7 0.455178 0.738502 0.070295
O O8 0.929161 0.761402 0.214313
O O9 0.033328 0.756426 0.209717
O O10 0.974915 0.000000 0.161549
O O11 0.244142 0.242298 0.314111
O O12 0.141493 0.252822 0.227174
O O13 0.160121 0.215361 0.387283
O O14 0.184557 0.000000 0.289180
O O15 0.293696 0.500000 0.327205
O O16 0.333798 0.287292 0.440616
O O17 0.344235 0.253854 0.290215
O O18 0.584546 0.000000 0.210715
O O19 0.705988 0.500000 0.483772
O O20 0.750000 0.250000 0.500000
O O21 0.878175 0.000000 0.238842
#
# Coordination Sequence:
#
# PCOD8095227 Si02
#       8
#     8   8   8   8   8   8   8   8
#     4  10  20  33  48  70 102 137 168 205 251 294
#     4  10  21  36  52  71  96 130 173 212 248 297
#     4  10  20  36  55  75  99 129 166 212 258 297
#     4  10  20  32  47  76 108 130 161 206 252 296
#     4   9  16  31  54  76 101 134 165 196 242 304
#     4  11  23  36  52  73  98 133 172 211 252 300
#     4   8  15  28  48  72 100 131 161 196 242 296
#     4   8  17  32  51  73  97 127 165 202 241 295
#
# _framework density 17.811
#
# number of rings (size 3 to 8) (size 9 to 14) (size 15 to 20)
#    0.000    2.500    0.000    3.000    1.750    4.000 
#    0.000    3.125    0.000    0.750    0.000    5.250 
#    0.000    0.000    0.000    0.000    0.000    0.000 
#
# Total GULP energy -396522.557294 kJ/mol
# GULP energy per Si atom -12391.329915 kJ/mol
# Density = 1.777046 g / cm^3
# Si number density = 17.811000 Si / 1000 Ang^3
#
#
#
# Elastic Constant Matrix: (Units=GPa)
#
#
# Indices 1 2 3 4 5 6 
#
# 1 88.5561 33.2421 33.4999 0.0000 -12.8602 0.0000
# 2 33.2421 74.9476 28.0978 0.0000 -7.5156 0.0000
# 3 33.4999 28.0978 66.4622 0.0000 -19.8389 0.0000
# 4 0.0000 0.0000 0.0000 19.9190 0.0000 2.0033
# 5 -12.8602 -7.5156 -19.8389 0.0000 23.6792 0.0000
# 6 0.0000 0.0000 0.0000 2.0033 0.0000 28.1949
#
#
#
# Elastic Compliance Matrix: (Units=1/GPa)
#
#
# Indices 1 2 3 4 5 6 
#
# 1 0.015303 -0.004667 -0.004936 0.000000 0.002694 0.000000
# 2 -0.004667 0.017290 -0.005435 0.000000 -0.001600 0.000000
# 3 -0.004936 -0.005435 0.024692 0.000000 0.016281 0.000000
# 4 0.000000 0.000000 0.000000 0.050565 0.000000 -0.003593
# 5 0.002694 -0.001600 0.016281 0.000000 0.056827 0.000000
# 6 0.000000 0.000000 0.000000 -0.003593 0.000000 0.035723
#
#
# Mechanical properties :
#
#
# Convention : Reuss Voigt Hill
#
# Bulk Modulus (GPa) = 36.75294 46.62729 41.69012
# Shear Modulus (GPa) = 20.87306 23.36703 22.12004
#
# Velocity S-wave (km/s) = 3.42704 3.62601 3.52793
# Velocity P-wave (km/s) = 6.02821 6.61561 6.32873
#
# Compressibility (1/GPa) = 0.02720871
#
# Stress axis : x y z
#
# Youngs Moduli (GPa) = 65.34870 57.83847 40.49923
#
# Poissons Ratio (x) = 0.26991 0.19991
# Poissons Ratio (y) = 0.30495 0.22011
# Poissons Ratio (z) = 0.32257 0.31435
#
# Static dielectric constant tensor:
#      x y z
#    x 3.451410 0.000000 -0.340660 
#    y 0.000000 3.114670 0.000000 
#    z -0.340660 0.000000 3.741470 
# 
# 
# High freq. dielectric constant tensor:
#      x y z
#    x 1.676960 0.000000 -0.011790 
#    y 0.000000 1.689800 0.000000 
#    z -0.011790 0.000000 1.682310 
# 
# From -- ./inp_files/244248.got.cif
#   From: 2010.06.25/outbox.cif.g09.slc.cpg/sg12_123_cif.got.tgz:244248.got - 2010.06.28 00:19:55.
