data_PCOD8095925
_publ_section_title
;
Structure prediction by ZEFSAII (Michael W. Deem and Ramdas Pophale) SiO2 
 PCOD8095925
Probable space group: C 2/M
;
_chemical_formula_sum "Si O2"
_cell_formula_units_Z 64
_cell_length_a 25.069560
_cell_length_b 9.202994
_cell_length_c 18.784413
_cell_angle_alpha 90.000000
_cell_angle_beta 48.866513
_cell_angle_gamma 90.000000
_cell_volume 3264.162064
_symmetry_space_group_name_H-M "C 2/M"
_symmetry_group_IT_number 12
_symmetry_cell_setting 'monoclinic'
loop_
_space_group_symop_operation_xyz
x,y,z
-x,y,-z
-x,-y,-z
x,-y,z
1/2+x,1/2+y,z
1/2-x,1/2+y,-z
1/2-x,1/2-y,-z
1/2+x,1/2-y,z
loop_
_atom_site_type_symbol
_atom_site_label
_atom_site_fract_x
_atom_site_fract_y
_atom_site_fract_z
Si Si1 0.795770 0.330004 0.215447
Si Si2 0.387031 0.158867 0.262586
Si Si3 0.075698 0.166481 0.967186
Si Si4 0.575481 0.169521 0.516280
Si Si5 0.185726 0.659538 0.529525
Si Si6 0.050897 0.173861 0.295442
Si Si7 0.651269 0.170172 0.305659
Si Si8 0.019341 0.164109 0.165346
O O1 0.782182 0.500000 0.210764
O O2 0.815896 0.302538 0.280745
O O3 0.862554 0.273744 0.111657
O O4 0.726037 0.238325 0.261051
O O5 0.373643 0.159392 0.357952
O O6 0.449285 0.269085 0.192071
O O7 0.413157 0.000000 0.214831
O O8 0.092117 0.000000 0.930176
O O9 0.077353 0.179295 0.052187
O O10 0.000000 0.213434 0.000000
O O11 0.647669 0.219815 0.492538
O O12 0.513022 0.271282 0.598802
O O13 0.591065 0.192172 0.419277
O O14 0.557809 0.000000 0.548458
O O15 0.215837 0.500000 0.487623
O O16 0.250000 0.750000 0.500000
O O17 0.123053 0.246881 0.260647
O O18 0.043306 0.230806 0.220349
O O19 0.056468 0.000000 0.295882
O O20 0.662317 0.000000 0.280152
O O21 0.999386 0.000000 0.199458
#
# Coordination Sequence:
#
# PCOD8095925 Si02
#       8
#     8   8   8   8   8   8   8   8
#     4  11  23  38  59  90 123 153 192 243 295 348
#     4  10  20  34  55  82 117 153 185 231 289 344
#     4  10  20  37  62  89 119 154 192 234 286 354
#     4  10  21  38  59  84 115 154 201 243 285 346
#     4  10  20  33  50  77 114 153 190 231 281 338
#     4  11  23  39  61  88 118 153 197 249 294 338
#     4  11  24  41  61  84 115 159 203 243 290 347
#     4  10  21  37  59  88 116 148 191 236 284 343
#
# _framework density 19.606871000000002
#
# number of rings (size 3 to 8) (size 9 to 14) (size 15 to 20)
#    0.000    1.625    2.500    2.250    0.000    5.250 
#    0.000    0.625    0.000    0.000    0.000    0.000 
#    0.000    0.000    0.000    0.000    0.000    0.000 
#
# Total GULP energy -396689.510477 kJ/mol
# GULP energy per Si atom -12396.547202 kJ/mol
# Density = 1.956224 g / cm^3
# Si number density = 19.606871 Si / 1000 Ang^3
#
#
#
# Elastic Constant Matrix: (Units=GPa)
#
#
# Indices 1 2 3 4 5 6 
#
# 1 110.2648 49.8677 23.4000 -0.0014 10.0082 0.0005
# 2 49.8677 85.4050 28.4664 -0.0095 -2.3017 0.0064
# 3 23.4000 28.4664 56.4433 -0.0030 7.8837 0.0035
# 4 -0.0014 -0.0095 -0.0030 31.9779 0.0024 -7.0857
# 5 10.0082 -2.3017 7.8837 0.0024 23.4421 -0.0012
# 6 0.0005 0.0064 0.0035 -7.0857 -0.0012 36.2946
#
#
#
# Elastic Compliance Matrix: (Units=1/GPa)
#
#
# Indices 1 2 3 4 5 6 
#
# 1 0.013248 -0.007641 -0.000781 -0.000001 -0.006144 0.000001
# 2 -0.007641 0.018840 -0.007395 0.000004 0.007599 -0.000002
# 3 -0.000781 -0.007395 0.022901 0.000000 -0.008095 -0.000001
# 4 -0.000001 0.000004 0.000000 0.032686 -0.000002 0.006381
# 5 -0.006144 0.007599 -0.008095 -0.000002 0.048750 0.000001
# 6 0.000001 -0.000002 -0.000001 0.006381 0.000001 0.028798
#
#
# Mechanical properties :
#
#
# Convention : Reuss Voigt Hill
#
# Bulk Modulus (GPa) = 42.81699 50.62012 46.71856
# Shear Modulus (GPa) = 24.43301 28.36818 26.40060
#
# Velocity S-wave (km/s) = 3.53391 3.80787 3.67345
# Velocity P-wave (km/s) = 6.20778 6.72360 6.47083
#
# Compressibility (1/GPa) = 0.02335521
#
# Stress axis : x y z
#
# Youngs Moduli (GPa) = 75.48335 53.07817 43.66643
#
# Poissons Ratio (x) = 0.40556 0.03409
# Poissons Ratio (y) = 0.57675 0.32293
# Poissons Ratio (z) = 0.05892 0.39254
#
# Static dielectric constant tensor:
#      x y z
#    x 3.804650 -0.000010 0.316680 
#    y -0.000010 3.585120 0.000010 
#    z 0.316680 0.000010 3.539130 
# 
# 
# High freq. dielectric constant tensor:
#      x y z
#    x 1.773160 0.000000 0.012810 
#    y 0.000000 1.764490 0.000000 
#    z 0.012810 0.000000 1.748690 
# 
# From -- ./inp_files/324201.got.cif
#   From: 2010.06.25/outbox.cif.g09.slc.cpg/sg12_163_cif.got.tgz:324201.got - 2010.06.28 00:19:55.
