data_PCOD8095539
_publ_section_title
;
Structure prediction by ZEFSAII (Michael W. Deem and Ramdas Pophale) SiO2 
 PCOD8095539
Probable space group: C 2/M
;
_chemical_formula_sum "Si O2"
_cell_formula_units_Z 44
_cell_length_a 8.628829
_cell_length_b 21.055822
_cell_length_c 12.495211
_cell_angle_alpha 90.000000
_cell_angle_beta 95.800720
_cell_angle_gamma 90.000000
_cell_volume 2258.593702
_symmetry_space_group_name_H-M "C 2/M"
_symmetry_group_IT_number 12
_symmetry_cell_setting 'monoclinic'
loop_
_space_group_symop_operation_xyz
x,y,z
-x,y,-z
-x,-y,-z
x,-y,z
1/2+x,1/2+y,z
1/2-x,1/2+y,-z
1/2-x,1/2-y,-z
1/2+x,1/2-y,z
loop_
_atom_site_type_symbol
_atom_site_label
_atom_site_fract_x
_atom_site_fract_y
_atom_site_fract_z
Si Si1 0.828744 0.074528 0.503631
Si Si2 0.743052 0.163971 0.091936
Si Si3 0.845253 0.574934 0.726582
Si Si4 0.307419 0.926140 0.289300
Si Si5 0.000000 0.240732 0.000000
Si Si6 0.829817 0.071158 0.937829
O O1 0.722037 0.088834 0.394897
O O2 0.749474 0.105911 0.603777
O O3 0.000000 0.104856 0.500000
O O4 0.848012 0.000000 0.524919
O O5 0.747826 0.120753 0.198584
O O6 0.908837 0.197702 0.080163
O O7 0.610874 0.217363 0.083465
O O8 0.708963 0.116602 0.990263
O O9 0.824393 0.500000 0.756212
O O10 0.024165 0.598322 0.738075
O O11 0.177254 0.912260 0.189029
O O12 0.329272 0.000000 0.313488
O O13 0.769165 0.000000 0.950724
O O14 0.000000 0.080235 0.000000
#
# Coordination Sequence:
#
# PCOD8095539 Si02
#       6
#     8   8   8   8   4   8
#     4   9  18  30  49  80 117 151 182 214 265 337
#     4  11  21  39  55  82 106 147 187 233 272 329
#     4  10  20  34  57  85 115 146 180 227 280 335
#     4   9  18  32  49  77 119 157 179 210 268 338
#     4  10  24  38  56  74 110 148 196 228 272 318
#     4  10  20  32  54  86 119 145 175 226 280 331
#
# _framework density 19.48115
#
# number of rings (size 3 to 8) (size 9 to 14) (size 15 to 20)
#    0.000    2.182    0.909    2.182    2.545    2.182 
#    0.000    3.636    0.000    0.000    0.000   31.818 
#    0.000    0.000    0.000    0.000    0.000    0.000 
#
# Total GULP energy -272654.710359 kJ/mol
# GULP energy per Si atom -12393.395925 kJ/mol
# Density = 1.943681 g / cm^3
# Si number density = 19.481150 Si / 1000 Ang^3
#
#
#
# Elastic Constant Matrix: (Units=GPa)
#
#
# Indices 1 2 3 4 5 6 
#
# 1 116.8482 39.9513 63.7100 0.0000 -5.9120 0.0000
# 2 39.9513 78.9181 55.7383 0.0000 -11.2576 0.0000
# 3 63.7100 55.7383 139.6080 0.0000 -10.4034 0.0000
# 4 0.0000 0.0000 0.0000 11.2297 0.0000 -8.3051
# 5 -5.9120 -11.2576 -10.4034 0.0000 34.6250 0.0000
# 6 0.0000 0.0000 0.0000 -8.3051 0.0000 19.3970
#
#
#
# Elastic Compliance Matrix: (Units=1/GPa)
#
#
# Indices 1 2 3 4 5 6 
#
# 1 0.011899 -0.003078 -0.004219 0.000000 -0.000237 0.000000
# 2 -0.003078 0.018921 -0.005862 0.000000 0.003865 0.000000
# 3 -0.004219 -0.005862 0.011490 0.000000 0.000826 0.000000
# 4 0.000000 0.000000 0.000000 0.130314 0.000000 0.055796
# 5 -0.000237 0.003865 0.000826 0.000000 0.030345 0.000000
# 6 0.000000 0.000000 0.000000 0.055796 0.000000 0.075444
#
#
# Mechanical properties :
#
#
# Convention : Reuss Voigt Hill
#
# Bulk Modulus (GPa) = 62.52649 72.68595 67.60622
# Shear Modulus (GPa) = 16.12594 24.78198 20.45396
#
# Velocity S-wave (km/s) = 2.88022 3.57052 3.24379
# Velocity P-wave (km/s) = 6.57468 7.37496 6.98629
#
# Compressibility (1/GPa) = 0.01599322
#
# Stress axis : x y z
#
# Youngs Moduli (GPa) = 84.04296 52.85247 87.03253
#
# Poissons Ratio (x) = 0.16266 0.36718
# Poissons Ratio (y) = 0.25865 0.51014
# Poissons Ratio (z) = 0.35456 0.30980
#
# Static dielectric constant tensor:
#      x y z
#    x 3.705830 0.000000 -0.152610 
#    y 0.000000 3.395130 0.000000 
#    z -0.152610 0.000000 3.532300 
# 
# 
# High freq. dielectric constant tensor:
#      x y z
#    x 1.766200 0.000000 -0.003210 
#    y 0.000000 1.716820 0.000000 
#    z -0.003210 0.000000 1.757520 
# 
# From -- ./inp_files/120855.got.cif
#   From: 2010.06.25/outbox.cif.g09.slc.cpg/sg12_61_cif.got.tgz:120855.got - 2010.06.28 00:19:55.
