data_PCOD8095441
_publ_section_title
;
Structure prediction by ZEFSAII (Michael W. Deem and Ramdas Pophale) SiO2 
 PCOD8095441
Probable space group: C 2/M
;
_chemical_formula_sum "Si O2"
_cell_formula_units_Z 56
_cell_length_a 19.760964
_cell_length_b 9.099193
_cell_length_c 24.388917
_cell_angle_alpha 90.000000
_cell_angle_beta 44.763655
_cell_angle_gamma 90.000000
_cell_volume 3088.087855
_symmetry_space_group_name_H-M "C 2/M"
_symmetry_group_IT_number 12
_symmetry_cell_setting 'monoclinic'
loop_
_space_group_symop_operation_xyz
x,y,z
-x,y,-z
-x,-y,-z
x,-y,z
1/2+x,1/2+y,z
1/2-x,1/2+y,-z
1/2-x,1/2-y,-z
1/2+x,1/2-y,z
loop_
_atom_site_type_symbol
_atom_site_label
_atom_site_fract_x
_atom_site_fract_y
_atom_site_fract_z
Si Si1 0.919487 0.338677 0.500456
Si Si2 0.429140 0.674435 0.201630
Si Si3 0.071889 0.829288 0.212930
Si Si4 0.054375 0.170412 0.349853
Si Si5 0.253138 0.828440 0.940422
Si Si6 0.459739 0.671915 0.967355
Si Si7 0.212220 0.325336 0.330047
O O1 0.902013 0.500000 0.484059
O O2 0.824367 0.283106 0.587446
O O3 0.000000 0.351863 0.500000
O O4 0.954108 0.226748 0.433765
O O5 0.425766 0.500000 0.201110
O O6 0.483437 0.724086 0.225827
O O7 0.487159 0.740836 0.116299
O O8 0.320547 0.735791 0.263029
O O9 0.044569 0.799282 0.291190
O O10 0.165515 0.735821 0.145299
O O11 0.095233 0.000000 0.188415
O O12 0.147473 0.252532 0.320101
O O13 0.065805 0.000000 0.357067
O O14 0.270750 0.000000 0.939943
O O15 0.250000 0.750000 0.000000
O O16 0.152986 0.796911 0.968172
O O17 0.482508 0.500000 0.953812
O O18 0.500000 0.744431 0.000000
O O19 0.205562 0.500000 0.325241
#
# Coordination Sequence:
#
# PCOD8095441 Si02
#       7
#     8   8   8   8   8   8   8
#     4   8  15  30  50  75 103 130 170 215 252 299
#     4   9  17  33  53  71 101 138 171 211 252 299
#     4  10  21  37  53  74 105 139 175 208 250 309
#     4  10  20  32  51  77 106 137 168 208 258 313
#     4  11  21  35  57  79 103 136 173 212 255 303
#     4   9  18  31  51  79 102 127 171 215 246 291
#     4   9  18  32  55  79  99 132 175 217 256 297
#
# _framework density 18.134198000000001
#
# number of rings (size 3 to 8) (size 9 to 14) (size 15 to 20)
#    0.000    2.571    1.429    1.714    2.000    3.714 
#    0.000    1.429    0.000    1.714    0.000    0.000 
#    0.000    0.000    0.000    0.000    0.000    0.000 
#
# Total GULP energy -347117.061093 kJ/mol
# GULP energy per Si atom -12397.037896 kJ/mol
# Density = 1.809292 g / cm^3
# Si number density = 18.134198 Si / 1000 Ang^3
#
#
#
# Elastic Constant Matrix: (Units=GPa)
#
#
# Indices 1 2 3 4 5 6 
#
# 1 119.7550 38.7016 67.6169 0.0000 8.8314 0.0000
# 2 38.7016 53.9457 39.1581 0.0001 7.2115 0.0001
# 3 67.6169 39.1581 127.2389 0.0000 4.0492 0.0000
# 4 0.0000 0.0001 0.0000 28.9994 0.0000 1.1816
# 5 8.8314 7.2115 4.0492 0.0000 29.4130 0.0000
# 6 0.0000 0.0001 0.0000 1.1816 0.0000 15.2093
#
#
#
# Elastic Compliance Matrix: (Units=1/GPa)
#
#
# Indices 1 2 3 4 5 6 
#
# 1 0.013231 -0.005377 -0.005315 0.000000 -0.001923 0.000000
# 2 -0.005377 0.026768 -0.005246 0.000000 -0.004226 0.000000
# 3 -0.005315 -0.005246 0.012260 0.000000 0.001194 0.000000
# 4 0.000000 0.000000 0.000000 0.034593 0.000000 -0.002688
# 5 -0.001923 -0.004226 0.001194 0.000000 0.035448 0.000000
# 6 0.000000 0.000000 0.000000 -0.002688 0.000000 0.065958
#
#
# Mechanical properties :
#
#
# Convention : Reuss Voigt Hill
#
# Bulk Modulus (GPa) = 49.06122 65.76586 57.41354
# Shear Modulus (GPa) = 22.03345 25.08854 23.56100
#
# Velocity S-wave (km/s) = 3.48950 3.72357 3.60843
# Velocity P-wave (km/s) = 6.58397 7.40483 7.00644
#
# Compressibility (1/GPa) = 0.02038270
#
# Stress axis : x y z
#
# Youngs Moduli (GPa) = 75.58038 37.35870 81.56447
#
# Poissons Ratio (x) = 0.20087 0.43353
# Poissons Ratio (y) = 0.40639 0.42788
# Poissons Ratio (z) = 0.40172 0.19598
#
# Static dielectric constant tensor:
#      x y z
#    x 2.134970 0.000000 1.096320 
#    y 0.000000 3.166600 0.000000 
#    z 1.096320 0.000000 2.738720 
# 
# 
# High freq. dielectric constant tensor:
#      x y z
#    x 1.691050 0.000000 0.000010 
#    y 0.000000 1.672590 0.000000 
#    z 0.000010 0.000000 1.716700 
# 
# From -- ./inp_files/280237.got.cif
#   From: 2010.06.25/outbox.cif.g09.slc.cpg/sg12_141_cif.got.tgz:280237.got - 2010.06.28 00:19:55.
