data_PCOD8095104
_publ_section_title
;
Structure prediction by ZEFSAII (Michael W. Deem and Ramdas Pophale) SiO2 
 PCOD8095104
Probable space group: C 2/M
;
_chemical_formula_sum "Si O2"
_cell_formula_units_Z 56
_cell_length_a 32.425114
_cell_length_b 9.875310
_cell_length_c 32.513440
_cell_angle_alpha 90.000000
_cell_angle_beta 160.385396
_cell_angle_gamma 90.000000
_cell_volume 3494.907980
_symmetry_space_group_name_H-M "C 2/M"
_symmetry_group_IT_number 12
_symmetry_cell_setting 'monoclinic'
loop_
_space_group_symop_operation_xyz
x,y,z
-x,y,-z
-x,-y,-z
x,-y,z
1/2+x,1/2+y,z
1/2-x,1/2+y,-z
1/2-x,1/2-y,-z
1/2+x,1/2-y,z
loop_
_atom_site_type_symbol
_atom_site_label
_atom_site_fract_x
_atom_site_fract_y
_atom_site_fract_z
Si Si1 0.294813 0.344140 0.100585
Si Si2 0.647118 0.152183 0.592969
Si Si3 0.208469 0.656290 0.423968
Si Si4 0.927294 0.345975 0.165419
Si Si5 0.860511 0.154574 0.252404
Si Si6 0.147603 0.844156 0.521987
Si Si7 0.144799 0.651786 0.681914
O O1 0.334943 0.500000 0.131987
O O2 0.397390 0.252133 0.175258
O O3 0.289342 0.308864 0.143643
O O4 0.160954 0.313656 0.956066
O O5 0.700555 0.256024 0.609617
O O6 0.694618 0.192308 0.683327
O O7 0.501115 0.159827 0.455592
O O8 0.690393 0.000000 0.622631
O O9 0.236463 0.500000 0.461458
O O10 0.250000 0.750000 0.500000
O O11 0.282381 0.701778 0.453160
O O12 0.065174 0.679000 0.279941
O O13 0.908103 0.500000 0.162614
O O14 0.803389 0.246171 0.235018
O O15 0.004107 0.183281 0.379915
O O16 0.838621 0.000000 0.244936
O O17 0.174399 0.000000 0.557764
O O18 0.188052 0.500000 0.733649
#
# Coordination Sequence:
#
# PCOD8095104 Si02
#       7
#     8   8   8   8   8   8   8
#     4   9  17  30  46  63  85 111 140 177 215 250
#     4   8  14  25  39  56  80 109 137 164 200 246
#     4  10  20  32  45  63  87 114 144 176 210 249
#     4   9  18  31  46  63  83 111 145 177 211 250
#     4   9  16  25  39  60  84 109 135 165 206 250
#     4   9  17  27  39  58  84 111 137 167 204 246
#     4   8  14  24  38  57  82 108 133 165 203 244
#
# _framework density 16.023312000000001
#
# number of rings (size 3 to 8) (size 9 to 14) (size 15 to 20)
#    0.000    3.143    0.000    1.714    0.000    3.429 
#    0.000    5.714    0.000    0.000    0.000    1.000 
#    0.000    8.000    0.000    0.000    0.000    0.000 
#
# Total GULP energy -347124.270090 kJ/mol
# GULP energy per Si atom -12397.295360 kJ/mol
# Density = 1.598684 g / cm^3
# Si number density = 16.023312 Si / 1000 Ang^3
#
#
#
# Elastic Constant Matrix: (Units=GPa)
#
#
# Indices 1 2 3 4 5 6 
#
# 1 124.3678 77.9727 40.4577 0.0023 -27.8310 0.0011
# 2 77.9727 89.0158 36.2511 0.0028 -22.6299 0.0014
# 3 40.4577 36.2511 46.4909 -0.0026 -14.1384 -0.0004
# 4 0.0023 0.0028 -0.0026 18.0375 -0.0011 -7.9199
# 5 -27.8310 -22.6299 -14.1384 -0.0011 25.0366 -0.0003
# 6 0.0011 0.0014 -0.0004 -7.9199 -0.0003 33.7875
#
#
#
# Elastic Compliance Matrix: (Units=1/GPa)
#
#
# Indices 1 2 3 4 5 6 
#
# 1 0.019498 -0.013562 -0.004261 -0.000001 0.007010 0.000000
# 2 -0.013562 0.027865 -0.008271 -0.000004 0.005440 -0.000002
# 3 -0.004261 -0.008271 0.033749 0.000008 0.006845 0.000003
# 4 -0.000001 -0.000004 0.000008 0.061801 0.000003 0.014486
# 5 0.007010 0.005440 0.006845 0.000003 0.056517 0.000001
# 6 0.000000 -0.000002 0.000003 0.014486 0.000001 0.032992
#
#
# Mechanical properties :
#
#
# Convention : Reuss Voigt Hill
#
# Bulk Modulus (GPa) = 34.57414 63.24861 48.91137
# Shear Modulus (GPa) = 16.99229 22.38517 19.68873
#
# Velocity S-wave (km/s) = 3.26002 3.74175 3.50916
# Velocity P-wave (km/s) = 5.98286 7.63061 6.85641
#
# Compressibility (1/GPa) = 0.02892335
#
# Stress axis : x y z
#
# Youngs Moduli (GPa) = 51.28681 35.88784 29.63043
#
# Poissons Ratio (x) = 0.48670 0.12627
# Poissons Ratio (y) = 0.69554 0.24508
# Poissons Ratio (z) = 0.21855 0.29683
#
# Static dielectric constant tensor:
#      x y z
#    x 3.125310 0.000000 -0.230080 
#    y 0.000000 3.198450 0.000000 
#    z -0.230080 0.000000 2.835110 
# 
# 
# High freq. dielectric constant tensor:
#      x y z
#    x 1.607560 0.000000 -0.022730 
#    y 0.000000 1.621390 0.000000 
#    z -0.022730 0.000000 1.580990 
# 
# From -- ./inp_files/188002.got.cif
#   From: 2010.06.25/outbox.cif.g09.slc.cpg/sg12_95_cif.got.tgz:188002.got - 2010.06.28 00:19:55.
