data_PCOD8095655
_publ_section_title
;
Structure prediction by ZEFSAII (Michael W. Deem and Ramdas Pophale) SiO2 
 PCOD8095655
Probable space group: C 2/M
;
_chemical_formula_sum "Si O2"
_cell_formula_units_Z 56
_cell_length_a 19.192506
_cell_length_b 9.090636
_cell_length_c 22.924513
_cell_angle_alpha 90.000000
_cell_angle_beta 53.086559
_cell_angle_gamma 90.000000
_cell_volume 3197.925361
_symmetry_space_group_name_H-M "C 2/M"
_symmetry_group_IT_number 12
_symmetry_cell_setting 'monoclinic'
loop_
_space_group_symop_operation_xyz
x,y,z
-x,y,-z
-x,-y,-z
x,-y,z
1/2+x,1/2+y,z
1/2-x,1/2+y,-z
1/2-x,1/2-y,-z
1/2+x,1/2-y,z
loop_
_atom_site_type_symbol
_atom_site_label
_atom_site_fract_x
_atom_site_fract_y
_atom_site_fract_z
Si Si1 0.954167 0.661207 0.783622
Si Si2 0.683016 0.325472 0.490627
Si Si3 0.386242 0.165929 0.208289
Si Si4 0.556446 0.336889 0.648114
Si Si5 0.778713 0.168116 0.349553
Si Si6 0.342270 0.176792 0.943938
Si Si7 0.492905 0.669125 0.934794
O O1 0.927999 0.500000 0.776016
O O2 0.875302 0.725557 0.862565
O O3 0.038835 0.659577 0.781338
O O4 0.974385 0.745632 0.713430
O O5 0.701277 0.500000 0.478187
O O6 0.750000 0.250000 0.500000
O O7 0.586937 0.293667 0.566833
O O8 0.695689 0.251423 0.420723
O O9 0.302334 0.248721 0.277527
O O10 0.420167 0.257856 0.135804
O O11 0.360440 0.000000 0.202304
O O12 0.519791 0.500000 0.666329
O O13 0.639635 0.323186 0.648208
O O14 0.753051 0.000000 0.348896
O O15 0.407770 0.240000 0.959180
O O16 0.338926 0.000000 0.951238
O O17 0.250000 0.250000 0.000000
O O18 0.485577 0.500000 0.916971
O O19 0.500000 0.677726 0.000000
#
# Coordination Sequence:
#
# PCOD8095655 Si02
#       7
#     8   8   8   8   8   8   8
#     4   8  15  25  37  54  75 101 135 173 213 258
#     4   9  15  21  28  42  65  94 130 169 208 251
#     4   9  16  26  40  57  78 106 140 178 218 262
#     4   8  14  21  30  45  66  95 130 167 206 249
#     4   9  15  22  32  47  68  97 133 171 211 255
#     4  10  20  33  49  69  92 120 154 192 233 276
#     4  10  20  33  49  69  93 121 153 190 231 275
#
# _framework density 17.511354000000001
#
# number of rings (size 3 to 8) (size 9 to 14) (size 15 to 20)
#    0.000    3.000    0.000    3.857    0.000    9.143 
#    0.000    0.000    0.000    0.000    0.000    0.000 
#    0.000    0.000    0.000    1.286    0.000   25.429 
#
# Total GULP energy -346903.297295 kJ/mol
# GULP energy per Si atom -12389.403475 kJ/mol
# Density = 1.747150 g / cm^3
# Si number density = 17.511354 Si / 1000 Ang^3
#
#
#
# Elastic Constant Matrix: (Units=GPa)
#
#
# Indices 1 2 3 4 5 6 
#
# 1 16.9366 19.8361 26.3748 0.0000 -3.4615 -0.0002
# 2 19.8361 135.8450 90.5443 -0.0001 -4.6734 -0.0007
# 3 26.3748 90.5443 179.1659 0.0000 -10.4846 -0.0001
# 4 0.0000 -0.0001 0.0000 40.5982 0.0000 -1.5583
# 5 -3.4615 -4.6734 -10.4846 0.0000 12.8489 -0.0001
# 6 -0.0002 -0.0007 -0.0001 -1.5583 -0.0001 11.0195
#
#
#
# Elastic Compliance Matrix: (Units=1/GPa)
#
#
# Indices 1 2 3 4 5 6 
#
# 1 0.081508 -0.005978 -0.008212 0.000000 0.013083 0.000001
# 2 -0.005978 0.011543 -0.005043 0.000000 -0.001527 0.000001
# 3 -0.008212 -0.005043 0.009558 0.000000 0.003753 0.000000
# 4 0.000000 0.000000 0.000000 0.024766 0.000000 0.003502
# 5 0.013083 -0.001527 0.003753 0.000000 0.083859 0.000001
# 6 0.000001 0.000001 0.000000 0.003502 0.000001 0.091243
#
#
# Mechanical properties :
#
#
# Convention : Reuss Voigt Hill
#
# Bulk Modulus (GPa) = 15.59013 67.27310 41.43161
# Shear Modulus (GPa) = 13.79981 25.90614 19.85297
#
# Velocity S-wave (km/s) = 2.81027 3.85046 3.37073
# Velocity P-wave (km/s) = 4.41048 7.63337 6.23380
#
# Compressibility (1/GPa) = 0.06414316
#
# Stress axis : x y z
#
# Youngs Moduli (GPa) = 12.26881 86.63403 104.62143
#
# Poissons Ratio (x) = 0.51792 0.85913
# Poissons Ratio (y) = 0.07335 0.52757
# Poissons Ratio (z) = 0.10075 0.43686
#
# Static dielectric constant tensor:
#      x y z
#    x 2.414180 0.000000 -0.075180 
#    y 0.000000 3.536090 0.000000 
#    z -0.075180 0.000000 4.001030 
# 
# 
# High freq. dielectric constant tensor:
#      x y z
#    x 1.573810 0.000000 -0.004280 
#    y 0.000000 1.693380 0.000000 
#    z -0.004280 0.000000 1.705820 
# 
# From -- ./inp_files/345452.got.cif
#   From: 2010.06.25/outbox.cif.g09.slc.cpg/sg12_173_cif.got.tgz:345452.got - 2010.06.28 00:19:55.
