data_PCOD8095449
_publ_section_title
;
Structure prediction by ZEFSAII (Michael W. Deem and Ramdas Pophale) SiO2 
 PCOD8095449
Probable space group: C 2/M
;
_chemical_formula_sum "Si O2"
_cell_formula_units_Z 40
_cell_length_a 31.344594
_cell_length_b 13.311439
_cell_length_c 9.136381
_cell_angle_alpha 90.000000
_cell_angle_beta 151.728916
_cell_angle_gamma 90.000000
_cell_volume 1805.567399
_symmetry_space_group_name_H-M "C 2/M"
_symmetry_group_IT_number 12
_symmetry_cell_setting 'monoclinic'
loop_
_space_group_symop_operation_xyz
x,y,z
-x,y,-z
-x,-y,-z
x,-y,z
1/2+x,1/2+y,z
1/2-x,1/2+y,-z
1/2-x,1/2-y,-z
1/2+x,1/2-y,z
loop_
_atom_site_type_symbol
_atom_site_label
_atom_site_fract_x
_atom_site_fract_y
_atom_site_fract_z
Si Si1 0.477879 0.117960 0.091713
Si Si2 0.812287 0.380208 0.774645
Si Si3 0.616935 0.617207 0.229964
Si Si4 0.422705 0.616611 0.563729
Si Si5 0.414415 0.215579 0.338103
O O1 0.557135 0.139617 0.446245
O O2 0.468871 0.000000 0.047052
O O3 0.500000 0.166863 0.000000
O O4 0.380117 0.159539 0.853072
O O5 0.818570 0.500000 0.809180
O O6 0.708890 0.347093 0.426538
O O7 0.837596 0.335309 0.009195
O O8 0.600813 0.500000 0.158023
O O9 0.627064 0.636673 0.433804
O O10 0.525333 0.664312 0.885793
O O11 0.420247 0.500000 0.511870
O O12 0.375838 0.681340 0.293963
O O13 0.500000 0.243825 0.500000
#
# Coordination Sequence:
#
# PCOD8095449 Si02
#       5
#     8   8   8   8   8
#     4   9  18  32  52  77 106 138 171 211 261 315
#     4   9  17  33  56  81 107 132 169 217 263 313
#     4   8  16  32  55  78  99 135 181 218 255 301
#     4   9  18  33  54  76 102 141 181 214 252 301
#     4  10  20  32  51  79 105 140 172 209 264 314
#
# _framework density 22.153701000000002
#
# number of rings (size 3 to 8) (size 9 to 14) (size 15 to 20)
#    0.000    3.000    0.000    1.800    2.800    3.600 
#    0.000    4.000    4.400    0.000    0.000    1.400 
#    0.000    0.000    0.000    0.000    0.000    0.000 
#
# Total GULP energy -247895.153858 kJ/mol
# GULP energy per Si atom -12394.757693 kJ/mol
# Density = 2.210328 g / cm^3
# Si number density = 22.153701 Si / 1000 Ang^3
#
#
#
# Elastic Constant Matrix: (Units=GPa)
#
#
# Indices 1 2 3 4 5 6 
#
# 1 121.5692 23.1967 45.5054 0.0000 0.6298 0.0000
# 2 23.1967 23.9169 6.7413 0.0000 8.2179 0.0000
# 3 45.5054 6.7413 61.4053 0.0000 11.5540 0.0000
# 4 0.0000 0.0000 0.0000 21.3575 0.0000 0.0920
# 5 0.6298 8.2179 11.5540 0.0000 31.2907 0.0000
# 6 0.0000 0.0000 0.0000 0.0920 0.0000 21.6584
#
#
#
# Elastic Compliance Matrix: (Units=1/GPa)
#
#
# Indices 1 2 3 4 5 6 
#
# 1 0.014943 -0.013954 -0.010934 0.000000 0.007402 0.000000
# 2 -0.013954 0.059503 0.007196 0.000000 -0.018003 0.000000
# 3 -0.010934 0.007196 0.025698 0.000000 -0.011159 0.000000
# 4 0.000000 0.000000 0.000000 0.046823 0.000000 -0.000199
# 5 0.007402 -0.018003 -0.011159 0.000000 0.040658 0.000000
# 6 0.000000 0.000000 0.000000 -0.000199 0.000000 0.046172
#
#
# Mechanical properties :
#
#
# Convention : Reuss Voigt Hill
#
# Bulk Modulus (GPa) = 15.44193 39.75313 27.59753
# Shear Modulus (GPa) = 17.19581 23.62452 20.41016
#
# Velocity S-wave (km/s) = 2.78907 3.26911 3.03858
# Velocity P-wave (km/s) = 4.16622 5.67738 4.97946
#
# Compressibility (1/GPa) = 0.06475875
#
# Stress axis : x y z
#
# Youngs Moduli (GPa) = 66.92111 16.80587 38.91358
#
# Poissons Ratio (x) = 0.23451 0.42550
# Poissons Ratio (y) = 0.93383 -0.28002
# Poissons Ratio (z) = 0.73174 -0.12093
#
# Static dielectric constant tensor:
#      x y z
#    x 4.259710 0.000000 0.177960 
#    y 0.000000 3.904720 0.000000 
#    z 0.177960 0.000000 3.844630 
# 
# 
# High freq. dielectric constant tensor:
#      x y z
#    x 1.871330 0.000000 0.005550 
#    y 0.000000 1.888030 0.000000 
#    z 0.005550 0.000000 1.838040 
# 
# From -- ./inp_files/59071.got.cif
#   From: 2010.06.25/outbox.cif.g09.slc.cpg/sg12_30_cif.got.tgz:59071.got - 2010.06.28 00:19:55.
