data_PCOD8095476
_publ_section_title
;
Structure prediction by ZEFSAII (Michael W. Deem and Ramdas Pophale) SiO2 
 PCOD8095476
Probable space group: C 2/M
;
_chemical_formula_sum "Si O2"
_cell_formula_units_Z 40
_cell_length_a 18.050174
_cell_length_b 14.519924
_cell_length_c 18.050603
_cell_angle_alpha 90.000000
_cell_angle_beta 151.090215
_cell_angle_gamma 90.000000
_cell_volume 2287.034651
_symmetry_space_group_name_H-M "C 2/M"
_symmetry_group_IT_number 12
_symmetry_cell_setting 'monoclinic'
loop_
_space_group_symop_operation_xyz
x,y,z
-x,y,-z
-x,-y,-z
x,-y,z
1/2+x,1/2+y,z
1/2-x,1/2+y,-z
1/2-x,1/2-y,-z
1/2+x,1/2-y,z
loop_
_atom_site_type_symbol
_atom_site_label
_atom_site_fract_x
_atom_site_fract_y
_atom_site_fract_z
Si Si1 0.485313 0.394151 0.225106
Si Si2 0.048245 0.733446 0.180114
Si Si3 0.747757 0.102490 0.430445
Si Si4 0.783240 0.394663 0.896740
Si Si5 0.332189 0.676093 0.356473
O O1 0.490622 0.500000 0.204042
O O2 0.480680 0.330547 0.147897
O O3 0.636151 0.367629 0.403535
O O4 0.334100 0.374235 0.139855
O O5 0.103599 0.672951 0.300361
O O6 0.195647 0.749890 0.254642
O O7 0.923963 0.675207 0.026192
O O8 0.835067 0.103503 0.427353
O O9 0.685552 0.000000 0.391400
O O10 0.842797 0.500000 0.952231
O O11 0.699010 0.378923 0.745700
O O12 0.500000 0.724640 0.500000
#
# Coordination Sequence:
#
# PCOD8095476 Si02
#       5
#     8   8   8   8   8
#     4  10  20  35  53  72 101 141 174 202 242 297
#     4  10  21  32  49  75 110 132 166 208 247 300
#     4   9  18  30  50  75 103 133 160 198 252 303
#     4  11  20  32  52  79 107 130 160 207 261 307
#     4  10  20  32  52  76 108 133 158 199 257 316
#
# _framework density 17.489896999999999
#
# number of rings (size 3 to 8) (size 9 to 14) (size 15 to 20)
#    1.200    0.800    2.000    3.000    0.000    1.600 
#    0.000    0.000    0.000    3.000    0.000    0.000 
#    0.000    0.000    0.000    0.000    0.000    0.000 
#
# Total GULP energy -247802.494145 kJ/mol
# GULP energy per Si atom -12390.124707 kJ/mol
# Density = 1.745009 g / cm^3
# Si number density = 17.489897 Si / 1000 Ang^3
#
#
#
# Elastic Constant Matrix: (Units=GPa)
#
#
# Indices 1 2 3 4 5 6 
#
# 1 68.6677 43.9510 16.5500 -0.0003 4.3495 -0.0003
# 2 43.9510 74.7065 30.5901 -0.0005 0.6106 -0.0002
# 3 16.5500 30.5901 65.9802 -0.0010 1.8056 -0.0012
# 4 -0.0003 -0.0005 -0.0010 12.0189 -0.0005 4.7097
# 5 4.3495 0.6106 1.8056 -0.0005 20.4291 -0.0005
# 6 -0.0003 -0.0002 -0.0012 4.7097 -0.0005 18.7644
#
#
#
# Elastic Compliance Matrix: (Units=1/GPa)
#
#
# Indices 1 2 3 4 5 6 
#
# 1 0.023825 -0.014298 0.000782 0.000000 -0.004714 0.000000
# 2 -0.014298 0.025104 -0.008135 0.000000 0.003013 0.000000
# 3 0.000782 -0.008135 0.018775 0.000001 -0.001583 0.000001
# 4 0.000000 0.000000 0.000001 0.092278 0.000002 -0.023161
# 5 -0.004714 0.003013 -0.001583 0.000002 0.050003 0.000001
# 6 0.000000 0.000000 0.000001 -0.023161 0.000001 0.059106
#
#
# Mechanical properties :
#
#
# Convention : Reuss Voigt Hill
#
# Bulk Modulus (GPa) = 40.98130 43.50404 42.24267
# Shear Modulus (GPa) = 15.59941 18.12671 16.86306
#
# Velocity S-wave (km/s) = 2.98973 3.22283 3.10846
# Velocity P-wave (km/s) = 5.94981 6.22709 6.09003
#
# Compressibility (1/GPa) = 0.02440137
#
# Stress axis : x y z
#
# Youngs Moduli (GPa) = 41.97357 39.83464 53.26306
#
# Poissons Ratio (x) = 0.56956 -0.04165
# Poissons Ratio (y) = 0.60014 0.43328
# Poissons Ratio (z) = -0.03282 0.32405
#
# Static dielectric constant tensor:
#      x y z
#    x 3.021570 0.000000 0.100320 
#    y 0.000000 2.890980 0.000000 
#    z 0.100320 0.000000 3.231670 
# 
# 
# High freq. dielectric constant tensor:
#      x y z
#    x 1.654850 0.000000 0.006700 
#    y 0.000000 1.642300 0.000000 
#    z 0.006700 0.000000 1.685520 
# 
# From -- ./inp_files/277691.got.cif
#   From: 2010.06.25/outbox.cif.g09.slc.cpg/sg12_139_cif.got.tgz:277691.got - 2010.06.28 00:19:55.
