data_PCOD8095168
_publ_section_title
;
Structure prediction by ZEFSAII (Michael W. Deem and Ramdas Pophale) SiO2 
 PCOD8095168
Probable space group: C 2/M
;
_chemical_formula_sum "Si O2"
_cell_formula_units_Z 64
_cell_length_a 14.280712
_cell_length_b 9.191086
_cell_length_c 30.268762
_cell_angle_alpha 90.000000
_cell_angle_beta 60.440310
_cell_angle_gamma 90.000000
_cell_volume 3455.825733
_symmetry_space_group_name_H-M "C 2/M"
_symmetry_group_IT_number 12
_symmetry_cell_setting 'monoclinic'
loop_
_space_group_symop_operation_xyz
x,y,z
-x,y,-z
-x,-y,-z
x,-y,z
1/2+x,1/2+y,z
1/2-x,1/2+y,-z
1/2-x,1/2-y,-z
1/2+x,1/2-y,z
loop_
_atom_site_type_symbol
_atom_site_label
_atom_site_fract_x
_atom_site_fract_y
_atom_site_fract_z
Si Si1 0.402171 0.828383 0.321052
Si Si2 0.620408 0.160168 0.490144
Si Si3 0.288642 0.329422 0.947479
Si Si4 0.472637 0.668606 0.137459
Si Si5 0.962332 0.668558 0.793536
Si Si6 0.274245 0.329320 0.123882
Si Si7 0.965983 0.673674 0.402068
Si Si8 0.694774 0.826400 0.382545
O O1 0.493641 0.784659 0.264605
O O2 0.435026 0.766471 0.361354
O O3 0.291768 0.748983 0.333705
O O4 0.383720 0.000000 0.326230
O O5 0.500000 0.146269 0.500000
O O6 0.613611 0.237997 0.540311
O O7 0.690773 0.234963 0.434667
O O8 0.668860 0.000000 0.486039
O O9 0.262741 0.500000 0.956189
O O10 0.415787 0.299547 0.913509
O O11 0.223388 0.261441 0.921801
O O12 0.250000 0.250000 0.000000
O O13 0.458008 0.500000 0.151388
O O14 0.470082 0.749162 0.184787
O O15 0.374364 0.724378 0.130076
O O16 0.981869 0.500000 0.798028
O O17 0.835701 0.706340 0.824231
O O18 0.283613 0.500000 0.110223
O O19 0.959844 0.500000 0.405705
O O20 0.087818 0.723925 0.382160
O O21 0.707514 0.000000 0.379021
#
# Coordination Sequence:
#
# PCOD8095168 Si02
#       8
#     8   8   8   8   8   8   8   8
#     4  10  20  32  46  69  98 125 154 194 247 298
#     4   7  11  23  44  67  88 114 153 196 233 278
#     4  10  20  34  52  79 113 142 167 201 243 285
#     4   9  19  35  56  78  99 128 169 211 246 280
#     4   9  19  34  50  69  96 127 161 202 247 295
#     4   9  18  35  56  75  97 131 172 209 244 285
#     4   8  15  29  48  67  91 124 158 192 236 294
#     4   9  17  30  49  70  90 119 160 199 235 286
#
# _framework density 18.519451
#
# number of rings (size 3 to 8) (size 9 to 14) (size 15 to 20)
#    0.000    3.125    0.000    1.875    0.000    3.500 
#    0.000    5.625    0.000    3.375    0.000    0.000 
#    0.000    0.000    0.000    0.000    0.000    0.000 
#
# Total GULP energy -396573.646634 kJ/mol
# GULP energy per Si atom -12392.926457 kJ/mol
# Density = 1.847730 g / cm^3
# Si number density = 18.519451 Si / 1000 Ang^3
#
#
#
# Elastic Constant Matrix: (Units=GPa)
#
#
# Indices 1 2 3 4 5 6 
#
# 1 99.7989 28.6928 43.4775 0.0000 9.1973 0.0000
# 2 28.6928 37.3691 37.4044 0.0000 3.7891 0.0000
# 3 43.4775 37.4044 118.9586 0.0000 8.1025 0.0000
# 4 0.0000 0.0000 0.0000 24.0499 0.0000 0.3666
# 5 9.1973 3.7891 8.1025 0.0000 21.3488 0.0000
# 6 0.0000 0.0000 0.0000 0.3666 0.0000 24.6944
#
#
#
# Elastic Compliance Matrix: (Units=1/GPa)
#
#
# Indices 1 2 3 4 5 6 
#
# 1 0.013581 -0.007792 -0.002268 0.000000 -0.003607 0.000000
# 2 -0.007792 0.043634 -0.010854 0.000000 -0.000268 0.000000
# 3 -0.002268 -0.010854 0.012781 0.000000 -0.001947 0.000000
# 4 0.000000 0.000000 0.000000 0.041590 0.000000 -0.000617
# 5 -0.003607 -0.000268 -0.001947 0.000000 0.049182 0.000000
# 6 0.000000 0.000000 0.000000 -0.000617 0.000000 0.040504
#
#
# Mechanical properties :
#
#
# Convention : Reuss Voigt Hill
#
# Bulk Modulus (GPa) = 35.50087 52.80845 44.15466
# Shear Modulus (GPa) = 19.80291 23.78874 21.79582
#
# Velocity S-wave (km/s) = 3.27357 3.58792 3.43434
# Velocity P-wave (km/s) = 5.78787 6.76323 6.29447
#
# Compressibility (1/GPa) = 0.02816832
#
# Stress axis : x y z
#
# Youngs Moduli (GPa) = 73.63340 22.91773 78.24354
#
# Poissons Ratio (x) = 0.17857 0.17744
# Poissons Ratio (y) = 0.57374 0.84925
# Poissons Ratio (z) = 0.16699 0.24875
#
# Static dielectric constant tensor:
#      x y z
#    x 3.409120 0.000000 0.043200 
#    y 0.000000 3.093240 0.000000 
#    z 0.043200 0.000000 3.620820 
# 
# 
# High freq. dielectric constant tensor:
#      x y z
#    x 1.714710 0.000000 0.000540 
#    y 0.000000 1.686840 0.000000 
#    z 0.000540 0.000000 1.725680 
# 
# From -- ./inp_files/359841.got.cif
#   From: 2010.06.25/outbox.cif.g09.slc.cpg/sg12_180_cif.got.tgz:359841.got - 2010.06.28 00:19:55.
