data_PCOD8095847
_publ_section_title
;
Structure prediction by ZEFSAII (Michael W. Deem and Ramdas Pophale) SiO2 
 PCOD8095847
Probable space group: C 2/M
;
_chemical_formula_sum "Si O2"
_cell_formula_units_Z 56
_cell_length_a 28.686335
_cell_length_b 9.354992
_cell_length_c 13.177257
_cell_angle_alpha 90.000000
_cell_angle_beta 122.765385
_cell_angle_gamma 90.000000
_cell_volume 2973.614131
_symmetry_space_group_name_H-M "C 2/M"
_symmetry_group_IT_number 12
_symmetry_cell_setting 'monoclinic'
loop_
_space_group_symop_operation_xyz
x,y,z
-x,y,-z
-x,-y,-z
x,-y,z
1/2+x,1/2+y,z
1/2-x,1/2+y,-z
1/2-x,1/2-y,-z
1/2+x,1/2-y,z
loop_
_atom_site_type_symbol
_atom_site_label
_atom_site_fract_x
_atom_site_fract_y
_atom_site_fract_z
Si Si1 0.880097 0.167210 0.216761
Si Si2 0.586870 0.169345 0.278061
Si Si3 0.692139 0.164328 0.725188
Si Si4 0.030614 0.332781 0.793741
Si Si5 0.397484 0.166217 0.927886
Si Si6 0.202700 0.668116 0.504697
Si Si7 0.310939 0.662943 0.938905
O O1 0.857997 0.236980 0.294651
O O2 0.938025 0.240807 0.254477
O O3 0.890307 0.000000 0.245514
O O4 0.834010 0.200153 0.077158
O O5 0.533098 0.220741 0.278231
O O6 0.582965 0.226317 0.157943
O O7 0.642846 0.224528 0.396722
O O8 0.585171 0.000000 0.274298
O O9 0.707647 0.205567 0.628855
O O10 0.745497 0.192453 0.858809
O O11 0.672574 0.000000 0.708577
O O12 0.036479 0.500000 0.773224
O O13 0.055376 0.300822 0.934200
O O14 0.340034 0.240998 0.888663
O O15 0.383882 0.000000 0.905202
O O16 0.209734 0.500000 0.492484
O O17 0.250000 0.750000 0.500000
O O18 0.324274 0.500000 0.926180
#
# Coordination Sequence:
#
# PCOD8095847 Si02
#       7
#     8   8   8   8   8   8   8
#     4  10  20  33  50  73  99 126 160 204 249 290
#     4   9  17  31  51  74  99 129 166 202 236 282
#     4  10  20  34  51  71  97 131 167 199 237 288
#     4   9  17  31  51  73  99 130 162 199 242 287
#     4   9  16  27  48  76 101 127 161 199 240 287
#     4  10  21  36  54  76 101 129 162 199 238 284
#     4   9  18  31  47  71 102 130 158 197 245 294
#
# _framework density 18.832301999999999
#
# number of rings (size 3 to 8) (size 9 to 14) (size 15 to 20)
#    0.000    2.571    0.000    2.143    0.000    3.429 
#    0.000    2.143    0.000    7.714    0.000    0.000 
#    0.000    0.000    0.000    0.000    0.000    0.000 
#
# Total GULP energy -347202.048145 kJ/mol
# GULP energy per Si atom -12400.073148 kJ/mol
# Density = 1.878944 g / cm^3
# Si number density = 18.832302 Si / 1000 Ang^3
#
#
#
# Elastic Constant Matrix: (Units=GPa)
#
#
# Indices 1 2 3 4 5 6 
#
# 1 159.8558 69.3089 52.2351 0.0000 -6.0381 0.0000
# 2 69.3089 65.0139 28.9517 0.0000 -6.0387 0.0000
# 3 52.2351 28.9517 54.9335 0.0000 0.4235 0.0000
# 4 0.0000 0.0000 0.0000 16.8651 0.0000 -2.3619
# 5 -6.0381 -6.0387 0.4235 0.0000 27.8442 0.0000
# 6 0.0000 0.0000 0.0000 -2.3619 0.0000 33.3874
#
#
#
# Elastic Compliance Matrix: (Units=1/GPa)
#
#
# Indices 1 2 3 4 5 6 
#
# 1 0.013324 -0.011115 -0.006816 0.000000 0.000583 0.000000
# 2 -0.011115 0.029956 -0.005251 0.000000 0.004166 0.000000
# 3 -0.006816 -0.005251 0.027476 0.000000 -0.003035 0.000000
# 4 0.000000 0.000000 0.000000 0.059887 0.000000 0.004236
# 5 0.000583 0.004166 -0.003035 0.000000 0.036990 0.000000
# 6 0.000000 0.000000 0.000000 0.004236 0.000000 0.030251
#
#
# Mechanical properties :
#
#
# Convention : Reuss Voigt Hill
#
# Bulk Modulus (GPa) = 40.99719 64.53276 52.76498
# Shear Modulus (GPa) = 19.81154 24.23985 22.02570
#
# Velocity S-wave (km/s) = 3.24697 3.59157 3.42361
# Velocity P-wave (km/s) = 5.98949 7.17918 6.61115
#
# Compressibility (1/GPa) = 0.02439191
#
# Stress axis : x y z
#
# Youngs Moduli (GPa) = 75.05303 33.38280 36.39547
#
# Poissons Ratio (x) = 0.37104 0.24808
# Poissons Ratio (y) = 0.83419 0.19111
# Poissons Ratio (z) = 0.51157 0.17529
#
# Static dielectric constant tensor:
#      x y z
#    x 3.534880 0.000000 0.059280 
#    y 0.000000 3.251560 0.000000 
#    z 0.059280 0.000000 3.407440 
# 
# 
# High freq. dielectric constant tensor:
#      x y z
#    x 1.739360 0.000000 -0.001970 
#    y 0.000000 1.709330 0.000000 
#    z -0.001970 0.000000 1.716630 
# 
# From -- ./inp_files/181110.got.cif
#   From: 2010.06.25/outbox.cif.g09.slc.cpg/sg12_91_cif.got.tgz:181110.got - 2010.06.28 00:19:55.
