data_PCOD8095877
_publ_section_title
;
Structure prediction by ZEFSAII (Michael W. Deem and Ramdas Pophale) SiO2 
 PCOD8095877
Probable space group: C 2/M
;
_chemical_formula_sum "Si O2"
_cell_formula_units_Z 64
_cell_length_a 14.530800
_cell_length_b 9.405792
_cell_length_c 29.330484
_cell_angle_alpha 90.000000
_cell_angle_beta 118.687776
_cell_angle_gamma 90.000000
_cell_volume 3516.631068
_symmetry_space_group_name_H-M "C 2/M"
_symmetry_group_IT_number 12
_symmetry_cell_setting 'monoclinic'
loop_
_space_group_symop_operation_xyz
x,y,z
-x,y,-z
-x,-y,-z
x,-y,z
1/2+x,1/2+y,z
1/2-x,1/2+y,-z
1/2-x,1/2-y,-z
1/2+x,1/2-y,z
loop_
_atom_site_type_symbol
_atom_site_label
_atom_site_fract_x
_atom_site_fract_y
_atom_site_fract_z
Si Si1 0.101262 0.663831 0.225827
Si Si2 0.815008 0.334330 0.575938
Si Si3 0.956075 0.164518 0.873113
Si Si4 0.331405 0.661151 0.247871
Si Si5 0.470349 0.166883 0.691512
Si Si6 0.887290 0.334254 0.492664
Si Si7 0.691349 0.338274 0.948187
Si Si8 0.771258 0.333434 0.869246
O O1 0.070388 0.500000 0.209136
O O2 0.039957 0.762051 0.175437
O O3 0.225393 0.685031 0.250780
O O4 0.071000 0.713592 0.268962
O O5 0.787846 0.500000 0.573867
O O6 0.878588 0.302591 0.544527
O O7 0.705735 0.250586 0.554259
O O8 0.887967 0.280186 0.634315
O O9 0.875636 0.242186 0.887334
O O10 0.067373 0.179484 0.924388
O O11 0.924961 0.000000 0.859048
O O12 0.370983 0.500000 0.261191
O O13 0.418106 0.760852 0.291065
O O14 0.312071 0.702291 0.190330
O O15 0.487314 0.000000 0.691543
O O16 0.871650 0.500000 0.478197
O O17 0.000000 0.282368 0.500000
O O18 0.726619 0.500000 0.963048
O O19 0.722411 0.285653 0.905277
O O20 0.750000 0.250000 0.000000
O O21 0.800840 0.500000 0.874056
#
# Coordination Sequence:
#
# PCOD8095877 Si02
#       8
#     8   8   8   8   8   8   8   8
#     4   9  19  35  52  72 101 136 167 197 245 305
#     4   9  19  34  50  73 103 132 167 209 250 296
#     4  10  20  35  55  78 101 128 167 212 249 289
#     4   9  18  33  52  73  99 131 166 201 241 295
#     4  10  20  33  50  74 105 135 164 205 251 293
#     4   9  18  34  54  73  97 132 171 210 253 298
#     4  10  22  37  53  75 103 133 167 208 255 304
#     4   9  19  37  56  74 101 137 170 203 250 305
#
# _framework density 18.199237
#
# number of rings (size 3 to 8) (size 9 to 14) (size 15 to 20)
#    0.000    2.625    0.000    1.875    0.000    7.250 
#    0.000    2.500    0.000    0.000    0.000    0.000 
#    0.000    0.000    0.000    0.000    0.000    0.000 
#
# Total GULP energy -396851.432056 kJ/mol
# GULP energy per Si atom -12401.607252 kJ/mol
# Density = 1.815781 g / cm^3
# Si number density = 18.199237 Si / 1000 Ang^3
#
#
#
# Elastic Constant Matrix: (Units=GPa)
#
#
# Indices 1 2 3 4 5 6 
#
# 1 84.0591 36.2655 33.7799 0.0000 13.1436 0.0000
# 2 36.2655 59.4679 39.3428 0.0000 13.3133 0.0000
# 3 33.7799 39.3428 83.9937 0.0000 19.7750 0.0000
# 4 0.0000 0.0000 0.0000 32.4898 0.0000 7.2859
# 5 13.1436 13.3133 19.7750 0.0000 21.7310 0.0000
# 6 0.0000 0.0000 0.0000 7.2859 0.0000 30.8810
#
#
#
# Elastic Compliance Matrix: (Units=1/GPa)
#
#
# Indices 1 2 3 4 5 6 
#
# 1 0.016754 -0.008031 -0.002226 0.000000 -0.003188 0.000000
# 2 -0.008031 0.028800 -0.009227 0.000000 -0.004391 0.000000
# 3 -0.002226 -0.009227 0.019694 0.000000 -0.010923 0.000000
# 4 0.000000 0.000000 0.000000 0.032498 0.000000 -0.007668
# 5 -0.003188 -0.004391 -0.010923 0.000000 0.060575 0.000000
# 6 0.000000 0.000000 0.000000 -0.007668 0.000000 0.034191
#
#
# Mechanical properties :
#
#
# Convention : Reuss Voigt Hill
#
# Bulk Modulus (GPa) = 38.04889 49.58854 43.81872
# Shear Modulus (GPa) = 20.81246 24.89586 22.85416
#
# Velocity S-wave (km/s) = 3.38537 3.70261 3.54754
# Velocity P-wave (km/s) = 6.01940 6.75173 6.39606
#
# Compressibility (1/GPa) = 0.02628198
#
# Stress axis : x y z
#
# Youngs Moduli (GPa) = 59.68689 34.72163 50.77659
#
# Poissons Ratio (x) = 0.27885 0.11302
# Poissons Ratio (y) = 0.47935 0.46850
# Poissons Ratio (z) = 0.13285 0.32036
#
# Static dielectric constant tensor:
#      x y z
#    x 3.357210 0.000000 -0.063690 
#    y 0.000000 3.309560 0.000000 
#    z -0.063690 0.000000 3.325160 
# 
# 
# High freq. dielectric constant tensor:
#      x y z
#    x 1.709980 0.000000 -0.000390 
#    y 0.000000 1.702010 0.000000 
#    z -0.000390 0.000000 1.699690 
# 
# From -- ./inp_files/375055.got.cif
#   From: 2010.06.25/outbox.cif.g09.slc.cpg/sg12_188_cif.got.tgz:375055.got - 2010.06.28 00:19:55.
