data_PCOD8095380
_publ_section_title
;
Structure prediction by ZEFSAII (Michael W. Deem and Ramdas Pophale) SiO2 
 PCOD8095380
Probable space group: C 2/M
;
_chemical_formula_sum "Si O2"
_cell_formula_units_Z 64
_cell_length_a 36.163844
_cell_length_b 10.568478
_cell_length_c 17.976145
_cell_angle_alpha 90.000000
_cell_angle_beta 148.771679
_cell_angle_gamma 90.000000
_cell_volume 3561.970064
_symmetry_space_group_name_H-M "C 2/M"
_symmetry_group_IT_number 12
_symmetry_cell_setting 'monoclinic'
loop_
_space_group_symop_operation_xyz
x,y,z
-x,y,-z
-x,-y,-z
x,-y,z
1/2+x,1/2+y,z
1/2-x,1/2+y,-z
1/2-x,1/2-y,-z
1/2+x,1/2-y,z
loop_
_atom_site_type_symbol
_atom_site_label
_atom_site_fract_x
_atom_site_fract_y
_atom_site_fract_z
Si Si1 0.203393 0.141438 0.828188
Si Si2 0.216474 0.243283 0.566264
Si Si3 0.429610 0.143133 0.661894
Si Si4 0.150624 0.358354 0.830640
Si Si5 0.925863 0.350546 0.154280
Si Si6 0.678106 0.364047 0.351986
Si Si7 0.789471 0.351731 0.835129
Si Si8 0.429673 0.142332 0.834809
O O1 0.149385 0.250290 0.764671
O O2 0.225263 0.178481 0.781944
O O3 0.168300 0.000000 0.770357
O O4 0.273506 0.138172 0.999013
O O5 0.143275 0.283316 0.480897
O O6 0.250871 0.357577 0.577148
O O7 0.199568 0.135152 0.476201
O O8 0.272285 0.202863 0.724909
O O9 0.496584 0.206372 0.733420
O O10 0.448636 0.150310 0.781181
O O11 0.418664 0.000000 0.616002
O O12 0.135175 0.500000 0.771271
O O13 0.090640 0.320187 0.787909
O O14 0.926831 0.500000 0.142628
O O15 0.863798 0.292684 0.994114
O O16 0.640884 0.500000 0.272622
O O17 0.629552 0.245213 0.245519
O O18 0.798848 0.500000 0.843803
O O19 0.403363 0.000000 0.810658
O O20 0.500000 0.178968 0.000000
#
# Coordination Sequence:
#
# PCOD8095380 Si02
#       8
#     8   8   8   8   8   8   8   8
#     4   8  14  25  43  69  98 124 154 194 241 287
#     4  10  20  32  50  70  96 132 170 203 238 299
#     4   9  17  31  48  69  97 125 159 205 248 287
#     4   8  13  24  43  69  97 124 154 191 238 292
#     4   8  15  27  48  74  96 120 157 206 249 280
#     4  10  21  35  50  70  99 134 166 201 252 303
#     4   9  17  29  48  75  97 121 163 210 245 279
#     4   9  19  33  52  77  97 121 164 211 249 292
#
# _framework density 17.967585
#
# number of rings (size 3 to 8) (size 9 to 14) (size 15 to 20)
#    0.000    3.125    0.000    2.250    1.750    3.750 
#    0.000    1.250    0.000    6.000    0.000    4.375 
#    0.000    0.000    0.000    0.000    0.000    0.000 
#
# Total GULP energy -396496.946398 kJ/mol
# GULP energy per Si atom -12390.529575 kJ/mol
# Density = 1.792669 g / cm^3
# Si number density = 17.967585 Si / 1000 Ang^3
#
#
#
# Elastic Constant Matrix: (Units=GPa)
#
#
# Indices 1 2 3 4 5 6 
#
# 1 110.0811 49.1914 30.9290 0.0000 18.7267 0.0000
# 2 49.1914 89.5739 30.0422 0.0000 10.6332 0.0000
# 3 30.9290 30.0422 44.0252 0.0000 7.4298 0.0000
# 4 0.0000 0.0000 0.0000 12.0749 0.0000 -0.0035
# 5 18.7267 10.6332 7.4298 0.0000 23.9670 0.0000
# 6 0.0000 0.0000 0.0000 -0.0035 0.0000 10.5359
#
#
#
# Elastic Compliance Matrix: (Units=1/GPa)
#
#
# Indices 1 2 3 4 5 6 
#
# 1 0.014034 -0.005136 -0.005159 0.000000 -0.007088 0.000000
# 2 -0.005136 0.016648 -0.007580 0.000000 -0.001024 0.000000
# 3 -0.005159 -0.007580 0.031934 0.000000 -0.002506 0.000000
# 4 0.000000 0.000000 0.000000 0.082816 0.000000 0.000027
# 5 -0.007088 -0.001024 -0.002506 0.000000 0.048493 0.000000
# 6 0.000000 0.000000 0.000000 0.000027 0.000000 0.094914
#
#
# Mechanical properties :
#
#
# Convention : Reuss Voigt Hill
#
# Bulk Modulus (GPa) = 37.21947 51.55615 44.38781
# Shear Modulus (GPa) = 14.99056 18.21674 16.60365
#
# Velocity S-wave (km/s) = 2.89158 3.18758 3.04318
# Velocity P-wave (km/s) = 5.64872 6.50414 6.09147
#
# Compressibility (1/GPa) = 0.02686766
#
# Stress axis : x y z
#
# Youngs Moduli (GPa) = 71.25327 60.06740 31.31494
#
# Poissons Ratio (x) = 0.30849 0.16155
# Poissons Ratio (y) = 0.36593 0.23736
# Poissons Ratio (z) = 0.36759 0.45529
#
# Static dielectric constant tensor:
#      x y z
#    x 3.523480 0.000000 0.056310 
#    y 0.000000 3.260030 0.000000 
#    z 0.056310 0.000000 3.135730 
# 
# 
# High freq. dielectric constant tensor:
#      x y z
#    x 1.698100 0.000000 0.001600 
#    y 0.000000 1.670090 0.000000 
#    z 0.001600 0.000000 1.664230 
# 
# From -- ./inp_files/250857.got.cif
#   From: 2010.06.25/outbox.cif.g09.slc.cpg/sg12_126_cif.got.tgz:250857.got - 2010.06.28 00:19:55.
