data_PCOD8095991
_publ_section_title
;
Structure prediction by ZEFSAII (Michael W. Deem and Ramdas Pophale) SiO2 
 PCOD8095991
Probable space group: C 2/M
;
_chemical_formula_sum "Si O2"
_cell_formula_units_Z 48
_cell_length_a 18.295747
_cell_length_b 9.086073
_cell_length_c 32.023825
_cell_angle_alpha 90.000000
_cell_angle_beta 149.635353
_cell_angle_gamma 90.000000
_cell_volume 2691.051432
_symmetry_space_group_name_H-M "C 2/M"
_symmetry_group_IT_number 12
_symmetry_cell_setting 'monoclinic'
loop_
_space_group_symop_operation_xyz
x,y,z
-x,y,-z
-x,-y,-z
x,-y,z
1/2+x,1/2+y,z
1/2-x,1/2+y,-z
1/2-x,1/2-y,-z
1/2+x,1/2-y,z
loop_
_atom_site_type_symbol
_atom_site_label
_atom_site_fract_x
_atom_site_fract_y
_atom_site_fract_z
Si Si1 0.075160 0.172214 0.494778
Si Si2 0.900461 0.168160 0.326443
Si Si3 0.671345 0.833926 0.082420
Si Si4 0.809506 0.169082 0.569342
Si Si5 0.830027 0.828755 0.835295
Si Si6 0.167045 0.827120 0.996655
O O1 0.230734 0.254846 0.569938
O O2 0.000000 0.223590 0.500000
O O3 0.971873 0.217611 0.405372
O O4 0.107823 0.000000 0.510004
O O5 0.763333 0.271411 0.249865
O O6 0.016544 0.185132 0.345668
O O7 0.846766 0.000000 0.303099
O O8 0.727255 0.755269 0.151814
O O9 0.723908 0.742980 0.067962
O O10 0.733507 0.000000 0.110766
O O11 0.500000 0.836009 0.000000
O O12 0.750000 0.250000 0.500000
O O13 0.763230 0.000000 0.544580
O O14 0.803446 0.000000 0.829558
O O15 0.996900 0.796156 0.907425
O O16 0.201632 0.000000 0.014043
O O17 0.250000 0.750000 0.000000
#
# Coordination Sequence:
#
# PCOD8095991 Si02
#       6
#     8   8   8   8   8   8
#     4   9  18  33  52  74 101 133 168 206 249 299
#     4   9  18  32  50  72  98 130 168 209 252 297
#     4   9  17  31  52  74  96 126 162 200 244 293
#     4   9  17  30  49  72  96 126 164 202 241 290
#     4  10  20  33  51  75 101 130 166 208 250 295
#     4  10  20  34  52  75 102 133 170 207 247 299
#
# _framework density 17.836894000000001
#
# number of rings (size 3 to 8) (size 9 to 14) (size 15 to 20)
#    0.000    2.667    0.000    3.000    0.000    7.667 
#    0.000    1.667    0.000    8.000    0.000    0.000 
#    0.000    0.000    0.000    0.000    0.000    0.000 
#
# Total GULP energy -297518.586287 kJ/mol
# GULP energy per Si atom -12396.607762 kJ/mol
# Density = 1.779630 g / cm^3
# Si number density = 17.836894 Si / 1000 Ang^3
#
#
#
# Elastic Constant Matrix: (Units=GPa)
#
#
# Indices 1 2 3 4 5 6 
#
# 1 131.5298 60.9563 33.6063 0.0002 -7.4330 -0.0004
# 2 60.9563 110.8529 38.7563 0.0003 1.1485 -0.0008
# 3 33.6063 38.7563 65.8456 -0.0001 -3.7219 -0.0001
# 4 0.0002 0.0003 -0.0001 29.0934 0.0000 0.6058
# 5 -7.4330 1.1485 -3.7219 0.0000 16.3285 0.0001
# 6 -0.0004 -0.0008 -0.0001 0.6058 0.0001 33.7419
#
#
#
# Elastic Compliance Matrix: (Units=1/GPa)
#
#
# Indices 1 2 3 4 5 6 
#
# 1 0.010873 -0.005268 -0.002176 0.000000 0.004824 0.000000
# 2 -0.005268 0.014001 -0.005818 0.000000 -0.004709 0.000000
# 3 -0.002176 -0.005818 0.019946 0.000000 0.003965 0.000000
# 4 0.000000 0.000000 0.000000 0.034385 0.000000 -0.000617
# 5 0.004824 -0.004709 0.003965 0.000000 0.064674 0.000000
# 6 0.000000 0.000000 0.000000 -0.000617 0.000000 0.029648
#
#
# Mechanical properties :
#
#
# Convention : Reuss Voigt Hill
#
# Bulk Modulus (GPa) = 54.65800 63.87398 59.26599
# Shear Modulus (GPa) = 24.25427 27.49337 25.87382
#
# Velocity S-wave (km/s) = 3.69152 3.93030 3.81278
# Velocity P-wave (km/s) = 6.99139 7.51559 7.25822
#
# Compressibility (1/GPa) = 0.01829558
#
# Stress axis : x y z
#
# Youngs Moduli (GPa) = 91.97232 71.42482 50.13472
#
# Poissons Ratio (x) = 0.37627 0.10909
# Poissons Ratio (y) = 0.48452 0.29169
# Poissons Ratio (z) = 0.20012 0.41556
#
# Static dielectric constant tensor:
#      x y z
#    x 3.379610 0.000000 0.057560 
#    y 0.000000 3.492700 0.000000 
#    z 0.057560 0.000000 3.139600 
# 
# 
# High freq. dielectric constant tensor:
#      x y z
#    x 1.682800 0.000000 -0.000270 
#    y 0.000000 1.702210 0.000000 
#    z -0.000270 0.000000 1.663880 
# 
# From -- ./inp_files/274612.got.cif
#   From: 2010.06.25/outbox.cif.g09.slc.cpg/sg12_138_cif.got.tgz:274612.got - 2010.06.28 00:19:55.
