data_PCOD8095225
_publ_section_title
;
Structure prediction by ZEFSAII (Michael W. Deem and Ramdas Pophale) SiO2 
 PCOD8095225
Probable space group: C 2/M
;
_chemical_formula_sum "Si O2"
_cell_formula_units_Z 64
_cell_length_a 19.403475
_cell_length_b 9.171704
_cell_length_c 22.809360
_cell_angle_alpha 90.000000
_cell_angle_beta 60.251319
_cell_angle_gamma 90.000000
_cell_volume 3524.256813
_symmetry_space_group_name_H-M "C 2/M"
_symmetry_group_IT_number 12
_symmetry_cell_setting 'monoclinic'
loop_
_space_group_symop_operation_xyz
x,y,z
-x,y,-z
-x,-y,-z
x,-y,z
1/2+x,1/2+y,z
1/2-x,1/2+y,-z
1/2-x,1/2-y,-z
1/2+x,1/2-y,z
loop_
_atom_site_type_symbol
_atom_site_label
_atom_site_fract_x
_atom_site_fract_y
_atom_site_fract_z
Si Si1 0.883531 0.332645 0.185963
Si Si2 0.370614 0.164749 0.563864
Si Si3 0.552818 0.829928 0.161670
Si Si4 0.786566 0.829102 0.695137
Si Si5 0.524645 0.161924 0.579115
Si Si6 0.583214 0.334065 0.943783
Si Si7 0.331209 0.666744 0.973072
Si Si8 0.086955 0.674478 0.279245
O O1 0.884533 0.500000 0.166918
O O2 0.805854 0.294908 0.256278
O O3 0.880991 0.245536 0.126898
O O4 0.959895 0.293961 0.193175
O O5 0.305753 0.267722 0.621961
O O6 0.446394 0.157450 0.573088
O O7 0.401689 0.234904 0.488145
O O8 0.336787 0.000000 0.570074
O O9 0.600134 0.737951 0.094301
O O10 0.580159 0.780527 0.214591
O O11 0.570845 0.000000 0.144011
O O12 0.835911 0.750402 0.725751
O O13 0.806020 0.000000 0.688695
O O14 0.494317 0.231730 0.653435
O O15 0.555465 0.000000 0.578809
O O16 0.566539 0.500000 0.932148
O O17 0.500000 0.262540 0.000000
O O18 0.647361 0.322580 0.967888
O O19 0.320918 0.500000 0.957496
O O20 0.250000 0.750000 0.000000
O O21 0.094997 0.500000 0.283961
#
# Coordination Sequence:
#
# PCOD8095225 Si02
#       8
#     8   8   8   8   8   8   8   8
#     4  10  22  37  54  76 104 139 173 209 255 306
#     4   8  13  25  46  70  97 130 169 210 250 295
#     4  10  21  38  57  77 102 137 177 211 253 307
#     4  10  20  32  47  75 108 135 166 208 258 306
#     4   7  11  23  45  71  96 125 166 212 251 290
#     4  10  21  39  59  79 101 131 173 214 251 298
#     4  11  24  40  58  81 108 135 167 211 260 306
#     4   9  18  33  53  75 100 132 172 215 253 299
#
# _framework density 18.159856999999999
#
# number of rings (size 3 to 8) (size 9 to 14) (size 15 to 20)
#    0.000    2.625    1.250    2.250    1.750    2.750 
#    0.000    5.000    0.000    0.750    0.000    0.000 
#    0.000    0.000    0.000    0.000    0.000    0.750 
#
# Total GULP energy -396534.671235 kJ/mol
# GULP energy per Si atom -12391.708476 kJ/mol
# Density = 1.811852 g / cm^3
# Si number density = 18.159857 Si / 1000 Ang^3
#
#
#
# Elastic Constant Matrix: (Units=GPa)
#
#
# Indices 1 2 3 4 5 6 
#
# 1 68.0526 33.6961 30.0568 -0.0001 -16.9323 -0.0002
# 2 33.6961 66.1422 44.0703 -0.0002 -12.0241 -0.0007
# 3 30.0568 44.0703 99.7031 0.0000 -23.6681 -0.0001
# 4 -0.0001 -0.0002 0.0000 26.9492 0.0000 -5.1766
# 5 -16.9323 -12.0241 -23.6681 0.0000 22.8327 -0.0001
# 6 -0.0002 -0.0007 -0.0001 -5.1766 -0.0001 20.0683
#
#
#
# Elastic Compliance Matrix: (Units=1/GPa)
#
#
# Indices 1 2 3 4 5 6 
#
# 1 0.022112 -0.009279 0.000223 0.000000 0.011743 0.000000
# 2 -0.009279 0.025389 -0.009132 0.000000 -0.002976 0.000001
# 3 0.000223 -0.009132 0.017106 0.000000 0.013088 0.000000
# 4 0.000000 0.000000 0.000000 0.039041 0.000000 0.010071
# 5 0.011743 -0.002976 0.013088 0.000000 0.064504 0.000000
# 6 0.000000 0.000001 0.000000 0.010071 0.000000 0.052427
#
#
# Mechanical properties :
#
#
# Convention : Reuss Voigt Hill
#
# Bulk Modulus (GPa) = 35.42084 49.94936 42.68510
# Shear Modulus (GPa) = 18.77110 22.37503 20.57306
#
# Velocity S-wave (km/s) = 3.21854 3.51396 3.36949
# Velocity P-wave (km/s) = 5.77576 6.63543 6.22046
#
# Compressibility (1/GPa) = 0.02823197
#
# Stress axis : x y z
#
# Youngs Moduli (GPa) = 45.22400 39.38644 58.45928
#
# Poissons Ratio (x) = 0.36546 -0.01303
# Poissons Ratio (y) = 0.41963 0.53384
# Poissons Ratio (z) = -0.01008 0.35967
#
# Static dielectric constant tensor:
#      x y z
#    x 3.570810 0.000000 -0.698070 
#    y 0.000000 3.266970 0.000000 
#    z -0.698070 0.000000 5.009330 
# 
# 
# High freq. dielectric constant tensor:
#      x y z
#    x 1.673520 0.000000 -0.004130 
#    y 0.000000 1.685560 0.000000 
#    z -0.004130 0.000000 1.723730 
# 
# From -- ./inp_files/345987.got.cif
#   From: 2010.06.25/outbox.cif.g09.slc.cpg/sg12_173_cif.got.tgz:345987.got - 2010.06.28 00:19:55.
