data_PCOD8095627
_publ_section_title
;
Structure prediction by ZEFSAII (Michael W. Deem and Ramdas Pophale) SiO2 
 PCOD8095627
Probable space group: C 2/M
;
_chemical_formula_sum "Si O2"
_cell_formula_units_Z 56
_cell_length_a 28.058480
_cell_length_b 13.578980
_cell_length_c 15.468035
_cell_angle_alpha 90.000000
_cell_angle_beta 34.252908
_cell_angle_gamma 90.000000
_cell_volume 3317.085746
_symmetry_space_group_name_H-M "C 2/M"
_symmetry_group_IT_number 12
_symmetry_cell_setting 'monoclinic'
loop_
_space_group_symop_operation_xyz
x,y,z
-x,y,-z
-x,-y,-z
x,-y,z
1/2+x,1/2+y,z
1/2-x,1/2+y,-z
1/2-x,1/2-y,-z
1/2+x,1/2-y,z
loop_
_atom_site_type_symbol
_atom_site_label
_atom_site_fract_x
_atom_site_fract_y
_atom_site_fract_z
Si Si1 0.628802 0.764133 0.673205
Si Si2 0.097007 0.390993 0.880199
Si Si3 0.192127 0.113012 0.864768
Si Si4 0.437686 0.773164 0.904157
Si Si5 0.872169 0.384567 0.653901
Si Si6 0.766918 0.113064 0.392692
Si Si7 0.536413 0.884165 0.310305
O O1 0.643575 0.824525 0.739807
O O2 0.532721 0.748017 0.790366
O O3 0.678470 0.825881 0.525080
O O4 0.670391 0.657404 0.628183
O O5 0.137849 0.500000 0.820444
O O6 0.107480 0.344176 0.959115
O O7 0.000000 0.398777 0.000000
O O8 0.280571 0.159386 0.767060
O O9 0.188809 0.121764 0.766452
O O10 0.182023 0.000000 0.909581
O O11 0.114403 0.171969 0.023259
O O12 0.435631 0.825405 0.815445
O O13 0.869895 0.500000 0.640387
O O14 0.893653 0.361774 0.721215
O O15 0.945693 0.343846 0.480207
O O16 0.747223 0.000000 0.445174
O O17 0.532356 0.000000 0.294912
#
# Coordination Sequence:
#
# PCOD8095627 Si02
#       7
#     8   8   8   8   8   8   8
#     4  10  20  33  48  70  96 128 170 205 239 288
#     4   9  17  29  44  65  96 127 155 194 240 283
#     4  10  20  33  49  71 100 132 164 201 243 288
#     4  11  20  30  47  74 101 129 162 196 245 300
#     4   8  16  32  52  75  99 123 158 202 244 290
#     4  10  20  34  52  70  94 131 170 207 242 281
#     4   9  17  31  53  77  99 124 157 200 248 293
#
# _framework density 16.882289
#
# number of rings (size 3 to 8) (size 9 to 14) (size 15 to 20)
#    0.000    2.429    1.429    2.571    0.000    4.000 
#    0.000    1.429    0.000    0.000    0.000    2.000 
#    0.000    0.000    0.000    0.000    0.000    0.000 
#
# Total GULP energy -347148.357148 kJ/mol
# GULP energy per Si atom -12398.155612 kJ/mol
# Density = 1.684386 g / cm^3
# Si number density = 16.882289 Si / 1000 Ang^3
#
#
#
# Elastic Constant Matrix: (Units=GPa)
#
#
# Indices 1 2 3 4 5 6 
#
# 1 69.1449 43.6543 35.1597 0.0000 1.7783 0.0000
# 2 43.6543 80.6692 42.9220 0.0000 -5.3465 0.0000
# 3 35.1597 42.9220 81.6680 0.0000 0.2958 0.0000
# 4 0.0000 0.0000 0.0000 31.1539 0.0000 2.4083
# 5 1.7783 -5.3465 0.2958 0.0000 31.9443 0.0000
# 6 0.0000 0.0000 0.0000 2.4083 0.0000 18.4451
#
#
#
# Elastic Compliance Matrix: (Units=1/GPa)
#
#
# Indices 1 2 3 4 5 6 
#
# 1 0.023483 -0.010459 -0.004602 0.000000 -0.003015 0.000000
# 2 -0.010459 0.022152 -0.007155 0.000000 0.004356 0.000000
# 3 -0.004602 -0.007155 0.017991 0.000000 -0.001108 0.000000
# 4 0.000000 0.000000 0.000000 0.032426 0.000000 -0.004234
# 5 -0.003015 0.004356 -0.001108 0.000000 0.032212 0.000000
# 6 0.000000 0.000000 0.000000 -0.004234 0.000000 0.054768
#
#
# Mechanical properties :
#
#
# Convention : Reuss Voigt Hill
#
# Bulk Modulus (GPa) = 52.10273 52.77266 52.43769
# Shear Modulus (GPa) = 21.38004 23.62507 22.50255
#
# Velocity S-wave (km/s) = 3.56254 3.74491 3.65486
# Velocity P-wave (km/s) = 6.91748 7.07292 6.99563
#
# Compressibility (1/GPa) = 0.01919285
#
# Stress axis : x y z
#
# Youngs Moduli (GPa) = 42.58309 45.14215 55.58458
#
# Poissons Ratio (x) = 0.47216 0.25581
# Poissons Ratio (y) = 0.44539 0.39773
# Poissons Ratio (z) = 0.19597 0.32301
#
# Static dielectric constant tensor:
#      x y z
#    x 3.144730 0.000000 -0.069800 
#    y 0.000000 3.062600 0.000000 
#    z -0.069800 0.000000 3.194920 
# 
# 
# High freq. dielectric constant tensor:
#      x y z
#    x 1.641100 0.000000 0.002910 
#    y 0.000000 1.631630 0.000000 
#    z 0.002910 0.000000 1.650300 
# 
# From -- ./inp_files/240395.got.cif
#   From: 2010.06.25/outbox.cif.g09.slc.cpg/sg12_121_cif.got.tgz:240395.got - 2010.06.28 00:19:55.
