data_PCOD8095550
_publ_section_title
;
Structure prediction by ZEFSAII (Michael W. Deem and Ramdas Pophale) SiO2 
 PCOD8095550
Probable space group: C 2/M
;
_chemical_formula_sum "Si O2"
_cell_formula_units_Z 64
_cell_length_a 31.026334
_cell_length_b 13.805963
_cell_length_c 21.412060
_cell_angle_alpha 90.000000
_cell_angle_beta 158.676947
_cell_angle_gamma 90.000000
_cell_volume 3335.113587
_symmetry_space_group_name_H-M "C 2/M"
_symmetry_group_IT_number 12
_symmetry_cell_setting 'monoclinic'
loop_
_space_group_symop_operation_xyz
x,y,z
-x,y,-z
-x,-y,-z
x,-y,z
1/2+x,1/2+y,z
1/2-x,1/2+y,-z
1/2-x,1/2-y,-z
1/2+x,1/2-y,z
loop_
_atom_site_type_symbol
_atom_site_label
_atom_site_fract_x
_atom_site_fract_y
_atom_site_fract_z
Si Si1 0.422554 0.107830 0.266151
Si Si2 0.127068 0.886813 0.182075
Si Si3 0.359577 0.113742 0.813771
Si Si4 0.237903 0.734596 0.556120
Si Si5 0.007612 0.611601 0.251106
Si Si6 0.133778 0.259625 0.701724
Si Si7 0.190240 0.608314 0.669870
Si Si8 0.310617 0.888816 0.889892
O O1 0.410421 0.124722 0.175538
O O2 0.359513 0.194364 0.219529
O O3 0.561994 0.111599 0.466783
O O4 0.374470 0.000000 0.220181
O O5 0.172340 0.854051 0.310526
O O6 0.216956 0.842023 0.252279
O O7 0.120410 0.000000 0.169273
O O8 0.000000 0.838515 0.000000
O O9 0.280578 0.173795 0.656404
O O10 0.313584 0.141743 0.821194
O O11 0.338585 0.000000 0.771376
O O12 0.500000 0.137385 0.000000
O O13 0.250000 0.750000 0.500000
O O14 0.106301 0.694790 0.393314
O O15 0.058653 0.500000 0.322400
O O16 0.940156 0.629958 0.094823
O O17 0.195595 0.339647 0.742701
O O18 0.210121 0.163488 0.795805
O O19 0.000000 0.237935 0.500000
O O20 0.232791 0.500000 0.740388
O O21 0.276008 0.000000 0.849187
#
# Coordination Sequence:
#
# PCOD8095550 Si02
#       8
#     8   8   8   8   8   8   8   8
#     4   9  17  32  56  83 111 145 184 231 290 346
#     4  10  20  34  54  81 114 148 181 226 283 341
#     4  10  22  41  62  84 115 157 204 243 276 331
#     4  12  23  34  57  87 113 147 187 235 287 336
#     4  10  21  39  61  84 114 149 191 239 290 347
#     4  10  20  32  55  85 113 145 187 243 286 341
#     4   9  16  30  52  80 111 142 179 227 282 341
#     4  10  22  39  59  82 113 156 198 235 280 339
#
# _framework density 19.189751000000001
#
# number of rings (size 3 to 8) (size 9 to 14) (size 15 to 20)
#    0.000    2.000    1.250    2.625    1.750    5.250 
#    0.000    0.000    0.000    1.500    0.000    0.000 
#    0.000    0.000    0.000    0.000    0.000    0.000 
#
# Total GULP energy -396480.511264 kJ/mol
# GULP energy per Si atom -12390.015977 kJ/mol
# Density = 1.914607 g / cm^3
# Si number density = 19.189751 Si / 1000 Ang^3
#
#
#
# Elastic Constant Matrix: (Units=GPa)
#
#
# Indices 1 2 3 4 5 6 
#
# 1 126.2223 55.4045 52.5291 0.0000 -8.1206 0.0000
# 2 55.4045 92.3018 49.2770 0.0000 3.3680 0.0000
# 3 52.5291 49.2770 78.9806 0.0000 -3.6899 0.0000
# 4 0.0000 0.0000 0.0000 24.3177 0.0000 -5.8050
# 5 -8.1206 3.3680 -3.6899 0.0000 29.4615 0.0000
# 6 0.0000 0.0000 0.0000 -5.8050 0.0000 25.6963
#
#
#
# Elastic Compliance Matrix: (Units=1/GPa)
#
#
# Indices 1 2 3 4 5 6 
#
# 1 0.012364 -0.004853 -0.005040 0.000000 0.003332 0.000000
# 2 -0.004853 0.018444 -0.008491 0.000000 -0.004510 0.000000
# 3 -0.005040 -0.008491 0.021417 0.000000 0.002264 0.000000
# 4 0.000000 0.000000 0.000000 0.043466 0.000000 0.009819
# 5 0.003332 -0.004510 0.002264 0.000000 0.035660 0.000000
# 6 0.000000 0.000000 0.000000 0.009819 0.000000 0.041134
#
#
# Mechanical properties :
#
#
# Convention : Reuss Voigt Hill
#
# Bulk Modulus (GPa) = 64.69052 67.99176 66.34114
# Shear Modulus (GPa) = 23.32016 25.24804 24.28410
#
# Velocity S-wave (km/s) = 3.48981 3.63120 3.56121
# Velocity P-wave (km/s) = 7.07266 7.28622 7.18024
#
# Compressibility (1/GPa) = 0.01545822
#
# Stress axis : x y z
#
# Youngs Moduli (GPa) = 80.87728 54.21697 46.69194
#
# Poissons Ratio (x) = 0.26309 0.23534
# Poissons Ratio (y) = 0.39246 0.39646
# Poissons Ratio (z) = 0.40764 0.46036
#
# Static dielectric constant tensor:
#      x y z
#    x 3.733420 0.000000 -0.002170 
#    y 0.000000 3.825370 0.000000 
#    z -0.002170 0.000000 3.460390 
# 
# 
# High freq. dielectric constant tensor:
#      x y z
#    x 1.752910 0.000000 -0.004240 
#    y 0.000000 1.750080 0.000000 
#    z -0.004240 0.000000 1.724860 
# 
# From -- ./inp_files/330419.got.cif
#   From: 2010.06.25/outbox.cif.g09.slc.cpg/sg12_166_cif.got.tgz:330419.got - 2010.06.28 00:19:55.
