data_PCOD8095584
_publ_section_title
;
Structure prediction by ZEFSAII (Michael W. Deem and Ramdas Pophale) SiO2 
 PCOD8095584
Probable space group: C 2/M
;
_chemical_formula_sum "Si O2"
_cell_formula_units_Z 64
_cell_length_a 23.074405
_cell_length_b 9.356326
_cell_length_c 19.369137
_cell_angle_alpha 90.000000
_cell_angle_beta 120.625354
_cell_angle_gamma 90.000000
_cell_volume 3598.366738
_symmetry_space_group_name_H-M "C 2/M"
_symmetry_group_IT_number 12
_symmetry_cell_setting 'monoclinic'
loop_
_space_group_symop_operation_xyz
x,y,z
-x,y,-z
-x,-y,-z
x,-y,z
1/2+x,1/2+y,z
1/2-x,1/2+y,-z
1/2-x,1/2-y,-z
1/2+x,1/2-y,z
loop_
_atom_site_type_symbol
_atom_site_label
_atom_site_fract_x
_atom_site_fract_y
_atom_site_fract_z
Si Si1 0.817138 0.341171 0.680258
Si Si2 0.063464 0.835833 0.079800
Si Si3 0.943775 0.834372 0.762125
Si Si4 0.037839 0.331820 0.722455
Si Si5 0.688837 0.842589 0.159401
Si Si6 0.045641 0.333776 0.464770
Si Si7 0.167416 0.832804 0.587087
Si Si8 0.161440 0.168237 0.742478
O O1 0.835966 0.500000 0.663652
O O2 0.873391 0.228624 0.689876
O O3 0.813429 0.347212 0.759902
O O4 0.743344 0.294007 0.608597
O O5 0.051561 0.812733 0.153361
O O6 0.131905 0.761593 0.094984
O O7 0.072412 0.000000 0.065710
O O8 0.000000 0.770369 0.000000
O O9 0.005414 0.745564 0.768482
O O10 0.948300 0.000000 0.743563
O O11 0.045143 0.500000 0.741065
O O12 0.110994 0.263822 0.756234
O O13 0.991672 0.299143 0.628641
O O14 0.763988 0.794142 0.183467
O O15 0.673944 0.000000 0.120608
O O16 0.061011 0.500000 0.483631
O O17 0.116549 0.251945 0.507015
O O18 0.000000 0.276498 0.500000
O O19 0.155325 0.786298 0.658842
O O20 0.154304 0.000000 0.570530
O O21 0.145943 0.000000 0.741942
#
# Coordination Sequence:
#
# PCOD8095584 Si02
#       8
#     8   8   8   8   8   8   8   8
#     4   8  15  30  49  70  97 126 159 201 247 291
#     4   9  18  33  54  80 106 129 155 193 241 289
#     4  10  20  34  52  74  99 129 164 198 238 293
#     4  11  22  34  49  69  98 135 168 204 248 291
#     4   8  15  28  48  75 103 128 158 198 240 284
#     4  10  20  33  46  67  98 129 166 210 252 291
#     4   9  17  29  49  73  95 124 163 209 253 291
#     4   9  17  30  48  72 100 129 164 205 246 287
#
# _framework density 17.785847
#
# number of rings (size 3 to 8) (size 9 to 14) (size 15 to 20)
#    0.000    2.750    1.250    2.250    0.000    3.000 
#    0.000    3.125    0.000    0.750    0.000    0.000 
#    0.000    0.000    0.000    0.000    0.000    0.000 
#
# Total GULP energy -396747.528901 kJ/mol
# GULP energy per Si atom -12398.360278 kJ/mol
# Density = 1.774537 g / cm^3
# Si number density = 17.785847 Si / 1000 Ang^3
#
#
#
# Elastic Constant Matrix: (Units=GPa)
#
#
# Indices 1 2 3 4 5 6 
#
# 1 112.4535 68.0165 37.5442 0.0000 29.3544 0.0000
# 2 68.0165 91.9826 41.2718 0.0000 22.2726 0.0000
# 3 37.5442 41.2718 61.7402 0.0000 30.5681 0.0000
# 4 0.0000 0.0000 0.0000 23.0050 0.0000 8.4615
# 5 29.3544 22.2726 30.5681 0.0000 29.5034 0.0000
# 6 0.0000 0.0000 0.0000 8.4615 0.0000 34.3604
#
#
#
# Elastic Compliance Matrix: (Units=1/GPa)
#
#
# Indices 1 2 3 4 5 6 
#
# 1 0.018295 -0.011846 0.002830 0.000000 -0.012192 0.000000
# 2 -0.011846 0.023257 -0.011264 0.000000 0.005900 0.000000
# 3 0.002830 -0.011264 0.039402 0.000000 -0.035136 0.000000
# 4 0.000000 0.000000 0.000000 0.047798 0.000000 -0.011771
# 5 -0.012192 0.005900 -0.035136 0.000000 0.077975 0.000000
# 6 0.000000 0.000000 0.000000 -0.011771 0.000000 0.032002
#
#
# Mechanical properties :
#
#
# Convention : Reuss Voigt Hill
#
# Bulk Modulus (GPa) = 24.75650 62.20460 43.48055
# Shear Modulus (GPa) = 17.07921 25.33000 21.20461
#
# Velocity S-wave (km/s) = 3.10218 3.77791 3.45660
# Velocity P-wave (km/s) = 5.17502 7.35393 6.35850
#
# Compressibility (1/GPa) = 0.04039343
#
# Stress axis : x y z
#
# Youngs Moduli (GPa) = 54.65882 42.99860 25.37950
#
# Poissons Ratio (x) = 0.50936 -0.07182
# Poissons Ratio (y) = 0.64749 0.28587
# Poissons Ratio (z) = -0.15467 0.48433
#
# Static dielectric constant tensor:
#      x y z
#    x 3.342600 0.000000 0.280060 
#    y 0.000000 3.324410 0.000000 
#    z 0.280060 0.000000 3.072520 
# 
# 
# High freq. dielectric constant tensor:
#      x y z
#    x 1.685770 0.000000 0.024640 
#    y 0.000000 1.688070 0.000000 
#    z 0.024640 0.000000 1.656420 
# 
# From -- ./inp_files/320014.got.cif
#   From: 2010.06.25/outbox.cif.g09.slc.cpg/sg12_161_cif.got.tgz:320014.got - 2010.06.28 00:19:55.
