data_PCOD8095085
_publ_section_title
;
Structure prediction by ZEFSAII (Michael W. Deem and Ramdas Pophale) SiO2 
 PCOD8095085
Probable space group: C 2/M
;
_chemical_formula_sum "Si O2"
_cell_formula_units_Z 48
_cell_length_a 12.715824
_cell_length_b 18.964949
_cell_length_c 22.614682
_cell_angle_alpha 90.000000
_cell_angle_beta 152.284485
_cell_angle_gamma 90.000000
_cell_volume 2536.389817
_symmetry_space_group_name_H-M "C 2/M"
_symmetry_group_IT_number 12
_symmetry_cell_setting 'monoclinic'
loop_
_space_group_symop_operation_xyz
x,y,z
-x,y,-z
-x,-y,-z
x,-y,z
1/2+x,1/2+y,z
1/2-x,1/2+y,-z
1/2-x,1/2-y,-z
1/2+x,1/2-y,z
loop_
_atom_site_type_symbol
_atom_site_label
_atom_site_fract_x
_atom_site_fract_y
_atom_site_fract_z
Si Si1 0.088304 0.849235 0.665900
Si Si2 0.888026 0.650721 0.626460
Si Si3 0.973452 0.580326 0.790423
Si Si4 0.014138 0.208471 0.749298
Si Si5 0.650073 0.689351 0.022339
Si Si6 0.771948 0.801212 0.740878
O O1 0.256590 0.907968 0.724328
O O2 0.097857 0.848213 0.742498
O O3 0.154841 0.773905 0.671789
O O4 0.836781 0.868830 0.520402
O O5 0.915665 0.595834 0.693376
O O6 0.879012 0.730389 0.646871
O O7 0.101449 0.644176 0.687498
O O8 0.051830 0.500000 0.835693
O O9 0.174616 0.630622 0.912925
O O10 0.226178 0.241995 0.889358
O O11 0.848684 0.170822 0.714493
O O12 0.500000 0.655340 0.000000
O O13 0.494954 0.713181 0.890975
#
# Coordination Sequence:
#
# PCOD8095085 Si02
#       6
#     8   8   8   8   8   8
#     4  11  21  34  54  84 116 148 185 226 282 341
#     4  10  21  34  53  85 115 146 187 227 278 337
#     4  11  24  40  58  80 111 154 196 237 274 324
#     4  10  20  31  55  86 117 146 172 228 291 345
#     4  11  19  36  57  87 113 144 186 234 287 334
#     4  11  19  34  56  87 117 146 177 231 294 339
#
# _framework density 18.924534999999999
#
# number of rings (size 3 to 8) (size 9 to 14) (size 15 to 20)
#    0.000    1.333    8.333    3.000    0.000    3.667 
#    0.000    0.000    0.000    3.000    0.000    2.333 
#    0.000    0.000    0.000    0.000    0.000    0.000 
#
# Total GULP energy -297577.333624 kJ/mol
# GULP energy per Si atom -12399.055568 kJ/mol
# Density = 1.888146 g / cm^3
# Si number density = 18.924535 Si / 1000 Ang^3
#
#
#
# Elastic Constant Matrix: (Units=GPa)
#
#
# Indices 1 2 3 4 5 6 
#
# 1 173.7369 21.3171 26.3712 0.0014 7.9399 0.0008
# 2 21.3171 39.7078 10.6741 0.0011 2.0658 0.0009
# 3 26.3712 10.6741 85.7853 0.0047 20.7364 0.0019
# 4 0.0014 0.0011 0.0047 6.6073 0.0005 1.0791
# 5 7.9399 2.0658 20.7364 0.0005 21.0824 0.0000
# 6 0.0008 0.0009 0.0019 1.0791 0.0000 15.9695
#
#
#
# Elastic Compliance Matrix: (Units=1/GPa)
#
#
# Indices 1 2 3 4 5 6 
#
# 1 0.006371 -0.003004 -0.001412 0.000000 -0.000717 0.000000
# 2 -0.003004 0.027483 -0.002780 -0.000002 0.001172 -0.000001
# 3 -0.001412 -0.002780 0.016061 -0.000009 -0.014994 -0.000001
# 4 0.000000 -0.000002 -0.000009 0.153036 0.000006 -0.010341
# 5 -0.000717 0.001172 -0.014994 0.000006 0.062335 0.000001
# 6 0.000000 -0.000001 -0.000001 -0.010341 0.000001 0.063318
#
#
# Mechanical properties :
#
#
# Convention : Reuss Voigt Hill
#
# Bulk Modulus (GPa) = 28.14893 46.21719 37.18306
# Shear Modulus (GPa) = 14.09102 24.78970 19.44036
#
# Velocity S-wave (km/s) = 2.73168 3.62321 3.20856
# Velocity P-wave (km/s) = 4.98558 6.47908 5.78076
#
# Compressibility (1/GPa) = 0.03552533
#
# Stress axis : x y z
#
# Youngs Moduli (GPa) = 156.95130 36.38644 62.26212
#
# Poissons Ratio (x) = 0.10930 0.08789
# Poissons Ratio (y) = 0.47144 0.17307
# Poissons Ratio (z) = 0.22155 0.10114
#
# Static dielectric constant tensor:
#      x y z
#    x 4.024520 0.000000 0.137300 
#    y 0.000000 2.839930 -0.000010 
#    z 0.137300 -0.000010 3.493490 
# 
# 
# High freq. dielectric constant tensor:
#      x y z
#    x 1.759650 0.000000 0.008910 
#    y 0.000000 1.659180 0.000000 
#    z 0.008910 0.000000 1.741240 
# 
# From -- ./inp_files/306841.got.cif
#   From: 2010.06.25/outbox.cif.g09.slc.cpg/sg12_154_cif.got.tgz:306841.got - 2010.06.28 00:19:55.
