data_PCOD8095583
_publ_section_title
;
Structure prediction by ZEFSAII (Michael W. Deem and Ramdas Pophale) SiO2 
 PCOD8095583
Probable space group: C 2/M
;
_chemical_formula_sum "Si O2"
_cell_formula_units_Z 48
_cell_length_a 26.893964
_cell_length_b 9.513779
_cell_length_c 11.665497
_cell_angle_alpha 90.000000
_cell_angle_beta 72.553708
_cell_angle_gamma 90.000000
_cell_volume 2847.467489
_symmetry_space_group_name_H-M "C 2/M"
_symmetry_group_IT_number 12
_symmetry_cell_setting 'monoclinic'
loop_
_space_group_symop_operation_xyz
x,y,z
-x,y,-z
-x,-y,-z
x,-y,z
1/2+x,1/2+y,z
1/2-x,1/2+y,-z
1/2-x,1/2-y,-z
1/2+x,1/2-y,z
loop_
_atom_site_type_symbol
_atom_site_label
_atom_site_fract_x
_atom_site_fract_y
_atom_site_fract_z
Si Si1 0.302895 0.665420 0.965089
Si Si2 0.529093 0.343634 0.134187
Si Si3 0.388032 0.340172 0.726550
Si Si4 0.381590 0.340361 0.106596
Si Si5 0.442192 0.163595 0.507754
Si Si6 0.432159 0.164036 0.249021
O O1 0.291627 0.500000 0.976360
O O2 0.335111 0.704289 0.828262
O O3 0.250000 0.750000 0.000000
O O4 0.335376 0.710814 0.055150
O O5 0.503636 0.500000 0.155356
O O6 0.564239 0.321657 0.220698
O O7 0.485961 0.223967 0.162907
O O8 0.563278 0.329192 0.996522
O O9 0.383832 0.500000 0.686227
O O10 0.397685 0.241525 0.611060
O O11 0.371318 0.500000 0.153095
O O12 0.384223 0.240622 0.216723
O O13 0.500000 0.220103 0.500000
O O14 0.428597 0.195399 0.385941
O O15 0.438826 0.000000 0.539854
O O16 0.429852 0.000000 0.223396
#
# Coordination Sequence:
#
# PCOD8095583 Si02
#       6
#     8   8   8   8   8   8
#     4   9  19  36  57  80 101 123 158 208 259 303
#     4   9  17  30  47  67  96 133 166 199 240 288
#     4   9  18  32  51  75  99 128 171 208 238 291
#     4   9  19  34  49  69  99 130 162 201 247 297
#     4  10  20  33  46  67 104 141 170 205 245 285
#     4  11  21  30  44  69 101 135 169 203 239 286
#
# _framework density 16.857085000000001
#
# number of rings (size 3 to 8) (size 9 to 14) (size 15 to 20)
#    0.000    2.500    1.667    3.000    0.000    5.667 
#    0.000    3.333    0.000    1.000    0.000    0.000 
#    0.000    0.000    0.000    0.000    0.000    0.000 
#
# Total GULP energy -297571.126566 kJ/mol
# GULP energy per Si atom -12398.796940 kJ/mol
# Density = 1.681872 g / cm^3
# Si number density = 16.857085 Si / 1000 Ang^3
#
#
#
# Elastic Constant Matrix: (Units=GPa)
#
#
# Indices 1 2 3 4 5 6 
#
# 1 85.8364 57.5846 60.1179 0.0000 -5.7094 0.0000
# 2 57.5846 85.4388 64.7256 0.0000 7.0163 0.0000
# 3 60.1179 64.7256 95.5886 0.0000 10.8712 0.0000
# 4 0.0000 0.0000 0.0000 31.2943 0.0000 -0.6229
# 5 -5.7094 7.0163 10.8712 0.0000 18.1927 0.0000
# 6 0.0000 0.0000 0.0000 -0.6229 0.0000 31.1745
#
#
#
# Elastic Compliance Matrix: (Units=1/GPa)
#
#
# Indices 1 2 3 4 5 6 
#
# 1 0.031150 -0.012445 -0.013757 0.000000 0.022796 0.000000
# 2 -0.012445 0.029008 -0.010835 0.000000 -0.008619 0.000000
# 3 -0.013757 -0.010835 0.028395 0.000000 -0.017107 0.000000
# 4 0.000000 0.000000 0.000000 0.031967 0.000000 0.000639
# 5 0.022796 -0.008619 -0.017107 0.000000 0.075667 0.000000
# 6 0.000000 0.000000 0.000000 0.000639 0.000000 0.032090
#
#
# Mechanical properties :
#
#
# Convention : Reuss Voigt Hill
#
# Bulk Modulus (GPa) = 69.05955 70.19113 69.62534
# Shear Modulus (GPa) = 16.27713 21.76135 19.01924
#
# Velocity S-wave (km/s) = 3.11078 3.59685 3.36261
# Velocity P-wave (km/s) = 7.34569 7.67979 7.51460
#
# Compressibility (1/GPa) = 0.01448026
#
# Stress axis : x y z
#
# Youngs Moduli (GPa) = 32.10234 34.47312 35.21692
#
# Poissons Ratio (x) = 0.42903 0.48447
# Poissons Ratio (y) = 0.39952 0.38157
# Poissons Ratio (z) = 0.44162 0.37351
#
# Static dielectric constant tensor:
#      x y z
#    x 2.990680 0.000000 0.171680 
#    y 0.000000 3.126920 0.000000 
#    z 0.171680 0.000000 3.158870 
# 
# 
# High freq. dielectric constant tensor:
#      x y z
#    x 1.626620 0.000000 0.018130 
#    y 0.000000 1.650290 0.000000 
#    z 0.018130 0.000000 1.643830 
# 
# From -- ./inp_files/172371.got.cif
#   From: 2010.06.25/outbox.cif.g09.slc.cpg/sg12_87_cif.got.tgz:172371.got - 2010.06.28 00:19:55.
