data_PCOD8095625
_publ_section_title
;
Structure prediction by ZEFSAII (Michael W. Deem and Ramdas Pophale) SiO2 
 PCOD8095625
Probable space group: C 2/M
;
_chemical_formula_sum "Si O2"
_cell_formula_units_Z 64
_cell_length_a 9.656143
_cell_length_b 22.147351
_cell_length_c 24.545939
_cell_angle_alpha 90.000000
_cell_angle_beta 43.173646
_cell_angle_gamma 90.000000
_cell_volume 3591.663539
_symmetry_space_group_name_H-M "C 2/M"
_symmetry_group_IT_number 12
_symmetry_cell_setting 'monoclinic'
loop_
_space_group_symop_operation_xyz
x,y,z
-x,y,-z
-x,-y,-z
x,-y,z
1/2+x,1/2+y,z
1/2-x,1/2+y,-z
1/2-x,1/2-y,-z
1/2+x,1/2-y,z
loop_
_atom_site_type_symbol
_atom_site_label
_atom_site_fract_x
_atom_site_fract_y
_atom_site_fract_z
Si Si1 0.834849 0.568233 0.503122
Si Si2 0.451062 0.621762 0.337147
Si Si3 0.954263 0.569646 0.735538
Si Si4 0.590934 0.572171 0.766300
Si Si5 0.768664 0.130202 0.573397
Si Si6 0.875822 0.569592 0.202377
Si Si7 0.139290 0.570220 0.913507
Si Si8 0.777125 0.735420 0.555171
O O1 0.863391 0.500000 0.473878
O O2 0.621043 0.576106 0.594863
O O3 0.852176 0.613476 0.447199
O O4 0.000000 0.587540 0.500000
O O5 0.352345 0.603146 0.307480
O O6 0.692168 0.615635 0.265410
O O7 0.388763 0.689711 0.372639
O O8 0.962615 0.500000 0.718562
O O9 0.162487 0.597696 0.654176
O O10 0.949822 0.580679 0.802323
O O11 0.752382 0.595878 0.764870
O O12 0.594055 0.500000 0.757534
O O13 0.369419 0.595124 0.848982
O O14 0.757591 0.200754 0.591558
O O15 0.000000 0.107914 0.500000
O O16 0.796899 0.500000 0.227678
O O17 0.961585 0.582159 0.117027
O O18 0.151568 0.500000 0.923334
O O19 0.000000 0.601831 0.000000
O O20 0.750000 0.750000 0.500000
O O21 0.000000 0.707386 0.500000
#
# Coordination Sequence:
#
# PCOD8095625 Si02
#       8
#     8   8   8   8   8   8   8   8
#     4  11  21  31  47  69  89 118 164 209 249 293
#     4  11  19  33  50  66  92 126 168 210 252 293
#     4  10  20  33  48  70 102 132 164 209 252 295
#     4   9  18  31  50  76 102 130 163 203 251 296
#     4  11  23  36  48  65  93 130 171 212 261 299
#     4   9  18  31  50  75 101 131 163 199 245 295
#     4   8  14  28  50  75 104 134 161 190 232 296
#     4  11  25  39  50  67  92 129 171 220 266 301
#
# _framework density 17.819040999999999
#
# number of rings (size 3 to 8) (size 9 to 14) (size 15 to 20)
#    0.000    2.000    1.250    4.125    3.500    4.000 
#    0.000    0.625    0.000    3.750    0.000    0.000 
#    0.000   16.000    0.000    0.000    0.000    0.000 
#
# Total GULP energy -396628.539714 kJ/mol
# GULP energy per Si atom -12394.641866 kJ/mol
# Density = 1.777848 g / cm^3
# Si number density = 17.819041 Si / 1000 Ang^3
#
#
#
# Elastic Constant Matrix: (Units=GPa)
#
#
# Indices 1 2 3 4 5 6 
#
# 1 113.8150 26.1042 39.0958 0.0028 17.3488 -0.0041
# 2 26.1042 58.1292 24.0513 0.0018 2.3720 0.0001
# 3 39.0958 24.0513 98.4898 -0.0012 16.9024 -0.0020
# 4 0.0028 0.0018 -0.0012 10.0149 -0.0011 -5.3600
# 5 17.3488 2.3720 16.9024 -0.0011 21.2184 0.0035
# 6 -0.0041 0.0001 -0.0020 -5.3600 0.0035 11.1718
#
#
#
# Elastic Compliance Matrix: (Units=1/GPa)
#
#
# Indices 1 2 3 4 5 6 
#
# 1 0.011603 -0.003915 -0.002429 0.000000 -0.007114 0.000006
# 2 -0.003915 0.020520 -0.004184 -0.000006 0.004241 -0.000007
# 3 -0.002429 -0.004184 0.013574 0.000006 -0.008359 0.000007
# 4 0.000000 -0.000006 0.000006 0.134349 -0.000008 0.064459
# 5 -0.007114 0.004241 -0.008359 -0.000008 0.059131 -0.000026
# 6 0.000006 -0.000007 0.000007 0.064459 -0.000026 0.120438
#
#
# Mechanical properties :
#
#
# Convention : Reuss Voigt Hill
#
# Bulk Modulus (GPa) = 40.58554 49.88185 45.23369
# Shear Modulus (GPa) = 12.85731 20.55988 16.70859
#
# Velocity S-wave (km/s) = 2.68908 3.40047 3.06548
# Velocity P-wave (km/s) = 5.69802 6.59333 6.16196
#
# Compressibility (1/GPa) = 0.02463932
#
# Stress axis : x y z
#
# Youngs Moduli (GPa) = 86.18505 48.73385 73.67116
#
# Poissons Ratio (x) = 0.19081 0.17893
# Poissons Ratio (y) = 0.33744 0.30827
# Poissons Ratio (z) = 0.20932 0.20392
#
# Static dielectric constant tensor:
#      x y z
#    x 3.571450 -0.000010 0.122560 
#    y -0.000010 3.148390 -0.000010 
#    z 0.122560 -0.000010 3.303960 
# 
# 
# High freq. dielectric constant tensor:
#      x y z
#    x 1.704270 0.000000 0.011850 
#    y 0.000000 1.654910 0.000000 
#    z 0.011850 0.000000 1.662300 
# 
# From -- ./inp_files/333740.got.cif
#   From: 2010.06.25/outbox.cif.g09.slc.cpg/sg12_167_cif.got.tgz:333740.got - 2010.06.28 00:19:55.
