data_PCOD8095073
_publ_section_title
;
Structure prediction by ZEFSAII (Michael W. Deem and Ramdas Pophale) SiO2 
 PCOD8095073
Probable space group: C 2/M
;
_chemical_formula_sum "Si O2"
_cell_formula_units_Z 56
_cell_length_a 11.609560
_cell_length_b 18.938301
_cell_length_c 20.234367
_cell_angle_alpha 90.000000
_cell_angle_beta 39.177974
_cell_angle_gamma 90.000000
_cell_volume 2810.469169
_symmetry_space_group_name_H-M "C 2/M"
_symmetry_group_IT_number 12
_symmetry_cell_setting 'monoclinic'
loop_
_space_group_symop_operation_xyz
x,y,z
-x,y,-z
-x,-y,-z
x,-y,z
1/2+x,1/2+y,z
1/2-x,1/2+y,-z
1/2-x,1/2-y,-z
1/2+x,1/2-y,z
loop_
_atom_site_type_symbol
_atom_site_label
_atom_site_fract_x
_atom_site_fract_y
_atom_site_fract_z
Si Si1 0.242728 0.813582 0.650294
Si Si2 0.173231 0.348704 0.986722
Si Si3 0.557615 0.421508 0.217319
Si Si4 0.071802 0.660991 0.711300
Si Si5 0.331347 0.917674 0.203193
Si Si6 0.881925 0.683990 0.451561
Si Si7 0.192323 0.195678 0.935122
O O1 0.143466 0.739880 0.685632
O O2 0.405532 0.797584 0.629222
O O3 0.309599 0.850551 0.551632
O O4 0.095646 0.868867 0.742281
O O5 0.286882 0.328366 0.999727
O O6 0.969829 0.371953 0.096954
O O7 0.268018 0.414225 0.908057
O O8 0.178672 0.280794 0.935730
O O9 0.478174 0.500000 0.247197
O O10 0.630333 0.407243 0.260267
O O11 0.169498 0.609981 0.720718
O O12 0.119613 0.635841 0.614551
O O13 0.853863 0.663613 0.818315
O O14 0.387576 0.000000 0.178477
O O15 0.750000 0.750000 0.500000
O O16 0.000000 0.161777 0.000000
#
# Coordination Sequence:
#
# PCOD8095073 Si02
#       7
#     8   8   8   8   8   8   8
#     4  10  21  38  60  91 114 143 202 243 290 353
#     4  10  20  33  54  82 118 160 199 240 281 342
#     4  11  22  37  59  86 121 161 197 240 291 347
#     4  10  21  35  62  85 116 154 187 248 292 345
#     4  10  22  38  56  85 121 160 202 236 283 349
#     4   9  21  39  61  88 113 149 189 245 300 347
#     4  10  20  31  52  90 121 146 189 242 297 344
#
# _framework density 19.925498999999999
#
# number of rings (size 3 to 8) (size 9 to 14) (size 15 to 20)
#    0.000    2.000    1.429    1.714    6.000    1.143 
#    0.000    2.857    0.000    3.857    0.000    0.000 
#    0.000    0.000    0.000    0.000    0.000    0.000 
#
# Total GULP energy -346916.917083 kJ/mol
# GULP energy per Si atom -12389.889896 kJ/mol
# Density = 1.988015 g / cm^3
# Si number density = 19.925499 Si / 1000 Ang^3
#
#
#
# Elastic Constant Matrix: (Units=GPa)
#
#
# Indices 1 2 3 4 5 6 
#
# 1 95.4492 32.9992 41.4682 0.0229 -21.1246 -0.0065
# 2 32.9992 70.5199 6.6136 0.0402 -2.3232 -0.0175
# 3 41.4682 6.6136 59.8008 0.0621 6.4951 -0.0242
# 4 0.0229 0.0402 0.0621 14.6002 -0.0325 3.3662
# 5 -21.1246 -2.3232 6.4951 -0.0325 34.8771 0.0113
# 6 -0.0065 -0.0175 -0.0242 3.3662 0.0113 27.2595
#
#
#
# Elastic Compliance Matrix: (Units=1/GPa)
#
#
# Indices 1 2 3 4 5 6 
#
# 1 0.026561 -0.009984 -0.019382 0.000120 0.019032 -0.000040
# 2 -0.009984 0.018138 0.005556 -0.000077 -0.005874 0.000026
# 3 -0.019382 0.005556 0.031418 -0.000170 -0.017220 0.000055
# 4 0.000120 -0.000077 -0.000170 0.070500 0.000168 -0.008706
# 5 0.019032 -0.005874 -0.017220 0.000168 0.043015 -0.000053
# 6 -0.000040 0.000026 0.000055 -0.008706 -0.000053 0.037760
#
#
# Mechanical properties :
#
#
# Convention : Reuss Voigt Hill
#
# Bulk Modulus (GPa) = 35.09168 43.10355 39.09761
# Shear Modulus (GPa) = 17.57393 24.99329 21.28361
#
# Velocity S-wave (km/s) = 2.97304 3.54550 3.27182
# Velocity P-wave (km/s) = 5.42540 6.20001 5.82559
#
# Compressibility (1/GPa) = 0.02849678
#
# Stress axis : x y z
#
# Youngs Moduli (GPa) = 37.64898 55.13275 31.82870
#
# Poissons Ratio (x) = 0.55047 0.61689
# Poissons Ratio (y) = 0.37591 -0.17683
# Poissons Ratio (z) = 0.72970 -0.30630
#
# Static dielectric constant tensor:
#      x y z
#    x 3.944070 0.000000 0.149230 
#    y 0.000000 3.270380 0.000020 
#    z 0.149230 0.000020 3.820150 
# 
# 
# High freq. dielectric constant tensor:
#      x y z
#    x 1.794020 0.000000 0.000330 
#    y 0.000000 1.735510 0.000000 
#    z 0.000330 0.000000 1.776190 
# 
# From -- ./inp_files/306583.got.cif
#   From: 2010.06.25/outbox.cif.g09.slc.cpg/sg12_154_cif.got.tgz:306583.got - 2010.06.28 00:19:55.
