data_PCOD8095575
_publ_section_title
;
Structure prediction by ZEFSAII (Michael W. Deem and Ramdas Pophale) SiO2 
 PCOD8095575
Probable space group: C 2/M
;
_chemical_formula_sum "Si O2"
_cell_formula_units_Z 36
_cell_length_a 14.606241
_cell_length_b 19.290544
_cell_length_c 9.345783
_cell_angle_alpha 90.000000
_cell_angle_beta 132.088522
_cell_angle_gamma 90.000000
_cell_volume 1954.190920
_symmetry_space_group_name_H-M "C 2/M"
_symmetry_group_IT_number 12
_symmetry_cell_setting 'monoclinic'
loop_
_space_group_symop_operation_xyz
x,y,z
-x,y,-z
-x,-y,-z
x,-y,z
1/2+x,1/2+y,z
1/2-x,1/2+y,-z
1/2-x,1/2-y,-z
1/2+x,1/2-y,z
loop_
_atom_site_type_symbol
_atom_site_label
_atom_site_fract_x
_atom_site_fract_y
_atom_site_fract_z
Si Si1 0.358956 0.804515 0.799320
Si Si2 0.814761 0.182754 0.129440
Si Si3 0.000000 0.254165 0.500000
Si Si4 0.218135 0.668554 0.585434
Si Si5 0.131433 0.080071 0.070817
O O1 0.270967 0.839474 0.826646
O O2 0.327761 0.725119 0.722640
O O3 0.327941 0.847529 0.623231
O O4 0.500000 0.809693 0.000000
O O5 0.833548 0.122460 0.034932
O O6 0.951577 0.204159 0.323465
O O7 0.750000 0.250000 0.000000
O O8 0.105090 0.304506 0.557955
O O9 0.266555 0.596474 0.701360
O O10 0.136661 0.000000 0.033740
O O11 0.000000 0.100591 0.000000
#
# Coordination Sequence:
#
# PCOD8095575 Si02
#       5
#     8   8   4   8   8
#     4  10  20  33  59  91 121 148 194 261 297 343
#     4  11  21  36  61  91 121 154 202 254 298 352
#     4  10  20  32  62  96 118 148 202 260 300 340
#     4  10  21  34  59  91 119 158 198 248 304 349
#     4  11  25  43  62  86 124 166 201 244 305 370
#
# _framework density 18.421945999999998
#
# number of rings (size 3 to 8) (size 9 to 14) (size 15 to 20)
#    0.000    1.556    4.444    2.000    9.333    0.000 
#    0.000    2.222    0.000    1.333    0.000    0.000 
#    0.000    0.000    0.000    0.000    0.000    0.000 
#
# Total GULP energy -223094.997650 kJ/mol
# GULP energy per Si atom -12394.166536 kJ/mol
# Density = 1.838002 g / cm^3
# Si number density = 18.421946 Si / 1000 Ang^3
#
#
#
# Elastic Constant Matrix: (Units=GPa)
#
#
# Indices 1 2 3 4 5 6 
#
# 1 99.5252 49.4214 60.9258 0.0000 -5.7173 0.0000
# 2 49.4214 79.2854 51.3898 0.0000 -4.6798 0.0000
# 3 60.9258 51.3898 163.4034 0.0000 -0.4768 0.0000
# 4 0.0000 0.0000 0.0000 22.8651 0.0000 -2.6559
# 5 -5.7173 -4.6798 -0.4768 0.0000 40.0207 0.0000
# 6 0.0000 0.0000 0.0000 -2.6559 0.0000 22.0442
#
#
#
# Elastic Compliance Matrix: (Units=1/GPa)
#
#
# Indices 1 2 3 4 5 6 
#
# 1 0.016125 -0.007632 -0.003608 0.000000 0.001368 0.000000
# 2 -0.007632 0.019584 -0.003310 0.000000 0.001160 0.000000
# 3 -0.003608 -0.003310 0.008504 0.000000 -0.000801 0.000000
# 4 0.000000 0.000000 0.000000 0.044356 0.000000 0.005344
# 5 0.001368 0.001160 -0.000801 0.000000 0.025309 0.000000
# 6 0.000000 0.000000 0.000000 0.005344 0.000000 0.046007
#
#
# Mechanical properties :
#
#
# Convention : Reuss Voigt Hill
#
# Bulk Modulus (GPa) = 66.17048 73.96535 70.06791
# Shear Modulus (GPa) = 25.77041 29.01779 27.39410
#
# Velocity S-wave (km/s) = 3.74424 3.97315 3.86039
# Velocity P-wave (km/s) = 7.39526 7.82852 7.61497
#
# Compressibility (1/GPa) = 0.01511248
#
# Stress axis : x y z
#
# Youngs Moduli (GPa) = 62.01652 51.06264 117.59490
#
# Poissons Ratio (x) = 0.38970 0.42429
# Poissons Ratio (y) = 0.47330 0.38925
# Poissons Ratio (z) = 0.22376 0.16902
#
# Static dielectric constant tensor:
#      x y z
#    x 3.743110 0.000000 -0.165280 
#    y 0.000000 3.099250 0.000000 
#    z -0.165280 0.000000 4.032000 
# 
# 
# High freq. dielectric constant tensor:
#      x y z
#    x 1.730610 0.000000 -0.002510 
#    y 0.000000 1.659380 0.000000 
#    z -0.002510 0.000000 1.739900 
# 
# From -- ./inp_files/61454.got.cif
#   From: 2010.06.25/outbox.cif.g09.slc.cpg/sg12_31_cif.got.tgz:61454.got - 2010.06.28 00:19:55.
