data_PCOD8095488
_publ_section_title
;
Structure prediction by ZEFSAII (Michael W. Deem and Ramdas Pophale) SiO2 
 PCOD8095488
Probable space group: C 2/M
;
_chemical_formula_sum "Si O2"
_cell_formula_units_Z 48
_cell_length_a 24.072117
_cell_length_b 8.691404
_cell_length_c 16.986741
_cell_angle_alpha 90.000000
_cell_angle_beta 134.726406
_cell_angle_gamma 90.000000
_cell_volume 2525.010717
_symmetry_space_group_name_H-M "C 2/M"
_symmetry_group_IT_number 12
_symmetry_cell_setting 'monoclinic'
loop_
_space_group_symop_operation_xyz
x,y,z
-x,y,-z
-x,-y,-z
x,-y,z
1/2+x,1/2+y,z
1/2-x,1/2+y,-z
1/2-x,1/2-y,-z
1/2+x,1/2-y,z
loop_
_atom_site_type_symbol
_atom_site_label
_atom_site_fract_x
_atom_site_fract_y
_atom_site_fract_z
Si Si1 0.927079 0.317915 0.531808
Si Si2 0.067863 0.817060 0.171975
Si Si3 0.664399 0.318433 0.415846
Si Si4 0.748654 0.816402 0.912251
Si Si5 0.099610 0.318208 0.670275
Si Si6 0.102752 0.817168 0.034514
O O1 0.916046 0.500000 0.533040
O O2 0.878721 0.225955 0.547516
O O3 0.895449 0.262969 0.415188
O O4 0.018076 0.268436 0.629322
O O5 0.115925 0.749345 0.293504
O O6 0.107187 0.759828 0.129557
O O7 0.068491 0.000000 0.175300
O O8 0.977919 0.758490 0.085852
O O9 0.670780 0.500000 0.415485
O O10 0.750000 0.250000 0.500000
O O11 0.671804 0.750524 0.791760
O O12 0.823940 0.751295 0.940724
O O13 0.748414 0.000000 0.915049
O O14 0.750000 0.750000 0.000000
O O15 0.103420 0.500000 0.672749
O O16 0.104733 0.000000 0.035578
#
# Coordination Sequence:
#
# PCOD8095488 Si02
#       6
#     8   8   8   8   8   8
#     4   9  18  36  58  77 103 139 180 220 259 310
#     4   8  16  31  51  75 100 131 171 214 256 303
#     4  11  23  35  53  81 109 137 173 216 265 314
#     4  10  20  32  52  79 106 137 173 212 256 307
#     4   8  17  34  56  79 103 141 182 214 259 316
#     4   8  15  30  52  75  99 131 173 214 251 298
#
# _framework density 19.009820999999999
#
# number of rings (size 3 to 8) (size 9 to 14) (size 15 to 20)
#    0.000    3.000    0.000    2.500    4.667    0.000 
#    0.000    2.500    0.000    0.000    0.000    5.833 
#    0.000    0.000    0.000    0.000    0.000    0.000 
#
# Total GULP energy -297499.912251 kJ/mol
# GULP energy per Si atom -12395.829677 kJ/mol
# Density = 1.896655 g / cm^3
# Si number density = 19.009821 Si / 1000 Ang^3
#
#
#
# Elastic Constant Matrix: (Units=GPa)
#
#
# Indices 1 2 3 4 5 6 
#
# 1 183.6473 22.3030 105.0709 0.0000 4.3336 0.0000
# 2 22.3030 22.8824 22.0131 0.0000 0.8283 0.0000
# 3 105.0709 22.0131 184.9538 0.0000 9.5293 0.0000
# 4 0.0000 0.0000 0.0000 20.8372 0.0000 -5.3486
# 5 4.3336 0.8283 9.5293 0.0000 28.3374 0.0000
# 6 0.0000 0.0000 0.0000 -5.3486 0.0000 26.8677
#
#
#
# Elastic Compliance Matrix: (Units=1/GPa)
#
#
# Indices 1 2 3 4 5 6 
#
# 1 0.008390 -0.004053 -0.004298 0.000000 0.000281 0.000000
# 2 -0.004053 0.051318 -0.003827 0.000000 0.000407 0.000000
# 3 -0.004298 -0.003827 0.008410 0.000000 -0.002059 0.000000
# 4 0.000000 0.000000 0.000000 0.050575 0.000000 0.010068
# 5 0.000281 0.000407 -0.002059 0.000000 0.035927 0.000000
# 6 0.000000 0.000000 0.000000 0.010068 0.000000 0.039224
#
#
# Mechanical properties :
#
#
# Convention : Reuss Voigt Hill
#
# Bulk Modulus (GPa) = 22.85030 76.69527 49.77278
# Shear Modulus (GPa) = 21.47887 31.34824 26.41355
#
# Velocity S-wave (km/s) = 3.36502 4.06526 3.73160
# Velocity P-wave (km/s) = 5.21001 7.90366 6.69373
#
# Compressibility (1/GPa) = 0.04376311
#
# Stress axis : x y z
#
# Youngs Moduli (GPa) = 119.18870 19.48632 118.90331
#
# Poissons Ratio (x) = 0.07897 0.51110
# Poissons Ratio (y) = 0.48303 0.45499
# Poissons Ratio (z) = 0.51233 0.07456
#
# Static dielectric constant tensor:
#      x y z
#    x 3.823760 0.000000 0.207990 
#    y 0.000000 2.925030 0.000000 
#    z 0.207990 0.000000 4.033700 
# 
# 
# High freq. dielectric constant tensor:
#      x y z
#    x 1.751090 0.000000 0.002270 
#    y 0.000000 1.683050 0.000000 
#    z 0.002270 0.000000 1.752460 
# 
# From -- ./inp_files/239406.got.cif
#   From: 2010.06.25/outbox.cif.g09.slc.cpg/sg12_120_cif.got.tgz:239406.got - 2010.06.28 00:19:55.
