data_PCOD8095122
_publ_section_title
;
Structure prediction by ZEFSAII (Michael W. Deem and Ramdas Pophale) SiO2 
 PCOD8095122
Probable space group: C 2/M
;
_chemical_formula_sum "Si O2"
_cell_formula_units_Z 40
_cell_length_a 18.320179
_cell_length_b 9.817117
_cell_length_c 22.995565
_cell_angle_alpha 90.000000
_cell_angle_beta 146.626162
_cell_angle_gamma 90.000000
_cell_volume 2275.092186
_symmetry_space_group_name_H-M "C 2/M"
_symmetry_group_IT_number 12
_symmetry_cell_setting 'monoclinic'
loop_
_space_group_symop_operation_xyz
x,y,z
-x,y,-z
-x,-y,-z
x,-y,z
1/2+x,1/2+y,z
1/2-x,1/2+y,-z
1/2-x,1/2-y,-z
1/2+x,1/2-y,z
loop_
_atom_site_type_symbol
_atom_site_label
_atom_site_fract_x
_atom_site_fract_y
_atom_site_fract_z
Si Si1 0.146725 0.338406 0.333106
Si Si2 0.044782 0.660271 0.693383
Si Si3 0.438020 0.848353 0.105724
Si Si4 0.271283 0.649888 0.930071
Si Si5 0.447600 0.657427 0.529698
O O1 0.136947 0.500000 0.324172
O O2 0.297160 0.286532 0.432783
O O3 0.073628 0.288413 0.343003
O O4 0.070099 0.285634 0.224142
O O5 0.030682 0.500000 0.669771
O O6 0.186679 0.692468 0.817182
O O7 0.038311 0.749284 0.630909
O O8 0.325002 0.854349 0.079025
O O9 0.463955 0.000000 0.098161
O O10 0.392200 0.754164 0.021429
O O11 0.333155 0.500000 0.961823
O O12 0.500000 0.674865 0.500000
O O13 0.455617 0.500000 0.555124
#
# Coordination Sequence:
#
# PCOD8095122 Si02
#       5
#     8   8   8   8   8
#     4   8  15  29  47  67  91 117 146 181 220 259
#     4   9  17  30  48  67  89 118 148 180 219 262
#     4   8  13  23  41  63  87 114 140 170 213 261
#     4   8  14  24  39  63  91 112 135 174 219 256
#     4  10  20  32  46  65  90 118 148 185 224 260
#
# _framework density 17.581704999999999
#
# number of rings (size 3 to 8) (size 9 to 14) (size 15 to 20)
#    0.000    3.400    0.000    3.000    0.000    1.200 
#    0.000    4.000    0.000    1.200    0.000    8.400 
#    0.000    0.000    0.000    0.000    0.000    0.000 
#
# Total GULP energy -247882.764044 kJ/mol
# GULP energy per Si atom -12394.138202 kJ/mol
# Density = 1.754169 g / cm^3
# Si number density = 17.581705 Si / 1000 Ang^3
#
#
#
# Elastic Constant Matrix: (Units=GPa)
#
#
# Indices 1 2 3 4 5 6 
#
# 1 30.4713 22.1437 25.0053 -0.0001 -11.5887 0.0000
# 2 22.1437 77.9279 71.3357 -0.0001 -15.4544 0.0000
# 3 25.0053 71.3357 131.1969 -0.0004 -22.0652 -0.0001
# 4 -0.0001 -0.0001 -0.0004 33.8529 -0.0002 -5.8408
# 5 -11.5887 -15.4544 -22.0652 -0.0002 10.8825 0.0000
# 6 0.0000 0.0000 -0.0001 -5.8408 0.0000 13.3467
#
#
#
# Elastic Compliance Matrix: (Units=1/GPa)
#
#
# Indices 1 2 3 4 5 6 
#
# 1 0.057339 -0.007633 0.002531 0.000001 0.055353 0.000001
# 2 -0.007633 0.027701 -0.012683 0.000000 0.005494 0.000000
# 3 0.002531 -0.012683 0.017390 0.000000 0.019944 0.000000
# 4 0.000001 0.000000 0.000000 0.031952 0.000002 0.013983
# 5 0.055353 0.005494 0.019944 0.000002 0.199078 0.000002
# 6 0.000001 0.000000 0.000000 0.013983 0.000002 0.081044
#
#
# Mechanical properties :
#
#
# Convention : Reuss Voigt Hill
#
# Bulk Modulus (GPa) = 14.95644 52.95171 33.95407
# Shear Modulus (GPa) = 10.58512 19.69050 15.13781
#
# Velocity S-wave (km/s) = 2.45634 3.35018 2.93746
# Velocity P-wave (km/s) = 4.07064 6.71922 5.55509
#
# Compressibility (1/GPa) = 0.06686084
#
# Stress axis : x y z
#
# Youngs Moduli (GPa) = 17.44011 36.09960 57.50376
#
# Poissons Ratio (x) = 0.27555 -0.14556
# Poissons Ratio (y) = 0.13312 0.72932
# Poissons Ratio (z) = -0.04415 0.45785
#
# Static dielectric constant tensor:
#      x y z
#    x 2.838740 0.000000 0.096000 
#    y 0.000000 3.272030 0.000000 
#    z 0.096000 0.000000 3.543480 
# 
# 
# High freq. dielectric constant tensor:
#      x y z
#    x 1.629970 0.000000 -0.001190 
#    y 0.000000 1.659700 0.000000 
#    z -0.001190 0.000000 1.692690 
# 
# From -- ./inp_files/140258.got.cif
#   From: 2010.06.25/outbox.cif.g09.slc.cpg/sg12_71_cif.got.tgz:140258.got - 2010.06.28 00:19:55.
