data_PCOD8095814
_publ_section_title
;
Structure prediction by ZEFSAII (Michael W. Deem and Ramdas Pophale) SiO2 
 PCOD8095814
Probable space group: C 2/M
;
_chemical_formula_sum "Si O2"
_cell_formula_units_Z 56
_cell_length_a 31.812966
_cell_length_b 9.486110
_cell_length_c 16.513121
_cell_angle_alpha 90.000000
_cell_angle_beta 141.295657
_cell_angle_gamma 90.000000
_cell_volume 3116.098429
_symmetry_space_group_name_H-M "C 2/M"
_symmetry_group_IT_number 12
_symmetry_cell_setting 'monoclinic'
loop_
_space_group_symop_operation_xyz
x,y,z
-x,y,-z
-x,-y,-z
x,-y,z
1/2+x,1/2+y,z
1/2-x,1/2+y,-z
1/2-x,1/2-y,-z
1/2+x,1/2-y,z
loop_
_atom_site_type_symbol
_atom_site_label
_atom_site_fract_x
_atom_site_fract_y
_atom_site_fract_z
Si Si1 0.570044 0.667145 0.362180
Si Si2 0.816169 0.162429 0.011571
Si Si3 0.064893 0.166275 0.914759
Si Si4 0.575343 0.334295 0.107943
Si Si5 0.942504 0.832554 0.474066
Si Si6 0.307791 0.338188 0.187071
Si Si7 0.820601 0.168162 0.599844
O O1 0.567089 0.500000 0.363410
O O2 0.509923 0.726871 0.214523
O O3 0.557452 0.728527 0.433964
O O4 0.641475 0.708221 0.427861
O O5 0.755225 0.246735 0.879525
O O6 0.804993 0.000000 0.972623
O O7 0.884740 0.223411 0.077575
O O8 0.822884 0.188335 0.116222
O O9 0.058131 0.000000 0.898198
O O10 0.097203 0.206576 0.049825
O O11 0.570458 0.500000 0.117126
O O12 0.630421 0.276104 0.254133
O O13 0.500000 0.269747 0.000000
O O14 0.871539 0.784505 0.331941
O O15 0.000000 0.770400 0.500000
O O16 0.950427 0.000000 0.487611
O O17 0.291327 0.500000 0.180673
O O18 0.750000 0.250000 0.500000
O O19 0.807404 0.000000 0.586038
#
# Coordination Sequence:
#
# PCOD8095814 Si02
#       7
#     8   8   8   8   8   8   8
#     4   9  16  27  45  69  94 121 155 197 238 278
#     4   9  17  28  44  66  89 116 150 189 227 267
#     4   9  15  25  45  70  91 113 153 200 234 265
#     4   9  15  27  47  70  93 118 153 197 236 270
#     4   9  16  26  43  67  94 121 151 190 235 278
#     4   9  17  29  43  62  92 122 147 181 227 275
#     4  10  20  33  50  73 101 130 159 197 245 291
#
# _framework density 17.971191000000001
#
# number of rings (size 3 to 8) (size 9 to 14) (size 15 to 20)
#    0.000    2.857    1.429    0.857    0.000    4.571 
#    0.000    0.000    0.000    1.714    0.000    0.000 
#    0.000    0.000    0.000    0.000    0.000    0.000 
#
# Total GULP energy -346903.132393 kJ/mol
# GULP energy per Si atom -12389.397585 kJ/mol
# Density = 1.793029 g / cm^3
# Si number density = 17.971191 Si / 1000 Ang^3
#
#
#
# Elastic Constant Matrix: (Units=GPa)
#
#
# Indices 1 2 3 4 5 6 
#
# 1 133.9866 26.6783 68.5980 0.0000 13.0599 0.0000
# 2 26.6783 16.7447 22.6251 0.0000 4.2000 0.0000
# 3 68.5980 22.6251 139.1611 0.0000 7.0190 0.0000
# 4 0.0000 0.0000 0.0000 19.2855 0.0000 7.9217
# 5 13.0599 4.2000 7.0190 0.0000 24.4520 0.0000
# 6 0.0000 0.0000 0.0000 7.9217 0.0000 16.1727
#
#
#
# Elastic Compliance Matrix: (Units=1/GPa)
#
#
# Indices 1 2 3 4 5 6 
#
# 1 0.012468 -0.014071 -0.003698 0.000000 -0.003181 0.000000
# 2 -0.014071 0.094755 -0.008146 0.000000 -0.006422 0.000000
# 3 -0.003698 -0.008146 0.010312 0.000000 0.000414 0.000000
# 4 0.000000 0.000000 0.000000 0.064913 0.000000 -0.031796
# 5 -0.003181 -0.006422 0.000414 0.000000 0.043580 0.000000
# 6 0.000000 0.000000 0.000000 -0.031796 0.000000 0.077407
#
#
# Mechanical properties :
#
#
# Convention : Reuss Voigt Hill
#
# Bulk Modulus (GPa) = 15.21896 58.41059 36.81478
# Shear Modulus (GPa) = 13.25672 23.44810 18.35241
#
# Velocity S-wave (km/s) = 2.71895 3.61607 3.19911
# Velocity P-wave (km/s) = 4.28297 7.07160 5.84599
#
# Compressibility (1/GPa) = 0.06570749
#
# Stress axis : x y z
#
# Youngs Moduli (GPa) = 80.20234 10.55348 96.97131
#
# Poissons Ratio (x) = 0.14849 0.35861
# Poissons Ratio (y) = 1.12849 0.78990
# Poissons Ratio (z) = 0.29660 0.08597
#
# Static dielectric constant tensor:
#      x y z
#    x 3.654650 0.000000 0.013010 
#    y 0.000000 2.737120 0.000000 
#    z 0.013010 0.000000 3.552130 
# 
# 
# High freq. dielectric constant tensor:
#      x y z
#    x 1.710180 0.000000 -0.000460 
#    y 0.000000 1.616870 0.000000 
#    z -0.000460 0.000000 1.704510 
# 
# From -- ./inp_files/223106.got.cif
#   From: 2010.06.25/outbox.cif.g09.slc.cpg/sg12_112_cif.got.tgz:223106.got - 2010.06.28 00:19:55.
