data_PCOD8095344
_publ_section_title
;
Structure prediction by ZEFSAII (Michael W. Deem and Ramdas Pophale) SiO2 
 PCOD8095344
Probable space group: C 2/M
;
_chemical_formula_sum "Si O2"
_cell_formula_units_Z 64
_cell_length_a 21.984875
_cell_length_b 9.234631
_cell_length_c 23.725822
_cell_angle_alpha 90.000000
_cell_angle_beta 132.611323
_cell_angle_gamma 90.000000
_cell_volume 3545.038668
_symmetry_space_group_name_H-M "C 2/M"
_symmetry_group_IT_number 12
_symmetry_cell_setting 'monoclinic'
loop_
_space_group_symop_operation_xyz
x,y,z
-x,y,-z
-x,-y,-z
x,-y,z
1/2+x,1/2+y,z
1/2-x,1/2+y,-z
1/2-x,1/2-y,-z
1/2+x,1/2-y,z
loop_
_atom_site_type_symbol
_atom_site_label
_atom_site_fract_x
_atom_site_fract_y
_atom_site_fract_z
Si Si1 0.402813 0.330825 0.444904
Si Si2 0.935815 0.658129 0.007949
Si Si3 0.730729 0.670920 0.546862
Si Si4 0.765191 0.333517 0.853480
Si Si5 0.156487 0.164508 0.298873
Si Si6 0.788479 0.664217 0.288759
Si Si7 0.514760 0.669862 0.855914
Si Si8 0.812151 0.164405 0.078067
O O1 0.500000 0.291168 0.500000
O O2 0.389048 0.500000 0.425060
O O3 0.358192 0.291461 0.477727
O O4 0.360275 0.243704 0.368111
O O5 0.912192 0.500000 0.019526
O O6 0.981431 0.758770 0.080836
O O7 0.852806 0.729833 0.930289
O O8 0.000000 0.631736 0.000000
O O9 0.737059 0.500000 0.540394
O O10 0.750000 0.750000 0.500000
O O11 0.803656 0.722703 0.633295
O O12 0.775369 0.500000 0.839961
O O13 0.726744 0.240648 0.779801
O O14 0.701983 0.317503 0.864915
O O15 0.203047 0.168538 0.268739
O O16 0.064142 0.221311 0.229427
O O17 0.158242 0.000000 0.324743
O O18 0.817494 0.500000 0.296221
O O19 0.508377 0.500000 0.861882
O O20 0.595062 0.720277 0.872246
O O21 0.803305 0.000000 0.052592
O O22 0.750000 0.250000 0.000000
#
# Coordination Sequence:
#
# PCOD8095344 Si02
#       8
#     8   8   8   8   8   8   8   8
#     4   9  19  38  62  85 110 145 184 218 262 323
#     4  10  20  32  49  74 102 133 170 214 262 310
#     4  10  20  36  60  87 114 145 179 219 268 322
#     4  10  20  34  50  71 103 139 176 217 261 315
#     4   9  19  36  55  78 109 140 174 217 263 313
#     4  10  20  34  55  81 108 139 173 217 267 310
#     4  10  20  34  53  75 100 134 176 218 262 310
#     4  10  20  35  53  72  98 138 180 220 266 312
#
# _framework density 18.0534
#
# number of rings (size 3 to 8) (size 9 to 14) (size 15 to 20)
#    0.000    2.250    1.250    1.500    0.000    3.000 
#    2.250    0.000    0.000    0.000    0.000    0.000 
#    0.000    0.000    0.000    0.000    0.000    0.000 
#
# Total GULP energy -396652.694362 kJ/mol
# GULP energy per Si atom -12395.396699 kJ/mol
# Density = 1.801231 g / cm^3
# Si number density = 18.053400 Si / 1000 Ang^3
#
#
#
# Elastic Constant Matrix: (Units=GPa)
#
#
# Indices 1 2 3 4 5 6 
#
# 1 107.0287 41.0272 65.2416 0.0000 12.5513 0.0000
# 2 41.0272 68.3796 57.6166 0.0000 0.3175 0.0000
# 3 65.2416 57.6166 116.8039 0.0000 8.9782 0.0000
# 4 0.0000 0.0000 0.0000 41.7860 0.0000 -9.9939
# 5 12.5513 0.3175 8.9782 0.0000 34.6190 0.0000
# 6 0.0000 0.0000 0.0000 -9.9939 0.0000 31.3149
#
#
#
# Elastic Compliance Matrix: (Units=1/GPa)
#
#
# Indices 1 2 3 4 5 6 
#
# 1 0.015037 -0.003719 -0.006274 0.000000 -0.003791 0.000000
# 2 -0.003719 0.026261 -0.011185 0.000000 0.004008 0.000000
# 3 -0.006274 -0.011185 0.017754 0.000000 -0.002227 0.000000
# 4 0.000000 0.000000 0.000000 0.025909 0.000000 0.008269
# 5 -0.003791 0.004008 -0.002227 0.000000 0.030801 0.000000
# 6 0.000000 0.000000 0.000000 0.008269 0.000000 0.034573
#
#
# Mechanical properties :
#
#
# Convention : Reuss Voigt Hill
#
# Bulk Modulus (GPa) = 59.88668 68.88701 64.38684
# Shear Modulus (GPa) = 25.21984 30.09909 27.65946
#
# Velocity S-wave (km/s) = 3.74164 4.08760 3.91844
# Velocity P-wave (km/s) = 7.20490 7.77934 7.49762
#
# Compressibility (1/GPa) = 0.01669820
#
# Stress axis : x y z
#
# Youngs Moduli (GPa) = 66.50043 38.07871 56.32507
#
# Poissons Ratio (x) = 0.14160 0.35336
# Poissons Ratio (y) = 0.24729 0.63000
# Poissons Ratio (z) = 0.41720 0.42592
#
# Static dielectric constant tensor:
#      x y z
#    x 3.568280 0.000000 0.134830 
#    y 0.000000 3.404890 0.000000 
#    z 0.134830 0.000000 3.229780 
# 
# 
# High freq. dielectric constant tensor:
#      x y z
#    x 1.704860 0.000000 0.005870 
#    y 0.000000 1.698920 0.000000 
#    z 0.005870 0.000000 1.692870 
# 
# From -- ./inp_files/346150.got.cif
#   From: 2010.06.25/outbox.cif.g09.slc.cpg/sg12_174_cif.got.tgz:346150.got - 2010.06.28 00:19:55.
