data_PCOD8095960
_publ_section_title
;
Structure prediction by ZEFSAII (Michael W. Deem and Ramdas Pophale) SiO2 
 PCOD8095960
Probable space group: C 2/M
;
_chemical_formula_sum "Si O2"
_cell_formula_units_Z 48
_cell_length_a 9.723311
_cell_length_b 18.569463
_cell_length_c 14.409022
_cell_angle_alpha 90.000000
_cell_angle_beta 111.552178
_cell_angle_gamma 90.000000
_cell_volume 2419.746819
_symmetry_space_group_name_H-M "C 2/M"
_symmetry_group_IT_number 12
_symmetry_cell_setting 'monoclinic'
loop_
_space_group_symop_operation_xyz
x,y,z
-x,y,-z
-x,-y,-z
x,-y,z
1/2+x,1/2+y,z
1/2-x,1/2+y,-z
1/2-x,1/2-y,-z
1/2+x,1/2-y,z
loop_
_atom_site_type_symbol
_atom_site_label
_atom_site_fract_x
_atom_site_fract_y
_atom_site_fract_z
Si Si1 0.311917 0.421354 0.811691
Si Si2 0.993223 0.079327 0.666605
Si Si3 0.049508 0.359211 0.653694
Si Si4 0.356880 0.283447 0.236949
Si Si5 0.053956 0.220483 0.111146
Si Si6 0.700051 0.083805 0.511336
O O1 0.328543 0.500000 0.863158
O O2 0.391336 0.419897 0.732283
O O3 0.137710 0.404379 0.754160
O O4 0.382954 0.359866 0.893893
O O5 0.878452 0.094649 0.552632
O O6 0.119187 0.139650 0.706516
O O7 0.067083 0.000000 0.672392
O O8 0.054702 0.275106 0.680734
O O9 0.131442 0.369176 0.576533
O O10 0.879167 0.387244 0.602814
O O11 0.181653 0.269321 0.189118
O O12 0.416845 0.282864 0.146866
O O13 0.000000 0.253407 0.000000
O O14 0.661708 0.000000 0.517725
#
# Coordination Sequence:
#
# PCOD8095960 Si02
#       6
#     8   8   8   8   8   8
#     4   8  14  26  45  70  97 122 156 202 246 285
#     4   8  15  28  45  65  92 130 167 195 231 284
#     4   9  15  24  43  73 104 129 154 193 246 289
#     4  10  20  33  51  73  98 129 165 205 251 295
#     4  10  20  34  52  73  97 127 163 207 256 302
#     4   9  15  26  48  76 104 132 165 203 239 276
#
# _framework density 19.836784999999999
#
# number of rings (size 3 to 8) (size 9 to 14) (size 15 to 20)
#    0.000    3.000    0.000    4.500    0.000    1.000 
#    0.000    0.000    0.000    6.500    0.000    4.667 
#    0.000    0.000    0.000    0.000    0.000    0.000 
#
# Total GULP energy -297399.633196 kJ/mol
# GULP energy per Si atom -12391.651383 kJ/mol
# Density = 1.979164 g / cm^3
# Si number density = 19.836785 Si / 1000 Ang^3
#
#
#
# Elastic Constant Matrix: (Units=GPa)
#
#
# Indices 1 2 3 4 5 6 
#
# 1 25.7408 10.4043 3.9329 0.0000 11.4647 0.0000
# 2 10.4043 132.3346 27.4569 0.0000 16.8232 0.0000
# 3 3.9329 27.4569 60.1686 0.0000 18.2940 0.0000
# 4 0.0000 0.0000 0.0000 13.8542 0.0000 3.1627
# 5 11.4647 16.8232 18.2940 0.0000 21.6304 0.0000
# 6 0.0000 0.0000 0.0000 3.1627 0.0000 22.8267
#
#
#
# Elastic Compliance Matrix: (Units=1/GPa)
#
#
# Indices 1 2 3 4 5 6 
#
# 1 0.053099 -0.001470 0.007282 0.000000 -0.033159 0.000000
# 2 -0.001470 0.008711 -0.002768 0.000000 -0.003655 0.000000
# 3 0.007282 -0.002768 0.024131 0.000000 -0.022116 0.000000
# 4 0.000000 0.000000 0.000000 0.074538 0.000000 -0.010327
# 5 -0.033159 -0.003655 -0.022116 0.000000 0.085354 0.000000
# 6 0.000000 0.000000 0.000000 -0.010327 0.000000 0.045239
#
#
# Mechanical properties :
#
#
# Convention : Reuss Voigt Hill
#
# Bulk Modulus (GPa) = 10.86604 33.53690 22.20147
# Shear Modulus (GPa) = 15.83977 23.42560 19.63269
#
# Velocity S-wave (km/s) = 2.82885 3.44018 3.14938
# Velocity P-wave (km/s) = 4.01988 5.72039 4.94380
#
# Compressibility (1/GPa) = 0.09202985
#
# Stress axis : x y z
#
# Youngs Moduli (GPa) = 18.83268 114.79607 41.43983
#
# Poissons Ratio (x) = 0.16877 -0.30177
# Poissons Ratio (y) = 0.02769 0.11470
# Poissons Ratio (z) = -0.13714 0.31773
#
# Static dielectric constant tensor:
#      x y z
#    x 3.235190 0.000000 0.397120 
#    y 0.000000 3.771000 0.000000 
#    z 0.397120 0.000000 3.560760 
# 
# 
# High freq. dielectric constant tensor:
#      x y z
#    x 1.735510 0.000000 0.029070 
#    y 0.000000 1.773110 0.000000 
#    z 0.029070 0.000000 1.756830 
# 
# From -- ./inp_files/263672.got.cif
#   From: 2010.06.25/outbox.cif.g09.slc.cpg/sg12_132_cif.got.tgz:263672.got - 2010.06.28 00:19:55.
