data_PCOD8095911
_publ_section_title
;
Structure prediction by ZEFSAII (Michael W. Deem and Ramdas Pophale) SiO2 
 PCOD8095911
Probable space group: C 2/M
;
_chemical_formula_sum "Si O2"
_cell_formula_units_Z 56
_cell_length_a 25.132368
_cell_length_b 8.931119
_cell_length_c 14.050818
_cell_angle_alpha 90.000000
_cell_angle_beta 104.237646
_cell_angle_gamma 90.000000
_cell_volume 3056.975243
_symmetry_space_group_name_H-M "C 2/M"
_symmetry_group_IT_number 12
_symmetry_cell_setting 'monoclinic'
loop_
_space_group_symop_operation_xyz
x,y,z
-x,y,-z
-x,-y,-z
x,-y,z
1/2+x,1/2+y,z
1/2-x,1/2+y,-z
1/2-x,1/2-y,-z
1/2+x,1/2-y,z
loop_
_atom_site_type_symbol
_atom_site_label
_atom_site_fract_x
_atom_site_fract_y
_atom_site_fract_z
Si Si1 0.692915 0.822271 0.584005
Si Si2 0.420494 0.673881 0.782108
Si Si3 0.091100 0.824194 0.003096
Si Si4 0.807431 0.674442 0.041061
Si Si5 0.970425 0.678108 0.191614
Si Si6 0.816729 0.175796 0.615779
Si Si7 0.132518 0.673311 0.740493
O O1 0.756601 0.773580 0.626183
O O2 0.668578 0.756667 0.476299
O O3 0.656671 0.752974 0.654715
O O4 0.688492 0.000000 0.578853
O O5 0.431007 0.500000 0.766577
O O6 0.422662 0.710514 0.894167
O O7 0.468995 0.767522 0.752389
O O8 0.361967 0.724195 0.713381
O O9 0.150275 0.754239 0.010264
O O10 0.092265 0.000000 0.982392
O O11 0.044999 0.748473 0.917199
O O12 0.805338 0.500000 0.014717
O O13 0.750000 0.750000 0.000000
O O14 0.823700 0.701380 0.157282
O O15 0.967344 0.500000 0.180772
O O16 0.926968 0.736566 0.252534
O O17 0.817895 0.000000 0.597315
O O18 0.125092 0.500000 0.716418
#
# Coordination Sequence:
#
# PCOD8095911 Si02
#       7
#     8   8   8   8   8   8   8
#     4   9  17  34  58  76  98 132 169 211 261 315
#     4  10  21  35  53  76 104 141 179 212 259 319
#     4  10  20  34  53  75 104 142 180 213 256 313
#     4  10  20  33  50  76 109 140 176 216 256 308
#     4  10  20  35  53  77 107 138 175 220 260 305
#     4   9  19  34  53  78 104 129 167 217 263 311
#     4   8  17  33  54  74  98 136 174 205 256 316
#
# _framework density 18.318762
#
# number of rings (size 3 to 8) (size 9 to 14) (size 15 to 20)
#    0.000    2.571    0.000    2.571    2.000    3.429 
#    0.000    5.000    0.000    4.286    0.000    0.000 
#    0.000    0.000    0.000    0.000    0.000    0.000 
#
# Total GULP energy -347149.441466 kJ/mol
# GULP energy per Si atom -12398.194338 kJ/mol
# Density = 1.827707 g / cm^3
# Si number density = 18.318762 Si / 1000 Ang^3
#
#
#
# Elastic Constant Matrix: (Units=GPa)
#
#
# Indices 1 2 3 4 5 6 
#
# 1 117.7796 38.2442 62.7290 0.0000 -4.0908 0.0000
# 2 38.2442 49.7654 37.2703 0.0000 -1.9262 0.0000
# 3 62.7290 37.2703 83.1883 0.0000 -15.5518 0.0000
# 4 0.0000 0.0000 0.0000 26.7461 0.0000 2.5559
# 5 -4.0908 -1.9262 -15.5518 0.0000 29.4371 0.0000
# 6 0.0000 0.0000 0.0000 2.5559 0.0000 32.1678
#
#
#
# Elastic Compliance Matrix: (Units=1/GPa)
#
#
# Indices 1 2 3 4 5 6 
#
# 1 0.015168 -0.004105 -0.010269 0.000000 -0.003586 0.000000
# 2 -0.004105 0.032254 -0.012281 0.000000 -0.004948 0.000000
# 3 -0.010269 -0.012281 0.027573 0.000000 0.012336 0.000000
# 4 0.000000 0.000000 0.000000 0.037675 0.000000 -0.002993
# 5 -0.003586 -0.004948 0.012336 0.000000 0.039666 0.000000
# 6 0.000000 0.000000 0.000000 -0.002993 0.000000 0.031325
#
#
# Mechanical properties :
#
#
# Convention : Reuss Voigt Hill
#
# Bulk Modulus (GPa) = 46.11152 58.58005 52.34579
# Shear Modulus (GPa) = 20.47528 25.16953 22.82241
#
# Velocity S-wave (km/s) = 3.34686 3.71074 3.53349
# Velocity P-wave (km/s) = 6.33733 7.09979 6.72937
#
# Compressibility (1/GPa) = 0.02168656
#
# Stress axis : x y z
#
# Youngs Moduli (GPa) = 65.92877 31.00367 36.26801
#
# Poissons Ratio (x) = 0.12726 0.37243
# Poissons Ratio (y) = 0.27061 0.44539
# Poissons Ratio (z) = 0.67702 0.38074
#
# Static dielectric constant tensor:
#      x y z
#    x 4.970890 0.000000 -0.716380 
#    y 0.000000 3.275740 0.000000 
#    z -0.716380 0.000000 3.603670 
# 
# 
# High freq. dielectric constant tensor:
#      x y z
#    x 1.722420 0.000000 -0.003530 
#    y 0.000000 1.698700 0.000000 
#    z -0.003530 0.000000 1.695870 
# 
# From -- ./inp_files/180703.got.cif
#   From: 2010.06.25/outbox.cif.g09.slc.cpg/sg12_91_cif.got.tgz:180703.got - 2010.06.28 00:19:55.
