data_PCOD8095140
_publ_section_title
;
Structure prediction by ZEFSAII (Michael W. Deem and Ramdas Pophale) SiO2 
 PCOD8095140
Probable space group: C 2/M
;
_chemical_formula_sum "Si O2"
_cell_formula_units_Z 64
_cell_length_a 14.229281
_cell_length_b 9.467900
_cell_length_c 27.392376
_cell_angle_alpha 90.000000
_cell_angle_beta 73.556241
_cell_angle_gamma 90.000000
_cell_volume 3539.397460
_symmetry_space_group_name_H-M "C 2/M"
_symmetry_group_IT_number 12
_symmetry_cell_setting 'monoclinic'
loop_
_space_group_symop_operation_xyz
x,y,z
-x,y,-z
-x,-y,-z
x,-y,z
1/2+x,1/2+y,z
1/2-x,1/2+y,-z
1/2-x,1/2-y,-z
1/2+x,1/2-y,z
loop_
_atom_site_type_symbol
_atom_site_label
_atom_site_fract_x
_atom_site_fract_y
_atom_site_fract_z
Si Si1 0.915410 0.334977 0.874879
Si Si2 0.084385 0.331724 0.597516
Si Si3 0.692415 0.165206 0.677671
Si Si4 0.613047 0.837397 0.793333
Si Si5 0.863935 0.668534 0.618396
Si Si6 0.210663 0.164134 0.859778
Si Si7 0.487732 0.663937 0.057263
Si Si8 0.615935 0.155382 0.489684
O O1 0.910960 0.500000 0.888277
O O2 0.812644 0.282269 0.867744
O O3 0.001168 0.300048 0.823495
O O4 0.935559 0.251740 0.921807
O O5 0.088675 0.500000 0.593018
O O6 0.137017 0.275848 0.638079
O O7 0.134527 0.268275 0.539813
O O8 0.972065 0.284036 0.618203
O O9 0.626153 0.197691 0.734468
O O10 0.792566 0.253197 0.666672
O O11 0.716359 0.000000 0.669912
O O12 0.690444 0.746926 0.812825
O O13 0.636038 0.000000 0.801369
O O14 0.850603 0.500000 0.623491
O O15 0.841864 0.727090 0.566039
O O16 0.123982 0.195239 0.910859
O O17 0.217451 0.000000 0.845316
O O18 0.514164 0.500000 0.059740
O O19 0.500000 0.713901 0.000000
O O20 0.500000 0.141422 0.500000
O O21 0.662778 0.000000 0.485398
#
# Coordination Sequence:
#
# PCOD8095140 Si02
#       8
#     8   8   8   8   8   8   8   8
#     4   9  18  33  52  72  94 125 167 205 232 267
#     4   8  15  29  48  67  90 122 154 184 227 284
#     4  10  20  32  46  67  94 121 150 189 241 290
#     4   9  19  34  48  65  92 123 156 197 241 282
#     4   9  17  30  49  70  90 117 155 192 226 275
#     4   9  18  33  53  74  95 124 163 201 234 272
#     4   9  18  32  49  74 109 138 157 187 235 284
#     4   7  11  23  44  67  88 113 149 188 222 268
#
# _framework density 18.082173000000001
#
# number of rings (size 3 to 8) (size 9 to 14) (size 15 to 20)
#    0.000    3.250    0.000    1.500    0.000    3.250 
#    0.000    3.125    0.000    3.375    0.000    0.000 
#    0.000    0.000    0.000    0.000    0.000    0.000 
#
# Total GULP energy -396575.015221 kJ/mol
# GULP energy per Si atom -12392.969226 kJ/mol
# Density = 1.804102 g / cm^3
# Si number density = 18.082173 Si / 1000 Ang^3
#
#
#
# Elastic Constant Matrix: (Units=GPa)
#
#
# Indices 1 2 3 4 5 6 
#
# 1 94.0470 29.9877 39.9280 0.0000 10.1354 0.0000
# 2 29.9877 33.0730 32.6026 0.0000 3.7567 0.0000
# 3 39.9280 32.6026 109.0319 0.0000 5.0556 0.0000
# 4 0.0000 0.0000 0.0000 22.4015 0.0000 1.8292
# 5 10.1354 3.7567 5.0556 0.0000 22.0173 0.0000
# 6 0.0000 0.0000 0.0000 1.8292 0.0000 23.4811
#
#
#
# Elastic Compliance Matrix: (Units=1/GPa)
#
#
# Indices 1 2 3 4 5 6 
#
# 1 0.015755 -0.011731 -0.002040 0.000000 -0.004783 0.000000
# 2 -0.011731 0.052038 -0.011223 0.000000 -0.000902 0.000000
# 3 -0.002040 -0.011223 0.013284 0.000000 -0.000196 0.000000
# 4 0.000000 0.000000 0.000000 0.044926 0.000000 -0.003500
# 5 -0.004783 -0.000902 -0.000196 0.000000 0.047819 0.000000
# 6 0.000000 0.000000 0.000000 -0.003500 0.000000 0.042860
#
#
# Mechanical properties :
#
#
# Convention : Reuss Voigt Hill
#
# Bulk Modulus (GPa) = 32.16518 49.02095 40.59306
# Shear Modulus (GPa) = 18.04842 22.48889 20.26866
#
# Velocity S-wave (km/s) = 3.16275 3.53045 3.35165
# Velocity P-wave (km/s) = 5.58250 6.61723 6.12176
#
# Compressibility (1/GPa) = 0.03108952
#
# Stress axis : x y z
#
# Youngs Moduli (GPa) = 63.47187 19.21661 75.28090
#
# Poissons Ratio (x) = 0.22543 0.15357
# Poissons Ratio (y) = 0.74459 0.84485
# Poissons Ratio (z) = 0.12948 0.21566
#
# Static dielectric constant tensor:
#      x y z
#    x 3.287370 0.000000 0.026620 
#    y 0.000000 3.024770 0.000000 
#    z 0.026620 0.000000 3.512280 
# 
# 
# High freq. dielectric constant tensor:
#      x y z
#    x 1.694900 0.000000 -0.001020 
#    y 0.000000 1.668260 0.000000 
#    z -0.001020 0.000000 1.706170 
# 
# From -- ./inp_files/359810.got.cif
#   From: 2010.06.25/outbox.cif.g09.slc.cpg/sg12_180_cif.got.tgz:359810.got - 2010.06.28 00:19:55.
