data_PCOD8095363
_publ_section_title
;
Structure prediction by ZEFSAII (Michael W. Deem and Ramdas Pophale) SiO2 
 PCOD8095363
Probable space group: C 2/M
;
_chemical_formula_sum "Si O2"
_cell_formula_units_Z 56
_cell_length_a 33.168648
_cell_length_b 8.989845
_cell_length_c 14.899430
_cell_angle_alpha 90.000000
_cell_angle_beta 46.382545
_cell_angle_gamma 90.000000
_cell_volume 3216.364358
_symmetry_space_group_name_H-M "C 2/M"
_symmetry_group_IT_number 12
_symmetry_cell_setting 'monoclinic'
loop_
_space_group_symop_operation_xyz
x,y,z
-x,y,-z
-x,-y,-z
x,-y,z
1/2+x,1/2+y,z
1/2-x,1/2+y,-z
1/2-x,1/2-y,-z
1/2+x,1/2-y,z
loop_
_atom_site_type_symbol
_atom_site_label
_atom_site_fract_x
_atom_site_fract_y
_atom_site_fract_z
Si Si1 0.817473 0.675325 0.261763
Si Si2 0.629355 0.671722 0.655533
Si Si3 0.600872 0.176277 0.020404
Si Si4 0.671744 0.325594 0.059028
Si Si5 0.994730 0.826050 0.112077
Si Si6 0.697913 0.672820 0.377209
Si Si7 0.296232 0.173948 0.813928
O O1 0.819313 0.500000 0.268038
O O2 0.831145 0.741275 0.337339
O O3 0.861884 0.732284 0.120329
O O4 0.756421 0.730282 0.327022
O O5 0.634369 0.500000 0.674438
O O6 0.565746 0.724623 0.760687
O O7 0.649588 0.701451 0.523581
O O8 0.602687 0.000000 0.027429
O O9 0.623441 0.248268 0.076626
O O10 0.538215 0.231057 0.102477
O O11 0.660389 0.500000 0.081536
O O12 0.669469 0.258952 0.162208
O O13 0.730868 0.288444 0.922518
O O14 0.006025 0.000000 0.110832
O O15 0.000000 0.783929 0.000000
O O16 0.702395 0.500000 0.343297
O O17 0.681872 0.767858 0.314894
O O18 0.307927 0.000000 0.805578
#
# Coordination Sequence:
#
# PCOD8095363 Si02
#       7
#     8   8   8   8   8   8   8
#     4  10  20  32  49  75 108 140 172 215 263 311
#     4  10  21  35  53  74 102 143 185 219 257 308
#     4  11  21  33  53  79 107 138 173 216 265 312
#     4  10  20  34  54  79 107 139 172 212 260 311
#     4  10  20  35  53  74 102 139 182 224 260 303
#     4  10  20  35  52  75 108 143 176 214 261 314
#     4  10  20  33  53  80 108 138 172 211 259 314
#
# _framework density 17.410962999999999
#
# number of rings (size 3 to 8) (size 9 to 14) (size 15 to 20)
#    0.000    1.857    2.857    1.714    0.000    3.714 
#    0.000    0.000    0.000    0.857    0.000    6.000 
#    0.000    0.000    0.000    0.000    0.000    0.000 
#
# Total GULP energy -347354.028217 kJ/mol
# GULP energy per Si atom -12405.501008 kJ/mol
# Density = 1.737134 g / cm^3
# Si number density = 17.410963 Si / 1000 Ang^3
#
#
#
# Elastic Constant Matrix: (Units=GPa)
#
#
# Indices 1 2 3 4 5 6 
#
# 1 119.7900 50.9095 50.7197 0.0000 10.3757 -0.0001
# 2 50.9095 63.9506 32.5021 0.0000 7.5574 -0.0003
# 3 50.7197 32.5021 100.4847 0.0000 2.7655 0.0000
# 4 0.0000 0.0000 0.0000 23.4181 0.0000 5.0891
# 5 10.3757 7.5574 2.7655 0.0000 25.5626 0.0000
# 6 -0.0001 -0.0003 0.0000 5.0891 0.0000 35.5486
#
#
#
# Elastic Compliance Matrix: (Units=1/GPa)
#
#
# Indices 1 2 3 4 5 6 
#
# 1 0.014080 -0.008758 -0.004200 0.000000 -0.002671 0.000000
# 2 -0.008758 0.024792 -0.003505 0.000000 -0.003395 0.000000
# 3 -0.004200 -0.003505 0.013169 0.000000 0.001316 0.000000
# 4 0.000000 0.000000 0.000000 0.044073 0.000000 -0.006309
# 5 -0.002671 -0.003395 0.001316 0.000000 0.041065 0.000000
# 6 0.000000 0.000000 0.000000 -0.006309 0.000000 0.029034
#
#
# Mechanical properties :
#
#
# Convention : Reuss Voigt Hill
#
# Bulk Modulus (GPa) = 52.31736 61.38754 56.85245
# Shear Modulus (GPa) = 24.32951 26.91214 25.62082
#
# Velocity S-wave (km/s) = 3.74219 3.93581 3.84022
# Velocity P-wave (km/s) = 6.98468 7.48255 7.23790
#
# Compressibility (1/GPa) = 0.01911411
#
# Stress axis : x y z
#
# Youngs Moduli (GPa) = 71.02287 40.33590 75.93378
#
# Poissons Ratio (x) = 0.35327 0.31896
# Poissons Ratio (y) = 0.62203 0.26614
# Poissons Ratio (z) = 0.29833 0.14137
#
# Static dielectric constant tensor:
#      x y z
#    x 3.167000 0.000000 -0.001050 
#    y 0.000000 3.173000 0.000000 
#    z -0.001050 0.000000 3.196540 
# 
# 
# High freq. dielectric constant tensor:
#      x y z
#    x 1.670460 0.000000 0.007660 
#    y 0.000000 1.675320 0.000000 
#    z 0.007660 0.000000 1.658020 
# 
# From -- ./inp_files/237307.got.cif
#   From: 2010.06.25/outbox.cif.g09.slc.cpg/sg12_119_cif.got.tgz:237307.got - 2010.06.28 00:19:55.
