data_PCOD8095074
_publ_section_title
;
Structure prediction by ZEFSAII (Michael W. Deem and Ramdas Pophale) SiO2 
 PCOD8095074
Probable space group: C 2/M
;
_chemical_formula_sum "Si O2"
_cell_formula_units_Z 56
_cell_length_a 10.788836
_cell_length_b 21.341889
_cell_length_c 12.331527
_cell_angle_alpha 90.000000
_cell_angle_beta 75.166327
_cell_angle_gamma 90.000000
_cell_volume 2744.757229
_symmetry_space_group_name_H-M "C 2/M"
_symmetry_group_IT_number 12
_symmetry_cell_setting 'monoclinic'
loop_
_space_group_symop_operation_xyz
x,y,z
-x,y,-z
-x,-y,-z
x,-y,z
1/2+x,1/2+y,z
1/2-x,1/2+y,-z
1/2-x,1/2-y,-z
1/2+x,1/2-y,z
loop_
_atom_site_type_symbol
_atom_site_label
_atom_site_fract_x
_atom_site_fract_y
_atom_site_fract_z
Si Si1 0.005810 0.697296 0.381848
Si Si2 0.359949 0.681842 0.067741
Si Si3 0.256547 0.367674 0.297315
Si Si4 0.653756 0.000000 0.357819
Si Si5 0.149474 0.806337 0.519185
Si Si6 0.215176 0.369389 0.691413
Si Si7 0.852588 0.328829 0.060235
Si Si8 0.353561 0.000000 0.391212
O O1 0.145434 0.684648 0.302567
O O2 0.000000 0.660322 0.500000
O O3 0.984718 0.772100 0.413799
O O4 0.904865 0.671292 0.321052
O O5 0.358122 0.647500 0.183126
O O6 0.351850 0.755797 0.086654
O O7 0.500000 0.661391 0.000000
O O8 0.243619 0.657086 0.018006
O O9 0.210592 0.438237 0.290087
O O10 0.317856 0.360062 0.402084
O O11 0.505678 0.000000 0.361919
O O12 0.692972 0.000000 0.474784
O O13 0.250000 0.750000 0.500000
O O14 0.158665 0.840471 0.398501
O O15 0.211530 0.364314 0.822477
O O16 0.200686 0.441164 0.661830
O O17 0.000000 0.350926 0.000000
#
# Coordination Sequence:
#
# PCOD8095074 Si02
#       8
#     8   8   8   4   8   8   8   4
#     4  11  19  32  54  90 127 151 202 265 330 399
#     4  10  23  43  65  92 125 177 227 264 328 400
#     4  12  21  39  61  89 127 163 218 270 322 391
#     4  11  22  36  60  93 126 177 211 272 323 390
#     4  10  20  31  52  91 120 154 195 252 340 388
#     4  11  20  36  55  90 129 164 202 264 336 392
#     4  10  22  40  62  94 134 168 211 282 340 383
#     4  11  20  34  60  92 130 164 213 262 340 383
#
# _framework density 20.402532000000001
#
# number of rings (size 3 to 8) (size 9 to 14) (size 15 to 20)
#    0.000    1.286    5.714    2.571    0.000    2.286 
#    0.000    1.429    0.000    0.000    0.000    2.000 
#    0.000    0.000    0.000    0.000    0.000    0.000 
#
# Total GULP energy -346909.495053 kJ/mol
# GULP energy per Si atom -12389.624823 kJ/mol
# Density = 2.035609 g / cm^3
# Si number density = 20.402532 Si / 1000 Ang^3
#
#
#
# Elastic Constant Matrix: (Units=GPa)
#
#
# Indices 1 2 3 4 5 6 
#
# 1 83.6318 30.1756 26.3249 0.0000 -9.7942 0.0000
# 2 30.1756 96.6599 44.0362 0.0000 -14.7073 0.0000
# 3 26.3249 44.0362 122.2020 0.0000 -13.8181 0.0000
# 4 0.0000 0.0000 0.0000 27.9651 0.0000 4.0355
# 5 -9.7942 -14.7073 -13.8181 0.0000 30.5637 0.0000
# 6 0.0000 0.0000 0.0000 4.0355 0.0000 25.5089
#
#
#
# Elastic Compliance Matrix: (Units=1/GPa)
#
#
# Indices 1 2 3 4 5 6 
#
# 1 0.013891 -0.003297 -0.001560 0.000000 0.002159 0.000000
# 2 -0.003297 0.013681 -0.003789 0.000000 0.003814 0.000000
# 3 -0.001560 -0.003789 0.010140 0.000000 0.002261 0.000000
# 4 0.000000 0.000000 0.000000 0.036594 0.000000 -0.005789
# 5 0.002159 0.003814 0.002261 0.000000 0.036268 0.000000
# 6 0.000000 0.000000 0.000000 -0.005789 0.000000 0.040118
#
#
# Mechanical properties :
#
#
# Convention : Reuss Voigt Hill
#
# Bulk Modulus (GPa) = 48.97008 55.95188 52.46098
# Shear Modulus (GPa) = 28.60560 30.27134 29.43847
#
# Velocity S-wave (km/s) = 3.74847 3.85607 3.80265
# Velocity P-wave (km/s) = 6.54132 6.87817 6.71186
#
# Compressibility (1/GPa) = 0.02042063
#
# Stress axis : x y z
#
# Youngs Moduli (GPa) = 71.99013 73.09312 98.61759
#
# Poissons Ratio (x) = 0.24100 0.15385
# Poissons Ratio (y) = 0.23736 0.37362
# Poissons Ratio (z) = 0.11231 0.27692
#
# Static dielectric constant tensor:
#      x y z
#    x 4.042960 0.000000 -0.130870 
#    y 0.000000 3.662110 0.000000 
#    z -0.130870 0.000000 3.887880 
# 
# 
# High freq. dielectric constant tensor:
#      x y z
#    x 1.794370 0.000000 -0.000320 
#    y 0.000000 1.770310 0.000000 
#    z -0.000320 0.000000 1.799160 
# 
# From -- ./inp_files/133908.got.cif
#   From: 2010.06.25/outbox.cif.g09.slc.cpg/sg12_67_cif.got.tgz:133908.got - 2010.06.28 00:19:55.
