data_PCOD8095026
_publ_section_title
;
Structure prediction by ZEFSAII (Michael W. Deem and Ramdas Pophale) SiO2 
 PCOD8095026
Probable space group: C 2/M
;
_chemical_formula_sum "Si O2"
_cell_formula_units_Z 64
_cell_length_a 33.278010
_cell_length_b 13.665872
_cell_length_c 22.153152
_cell_angle_alpha 90.000000
_cell_angle_beta 19.795126
_cell_angle_gamma 90.000000
_cell_volume 3411.861634
_symmetry_space_group_name_H-M "C 2/M"
_symmetry_group_IT_number 12
_symmetry_cell_setting 'monoclinic'
loop_
_space_group_symop_operation_xyz
x,y,z
-x,y,-z
-x,-y,-z
x,-y,z
1/2+x,1/2+y,z
1/2-x,1/2+y,-z
1/2-x,1/2-y,-z
1/2+x,1/2-y,z
loop_
_atom_site_type_symbol
_atom_site_label
_atom_site_fract_x
_atom_site_fract_y
_atom_site_fract_z
Si Si1 0.074230 0.609729 0.277204
Si Si2 0.881276 0.719746 0.333464
Si Si3 0.044193 0.112812 0.692085
Si Si4 0.875635 0.611312 0.464912
Si Si5 0.792123 0.802223 0.637976
Si Si6 0.961158 0.612112 0.986321
Si Si7 0.342716 0.386386 0.883613
Si Si8 0.995028 0.793549 0.439790
O O1 0.070923 0.500000 0.306853
O O2 0.005936 0.675450 0.422918
O O3 0.008316 0.619308 0.305442
O O4 0.208234 0.648560 0.081929
O O5 0.750000 0.750000 0.500000
O O6 0.950093 0.818086 0.257230
O O7 0.880444 0.639920 0.388047
O O8 0.945965 0.672332 0.184937
O O9 0.158221 0.135164 0.488677
O O10 0.922248 0.138748 0.829831
O O11 0.048664 0.000000 0.706347
O O12 0.826882 0.500000 0.540420
O O13 0.791044 0.687028 0.620944
O O14 0.664756 0.835592 0.839803
O O15 0.873330 0.826075 0.580888
O O16 0.953333 0.500000 0.974579
O O17 0.000000 0.616152 0.000000
O O18 0.348545 0.500000 0.861350
O O19 0.392137 0.333196 0.755325
O O20 0.000000 0.834839 0.500000
#
# Coordination Sequence:
#
# PCOD8095026 Si02
#       8
#     8   8   8   8   8   8   8   8
#     4   9  18  33  53  76 102 137 181 222 258 305
#     4  11  23  37  56  82 108 133 175 224 263 315
#     4   9  18  35  57  78 105 143 181 221 268 314
#     4   9  18  35  57  79 105 139 179 223 269 309
#     4   9  19  35  54  78 108 142 179 217 259 314
#     4  11  23  39  59  81 106 137 171 211 264 320
#     4   9  18  33  53  76 104 140 181 220 259 308
#     4  10  20  31  48  75 109 145 174 210 261 310
#
# _framework density 18.758088000000001
#
# number of rings (size 3 to 8) (size 9 to 14) (size 15 to 20)
#    0.000    2.375    0.000    3.375    0.000    5.000 
#    0.000    1.875    0.000    1.500    0.000    0.000 
#    0.000    0.000    0.000    0.000    0.000    0.000 
#
# Total GULP energy -396721.569082 kJ/mol
# GULP energy per Si atom -12397.549034 kJ/mol
# Density = 1.871539 g / cm^3
# Si number density = 18.758088 Si / 1000 Ang^3
#
#
#
# Elastic Constant Matrix: (Units=GPa)
#
#
# Indices 1 2 3 4 5 6 
#
# 1 86.2551 43.5499 31.4298 -0.0003 0.9759 0.0002
# 2 43.5499 111.4211 45.1928 -0.0002 2.3765 0.0002
# 3 31.4298 45.1928 108.4672 -0.0004 -10.0046 0.0004
# 4 -0.0003 -0.0002 -0.0004 21.9544 0.0004 -4.5729
# 5 0.9759 2.3765 -10.0046 0.0004 21.3505 -0.0005
# 6 0.0002 0.0002 0.0004 -4.5729 -0.0005 24.6903
#
#
#
# Elastic Compliance Matrix: (Units=1/GPa)
#
#
# Indices 1 2 3 4 5 6 
#
# 1 0.014929 -0.004819 -0.002437 0.000000 -0.001288 0.000000
# 2 -0.004819 0.012606 -0.004144 0.000000 -0.003125 0.000000
# 3 -0.002437 -0.004144 0.012234 0.000000 0.006305 0.000000
# 4 0.000000 0.000000 0.000000 0.047377 -0.000001 0.008775
# 5 -0.001288 -0.003125 0.006305 -0.000001 0.050198 0.000001
# 6 0.000000 0.000000 0.000000 0.008775 0.000001 0.042127
#
#
# Mechanical properties :
#
#
# Convention : Reuss Voigt Hill
#
# Bulk Modulus (GPa) = 58.93220 60.72093 59.82656
# Shear Modulus (GPa) = 24.04681 25.99711 25.02196
#
# Velocity S-wave (km/s) = 3.58431 3.72683 3.65626
# Velocity P-wave (km/s) = 6.97243 7.13861 7.05601
#
# Compressibility (1/GPa) = 0.01696865
#
# Stress axis : x y z
#
# Youngs Moduli (GPa) = 66.98237 79.32623 81.74180
#
# Poissons Ratio (x) = 0.38231 0.19918
# Poissons Ratio (y) = 0.32282 0.33874
# Poissons Ratio (z) = 0.16322 0.32873
#
# Static dielectric constant tensor:
#      x y z
#    x 3.425750 0.000000 -0.209390 
#    y 0.000000 3.722480 0.000000 
#    z -0.209390 0.000000 3.378850 
# 
# 
# High freq. dielectric constant tensor:
#      x y z
#    x 1.721320 0.000000 -0.019190 
#    y 0.000000 1.745250 0.000000 
#    z -0.019190 0.000000 1.709840 
# 
# From -- ./inp_files/330332.got.cif
#   From: 2010.06.25/outbox.cif.g09.slc.cpg/sg12_166_cif.got.tgz:330332.got - 2010.06.28 00:19:55.
