data_PCOD8095165
_publ_section_title
;
Structure prediction by ZEFSAII (Michael W. Deem and Ramdas Pophale) SiO2 
 PCOD8095165
Probable space group: C 2/M
;
_chemical_formula_sum "Si O2"
_cell_formula_units_Z 64
_cell_length_a 27.760356
_cell_length_b 9.190279
_cell_length_c 14.379140
_cell_angle_alpha 90.000000
_cell_angle_beta 106.416756
_cell_angle_gamma 90.000000
_cell_volume 3518.924991
_symmetry_space_group_name_H-M "C 2/M"
_symmetry_group_IT_number 12
_symmetry_cell_setting 'monoclinic'
loop_
_space_group_symop_operation_xyz
x,y,z
-x,y,-z
-x,-y,-z
x,-y,z
1/2+x,1/2+y,z
1/2-x,1/2+y,-z
1/2-x,1/2-y,-z
1/2+x,1/2-y,z
loop_
_atom_site_type_symbol
_atom_site_label
_atom_site_fract_x
_atom_site_fract_y
_atom_site_fract_z
Si Si1 0.893444 0.164515 0.304031
Si Si2 0.004914 0.833307 0.394798
Si Si3 0.845272 0.826240 0.771010
Si Si4 0.697426 0.169837 0.080264
Si Si5 0.907332 0.329960 0.658953
Si Si6 0.856280 0.660933 0.446671
Si Si7 0.755053 0.163285 0.595791
Si Si8 0.811197 0.829809 0.115939
O O1 0.951991 0.179963 0.310458
O O2 0.888860 0.232157 0.403268
O O3 0.855551 0.231717 0.207016
O O4 0.876361 0.000000 0.306348
O O5 0.000000 0.784222 0.500000
O O6 0.041540 0.728108 0.358422
O O7 0.024452 0.000000 0.402061
O O8 0.838386 0.756410 0.868349
O O9 0.893824 0.759172 0.745263
O O10 0.796294 0.773363 0.687707
O O11 0.850687 0.000000 0.782358
O O12 0.756696 0.194109 0.133984
O O13 0.683640 0.000000 0.076556
O O14 0.684319 0.232085 0.972517
O O15 0.913248 0.500000 0.686983
O O16 0.862825 0.301757 0.559642
O O17 0.877798 0.500000 0.440786
O O18 0.798676 0.670710 0.383038
O O19 0.750000 0.250000 0.500000
O O20 0.770071 0.000000 0.576629
O O21 0.818673 0.000000 0.094362
#
# Coordination Sequence:
#
# PCOD8095165 Si02
#       8
#     8   8   8   8   8   8   8   8
#     4  10  20  34  55  79 105 140 178 222 269 316
#     4  10  20  35  54  77 107 141 183 227 268 318
#     4  11  22  35  54  77 106 146 185 222 268 321
#     4  10  20  35  57  83 112 143 177 221 269 321
#     4  11  22  35  52  74 106 144 183 224 267 316
#     4  10  20  32  47  72 106 140 176 218 261 311
#     4  10  20  32  46  69 102 140 177 213 254 305
#     4   9  19  36  57  83 111 141 179 220 268 323
#
# _framework density 18.187372
#
# number of rings (size 3 to 8) (size 9 to 14) (size 15 to 20)
#    0.000    1.875    2.500    1.875    0.000    3.250 
#    0.000    0.000    0.000    0.750    0.000    5.250 
#    0.000    0.000    0.000    0.000    0.000    0.000 
#
# Total GULP energy -396732.518150 kJ/mol
# GULP energy per Si atom -12397.891192 kJ/mol
# Density = 1.814598 g / cm^3
# Si number density = 18.187372 Si / 1000 Ang^3
#
#
#
# Elastic Constant Matrix: (Units=GPa)
#
#
# Indices 1 2 3 4 5 6 
#
# 1 81.2331 42.4387 40.0196 0.0000 -12.8554 0.0000
# 2 42.4387 86.2605 42.9596 0.0000 -17.9531 0.0000
# 3 40.0196 42.9596 73.9847 0.0000 -12.6773 0.0000
# 4 0.0000 0.0000 0.0000 29.6546 0.0000 -6.7350
# 5 -12.8554 -17.9531 -12.6773 0.0000 32.7042 0.0000
# 6 0.0000 0.0000 0.0000 -6.7350 0.0000 30.1372
#
#
#
# Elastic Compliance Matrix: (Units=1/GPa)
#
#
# Indices 1 2 3 4 5 6 
#
# 1 0.018754 -0.005570 -0.006610 0.000000 0.001752 0.000000
# 2 -0.005570 0.019003 -0.007079 0.000000 0.005498 0.000000
# 3 -0.006610 -0.007079 0.021521 0.000000 0.001858 0.000000
# 4 0.000000 0.000000 0.000000 0.035525 0.000000 0.007939
# 5 0.001752 0.005498 0.001858 0.000000 0.035004 0.000000
# 6 0.000000 0.000000 0.000000 0.007939 0.000000 0.034956
#
#
# Mechanical properties :
#
#
# Convention : Reuss Voigt Hill
#
# Bulk Modulus (GPa) = 48.17110 54.70158 51.43634
# Shear Modulus (GPa) = 23.78690 26.23657 25.01174
#
# Velocity S-wave (km/s) = 3.62039 3.80224 3.71243
# Velocity P-wave (km/s) = 6.63474 7.02979 6.83512
#
# Compressibility (1/GPa) = 0.02075933
#
# Stress axis : x y z
#
# Youngs Moduli (GPa) = 53.32253 52.62307 46.46732
#
# Poissons Ratio (x) = 0.29312 0.30714
# Poissons Ratio (y) = 0.29701 0.32895
# Poissons Ratio (z) = 0.35245 0.37253
#
# Static dielectric constant tensor:
#      x y z
#    x 3.362520 0.000000 0.109650 
#    y 0.000000 3.359180 0.000000 
#    z 0.109650 0.000000 3.218000 
# 
# 
# High freq. dielectric constant tensor:
#      x y z
#    x 1.696540 0.000000 -0.002520 
#    y 0.000000 1.709520 0.000000 
#    z -0.002520 0.000000 1.684090 
# 
# From -- ./inp_files/244109.got.cif
#   From: 2010.06.25/outbox.cif.g09.slc.cpg/sg12_123_cif.got.tgz:244109.got - 2010.06.28 00:19:55.
