data_PCOD8095415
_publ_section_title
;
Structure prediction by ZEFSAII (Michael W. Deem and Ramdas Pophale) SiO2 
 PCOD8095415
Probable space group: C 2/M
;
_chemical_formula_sum "Si O2"
_cell_formula_units_Z 56
_cell_length_a 22.514659
_cell_length_b 10.231135
_cell_length_c 12.768799
_cell_angle_alpha 90.000000
_cell_angle_beta 97.685406
_cell_angle_gamma 90.000000
_cell_volume 2914.878611
_symmetry_space_group_name_H-M "C 2/M"
_symmetry_group_IT_number 12
_symmetry_cell_setting 'monoclinic'
loop_
_space_group_symop_operation_xyz
x,y,z
-x,y,-z
-x,-y,-z
x,-y,z
1/2+x,1/2+y,z
1/2-x,1/2+y,-z
1/2-x,1/2-y,-z
1/2+x,1/2-y,z
loop_
_atom_site_type_symbol
_atom_site_label
_atom_site_fract_x
_atom_site_fract_y
_atom_site_fract_z
Si Si1 0.693798 0.343681 0.469248
Si Si2 0.211526 0.853642 0.859933
Si Si3 0.663863 0.270634 0.062181
Si Si4 0.556527 0.855657 0.939323
Si Si5 0.019418 0.845755 0.762707
Si Si6 0.386398 0.646650 0.735816
Si Si7 0.371722 0.651350 0.338702
O O1 0.710613 0.500000 0.472693
O O2 0.750000 0.250000 0.500000
O O3 0.663339 0.293535 0.354008
O O4 0.646355 0.307281 0.549090
O O5 0.273818 0.779457 0.878677
O O6 0.170826 0.783034 0.760798
O O7 0.227265 0.000000 0.831567
O O8 0.176885 0.856759 0.962748
O O9 0.633666 0.352717 0.148411
O O10 0.617841 0.155379 0.020738
O O11 0.554349 0.736653 0.858189
O O12 0.556624 0.000000 0.885994
O O13 0.500000 0.841300 0.000000
O O14 0.057629 0.819797 0.665352
O O15 0.952130 0.788391 0.735623
O O16 0.019707 0.000000 0.794358
O O17 0.394707 0.500000 0.698385
O O18 0.360226 0.500000 0.319777
#
# Coordination Sequence:
#
# PCOD8095415 Si02
#       7
#     8   8   8   8   8   8   8
#     4  10  21  39  60  84 114 146 187 231 279 333
#     4  10  20  32  50  77 106 142 186 228 272 327
#     4  11  20  33  52  76 113 148 184 225 281 331
#     4  11  22  36  53  81 118 153 188 228 280 338
#     4  10  20  36  58  83 109 146 190 232 284 331
#     4  10  21  35  56  85 111 142 188 238 278 326
#     4   9  18  34  57  81 109 142 183 232 277 327
#
# _framework density 19.211779
#
# number of rings (size 3 to 8) (size 9 to 14) (size 15 to 20)
#    0.000    1.857    2.857    1.714    0.000    1.429 
#    0.000    5.000    0.000    0.000    0.000    2.000 
#    0.000    0.000    0.000    0.000    0.000    0.000 
#
# Total GULP energy -346931.238419 kJ/mol
# GULP energy per Si atom -12390.401372 kJ/mol
# Density = 1.916805 g / cm^3
# Si number density = 19.211779 Si / 1000 Ang^3
#
#
#
# Elastic Constant Matrix: (Units=GPa)
#
#
# Indices 1 2 3 4 5 6 
#
# 1 123.2901 21.3323 34.0823 0.0000 -1.0394 0.0000
# 2 21.3323 59.3323 16.6432 0.0000 0.4844 0.0000
# 3 34.0823 16.6432 87.4770 0.0000 -0.6125 0.0000
# 4 0.0000 0.0000 0.0000 19.8031 0.0000 4.2086
# 5 -1.0394 0.4844 -0.6125 0.0000 32.9093 0.0000
# 6 0.0000 0.0000 0.0000 4.2086 0.0000 15.2898
#
#
#
# Elastic Compliance Matrix: (Units=1/GPa)
#
#
# Indices 1 2 3 4 5 6 
#
# 1 0.009429 -0.002496 -0.003197 0.000000 0.000275 0.000000
# 2 -0.002496 0.018468 -0.002544 0.000000 -0.000398 0.000000
# 3 -0.003197 -0.002544 0.013162 0.000000 0.000181 0.000000
# 4 0.000000 0.000000 0.000000 0.053635 0.000000 -0.014763
# 5 0.000275 -0.000398 0.000181 0.000000 0.030404 0.000000
# 6 0.000000 0.000000 0.000000 -0.014763 0.000000 0.069467
#
#
# Mechanical properties :
#
#
# Convention : Reuss Voigt Hill
#
# Bulk Modulus (GPa) = 40.67297 46.02388 43.34843
# Shear Modulus (GPa) = 22.80668 26.80324 24.80496
#
# Velocity S-wave (km/s) = 3.44920 3.73922 3.59713
# Velocity P-wave (km/s) = 6.08929 6.53073 6.31387
#
# Compressibility (1/GPa) = 0.02458635
#
# Stress axis : x y z
#
# Youngs Moduli (GPa) = 106.05803 54.14657 75.97359
#
# Poissons Ratio (x) = 0.13512 0.24288
# Poissons Ratio (y) = 0.26467 0.19330
# Poissons Ratio (z) = 0.33905 0.13776
#
# Static dielectric constant tensor:
#      x y z
#    x 3.805020 0.000000 -0.053230 
#    y 0.000000 3.210020 0.000000 
#    z -0.053230 0.000000 3.677510 
# 
# 
# High freq. dielectric constant tensor:
#      x y z
#    x 1.769230 0.000000 -0.000260 
#    y 0.000000 1.709700 0.000000 
#    z -0.000260 0.000000 1.740900 
# 
# From -- ./inp_files/165042.got.cif
#   From: 2010.06.25/outbox.cif.g09.slc.cpg/sg12_83_cif.got.tgz:165042.got - 2010.06.28 00:19:55.
