data_PCOD8095187
_publ_section_title
;
Structure prediction by ZEFSAII (Michael W. Deem and Ramdas Pophale) SiO2 
 PCOD8095187
Probable space group: C 2/M
;
_chemical_formula_sum "Si O2"
_cell_formula_units_Z 48
_cell_length_a 27.780989
_cell_length_b 9.439696
_cell_length_c 11.190897
_cell_angle_alpha 90.000000
_cell_angle_beta 102.968848
_cell_angle_gamma 90.000000
_cell_volume 2859.887760
_symmetry_space_group_name_H-M "C 2/M"
_symmetry_group_IT_number 12
_symmetry_cell_setting 'monoclinic'
loop_
_space_group_symop_operation_xyz
x,y,z
-x,y,-z
-x,-y,-z
x,-y,z
1/2+x,1/2+y,z
1/2-x,1/2+y,-z
1/2-x,1/2-y,-z
1/2+x,1/2-y,z
loop_
_atom_site_type_symbol
_atom_site_label
_atom_site_fract_x
_atom_site_fract_y
_atom_site_fract_z
Si Si1 0.102147 0.163795 0.956478
Si Si2 0.267602 0.663296 0.338027
Si Si3 0.318014 0.335578 0.608293
Si Si4 0.510061 0.160376 0.865534
Si Si5 0.793099 0.835092 0.086750
Si Si6 0.918278 0.162871 0.780232
O O1 0.060679 0.256794 0.866592
O O2 0.154830 0.215421 0.937354
O O3 0.092196 0.000000 0.919409
O O4 0.101395 0.189890 0.097388
O O5 0.252227 0.500000 0.338231
O O6 0.305951 0.703954 0.464518
O O7 0.217440 0.751862 0.321369
O O8 0.293848 0.698431 0.228055
O O9 0.309387 0.500000 0.631243
O O10 0.374678 0.294454 0.665022
O O11 0.464971 0.239208 0.774180
O O12 0.514100 0.000000 0.819750
O O13 0.500000 0.163756 0.000000
O O14 0.784169 0.000000 0.055911
O O15 0.750000 0.750000 0.000000
O O16 0.934584 0.000000 0.773629
#
# Coordination Sequence:
#
# PCOD8095187 Si02
#       6
#     8   8   8   8   8   8
#     4   9  17  29  44  63  89 119 148 179 219 267
#     4   9  18  31  46  67  94 121 151 188 226 263
#     4   9  17  30  48  68  91 120 153 187 224 268
#     4   9  17  28  43  65  90 113 141 182 228 267
#     4  10  20  32  47  68  94 123 153 185 222 267
#     4   9  16  27  45  66  87 114 148 183 220 266
#
# _framework density 16.783875999999999
#
# number of rings (size 3 to 8) (size 9 to 14) (size 15 to 20)
#    0.000    2.833    0.000    1.500    0.000    5.333 
#    0.000    3.333    0.000    1.000    0.000    7.000 
#    0.000    0.000    0.000    0.000    0.000    0.000 
#
# Total GULP energy -297619.912279 kJ/mol
# GULP energy per Si atom -12400.829678 kJ/mol
# Density = 1.674567 g / cm^3
# Si number density = 16.783876 Si / 1000 Ang^3
#
#
#
# Elastic Constant Matrix: (Units=GPa)
#
#
# Indices 1 2 3 4 5 6 
#
# 1 146.7120 71.4206 52.2221 0.0000 20.5227 0.0000
# 2 71.4206 79.1820 36.6935 0.0000 14.5561 0.0000
# 3 52.2221 36.6935 60.2041 0.0000 12.3835 0.0000
# 4 0.0000 0.0000 0.0000 19.1669 0.0000 5.1105
# 5 20.5227 14.5561 12.3835 0.0000 27.4969 0.0000
# 6 0.0000 0.0000 0.0000 5.1105 0.0000 32.0318
#
#
#
# Elastic Compliance Matrix: (Units=1/GPa)
#
#
# Indices 1 2 3 4 5 6 
#
# 1 0.013731 -0.009224 -0.005714 0.000000 -0.002792 0.000000
# 2 -0.009224 0.024428 -0.006220 0.000000 -0.003246 0.000000
# 3 -0.005714 -0.006220 0.026234 0.000000 -0.004257 0.000000
# 4 0.000000 0.000000 0.000000 0.054491 0.000000 -0.008694
# 5 -0.002792 -0.003246 -0.004257 0.000000 0.042087 0.000000
# 6 0.000000 0.000000 0.000000 -0.008694 0.000000 0.032606
#
#
# Mechanical properties :
#
#
# Convention : Reuss Voigt Hill
#
# Bulk Modulus (GPa) = 45.29784 67.41893 56.35839
# Shear Modulus (GPa) = 20.55492 24.12326 22.33909
#
# Velocity S-wave (km/s) = 3.50334 3.79527 3.65222
# Velocity P-wave (km/s) = 6.58878 7.71113 7.17194
#
# Compressibility (1/GPa) = 0.02207611
#
# Stress axis : x y z
#
# Youngs Moduli (GPa) = 72.82928 40.93722 38.11918
#
# Poissons Ratio (x) = 0.37758 0.21783
# Poissons Ratio (y) = 0.67174 0.23710
# Poissons Ratio (z) = 0.41618 0.25463
#
# Static dielectric constant tensor:
#      x y z
#    x 3.173500 0.000000 0.134710 
#    y 0.000000 3.217500 0.000000 
#    z 0.134710 0.000000 3.059790 
# 
# 
# High freq. dielectric constant tensor:
#      x y z
#    x 1.643930 0.000000 0.017030 
#    y 0.000000 1.647470 0.000000 
#    z 0.017030 0.000000 1.622900 
# 
# From -- ./inp_files/172188.got.cif
#   From: 2010.06.25/outbox.cif.g09.slc.cpg/sg12_87_cif.got.tgz:172188.got - 2010.06.28 00:19:55.
