data_PCOD8095377
_publ_section_title
;
Structure prediction by ZEFSAII (Michael W. Deem and Ramdas Pophale) SiO2 
 PCOD8095377
Probable space group: C 2/M
;
_chemical_formula_sum "Si O2"
_cell_formula_units_Z 32
_cell_length_a 5.088586
_cell_length_b 23.631210
_cell_length_c 12.591291
_cell_angle_alpha 90.000000
_cell_angle_beta 97.325757
_cell_angle_gamma 90.000000
_cell_volume 1501.736518
_symmetry_space_group_name_H-M "C 2/M"
_symmetry_group_IT_number 12
_symmetry_cell_setting 'monoclinic'
loop_
_space_group_symop_operation_xyz
x,y,z
-x,y,-z
-x,-y,-z
x,-y,z
1/2+x,1/2+y,z
1/2-x,1/2+y,-z
1/2-x,1/2-y,-z
1/2+x,1/2-y,z
loop_
_atom_site_type_symbol
_atom_site_label
_atom_site_fract_x
_atom_site_fract_y
_atom_site_fract_z
Si Si1 0.009576 0.894084 0.735184
Si Si2 0.233329 0.936092 0.949068
Si Si3 0.559476 0.286112 0.122583
Si Si4 0.045023 0.433642 0.380771
O O1 0.175776 0.935289 0.821605
O O2 0.201082 0.895653 0.641980
O O3 0.983432 0.833656 0.790074
O O4 0.719323 0.918615 0.698199
O O5 0.255122 0.000000 0.992489
O O6 0.500000 0.903671 0.000000
O O7 0.000000 0.904223 0.000000
O O8 0.360735 0.235305 0.143367
O O9 0.500000 0.308071 0.000000
O O10 0.111389 0.500000 0.371619
O O11 0.000000 0.417113 0.500000
#
# Coordination Sequence:
#
# PCOD8095377 Si02
#       4
#     8   8   8   8
#     4  12  22  38  64  86 117 161 204 246 301 358
#     4  10  20  32  49  80 118 149 181 225 285 360
#     4  10  22  40  62  90 122 157 201 249 298 358
#     4  11  24  41  62  90 122 158 204 253 301 359
#
# _framework density 21.308665000000001
#
# number of rings (size 3 to 8) (size 9 to 14) (size 15 to 20)
#    0.000    1.250    0.000    6.750    0.000    7.000 
#    0.000    0.000    0.000   15.000    0.000    0.000 
#    0.000    0.000    0.000    0.000    0.000    0.000 
#
# Total GULP energy -198325.855286 kJ/mol
# GULP energy per Si atom -12395.365955 kJ/mol
# Density = 2.126017 g / cm^3
# Si number density = 21.308665 Si / 1000 Ang^3
#
#
#
# Elastic Constant Matrix: (Units=GPa)
#
#
# Indices 1 2 3 4 5 6 
#
# 1 128.3248 20.8892 19.9082 0.0000 -10.5586 0.0000
# 2 20.8892 75.5370 37.7851 0.0000 -14.3120 0.0000
# 3 19.9082 37.7851 90.2619 0.0000 -16.0184 0.0000
# 4 0.0000 0.0000 0.0000 7.2950 0.0000 8.1721
# 5 -10.5586 -14.3120 -16.0184 0.0000 46.6924 0.0000
# 6 0.0000 0.0000 0.0000 8.1721 0.0000 11.7107
#
#
#
# Elastic Compliance Matrix: (Units=1/GPa)
#
#
# Indices 1 2 3 4 5 6 
#
# 1 0.008291 -0.001610 -0.000969 0.000000 0.001049 0.000000
# 2 -0.001610 0.017436 -0.006453 0.000000 0.002767 0.000000
# 3 -0.000969 -0.006453 0.014486 0.000000 0.002773 0.000000
# 4 0.000000 0.000000 0.000000 0.628051 0.000000 -0.438276
# 5 0.001049 0.002767 0.002773 0.000000 0.023453 0.000000
# 6 0.000000 0.000000 0.000000 -0.438276 0.000000 0.391237
#
#
# Mechanical properties :
#
#
# Convention : Reuss Voigt Hill
#
# Bulk Modulus (GPa) = 45.14558 50.14317 47.64438
# Shear Modulus (GPa) = 4.51101 27.50903 16.01002
#
# Velocity S-wave (km/s) = 1.45656 3.59692 2.74403
# Velocity P-wave (km/s) = 4.90523 6.39010 5.69625
#
# Compressibility (1/GPa) = 0.02215056
#
# Stress axis : x y z
#
# Youngs Moduli (GPa) = 120.60753 57.35357 69.03275
#
# Poissons Ratio (x) = 0.09231 0.06688
# Poissons Ratio (y) = 0.19412 0.44546
# Poissons Ratio (z) = 0.11684 0.37010
#
# Static dielectric constant tensor:
#      x y z
#    x 3.822600 0.000000 -0.075150 
#    y 0.000000 3.472000 0.000000 
#    z -0.075150 0.000000 3.874550 
# 
# 
# High freq. dielectric constant tensor:
#      x y z
#    x 1.864100 0.000000 -0.009250 
#    y 0.000000 1.815250 0.000000 
#    z -0.009250 0.000000 1.828020 
# 
# From -- ./inp_files/114512.got.cif
#   From: 2010.06.25/outbox.cif.g09.slc.cpg/sg12_58_cif.got.tgz:114512.got - 2010.06.28 00:19:55.
