data_PCOD8095695
_publ_section_title
;
Structure prediction by ZEFSAII (Michael W. Deem and Ramdas Pophale) SiO2 
 PCOD8095695
Probable space group: C 2/M
;
_chemical_formula_sum "Si O2"
_cell_formula_units_Z 64
_cell_length_a 23.055862
_cell_length_b 13.430822
_cell_length_c 12.041327
_cell_angle_alpha 90.000000
_cell_angle_beta 105.914367
_cell_angle_gamma 90.000000
_cell_volume 3585.795706
_symmetry_space_group_name_H-M "C 2/M"
_symmetry_group_IT_number 12
_symmetry_cell_setting 'monoclinic'
loop_
_space_group_symop_operation_xyz
x,y,z
-x,y,-z
-x,-y,-z
x,-y,z
1/2+x,1/2+y,z
1/2-x,1/2+y,-z
1/2-x,1/2-y,-z
1/2+x,1/2-y,z
loop_
_atom_site_type_symbol
_atom_site_label
_atom_site_fract_x
_atom_site_fract_y
_atom_site_fract_z
Si Si1 0.068205 0.611871 0.250100
Si Si2 0.858316 0.302528 0.902604
Si Si3 0.772803 0.884446 0.175925
Si Si4 0.367566 0.612591 0.399525
Si Si5 0.444819 0.684019 0.246779
Si Si6 0.549054 0.749179 0.427736
Si Si7 0.633134 0.612398 0.967949
Si Si8 0.931037 0.612344 0.144329
O O1 0.092642 0.500000 0.264759
O O2 0.115036 0.676924 0.204292
O O3 0.068361 0.648016 0.379048
O O4 0.002576 0.617507 0.157714
O O5 0.787797 0.324163 0.869783
O O6 0.862598 0.184289 0.924700
O O7 0.893956 0.367587 0.012584
O O8 0.802865 0.858607 0.311979
O O9 0.817774 0.856036 0.099248
O O10 0.757383 0.000000 0.162278
O O11 0.366852 0.500000 0.447345
O O12 0.414703 0.616321 0.324142
O O13 0.390539 0.690917 0.503694
O O14 0.515881 0.686369 0.312367
O O15 0.432804 0.629913 0.122908
O O16 0.417904 0.799176 0.227117
O O17 0.500000 0.768816 0.500000
O O18 0.641115 0.500000 0.013897
O O19 0.914499 0.500000 0.179462
#
# Coordination Sequence:
#
# PCOD8095695 Si02
#       8
#     8   8   8   8   8   8   8   8
#     4  10  20  33  49  71  97 122 153 197 244 286
#     4  11  19  30  50  71  96 129 162 190 226 280
#     4   9  17  30  49  73  96 123 159 193 229 271
#     4   9  17  30  48  69  94 122 157 200 236 270
#     4   8  15  27  47  71  94 121 154 190 230 279
#     4   9  18  32  50  71  92 120 159 198 241 287
#     4   9  18  31  47  70 102 132 156 188 227 270
#     4   9  17  29  46  70  99 126 152 188 233 281
#
# _framework density 17.848201
#
# number of rings (size 3 to 8) (size 9 to 14) (size 15 to 20)
#    0.000    2.750    0.000    3.000    0.000    4.000 
#    0.000    3.125    0.000   11.250    0.000    0.000 
#    0.000    0.000    0.000    0.000    0.000    0.000 
#
# Total GULP energy -396462.528039 kJ/mol
# GULP energy per Si atom -12389.454001 kJ/mol
# Density = 1.780758 g / cm^3
# Si number density = 17.848201 Si / 1000 Ang^3
#
#
#
# Elastic Constant Matrix: (Units=GPa)
#
#
# Indices 1 2 3 4 5 6 
#
# 1 43.2769 43.0801 30.3047 0.0000 -2.0798 0.0000
# 2 43.0801 111.2261 53.9612 0.0000 4.8261 0.0000
# 3 30.3047 53.9612 81.2059 0.0000 5.6189 0.0000
# 4 0.0000 0.0000 0.0000 27.6269 0.0000 -2.4552
# 5 -2.0798 4.8261 5.6189 0.0000 19.4057 0.0000
# 6 0.0000 0.0000 0.0000 -2.4552 0.0000 17.4629
#
#
#
# Elastic Compliance Matrix: (Units=1/GPa)
#
#
# Indices 1 2 3 4 5 6 
#
# 1 0.041817 -0.012873 -0.007738 0.000000 0.009924 0.000000
# 2 -0.012873 0.017242 -0.006389 0.000000 -0.003818 0.000000
# 3 -0.007738 -0.006389 0.019792 0.000000 -0.004971 0.000000
# 4 0.000000 0.000000 0.000000 0.036655 0.000000 0.005153
# 5 0.009924 -0.003818 -0.004971 0.000000 0.054984 0.000000
# 6 0.000000 0.000000 0.000000 0.005153 0.000000 0.057989
#
#
# Mechanical properties :
#
#
# Convention : Reuss Voigt Hill
#
# Bulk Modulus (GPa) = 40.24094 54.48898 47.36496
# Shear Modulus (GPa) = 17.19625 20.12331 18.65978
#
# Velocity S-wave (km/s) = 3.10735 3.36142 3.23688
# Velocity P-wave (km/s) = 5.95562 6.75729 6.36908
#
# Compressibility (1/GPa) = 0.02485031
#
# Stress axis : x y z
#
# Youngs Moduli (GPa) = 23.91375 57.99785 50.52665
#
# Poissons Ratio (x) = 0.74661 0.39097
# Poissons Ratio (y) = 0.30784 0.32282
# Poissons Ratio (z) = 0.18504 0.37055
#
# Static dielectric constant tensor:
#      x y z
#    x 3.095580 0.000000 0.288260 
#    y 0.000000 3.395520 0.000000 
#    z 0.288260 0.000000 3.320780 
# 
# 
# High freq. dielectric constant tensor:
#      x y z
#    x 1.656660 0.000000 0.025980 
#    y 0.000000 1.692510 0.000000 
#    z 0.025980 0.000000 1.677040 
# 
# From -- ./inp_files/176166.got.cif
#   From: 2010.06.25/outbox.cif.g09.slc.cpg/sg12_89_cif.got.tgz:176166.got - 2010.06.28 00:19:55.
