data_PCOD8095921
_publ_section_title
;
Structure prediction by ZEFSAII (Michael W. Deem and Ramdas Pophale) SiO2 
 PCOD8095921
Probable space group: C 2/M
;
_chemical_formula_sum "Si O2"
_cell_formula_units_Z 64
_cell_length_a 19.556467
_cell_length_b 9.101312
_cell_length_c 22.540498
_cell_angle_alpha 90.000000
_cell_angle_beta 59.978676
_cell_angle_gamma 90.000000
_cell_volume 3473.722980
_symmetry_space_group_name_H-M "C 2/M"
_symmetry_group_IT_number 12
_symmetry_cell_setting 'monoclinic'
loop_
_space_group_symop_operation_xyz
x,y,z
-x,y,-z
-x,-y,-z
x,-y,z
1/2+x,1/2+y,z
1/2-x,1/2+y,-z
1/2-x,1/2-y,-z
1/2+x,1/2-y,z
loop_
_atom_site_type_symbol
_atom_site_label
_atom_site_fract_x
_atom_site_fract_y
_atom_site_fract_z
Si Si1 0.464316 0.670218 0.313261
Si Si2 0.724474 0.334419 0.422401
Si Si3 0.370862 0.834962 0.447304
Si Si4 0.671469 0.827951 0.054707
Si Si5 0.365480 0.670022 0.809578
Si Si6 0.298311 0.827987 0.176645
Si Si7 0.175908 0.172840 0.713006
Si Si8 0.585165 0.827737 0.975303
O O1 0.454547 0.500000 0.333475
O O2 0.443465 0.760798 0.381271
O O3 0.553486 0.711191 0.258053
O O4 0.406325 0.711552 0.284071
O O5 0.701073 0.500000 0.414289
O O6 0.648548 0.255642 0.484573
O O7 0.794987 0.335469 0.438467
O O8 0.750316 0.245951 0.352870
O O9 0.394815 0.000000 0.454797
O O10 0.639790 0.768865 0.130212
O O11 0.688386 0.000000 0.052353
O O12 0.750000 0.750000 0.000000
O O13 0.605957 0.791231 0.033912
O O14 0.363538 0.500000 0.830167
O O15 0.293641 0.704702 0.796263
O O16 0.328695 0.737639 0.219474
O O17 0.348299 0.768103 0.098738
O O18 0.312278 0.000000 0.182697
O O19 0.190714 0.000000 0.709185
O O20 0.580271 0.000000 0.966586
O O21 0.500000 0.753975 0.000000
#
# Coordination Sequence:
#
# PCOD8095921 Si02
#       8
#     8   8   8   8   8   8   8   8
#     4   9  19  34  52  75 107 141 173 215 263 311
#     4   9  16  28  48  74 104 141 177 209 257 312
#     4   9  16  27  47  76 108 136 172 218 259 304
#     4  11  21  36  58  80 103 135 175 218 262 311
#     4  10  21  38  56  76 104 140 179 217 259 309
#     4  10  20  36  55  73 102 141 177 212 258 315
#     4  10  20  33  50  77 109 137 172 217 265 309
#     4   9  19  35  54  78 105 135 172 215 261 310
#
# _framework density 18.424036999999998
#
# number of rings (size 3 to 8) (size 9 to 14) (size 15 to 20)
#    0.000    2.375    1.250    1.500    1.750    4.500 
#    0.000    0.000    0.000    2.625    0.000    5.250 
#    0.000    0.000    0.000    0.000    0.000    0.000 
#
# Total GULP energy -396824.298664 kJ/mol
# GULP energy per Si atom -12400.759333 kJ/mol
# Density = 1.838210 g / cm^3
# Si number density = 18.424037 Si / 1000 Ang^3
#
#
#
# Elastic Constant Matrix: (Units=GPa)
#
#
# Indices 1 2 3 4 5 6 
#
# 1 82.7553 31.8325 38.4591 0.0000 -19.6787 -0.0003
# 2 31.8325 84.0061 40.3505 -0.0001 -10.5210 -0.0011
# 3 38.4591 40.3505 89.2761 0.0000 -22.1920 0.0000
# 4 0.0000 -0.0001 0.0000 38.4083 0.0000 2.9793
# 5 -19.6787 -10.5210 -22.1920 0.0000 26.4568 -0.0001
# 6 -0.0003 -0.0011 0.0000 2.9793 -0.0001 18.6022
#
#
#
# Elastic Compliance Matrix: (Units=1/GPa)
#
#
# Indices 1 2 3 4 5 6 
#
# 1 0.017174 -0.003712 -0.003679 0.000000 0.008212 0.000000
# 2 -0.003712 0.016010 -0.005990 0.000000 -0.001419 0.000001
# 3 -0.003679 -0.005990 0.017967 0.000000 0.009952 0.000000
# 4 0.000000 0.000000 0.000000 0.026364 0.000000 -0.004222
# 5 0.008212 -0.001419 0.009952 0.000000 0.051690 0.000000
# 6 0.000000 0.000001 0.000000 -0.004222 0.000000 0.054433
#
#
# Mechanical properties :
#
#
# Convention : Reuss Voigt Hill
#
# Bulk Modulus (GPa) = 41.00143 53.03573 47.01858
# Shear Modulus (GPa) = 22.88017 26.38649 24.63333
#
# Velocity S-wave (km/s) = 3.52783 3.78852 3.66050
# Velocity P-wave (km/s) = 6.23673 6.92718 6.59100
#
# Compressibility (1/GPa) = 0.02438940
#
# Stress axis : x y z
#
# Youngs Moduli (GPa) = 58.22612 62.46176 55.65664
#
# Poissons Ratio (x) = 0.23186 0.20479
# Poissons Ratio (y) = 0.21614 0.33336
# Poissons Ratio (z) = 0.21424 0.37411
#
# Static dielectric constant tensor:
#      x y z
#    x 2.697980 -0.000030 -0.850420 
#    y -0.000030 2.752580 -0.000050 
#    z -0.850420 -0.000050 2.836300 
# 
# 
# High freq. dielectric constant tensor:
#      x y z
#    x 1.688720 0.000000 -0.008540 
#    y 0.000000 1.709310 0.000000 
#    z -0.008540 0.000000 1.723110 
# 
# From -- ./inp_files/319874.got.cif
#   From: 2010.06.25/outbox.cif.g09.slc.cpg/sg12_160_cif.got.tgz:319874.got - 2010.06.28 00:19:55.
