data_PCOD8095408
_publ_section_title
;
Structure prediction by ZEFSAII (Michael W. Deem and Ramdas Pophale) SiO2 
 PCOD8095408
Probable space group: C 2/M
;
_chemical_formula_sum "Si O2"
_cell_formula_units_Z 56
_cell_length_a 26.879017
_cell_length_b 23.378568
_cell_length_c 15.613523
_cell_angle_alpha 90.000000
_cell_angle_beta 161.201272
_cell_angle_gamma 90.000000
_cell_volume 3161.680277
_symmetry_space_group_name_H-M "C 2/M"
_symmetry_group_IT_number 12
_symmetry_cell_setting 'monoclinic'
loop_
_space_group_symop_operation_xyz
x,y,z
-x,y,-z
-x,-y,-z
x,-y,z
1/2+x,1/2+y,z
1/2-x,1/2+y,-z
1/2-x,1/2-y,-z
1/2+x,1/2-y,z
loop_
_atom_site_type_symbol
_atom_site_label
_atom_site_fract_x
_atom_site_fract_y
_atom_site_fract_z
Si Si1 0.764102 0.931690 0.453863
Si Si2 0.142574 0.563551 0.440056
Si Si3 0.728844 0.777595 0.701536
Si Si4 0.624171 0.172602 0.132115
Si Si5 0.945425 0.658281 0.172018
Si Si6 0.432771 0.381165 0.979742
Si Si7 0.316576 0.276931 0.195274
O O1 0.662265 0.917762 0.372460
O O2 0.697444 0.890399 0.270701
O O3 0.755297 0.000000 0.416144
O O4 0.940651 0.912469 0.755276
O O5 0.085337 0.500000 0.349409
O O6 0.305181 0.570700 0.752783
O O7 0.010231 0.594353 0.279804
O O8 0.750024 0.723778 0.670938
O O9 0.557431 0.799653 0.405685
O O10 0.859448 0.825733 0.903996
O O11 0.738734 0.763017 0.817719
O O12 0.500000 0.190704 0.000000
O O13 0.542200 0.173937 0.907313
O O14 0.774479 0.662909 0.935613
O O15 0.500000 0.358578 0.000000
O O16 0.500000 0.287664 0.500000
O O17 0.250000 0.250000 0.000000
#
# Coordination Sequence:
#
# PCOD8095408 Si02
#       7
#     8   8   8   8   8   8   8
#     4  10  20  32  50  76 115 162 198 225 266 321
#     4   9  17  33  54  77 110 149 195 234 265 325
#     4  10  22  35  56  81 114 142 188 230 289 349
#     4  11  22  32  48  77 116 155 184 226 274 328
#     4  10  21  36  53  83 107 147 188 223 291 342
#     4   9  18  33  52  82 112 152 189 228 273 326
#     4  11  22  39  60  82 109 139 180 239 299 357
#
# _framework density 17.712101000000001
#
# number of rings (size 3 to 8) (size 9 to 14) (size 15 to 20)
#    0.000    2.000    2.857    0.857    4.000    3.143 
#    0.000    0.000    0.000    0.429    0.000   11.000 
#    0.000    0.000    0.000    0.000    0.000    0.000 
#
# Total GULP energy -346892.803512 kJ/mol
# GULP energy per Si atom -12389.028697 kJ/mol
# Density = 1.767179 g / cm^3
# Si number density = 17.712101 Si / 1000 Ang^3
#
#
#
# Elastic Constant Matrix: (Units=GPa)
#
#
# Indices 1 2 3 4 5 6 
#
# 1 91.0718 34.9965 44.2276 0.0000 2.8797 0.0000
# 2 34.9965 96.1624 36.1984 0.0000 9.0822 0.0000
# 3 44.2276 36.1984 95.3789 0.0000 13.1380 0.0000
# 4 0.0000 0.0000 0.0000 18.0686 0.0000 -0.7514
# 5 2.8797 9.0822 13.1380 0.0000 30.7526 0.0000
# 6 0.0000 0.0000 0.0000 -0.7514 0.0000 16.4231
#
#
#
# Elastic Compliance Matrix: (Units=1/GPa)
#
#
# Indices 1 2 3 4 5 6 
#
# 1 0.015163 -0.003458 -0.006018 0.000000 0.002172 0.000000
# 2 -0.003458 0.013007 -0.003026 0.000000 -0.002225 0.000000
# 3 -0.006018 -0.003026 0.015112 0.000000 -0.004999 0.000000
# 4 0.000000 0.000000 0.000000 0.055450 0.000000 0.002537
# 5 0.002172 -0.002225 -0.004999 0.000000 0.035107 0.000000
# 6 0.000000 0.000000 0.000000 0.002537 0.000000 0.061006
#
#
# Mechanical properties :
#
#
# Convention : Reuss Voigt Hill
#
# Bulk Modulus (GPa) = 54.71319 57.05091 55.88205
# Shear Modulus (GPa) = 22.12950 24.19488 23.16219
#
# Velocity S-wave (km/s) = 3.53852 3.69997 3.62014
# Velocity P-wave (km/s) = 6.90306 7.10866 7.00661
#
# Compressibility (1/GPa) = 0.01827713
#
# Stress axis : x y z
#
# Youngs Moduli (GPa) = 65.94968 76.88196 66.17153
#
# Poissons Ratio (x) = 0.26587 0.39822
# Poissons Ratio (y) = 0.22806 0.20026
# Poissons Ratio (z) = 0.39688 0.23268
#
# Static dielectric constant tensor:
#      x y z
#    x 3.173020 0.000000 0.040300 
#    y 0.000000 3.381870 0.000000 
#    z 0.040300 0.000000 3.489440 
# 
# 
# High freq. dielectric constant tensor:
#      x y z
#    x 1.661230 0.000000 -0.007310 
#    y 0.000000 1.677480 0.000000 
#    z -0.007310 0.000000 1.698340 
# 
# From -- ./inp_files/134820.got.cif
#   From: 2010.06.25/outbox.cif.g09.slc.cpg/sg12_68_cif.got.tgz:134820.got - 2010.06.28 00:19:55.
