data_PCOD8095234
_publ_section_title
;
Structure prediction by ZEFSAII (Michael W. Deem and Ramdas Pophale) SiO2 
 PCOD8095234
Probable space group: C 2/M
;
_chemical_formula_sum "Si O2"
_cell_formula_units_Z 48
_cell_length_a 29.587047
_cell_length_b 9.690018
_cell_length_c 26.975328
_cell_angle_alpha 90.000000
_cell_angle_beta 160.618966
_cell_angle_gamma 90.000000
_cell_volume 2566.452953
_symmetry_space_group_name_H-M "C 2/M"
_symmetry_group_IT_number 12
_symmetry_cell_setting 'monoclinic'
loop_
_space_group_symop_operation_xyz
x,y,z
-x,y,-z
-x,-y,-z
x,-y,z
1/2+x,1/2+y,z
1/2-x,1/2+y,-z
1/2-x,1/2-y,-z
1/2+x,1/2-y,z
loop_
_atom_site_type_symbol
_atom_site_label
_atom_site_fract_x
_atom_site_fract_y
_atom_site_fract_z
Si Si1 0.376824 0.663539 0.952001
Si Si2 0.833252 0.160935 0.017486
Si Si3 0.768823 0.343904 0.471623
Si Si4 0.067252 0.653268 0.799842
Si Si5 0.651053 0.164645 0.643071
Si Si6 0.179140 0.835977 0.272977
O O1 0.369369 0.500000 0.940985
O O2 0.263575 0.725278 0.797732
O O3 0.340666 0.715429 0.969427
O O4 0.531308 0.712380 0.099176
O O5 0.943636 0.242074 0.164987
O O6 0.869081 0.000000 0.057881
O O7 0.683878 0.199359 0.882445
O O8 0.716157 0.500000 0.428022
O O9 0.750000 0.250000 0.500000
O O10 0.699224 0.280362 0.350064
O O11 0.929316 0.346203 0.625850
O O12 0.098682 0.500000 0.853224
O O13 0.500000 0.222925 0.500000
O O14 0.701153 0.214718 0.640357
O O15 0.647791 0.000000 0.642417
O O16 0.183941 0.000000 0.281092
#
# Coordination Sequence:
#
# PCOD8095234 Si02
#       6
#     8   8   8   8   8   8
#     4   9  16  26  42  62  87 119 154 189 230 282
#     4   9  17  29  47  68  93 125 159 192 235 286
#     4  10  20  32  48  69  97 129 162 197 237 282
#     4   9  18  30  44  66  95 124 158 199 235 275
#     4   9  17  26  40  63  91 120 151 191 239 284
#     4   9  17  28  42  62  91 124 155 190 234 282
#
# _framework density 18.702855
#
# number of rings (size 3 to 8) (size 9 to 14) (size 15 to 20)
#    0.000    2.833    0.000    1.500    2.333    4.000 
#    0.000    0.000    0.000    0.000    0.000    1.167 
#    0.000    6.667    0.000    0.000    0.000    0.000 
#
# Total GULP energy -297426.579703 kJ/mol
# GULP energy per Si atom -12392.774154 kJ/mol
# Density = 1.866029 g / cm^3
# Si number density = 18.702855 Si / 1000 Ang^3
#
#
#
# Elastic Constant Matrix: (Units=GPa)
#
#
# Indices 1 2 3 4 5 6 
#
# 1 137.4159 21.2184 61.9671 -0.0001 -3.0721 -0.0001
# 2 21.2184 22.9681 11.8491 0.0003 -2.8529 0.0000
# 3 61.9671 11.8491 128.8811 0.0005 -4.0554 0.0002
# 4 -0.0001 0.0003 0.0005 13.3712 -0.0001 -2.0306
# 5 -3.0721 -2.8529 -4.0554 -0.0001 28.4626 -0.0002
# 6 -0.0001 0.0000 0.0002 -2.0306 -0.0002 16.5593
#
#
#
# Elastic Compliance Matrix: (Units=1/GPa)
#
#
# Indices 1 2 3 4 5 6 
#
# 1 0.010352 -0.007371 -0.004307 0.000000 -0.000235 0.000000
# 2 -0.007371 0.051412 -0.001050 -0.000001 0.004208 0.000000
# 3 -0.004307 -0.001050 0.009953 0.000000 0.000848 0.000000
# 4 0.000000 -0.000001 0.000000 0.076207 0.000000 0.009345
# 5 -0.000235 0.004208 0.000848 0.000000 0.035651 0.000001
# 6 0.000000 0.000000 0.000000 0.009345 0.000001 0.061535
#
#
# Mechanical properties :
#
#
# Convention : Reuss Voigt Hill
#
# Bulk Modulus (GPa) = 21.61642 53.25938 37.43790
# Shear Modulus (GPa) = 17.48324 24.62734 21.05529
#
# Velocity S-wave (km/s) = 3.06075 3.63267 3.35890
# Velocity P-wave (km/s) = 4.90651 6.79216 5.92483
#
# Compressibility (1/GPa) = 0.04626114
#
# Stress axis : x y z
#
# Youngs Moduli (GPa) = 96.59611 19.45054 100.46918
#
# Poissons Ratio (x) = 0.14337 0.43275
# Poissons Ratio (y) = 0.71200 0.10553
# Poissons Ratio (z) = 0.41606 0.02043
#
# Static dielectric constant tensor:
#      x y z
#    x 3.573440 0.000000 0.025160 
#    y 0.000000 2.906580 0.000000 
#    z 0.025160 0.000000 3.785530 
# 
# 
# High freq. dielectric constant tensor:
#      x y z
#    x 1.733770 0.000000 0.007590 
#    y 0.000000 1.648390 0.000000 
#    z 0.007590 0.000000 1.742130 
# 
# From -- ./inp_files/94347.got.cif
#   From: 2010.06.25/outbox.cif.g09.slc.cpg/sg12_48_cif.got.tgz:94347.got - 2010.06.28 00:19:55.
