data_PCOD8095179
_publ_section_title
;
Structure prediction by ZEFSAII (Michael W. Deem and Ramdas Pophale) SiO2 
 PCOD8095179
Probable space group: C 2/M
;
_chemical_formula_sum "Si O2"
_cell_formula_units_Z 64
_cell_length_a 30.525146
_cell_length_b 9.013792
_cell_length_c 14.150179
_cell_angle_alpha 90.000000
_cell_angle_beta 87.830056
_cell_angle_gamma 90.000000
_cell_volume 3890.591902
_symmetry_space_group_name_H-M "C 2/M"
_symmetry_group_IT_number 12
_symmetry_cell_setting 'monoclinic'
loop_
_space_group_symop_operation_xyz
x,y,z
-x,y,-z
-x,-y,-z
x,-y,z
1/2+x,1/2+y,z
1/2-x,1/2+y,-z
1/2-x,1/2-y,-z
1/2+x,1/2-y,z
loop_
_atom_site_type_symbol
_atom_site_label
_atom_site_fract_x
_atom_site_fract_y
_atom_site_fract_z
Si Si1 0.669683 0.169178 0.804304
Si Si2 0.260110 0.672121 0.901279
Si Si3 0.795482 0.327864 0.599952
Si Si4 0.339010 0.825201 0.786632
Si Si5 0.794942 0.672604 0.391577
Si Si6 0.993834 0.667194 0.111996
Si Si7 0.908017 0.172416 0.091014
Si Si8 0.580549 0.326172 0.128476
O O1 0.718908 0.192171 0.836252
O O2 0.669451 0.210567 0.692485
O O3 0.637947 0.279983 0.861103
O O4 0.654112 0.000000 0.822923
O O5 0.271231 0.500000 0.917852
O O6 0.302151 0.749542 0.853036
O O7 0.250000 0.750000 0.000000
O O8 0.784534 0.500000 0.601571
O O9 0.831362 0.289283 0.676398
O O10 0.812685 0.278863 0.494027
O O11 0.750479 0.249581 0.629610
O O12 0.386000 0.757582 0.806327
O O13 0.338749 0.000000 0.807775
O O14 0.784345 0.500000 0.389217
O O15 0.995011 0.500000 0.151993
O O16 0.947078 0.740098 0.140277
O O17 0.032368 0.763157 0.156226
O O18 0.000000 0.668752 0.000000
O O19 0.916176 0.000000 0.107767
O O20 0.906321 0.209166 0.980307
O O21 0.581139 0.500000 0.149968
#
# Coordination Sequence:
#
# PCOD8095179 Si02
#       8
#     8   8   8   8   8   8   8   8
#     4  10  20  32  47  67  93 126 162 197 237 285
#     4  11  22  34  46  64  93 131 167 199 235 279
#     4   9  18  31  49  70  92 120 157 202 247 287
#     4  11  21  32  47  70  97 127 162 199 239 287
#     4   9  17  32  50  68  91 121 158 202 247 288
#     4   9  17  31  51  72  95 123 156 197 241 282
#     4  10  20  32  48  70  97 127 161 198 234 279
#     4  10  20  33  49  70  97 130 164 198 235 279
#
# _framework density 16.449939000000001
#
# number of rings (size 3 to 8) (size 9 to 14) (size 15 to 20)
#    0.000    2.125    1.250    2.625    0.000    7.000 
#    0.000    0.000    0.000    0.000    0.000    0.875 
#    0.000    7.000    0.000    0.000    0.000    0.000 
#
# Total GULP energy -396786.550559 kJ/mol
# GULP energy per Si atom -12399.579705 kJ/mol
# Density = 1.641250 g / cm^3
# Si number density = 16.449939 Si / 1000 Ang^3
#
#
#
# Elastic Constant Matrix: (Units=GPa)
#
#
# Indices 1 2 3 4 5 6 
#
# 1 72.8068 36.7244 24.0140 0.0000 20.8433 0.0000
# 2 36.7244 81.4136 37.4457 0.0000 14.1722 0.0000
# 3 24.0140 37.4457 73.7445 0.0000 13.0524 0.0000
# 4 0.0000 0.0000 0.0000 19.0635 0.0000 0.3679
# 5 20.8433 14.1722 13.0524 0.0000 14.0569 0.0000
# 6 0.0000 0.0000 0.0000 0.3679 0.0000 33.6313
#
#
#
# Elastic Compliance Matrix: (Units=1/GPa)
#
#
# Indices 1 2 3 4 5 6 
#
# 1 0.026175 -0.006310 0.000507 0.000000 -0.032922 0.000000
# 2 -0.006310 0.018896 -0.006970 0.000000 -0.003224 0.000000
# 3 0.000507 -0.006970 0.018936 0.000000 -0.011308 0.000000
# 4 0.000000 0.000000 0.000000 0.052467 0.000000 -0.000574
# 5 -0.032922 -0.003224 -0.011308 0.000000 0.133705 0.000000
# 6 0.000000 0.000000 0.000000 -0.000574 0.000000 0.029741
#
#
# Mechanical properties :
#
#
# Convention : Reuss Voigt Hill
#
# Bulk Modulus (GPa) = 25.99932 47.14812 36.57372
# Shear Modulus (GPa) = 15.70920 22.00238 18.85579
#
# Velocity S-wave (km/s) = 3.09361 3.66120 3.38931
# Velocity P-wave (km/s) = 5.34790 6.82615 6.13173
#
# Compressibility (1/GPa) = 0.03846254
#
# Stress axis : x y z
#
# Youngs Moduli (GPa) = 38.20412 52.92134 52.81047
#
# Poissons Ratio (x) = 0.33391 -0.02679
# Poissons Ratio (y) = 0.24105 0.36807
# Poissons Ratio (z) = -0.01938 0.36885
#
# Static dielectric constant tensor:
#      x y z
#    x -1.187130 0.000000 7.958350 
#    y 0.000000 3.268060 0.000000 
#    z 7.958350 0.000000 -11.231820 
# 
# 
# High freq. dielectric constant tensor:
#      x y z
#    x 1.618240 0.000000 0.006890 
#    y 0.000000 1.647270 0.000000 
#    z 0.006890 0.000000 1.615140 
# 
# From -- ./inp_files/248380.got.cif
#   From: 2010.06.25/outbox.cif.g09.slc.cpg/sg12_125_cif.got.tgz:248380.got - 2010.06.28 00:19:55.
