data_PCOD8095142
_publ_section_title
;
Structure prediction by ZEFSAII (Michael W. Deem and Ramdas Pophale) SiO2 
 PCOD8095142
Probable space group: C 2/M
;
_chemical_formula_sum "Si O2"
_cell_formula_units_Z 48
_cell_length_a 30.994400
_cell_length_b 9.251321
_cell_length_c 25.123887
_cell_angle_alpha 90.000000
_cell_angle_beta 22.044289
_cell_angle_gamma 90.000000
_cell_volume 2703.828911
_symmetry_space_group_name_H-M "C 2/M"
_symmetry_group_IT_number 12
_symmetry_cell_setting 'monoclinic'
loop_
_space_group_symop_operation_xyz
x,y,z
-x,y,-z
-x,-y,-z
x,-y,z
1/2+x,1/2+y,z
1/2-x,1/2+y,-z
1/2-x,1/2-y,-z
1/2+x,1/2-y,z
loop_
_atom_site_type_symbol
_atom_site_label
_atom_site_fract_x
_atom_site_fract_y
_atom_site_fract_z
Si Si1 0.361523 0.328558 0.851087
Si Si2 0.915335 0.831710 0.337456
Si Si3 0.334738 0.671963 0.656292
Si Si4 0.170148 0.330703 0.663076
Si Si5 0.381620 0.172420 0.159550
Si Si6 0.072995 0.171449 0.339407
O O1 0.342283 0.500000 0.874062
O O2 0.471413 0.283472 0.760446
O O3 0.381668 0.268374 0.768397
O O4 0.250000 0.250000 0.000000
O O5 0.911134 0.746626 0.286814
O O6 0.804119 0.793523 0.500406
O O7 0.918004 0.000000 0.320798
O O8 0.333691 0.500000 0.654177
O O9 0.220262 0.736395 0.760624
O O10 0.445136 0.731200 0.497736
O O11 0.342045 0.720306 0.709879
O O12 0.146936 0.500000 0.684555
O O13 0.134896 0.272072 0.761401
O O14 0.379248 0.000000 0.161381
O O15 0.500000 0.232752 0.000000
O O16 0.066369 0.000000 0.343857
#
# Coordination Sequence:
#
# PCOD8095142 Si02
#       6
#     8   8   8   8   8   8
#     4  10  20  32  46  67  95 124 152 185 227 272
#     4   9  18  32  48  66  91 123 156 189 224 263
#     4   8  13  23  40  62  86 112 144 181 221 263
#     4   9  17  30  49  70  91 119 155 190 223 264
#     4   9  16  24  37  62  93 117 138 175 226 269
#     4   8  14  25  42  62  84 112 146 183 220 261
#
# _framework density 17.752603000000001
#
# number of rings (size 3 to 8) (size 9 to 14) (size 15 to 20)
#    0.000    3.167    0.000    2.000    0.000    6.000 
#    0.000    3.333    0.000    0.500    0.000    3.500 
#    0.000    0.000    0.000    0.000    0.000    0.000 
#
# Total GULP energy -297508.767569 kJ/mol
# GULP energy per Si atom -12396.198649 kJ/mol
# Density = 1.771220 g / cm^3
# Si number density = 17.752603 Si / 1000 Ang^3
#
#
#
# Elastic Constant Matrix: (Units=GPa)
#
#
# Indices 1 2 3 4 5 6 
#
# 1 194.7745 31.8338 114.7463 0.0003 5.9725 0.0007
# 2 31.8338 15.7967 24.8560 0.0156 -0.9461 -0.0006
# 3 114.7463 24.8560 140.4489 0.0116 5.7850 -0.0017
# 4 0.0003 0.0156 0.0116 19.3931 0.0011 1.0128
# 5 5.9725 -0.9461 5.7850 0.0011 20.2203 -0.0013
# 6 0.0007 -0.0006 -0.0017 1.0128 -0.0013 20.8548
#
#
#
# Elastic Compliance Matrix: (Units=1/GPa)
#
#
# Indices 1 2 3 4 5 6 
#
# 1 0.011257 -0.011704 -0.007049 0.000014 -0.001856 -0.000002
# 2 -0.011704 0.101427 -0.008830 -0.000077 0.010729 0.000007
# 3 -0.007049 -0.008830 0.014544 -0.000001 -0.002492 0.000001
# 4 0.000014 -0.000077 -0.000001 0.051696 -0.000010 -0.002511
# 5 -0.001856 0.010729 -0.002492 -0.000010 0.051219 0.000004
# 6 -0.000002 0.000007 0.000001 -0.002511 0.000004 0.048073
#
#
# Mechanical properties :
#
#
# Convention : Reuss Voigt Hill
#
# Bulk Modulus (GPa) = 13.87684 77.09914 45.48799
# Shear Modulus (GPa) = 13.98985 24.06588 19.02786
#
# Velocity S-wave (km/s) = 2.81026 3.68588 3.27744
# Velocity P-wave (km/s) = 4.28530 7.85101 6.32464
#
# Compressibility (1/GPa) = 0.07206251
#
# Stress axis : x y z
#
# Youngs Moduli (GPa) = 88.83658 9.85927 68.75627
#
# Poissons Ratio (x) = 0.11540 0.48465
# Poissons Ratio (y) = 1.03979 0.60709
# Poissons Ratio (z) = 0.62619 0.08705
#
# Static dielectric constant tensor:
#      x y z
#    x 3.653160 0.000010 0.002550 
#    y 0.000010 2.708850 0.000000 
#    z 0.002550 0.000000 3.405680 
# 
# 
# High freq. dielectric constant tensor:
#      x y z
#    x 1.704630 0.000000 0.000390 
#    y 0.000000 1.621440 0.000000 
#    z 0.000390 0.000000 1.687090 
# 
# From -- ./inp_files/164190.got.cif
#   From: 2010.06.25/outbox.cif.g09.slc.cpg/sg12_83_cif.got.tgz:164190.got - 2010.06.28 00:19:55.
