data_PCOD8095726
_publ_section_title
;
Structure prediction by ZEFSAII (Michael W. Deem and Ramdas Pophale) SiO2 
 PCOD8095726
Probable space group: C 2/M
;
_chemical_formula_sum "Si O2"
_cell_formula_units_Z 48
_cell_length_a 24.909705
_cell_length_b 9.026628
_cell_length_c 18.143657
_cell_angle_alpha 90.000000
_cell_angle_beta 136.750479
_cell_angle_gamma 90.000000
_cell_volume 2795.256524
_symmetry_space_group_name_H-M "C 2/M"
_symmetry_group_IT_number 12
_symmetry_cell_setting 'monoclinic'
loop_
_space_group_symop_operation_xyz
x,y,z
-x,y,-z
-x,-y,-z
x,-y,z
1/2+x,1/2+y,z
1/2-x,1/2+y,-z
1/2-x,1/2-y,-z
1/2+x,1/2-y,z
loop_
_atom_site_type_symbol
_atom_site_label
_atom_site_fract_x
_atom_site_fract_y
_atom_site_fract_z
Si Si1 0.920093 0.176028 0.100635
Si Si2 0.178760 0.672713 0.888754
Si Si3 0.277535 0.669523 0.854095
Si Si4 0.277535 0.169523 0.700976
Si Si5 0.920093 0.676028 0.739551
Si Si6 0.821240 0.172713 0.531235
O O1 0.899555 0.244210 0.161231
O O2 0.000000 0.250000 0.152224
O O3 0.928361 0.000000 0.115660
O O4 0.852924 0.225297 0.975799
O O5 0.174645 0.500000 0.905897
O O6 0.196562 0.692114 0.819309
O O7 0.250000 0.750000 0.000000
O O8 0.291494 0.500000 0.849340
O O9 0.268797 0.750000 0.768797
O O10 0.352924 0.225297 0.730050
O O11 0.196562 0.192114 0.573815
O O12 0.291494 0.000000 0.733648
O O13 0.928361 0.500000 0.741062
O O14 0.899555 0.744210 0.637878
O O15 0.750000 0.250000 0.500000
O O16 0.825355 0.000000 0.556607
#
# Coordination Sequence:
#
# PCOD8095726 Si02
#       6
#     8   8   8   8   8   8
#     4  10  20  33  49  72  98 128 162 198 240 286
#     4   9  17  31  49  70  94 124 162 200 235 280
#     4   9  19  32  48  71  98 127 160 194 236 284
#     4   9  19  32  48  71  98 127 160 194 236 284
#     4  10  20  33  49  72  98 128 162 198 240 286
#     4   9  17  31  49  70  94 124 162 200 235 280
#
# _framework density 17.171948
#
# number of rings (size 3 to 8) (size 9 to 14) (size 15 to 20)
#    0.000    2.667    0.000    4.000    0.000    8.667 
#    0.000    3.333    0.000    1.000    0.000    7.000 
#    0.000    0.000    0.000    0.000    0.000    0.000 
#
# Total GULP energy -297388.092204 kJ/mol
# GULP energy per Si atom -12391.170509 kJ/mol
# Density = 1.713286 g / cm^3
# Si number density = 17.171948 Si / 1000 Ang^3
#
#
#
# Elastic Constant Matrix: (Units=GPa)
#
#
# Indices 1 2 3 4 5 6 
#
# 1 62.7028 30.3364 22.0746 0.0000 -22.9328 0.0000
# 2 30.3364 83.0888 27.0495 0.0000 -16.9864 0.0000
# 3 22.0746 27.0495 53.7848 0.0000 -23.1539 0.0000
# 4 0.0000 0.0000 0.0000 32.7715 0.0000 -1.6120
# 5 -22.9328 -16.9864 -23.1539 0.0000 16.9527 0.0000
# 6 0.0000 0.0000 0.0000 -1.6120 0.0000 33.0834
#
#
#
# Elastic Compliance Matrix: (Units=1/GPa)
#
#
# Indices 1 2 3 4 5 6 
#
# 1 0.037603 -0.005154 0.016586 0.000000 0.068356 0.000000
# 2 -0.005154 0.015997 -0.004929 0.000000 0.002324 0.000000
# 3 0.016586 -0.004929 0.052901 0.000000 0.089748 0.000000
# 4 0.000000 0.000000 0.000000 0.030588 0.000000 0.001490
# 5 0.068356 0.002324 0.089748 0.000000 0.276362 0.000000
# 6 0.000000 0.000000 0.000000 0.001490 0.000000 0.030299
#
#
# Mechanical properties :
#
#
# Convention : Reuss Voigt Hill
#
# Bulk Modulus (GPa) = 8.36787 39.83304 24.10046
# Shear Modulus (GPa) = 10.62516 24.56925 17.59720
#
# Velocity S-wave (km/s) = 2.49017 3.78667 3.20467
# Velocity P-wave (km/s) = 3.62650 6.50887 5.26863
#
# Compressibility (1/GPa) = 0.11950470
#
# Stress axis : x y z
#
# Youngs Moduli (GPa) = 26.59336 62.51166 18.90339
#
# Poissons Ratio (x) = 0.32220 -0.31352
# Poissons Ratio (y) = 0.13707 0.09318
# Poissons Ratio (z) = -0.44107 0.30815
#
# Static dielectric constant tensor:
#      x y z
#    x 3.315950 0.000000 -0.042820 
#    y 0.000000 3.409210 0.000000 
#    z -0.042820 0.000000 3.307670 
# 
# 
# High freq. dielectric constant tensor:
#      x y z
#    x 1.645370 0.000000 -0.002830 
#    y 0.000000 1.677320 0.000000 
#    z -0.002830 0.000000 1.644820 
# 
# From -- ./inp_files/281822.got.cif
#   From: 2010.06.25/outbox.cif.g09.slc.cpg/sg12_141_cif.got.tgz:281822.got - 2010.06.28 00:19:55.
