data_PCOD8095686
_publ_section_title
;
Structure prediction by ZEFSAII (Michael W. Deem and Ramdas Pophale) SiO2 
 PCOD8095686
Probable space group: C 2/M
;
_chemical_formula_sum "Si O2"
_cell_formula_units_Z 56
_cell_length_a 19.194100
_cell_length_b 9.108552
_cell_length_c 26.791014
_cell_angle_alpha 90.000000
_cell_angle_beta 140.521114
_cell_angle_gamma 90.000000
_cell_volume 2977.985324
_symmetry_space_group_name_H-M "C 2/M"
_symmetry_group_IT_number 12
_symmetry_cell_setting 'monoclinic'
loop_
_space_group_symop_operation_xyz
x,y,z
-x,y,-z
-x,-y,-z
x,-y,z
1/2+x,1/2+y,z
1/2-x,1/2+y,-z
1/2-x,1/2-y,-z
1/2+x,1/2-y,z
loop_
_atom_site_type_symbol
_atom_site_label
_atom_site_fract_x
_atom_site_fract_y
_atom_site_fract_z
Si Si1 0.933522 0.169593 0.513140
Si Si2 0.460728 0.672518 0.741584
Si Si3 0.895017 0.824580 0.912767
Si Si4 0.767501 0.173202 0.562661
Si Si5 0.660268 0.835354 0.811876
Si Si6 0.343625 0.325332 0.775549
Si Si7 0.395463 0.834928 0.333469
O O1 0.823015 0.264376 0.449246
O O2 0.000000 0.198356 0.500000
O O3 0.006816 0.224448 0.599702
O O4 0.904054 0.000000 0.505481
O O5 0.472996 0.500000 0.753983
O O6 0.384994 0.711809 0.651942
O O7 0.581879 0.738009 0.803072
O O8 0.407383 0.738377 0.762843
O O9 0.784296 0.771046 0.879782
O O10 0.898186 0.766877 0.857285
O O11 0.894279 0.000000 0.912085
O O12 0.000000 0.760796 0.000000
O O13 0.750000 0.250000 0.500000
O O14 0.752317 0.000000 0.547714
O O15 0.614692 0.835327 0.731111
O O16 0.659570 0.000000 0.833293
O O17 0.345885 0.500000 0.776938
O O18 0.216635 0.275526 0.703301
O O19 0.422563 0.000000 0.367422
#
# Coordination Sequence:
#
# PCOD8095686 Si02
#       7
#     8   8   8   8   8   8   8
#     4  11  23  35  48  71 101 130 165 212 260 301
#     4  10  20  33  49  70  98 131 163 198 243 296
#     4   8  14  28  52  78 100 124 158 198 235 276
#     4  11  23  37  53  72  97 133 174 214 258 303
#     4   9  18  31  50  75  98 123 158 200 241 284
#     4   8  15  29  49  72  96 126 166 203 237 285
#     4   9  17  32  52  69  89 124 170 212 246 287
#
# _framework density 18.804658
#
# number of rings (size 3 to 8) (size 9 to 14) (size 15 to 20)
#    0.000    2.571    0.000    4.286    0.000    6.286 
#    0.000    1.429    0.000    1.286    0.000    0.000 
#    0.000    0.000    0.000    0.000    0.000    0.000 
#
# Total GULP energy -347120.133475 kJ/mol
# GULP energy per Si atom -12397.147624 kJ/mol
# Density = 1.876186 g / cm^3
# Si number density = 18.804658 Si / 1000 Ang^3
#
#
#
# Elastic Constant Matrix: (Units=GPa)
#
#
# Indices 1 2 3 4 5 6 
#
# 1 112.2634 30.4357 31.9589 0.0000 15.0238 0.0000
# 2 30.4357 46.1334 26.3232 0.0000 5.7647 0.0001
# 3 31.9589 26.3232 86.0999 0.0000 14.7254 0.0000
# 4 0.0000 0.0000 0.0000 15.9934 0.0000 5.3329
# 5 15.0238 5.7647 14.7254 0.0000 25.6435 0.0000
# 6 0.0000 0.0001 0.0000 5.3329 0.0000 31.2355
#
#
#
# Elastic Compliance Matrix: (Units=1/GPa)
#
#
# Indices 1 2 3 4 5 6 
#
# 1 0.011658 -0.006177 -0.001672 0.000000 -0.004481 0.000000
# 2 -0.006177 0.029577 -0.006910 0.000000 0.000938 0.000000
# 3 -0.001672 -0.006910 0.015430 0.000000 -0.006327 0.000000
# 4 0.000000 0.000000 0.000000 0.066300 0.000000 -0.011320
# 5 -0.004481 0.000938 -0.006327 0.000000 0.045044 0.000000
# 6 0.000000 0.000000 0.000000 -0.011320 0.000000 0.033947
#
#
# Mechanical properties :
#
#
# Convention : Reuss Voigt Hill
#
# Bulk Modulus (GPa) = 36.83789 46.88135 41.85962
# Shear Modulus (GPa) = 20.78788 24.95974 22.87381
#
# Velocity S-wave (km/s) = 3.32846 3.64719 3.49146
# Velocity P-wave (km/s) = 5.86548 6.53612 6.20986
#
# Compressibility (1/GPa) = 0.02714596
#
# Stress axis : x y z
#
# Youngs Moduli (GPa) = 85.77754 33.80992 64.80907
#
# Poissons Ratio (x) = 0.20884 0.10839
# Poissons Ratio (y) = 0.52985 0.44784
# Poissons Ratio (z) = 0.14345 0.23363
#
# Static dielectric constant tensor:
#      x y z
#    x 3.681220 0.000000 0.116380 
#    y 0.000000 3.159050 0.000000 
#    z 0.116380 0.000000 3.534770 
# 
# 
# High freq. dielectric constant tensor:
#      x y z
#    x 1.739610 0.000000 0.008880 
#    y 0.000000 1.695240 0.000000 
#    z 0.008880 0.000000 1.718310 
# 
# From -- ./inp_files/342573.got.cif
#   From: 2010.06.25/outbox.cif.g09.slc.cpg/sg12_172_cif.got.tgz:342573.got - 2010.06.28 00:19:55.
