data_PCOD8095000
_publ_section_title
;
Structure prediction by ZEFSAII (Michael W. Deem and Ramdas Pophale) SiO2 
 PCOD8095000
Probable space group: C 2/M
;
_chemical_formula_sum "Si O2"
_cell_formula_units_Z 48
_cell_length_a 21.004550
_cell_length_b 15.039762
_cell_length_c 9.535169
_cell_angle_alpha 90.000000
_cell_angle_beta 116.997866
_cell_angle_gamma 90.000000
_cell_volume 2683.934208
_symmetry_space_group_name_H-M "C 2/M"
_symmetry_group_IT_number 12
_symmetry_cell_setting 'monoclinic'
loop_
_space_group_symop_operation_xyz
x,y,z
-x,y,-z
-x,-y,-z
x,-y,z
1/2+x,1/2+y,z
1/2-x,1/2+y,-z
1/2-x,1/2-y,-z
1/2+x,1/2-y,z
loop_
_atom_site_type_symbol
_atom_site_label
_atom_site_fract_x
_atom_site_fract_y
_atom_site_fract_z
Si Si1 0.846217 0.603180 0.507718
Si Si2 0.082007 0.251209 0.919062
Si Si3 0.814922 0.098031 0.981431
Si Si4 0.917993 0.251209 0.755048
Si Si5 0.846217 0.603180 0.184716
Si Si6 0.314922 0.401969 0.648412
O O1 0.864598 0.500000 0.547144
O O2 0.900860 0.658746 0.655895
O O3 0.856036 0.630782 0.356036
O O4 0.765421 0.623446 0.477976
O O5 0.099140 0.341254 0.854175
O O6 0.000000 0.224958 0.813367
O O7 0.129765 0.170718 0.904458
O O8 0.098965 0.267497 0.098965
O O9 0.734579 0.123446 0.947133
O O10 0.818633 0.094062 0.818633
O O11 0.834965 0.000000 0.061069
O O12 0.870235 0.170718 0.644928
O O13 0.864598 0.500000 0.182053
O O14 0.334965 0.500000 0.608861
#
# Coordination Sequence:
#
# PCOD8095000 Si02
#       6
#     8   8   8   8   8   8
#     4   9  18  33  52  70  89 121 163 198 228 268
#     4  10  20  31  46  72 101 125 150 186 235 283
#     4   8  15  30  51  72  93 119 155 196 232 271
#     4  10  20  31  46  72 101 125 150 186 235 283
#     4   9  18  33  52  70  89 121 163 198 228 268
#     4   8  15  30  51  72  93 119 155 196 232 271
#
# _framework density 17.884194000000001
#
# number of rings (size 3 to 8) (size 9 to 14) (size 15 to 20)
#    0.000    3.000    0.000    3.000    0.000    2.667 
#    0.000    6.667    0.000    3.000    0.000    2.333 
#    0.000    0.000    0.000    0.000    0.000    0.000 
#
# Total GULP energy -297561.115091 kJ/mol
# GULP energy per Si atom -12398.379795 kJ/mol
# Density = 1.784349 g / cm^3
# Si number density = 17.884194 Si / 1000 Ang^3
#
#
#
# Elastic Constant Matrix: (Units=GPa)
#
#
# Indices 1 2 3 4 5 6 
#
# 1 64.6051 36.7133 20.6251 0.0000 -1.1192 0.0000
# 2 36.7133 84.9298 34.1195 0.0000 1.3228 0.0000
# 3 20.6251 34.1195 47.0802 0.0000 10.0562 0.0000
# 4 0.0000 0.0000 0.0000 24.0925 0.0000 -0.5272
# 5 -1.1192 1.3228 10.0562 0.0000 17.3884 0.0000
# 6 0.0000 0.0000 0.0000 -0.5272 0.0000 23.0586
#
#
#
# Elastic Compliance Matrix: (Units=1/GPa)
#
#
# Indices 1 2 3 4 5 6 
#
# 1 0.021310 -0.007219 -0.005150 0.000000 0.004899 0.000000
# 2 -0.007219 0.019726 -0.012223 0.000000 0.005104 0.000000
# 3 -0.005150 -0.012223 0.036769 0.000000 -0.020666 0.000000
# 4 0.000000 0.000000 0.000000 0.041528 0.000000 0.000950
# 5 0.004899 0.005104 -0.020666 0.000000 0.069389 0.000000
# 6 0.000000 0.000000 0.000000 0.000950 0.000000 0.043389
#
#
# Mechanical properties :
#
#
# Convention : Reuss Voigt Hill
#
# Bulk Modulus (GPa) = 34.94064 42.17012 38.55538
# Shear Modulus (GPa) = 17.19175 19.91837 18.55506
#
# Velocity S-wave (km/s) = 3.10382 3.34090 3.22454
# Velocity P-wave (km/s) = 5.69425 6.20587 5.95556
#
# Compressibility (1/GPa) = 0.02861997
#
# Stress axis : x y z
#
# Youngs Moduli (GPa) = 46.92581 50.69395 27.19656
#
# Poissons Ratio (x) = 0.36597 0.14007
# Poissons Ratio (y) = 0.33876 0.33243
# Poissons Ratio (z) = 0.24169 0.61965
#
# Static dielectric constant tensor:
#      x y z
#    x 3.263940 0.000000 0.149240 
#    y 0.000000 3.520140 0.000000 
#    z 0.149240 0.000000 2.971280 
# 
# 
# High freq. dielectric constant tensor:
#      x y z
#    x 1.685870 0.000000 0.014490 
#    y 0.000000 1.699810 0.000000 
#    z 0.014490 0.000000 1.657460 
# 
# From -- ./inp_files/75439.got.cif
#   From: 2010.06.25/outbox.cif.g09.slc.cpg/sg12_38_cif.got.tgz:75439.got - 2010.06.28 00:19:55.
