data_PCOD8095720
_publ_section_title
;
Structure prediction by ZEFSAII (Michael W. Deem and Ramdas Pophale) SiO2 
 PCOD8095720
Probable space group: C 2/M
;
_chemical_formula_sum "Si O2"
_cell_formula_units_Z 56
_cell_length_a 27.623825
_cell_length_b 9.038719
_cell_length_c 14.002932
_cell_angle_alpha 90.000000
_cell_angle_beta 59.541448
_cell_angle_gamma 90.000000
_cell_volume 3013.803792
_symmetry_space_group_name_H-M "C 2/M"
_symmetry_group_IT_number 12
_symmetry_cell_setting 'monoclinic'
loop_
_space_group_symop_operation_xyz
x,y,z
-x,y,-z
-x,-y,-z
x,-y,z
1/2+x,1/2+y,z
1/2-x,1/2+y,-z
1/2-x,1/2-y,-z
1/2+x,1/2-y,z
loop_
_atom_site_type_symbol
_atom_site_label
_atom_site_fract_x
_atom_site_fract_y
_atom_site_fract_z
Si Si1 0.935314 0.826246 0.756263
Si Si2 0.252761 0.829587 0.638668
Si Si3 0.435314 0.673754 0.373109
Si Si4 0.836732 0.327329 0.938943
Si Si5 0.433803 0.835409 0.566197
Si Si6 0.163268 0.327329 0.612406
Si Si7 0.247239 0.329587 0.144190
O O1 0.896506 0.757144 0.877900
O O2 0.914686 0.753143 0.678324
O O3 0.000000 0.788320 0.714922
O O4 0.925792 0.000000 0.757831
O O5 0.198783 0.730703 0.666743
O O6 0.304293 0.788790 0.518258
O O7 0.271140 0.795372 0.728860
O O8 0.235448 0.000000 0.642288
O O9 0.425792 0.500000 0.390586
O O10 0.414686 0.746858 0.492304
O O11 0.396506 0.742856 0.329087
O O12 0.848055 0.500000 0.940095
O O13 0.804293 0.288789 0.873156
O O14 0.801217 0.269297 0.064310
O O15 0.500000 0.851528 0.500000
O O16 0.405982 0.000000 0.594019
O O17 0.151945 0.500000 0.636204
O O18 0.264552 0.500000 0.113183
#
# Coordination Sequence:
#
# PCOD8095720 Si02
#       7
#     8   8   8   8   8   8   8
#     4  10  20  33  49  72 104 140 175 211 255 309
#     4   9  19  36  55  75 103 138 173 213 260 310
#     4  10  20  33  49  72 104 140 175 211 255 309
#     4  10  20  33  53  80 106 135 174 216 258 306
#     4   9  17  29  45  67  97 133 171 209 250 297
#     4  10  20  33  53  80 106 135 174 216 258 306
#     4   9  19  36  55  75 103 138 173 213 260 310
#
# _framework density 18.58117
#
# number of rings (size 3 to 8) (size 9 to 14) (size 15 to 20)
#    0.000    2.429    0.000    2.143    2.000    5.143 
#    0.000    0.000    0.000    0.857    0.000    6.000 
#    0.000    0.000    0.000    0.000    0.000    0.000 
#
# Total GULP energy -347240.682555 kJ/mol
# GULP energy per Si atom -12401.452948 kJ/mol
# Density = 1.853888 g / cm^3
# Si number density = 18.581170 Si / 1000 Ang^3
#
#
#
# Elastic Constant Matrix: (Units=GPa)
#
#
# Indices 1 2 3 4 5 6 
#
# 1 67.5181 35.7000 12.2960 0.0000 -6.3383 0.0000
# 2 35.7000 96.1197 22.4393 0.0000 -13.3070 0.0000
# 3 12.2960 22.4393 56.3023 0.0000 -4.9166 0.0000
# 4 0.0000 0.0000 0.0000 29.4180 0.0000 -1.7234
# 5 -6.3383 -13.3070 -4.9166 0.0000 25.8795 0.0000
# 6 0.0000 0.0000 0.0000 -1.7234 0.0000 31.1354
#
#
#
# Elastic Compliance Matrix: (Units=1/GPa)
#
#
# Indices 1 2 3 4 5 6 
#
# 1 0.018558 -0.006430 -0.001405 0.000000 0.000972 0.000000
# 2 -0.006430 0.014406 -0.003892 0.000000 0.005093 0.000000
# 3 -0.001405 -0.003892 0.019742 0.000000 0.001405 0.000000
# 4 0.000000 0.000000 0.000000 0.034103 0.000000 0.001888
# 5 0.000972 0.005093 0.001405 0.000000 0.041764 0.000000
# 6 0.000000 0.000000 0.000000 0.001888 0.000000 0.032222
#
#
# Mechanical properties :
#
#
# Convention : Reuss Voigt Hill
#
# Bulk Modulus (GPa) = 34.18773 40.09009 37.13891
# Shear Modulus (GPa) = 25.77304 27.25356 26.51330
#
# Velocity S-wave (km/s) = 3.72835 3.83395 3.78152
# Velocity P-wave (km/s) = 6.08056 6.42039 6.25278
#
# Compressibility (1/GPa) = 0.02925026
#
# Stress axis : x y z
#
# Youngs Moduli (GPa) = 53.88551 69.41735 50.65293
#
# Poissons Ratio (x) = 0.44635 0.07119
# Poissons Ratio (y) = 0.34648 0.19716
# Poissons Ratio (z) = 0.07573 0.27020
#
# Static dielectric constant tensor:
#      x y z
#    x 3.302700 0.000000 -0.062240 
#    y 0.000000 3.482040 0.000000 
#    z -0.062240 0.000000 3.240680 
# 
# 
# High freq. dielectric constant tensor:
#      x y z
#    x 1.709010 0.000000 -0.013890 
#    y 0.000000 1.732550 0.000000 
#    z -0.013890 0.000000 1.695170 
# 
# From -- ./inp_files/243680.got.cif
#   From: 2010.06.25/outbox.cif.g09.slc.cpg/sg12_122_cif.got.tgz:243680.got - 2010.06.28 00:19:55.
