data_PCOD8095255
_publ_section_title
;
Structure prediction by ZEFSAII (Michael W. Deem and Ramdas Pophale) SiO2 
 PCOD8095255
Probable space group: C 2/M
;
_chemical_formula_sum "Si O2"
_cell_formula_units_Z 64
_cell_length_a 14.719316
_cell_length_b 9.199530
_cell_length_c 30.062028
_cell_angle_alpha 90.000000
_cell_angle_beta 120.967381
_cell_angle_gamma 90.000000
_cell_volume 3490.483624
_symmetry_space_group_name_H-M "C 2/M"
_symmetry_group_IT_number 12
_symmetry_cell_setting 'monoclinic'
loop_
_space_group_symop_operation_xyz
x,y,z
-x,y,-z
-x,-y,-z
x,-y,z
1/2+x,1/2+y,z
1/2-x,1/2+y,-z
1/2-x,1/2-y,-z
1/2+x,1/2-y,z
loop_
_atom_site_type_symbol
_atom_site_label
_atom_site_fract_x
_atom_site_fract_y
_atom_site_fract_z
Si Si1 0.110631 0.168963 0.237592
Si Si2 0.821722 0.170928 0.312253
Si Si3 0.772148 0.828670 0.135012
Si Si4 0.152371 0.670256 0.499413
Si Si5 0.419748 0.670942 0.247223
Si Si6 0.541246 0.333086 0.881779
Si Si7 0.959341 0.327238 0.942277
Si Si8 0.414985 0.829496 0.419271
O O1 0.211772 0.270095 0.266332
O O2 0.032844 0.224353 0.257506
O O3 0.055868 0.195857 0.176369
O O4 0.141790 0.000000 0.251705
O O5 0.908592 0.210234 0.296326
O O6 0.854126 0.243531 0.366194
O O7 0.812612 0.000000 0.317509
O O8 0.822922 0.762875 0.193362
O O9 0.848893 0.790140 0.113650
O O10 0.657430 0.760571 0.096289
O O11 0.759144 0.000000 0.136464
O O12 0.172340 0.500000 0.498621
O O13 0.250000 0.750000 0.500000
O O14 0.143441 0.711230 0.549257
O O15 0.039109 0.715107 0.449651
O O16 0.415474 0.500000 0.237619
O O17 0.541236 0.500000 0.896812
O O18 0.535759 0.232268 0.923404
O O19 0.960786 0.500000 0.941096
O O20 0.000000 0.270200 0.000000
O O21 0.404521 0.000000 0.407920
#
# Coordination Sequence:
#
# PCOD8095255 Si02
#       8
#     8   8   8   8   8   8   8   8
#     4   9  18  34  53  72  97 132 169 203 248 304
#     4  11  21  32  51  80 108 134 167 209 249 289
#     4   8  15  31  51  68  93 130 165 198 243 300
#     4   9  19  37  60  79 100 136 178 216 256 299
#     4   8  16  31  50  70  95 131 169 199 239 299
#     4   9  18  33  53  72  92 127 171 207 243 295
#     4  10  20  32  48  72 100 129 161 202 256 307
#     4   9  20  38  54  74 107 143 172 203 254 310
#
# _framework density 18.335567999999999
#
# number of rings (size 3 to 8) (size 9 to 14) (size 15 to 20)
#    0.000    2.875    0.000    3.375    0.000    4.250 
#    0.000    6.875    0.000    2.250    0.000    0.000 
#    0.000    0.000    0.000    0.000    0.000    0.000 
#
# Total GULP energy -396661.308393 kJ/mol
# GULP energy per Si atom -12395.665887 kJ/mol
# Density = 1.829384 g / cm^3
# Si number density = 18.335568 Si / 1000 Ang^3
#
#
#
# Elastic Constant Matrix: (Units=GPa)
#
#
# Indices 1 2 3 4 5 6 
#
# 1 81.1817 28.6961 21.2000 0.0000 -10.9268 0.0000
# 2 28.6961 36.7800 28.3888 0.0000 -7.8761 0.0000
# 3 21.2000 28.3888 66.5122 0.0000 -16.7554 0.0000
# 4 0.0000 0.0000 0.0000 24.8654 0.0000 -1.2996
# 5 -10.9268 -7.8761 -16.7554 0.0000 22.6164 0.0000
# 6 0.0000 0.0000 0.0000 -1.2996 0.0000 28.2623
#
#
#
# Elastic Compliance Matrix: (Units=1/GPa)
#
#
# Indices 1 2 3 4 5 6 
#
# 1 0.017419 -0.013738 0.001507 0.000000 0.004749 0.000000
# 2 -0.013738 0.051427 -0.018112 0.000000 -0.002146 0.000000
# 3 0.001507 -0.018112 0.025670 0.000000 0.013439 0.000000
# 4 0.000000 0.000000 0.000000 0.040313 0.000000 0.001854
# 5 0.004749 -0.002146 0.013439 0.000000 0.055719 0.000000
# 6 0.000000 0.000000 0.000000 0.001854 0.000000 0.035468
#
#
# Mechanical properties :
#
#
# Convention : Reuss Voigt Hill
#
# Bulk Modulus (GPa) = 29.55718 37.89374 33.72546
# Shear Modulus (GPa) = 16.77969 22.22808 19.50388
#
# Velocity S-wave (km/s) = 3.02842 3.48558 3.26501
# Velocity P-wave (km/s) = 5.32762 6.07541 5.71376
#
# Compressibility (1/GPa) = 0.03383272
#
# Stress axis : x y z
#
# Youngs Moduli (GPa) = 57.40699 19.44495 38.95533
#
# Poissons Ratio (x) = 0.26713 -0.05872
# Poissons Ratio (y) = 0.78863 0.70557
# Poissons Ratio (z) = -0.08654 0.35219
#
# Static dielectric constant tensor:
#      x y z
#    x 3.526060 0.000000 -0.022850 
#    y 0.000000 3.023480 0.000000 
#    z -0.022850 0.000000 3.475270 
# 
# 
# High freq. dielectric constant tensor:
#      x y z
#    x 1.720480 0.000000 -0.003740 
#    y 0.000000 1.680250 0.000000 
#    z -0.003740 0.000000 1.711360 
# 
# From -- ./inp_files/375119.got.cif
#   From: 2010.06.25/outbox.cif.g09.slc.cpg/sg12_188_cif.got.tgz:375119.got - 2010.06.28 00:19:55.
