data_PCOD8095028
_publ_section_title
;
Structure prediction by ZEFSAII (Michael W. Deem and Ramdas Pophale) SiO2 
 PCOD8095028
Probable space group: C 2/M
;
_chemical_formula_sum "Si O2"
_cell_formula_units_Z 48
_cell_length_a 23.084887
_cell_length_b 9.219556
_cell_length_c 15.051954
_cell_angle_alpha 90.000000
_cell_angle_beta 60.698991
_cell_angle_gamma 90.000000
_cell_volume 2793.684346
_symmetry_space_group_name_H-M "C 2/M"
_symmetry_group_IT_number 12
_symmetry_cell_setting 'monoclinic'
loop_
_space_group_symop_operation_xyz
x,y,z
-x,y,-z
-x,-y,-z
x,-y,z
1/2+x,1/2+y,z
1/2-x,1/2+y,-z
1/2-x,1/2-y,-z
1/2+x,1/2-y,z
loop_
_atom_site_type_symbol
_atom_site_label
_atom_site_fract_x
_atom_site_fract_y
_atom_site_fract_z
Si Si1 0.954578 0.328868 0.115327
Si Si2 0.995655 0.337370 0.278197
Si Si3 0.654878 0.161765 0.581746
Si Si4 0.672381 0.332402 0.742466
Si Si5 0.819170 0.666303 0.634513
Si Si6 0.056106 0.828382 0.387831
O O1 0.941857 0.500000 0.124116
O O2 0.882645 0.254079 0.159855
O O3 0.990687 0.282632 0.179813
O O4 0.000000 0.276999 0.000000
O O5 0.025611 0.500000 0.258736
O O6 0.042112 0.231145 0.299707
O O7 0.923669 0.334406 0.376690
O O8 0.675565 0.278206 0.638913
O O9 0.688761 0.203788 0.463712
O O10 0.675769 0.000000 0.597947
O O11 0.652111 0.500000 0.756342
O O12 0.745464 0.310466 0.731366
O O13 0.842998 0.500000 0.628802
O O14 0.871310 0.772614 0.640436
O O15 0.000000 0.774922 0.500000
O O16 0.057975 0.000000 0.382328
#
# Coordination Sequence:
#
# PCOD8095028 Si02
#       6
#     8   8   8   8   8   8
#     4   9  19  37  59  79  99 128 166 207 256 311
#     4   9  17  31  52  74  98 132 170 206 245 295
#     4   9  17  30  48  69  98 138 174 201 241 297
#     4  10  20  31  48  76 104 129 164 210 257 298
#     4  10  20  33  48  68 100 142 176 202 241 299
#     4  11  22  32  46  72 104 138 174 211 246 285
#
# _framework density 17.181612000000001
#
# number of rings (size 3 to 8) (size 9 to 14) (size 15 to 20)
#    0.000    2.333    1.667    2.500    0.000    5.667 
#    0.000    0.000    0.000    1.000    0.000    0.000 
#    0.000    0.000    0.000    0.000    0.000    0.000 
#
# Total GULP energy -297558.131709 kJ/mol
# GULP energy per Si atom -12398.255488 kJ/mol
# Density = 1.714251 g / cm^3
# Si number density = 17.181612 Si / 1000 Ang^3
#
#
#
# Elastic Constant Matrix: (Units=GPa)
#
#
# Indices 1 2 3 4 5 6 
#
# 1 95.9668 50.0040 48.1304 0.0000 -9.1559 0.0000
# 2 50.0040 70.2252 37.3674 0.0000 -4.1622 0.0000
# 3 48.1304 37.3674 96.5960 0.0000 -9.8978 0.0000
# 4 0.0000 0.0000 0.0000 19.3044 0.0000 -1.2709
# 5 -9.1559 -4.1622 -9.8978 0.0000 15.6643 0.0000
# 6 0.0000 0.0000 0.0000 -1.2709 0.0000 30.8251
#
#
#
# Elastic Compliance Matrix: (Units=1/GPa)
#
#
# Indices 1 2 3 4 5 6 
#
# 1 0.018793 -0.010545 -0.004754 0.000000 0.005179 0.000000
# 2 -0.010545 0.023850 -0.004228 0.000000 -0.002498 0.000000
# 3 -0.004754 -0.004228 0.014923 0.000000 0.005527 0.000000
# 4 0.000000 0.000000 0.000000 0.051943 0.000000 0.002142
# 5 0.005179 -0.002498 0.005527 0.000000 0.069695 0.000000
# 6 0.000000 0.000000 0.000000 0.002142 0.000000 0.032529
#
#
# Mechanical properties :
#
#
# Convention : Reuss Voigt Hill
#
# Bulk Modulus (GPa) = 54.01820 59.31018 56.66419
# Shear Modulus (GPa) = 19.45834 21.64451 20.55142
#
# Velocity S-wave (km/s) = 3.36893 3.55314 3.46226
# Velocity P-wave (km/s) = 6.82940 7.17130 7.00244
#
# Compressibility (1/GPa) = 0.01851228
#
# Stress axis : x y z
#
# Youngs Moduli (GPa) = 53.21029 41.92814 67.01034
#
# Poissons Ratio (x) = 0.44214 0.31857
# Poissons Ratio (y) = 0.56111 0.28332
# Poissons Ratio (z) = 0.25297 0.17727
#
# Static dielectric constant tensor:
#      x y z
#    x 3.097930 0.000000 -0.087260 
#    y 0.000000 3.158030 0.000000 
#    z -0.087260 0.000000 3.067770 
# 
# 
# High freq. dielectric constant tensor:
#      x y z
#    x 1.656140 0.000000 -0.007360 
#    y 0.000000 1.665260 0.000000 
#    z -0.007360 0.000000 1.633430 
# 
# From -- ./inp_files/229829.got.cif
#   From: 2010.06.25/outbox.cif.g09.slc.cpg/sg12_115_cif.got.tgz:229829.got - 2010.06.28 00:19:55.
