data_PCOD8095938
_publ_section_title
;
Structure prediction by ZEFSAII (Michael W. Deem and Ramdas Pophale) SiO2 
 PCOD8095938
Probable space group: C 2/M
;
_chemical_formula_sum "Si O2"
_cell_formula_units_Z 56
_cell_length_a 20.203565
_cell_length_b 27.551841
_cell_length_c 8.549674
_cell_angle_alpha 90.000000
_cell_angle_beta 36.117896
_cell_angle_gamma 90.000000
_cell_volume 2805.266994
_symmetry_space_group_name_H-M "C 2/M"
_symmetry_group_IT_number 12
_symmetry_cell_setting 'monoclinic'
loop_
_space_group_symop_operation_xyz
x,y,z
-x,y,-z
-x,-y,-z
x,-y,z
1/2+x,1/2+y,z
1/2-x,1/2+y,-z
1/2-x,1/2-y,-z
1/2+x,1/2-y,z
loop_
_atom_site_type_symbol
_atom_site_label
_atom_site_fract_x
_atom_site_fract_y
_atom_site_fract_z
Si Si1 0.173108 0.553230 0.487286
Si Si2 0.247676 0.054014 0.318358
Si Si3 0.016973 0.690479 0.651328
Si Si4 0.742076 0.655314 0.723889
Si Si5 0.956763 0.587322 0.759797
Si Si6 0.530143 0.704421 0.262046
Si Si7 0.604929 0.637975 0.694221
O O1 0.220261 0.500000 0.344492
O O2 0.183127 0.558853 0.653719
O O3 0.237730 0.597759 0.277306
O O4 0.041413 0.555279 0.700523
O O5 0.144446 0.091391 0.519253
O O6 0.198522 0.000000 0.388478
O O7 0.332029 0.065795 0.013997
O O8 0.147120 0.686679 0.454733
O O9 0.000000 0.691652 0.500000
O O10 0.953153 0.642534 0.835018
O O11 0.963506 0.740470 0.818876
O O12 0.702622 0.660044 0.618661
O O13 0.646699 0.676142 0.019811
O O14 0.000000 0.586165 0.500000
O O15 0.500000 0.704870 0.500000
O O16 0.429442 0.679138 0.361465
O O17 0.500000 0.620933 0.000000
#
# Coordination Sequence:
#
# PCOD8095938 Si02
#       7
#     8   8   8   8   8   8   8
#     4   9  18  34  54  74 103 143 180 214 260 322
#     4  10  20  34  55  79 105 143 181 217 269 323
#     4   9  20  35  54  80 109 145 180 213 267 332
#     4   9  19  37  55  78 110 140 180 226 270 318
#     4  10  20  33  50  79 114 140 173 221 268 322
#     4  10  21  36  56  79 104 141 185 227 271 321
#     4   9  20  38  56  78 109 142 184 231 269 312
#
# _framework density 19.962448999999999
#
# number of rings (size 3 to 8) (size 9 to 14) (size 15 to 20)
#    0.000    2.571    0.000    0.857    0.000   10.000 
#    0.000   13.571    0.000    0.857    0.000    0.000 
#    0.000    0.000    0.000    0.000    0.000    0.000 
#
# Total GULP energy -347032.127458 kJ/mol
# GULP energy per Si atom -12394.004552 kJ/mol
# Density = 1.991701 g / cm^3
# Si number density = 19.962449 Si / 1000 Ang^3
#
#
#
# Elastic Constant Matrix: (Units=GPa)
#
#
# Indices 1 2 3 4 5 6 
#
# 1 62.9391 26.3040 13.6301 0.0000 -12.6008 0.0000
# 2 26.3040 151.4879 45.4185 0.0000 0.6772 0.0000
# 3 13.6301 45.4185 68.1325 0.0000 2.0176 0.0000
# 4 0.0000 0.0000 0.0000 29.5240 0.0000 -1.4353
# 5 -12.6008 0.6772 2.0176 0.0000 23.0229 0.0000
# 6 0.0000 0.0000 0.0000 -1.4353 0.0000 26.6910
#
#
#
# Elastic Compliance Matrix: (Units=1/GPa)
#
#
# Indices 1 2 3 4 5 6 
#
# 1 0.019799 -0.002751 -0.002457 0.000000 0.011132 0.000000
# 2 -0.002751 0.008634 -0.005166 0.000000 -0.001307 0.000000
# 3 -0.002457 -0.005166 0.018697 0.000000 -0.002831 0.000000
# 4 0.000000 0.000000 0.000000 0.033960 0.000000 0.001826
# 5 0.011132 -0.001307 -0.002831 0.000000 0.049815 0.000000
# 6 0.000000 0.000000 0.000000 0.001826 0.000000 0.037564
#
#
# Mechanical properties :
#
#
# Convention : Reuss Voigt Hill
#
# Bulk Modulus (GPa) = 37.90580 50.36273 44.13427
# Shear Modulus (GPa) = 25.25139 28.99470 27.12304
#
# Velocity S-wave (km/s) = 3.56046 3.81525 3.69006
# Velocity P-wave (km/s) = 5.99436 6.68519 6.34917
#
# Compressibility (1/GPa) = 0.02638118
#
# Stress axis : x y z
#
# Youngs Moduli (GPa) = 50.50780 115.82569 53.48585
#
# Poissons Ratio (x) = 0.31864 0.13139
# Poissons Ratio (y) = 0.13895 0.27632
# Poissons Ratio (z) = 0.12408 0.59839
#
# Static dielectric constant tensor:
#      x y z
#    x 3.659010 0.000000 -0.113560 
#    y 0.000000 4.209720 0.000000 
#    z -0.113560 0.000000 3.303750 
# 
# 
# High freq. dielectric constant tensor:
#      x y z
#    x 1.775440 0.000000 -0.006530 
#    y 0.000000 1.795780 0.000000 
#    z -0.006530 0.000000 1.746800 
# 
# From -- ./inp_files/91571.got.cif
#   From: 2010.06.25/outbox.cif.g09.slc.cpg/sg12_46_cif.got.tgz:91571.got - 2010.06.28 00:19:55.
