data_PCOD8095613
_publ_section_title
;
Structure prediction by ZEFSAII (Michael W. Deem and Ramdas Pophale) SiO2 
 PCOD8095613
Probable space group: C 2/M
;
_chemical_formula_sum "Si O2"
_cell_formula_units_Z 48
_cell_length_a 20.441449
_cell_length_b 9.910149
_cell_length_c 15.084765
_cell_angle_alpha 90.000000
_cell_angle_beta 76.064404
_cell_angle_gamma 90.000000
_cell_volume 2965.896239
_symmetry_space_group_name_H-M "C 2/M"
_symmetry_group_IT_number 12
_symmetry_cell_setting 'monoclinic'
loop_
_space_group_symop_operation_xyz
x,y,z
-x,y,-z
-x,-y,-z
x,-y,z
1/2+x,1/2+y,z
1/2-x,1/2+y,-z
1/2-x,1/2-y,-z
1/2+x,1/2-y,z
loop_
_atom_site_type_symbol
_atom_site_label
_atom_site_fract_x
_atom_site_fract_y
_atom_site_fract_z
Si Si1 0.590019 0.848728 0.888673
Si Si2 0.050477 0.155638 0.247211
Si Si3 0.185412 0.842332 0.530726
Si Si4 0.568451 0.151544 0.090168
Si Si5 0.930991 0.840431 0.561066
Si Si6 0.894948 0.152989 0.265950
O O1 0.510765 0.840642 0.899432
O O2 0.626833 0.747046 0.809394
O O3 0.616230 0.000000 0.861039
O O4 0.605656 0.808837 0.985855
O O5 0.088956 0.244438 0.160703
O O6 0.078891 0.201079 0.333336
O O7 0.970563 0.182240 0.274181
O O8 0.066706 0.000000 0.221585
O O9 0.250000 0.750000 0.500000
O O10 0.132573 0.789653 0.474504
O O11 0.154908 0.817395 0.637422
O O12 0.203411 0.000000 0.510870
O O13 0.589143 0.000000 0.111875
O O14 0.000000 0.775762 0.500000
O O15 0.936878 0.000000 0.549906
O O16 0.888544 0.000000 0.234620
#
# Coordination Sequence:
#
# PCOD8095613 Si02
#       6
#     8   8   8   8   8   8
#     4   8  14  24  38  56  84 121 150 172 213 273
#     4   9  15  24  43  67  86 111 150 188 220 258
#     4  10  20  33  48  67  93 123 154 189 228 270
#     4   8  14  24  36  56  89 121 143 172 220 271
#     4   9  15  28  49  68  88 119 156 189 224 268
#     4   9  16  26  42  64  87 113 148 189 225 256
#
# _framework density 16.183978
#
# number of rings (size 3 to 8) (size 9 to 14) (size 15 to 20)
#    0.000    3.167    1.667    1.000    0.000    1.333 
#    0.000    4.167    0.000    1.000    0.000    1.167 
#    0.000    0.000    0.000    0.000    0.000    0.000 
#
# Total GULP energy -297470.327885 kJ/mol
# GULP energy per Si atom -12394.596995 kJ/mol
# Density = 1.614714 g / cm^3
# Si number density = 16.183978 Si / 1000 Ang^3
#
#
#
# Elastic Constant Matrix: (Units=GPa)
#
#
# Indices 1 2 3 4 5 6 
#
# 1 59.7522 38.5904 52.1931 0.0000 7.3217 0.0000
# 2 38.5904 85.0123 79.7140 0.0000 5.0445 0.0000
# 3 52.1931 79.7140 132.9325 0.0000 13.1883 0.0000
# 4 0.0000 0.0000 0.0000 28.8733 0.0000 -3.4078
# 5 7.3217 5.0445 13.1883 0.0000 13.7971 0.0000
# 6 0.0000 0.0000 0.0000 -3.4078 0.0000 15.8196
#
#
#
# Elastic Compliance Matrix: (Units=1/GPa)
#
#
# Indices 1 2 3 4 5 6 
#
# 1 0.026857 -0.005719 -0.006528 0.000000 -0.005921 0.000000
# 2 -0.005719 0.028574 -0.015637 0.000000 0.007534 0.000000
# 3 -0.006528 -0.015637 0.020495 0.000000 -0.010409 0.000000
# 4 0.000000 0.000000 0.000000 0.035538 0.000000 0.007655
# 5 -0.005921 0.007534 -0.010409 0.000000 0.082816 0.000000
# 6 0.000000 0.000000 0.000000 0.007655 0.000000 0.064862
#
#
# Mechanical properties :
#
#
# Convention : Reuss Voigt Hill
#
# Bulk Modulus (GPa) = 49.60587 68.74354 59.17470
# Shear Modulus (GPa) = 15.54584 18.84464 17.19524
#
# Velocity S-wave (km/s) = 3.10267 3.41603 3.26311
# Velocity P-wave (km/s) = 6.59948 7.62414 7.13024
#
# Compressibility (1/GPa) = 0.02015890
#
# Stress axis : x y z
#
# Youngs Moduli (GPa) = 37.23421 34.99648 48.79202
#
# Poissons Ratio (x) = 0.20014 0.31851
# Poissons Ratio (y) = 0.21294 0.76295
# Poissons Ratio (z) = 0.24306 0.54723
#
# Static dielectric constant tensor:
#      x y z
#    x 2.654040 0.000000 0.190030 
#    y 0.000000 3.042120 0.000000 
#    z 0.190030 0.000000 3.369030 
# 
# 
# High freq. dielectric constant tensor:
#      x y z
#    x 1.566550 0.000000 0.012410 
#    y 0.000000 1.608050 0.000000 
#    z 0.012410 0.000000 1.635680 
# 
# From -- ./inp_files/229330.got.cif
#   From: 2010.06.25/outbox.cif.g09.slc.cpg/sg12_115_cif.got.tgz:229330.got - 2010.06.28 00:19:55.
