data_PCOD8095162
_publ_section_title
;
Structure prediction by ZEFSAII (Michael W. Deem and Ramdas Pophale) SiO2 
 PCOD8095162
Probable space group: C 2/M
;
_chemical_formula_sum "Si O2"
_cell_formula_units_Z 56
_cell_length_a 30.163571
_cell_length_b 9.442376
_cell_length_c 19.247043
_cell_angle_alpha 90.000000
_cell_angle_beta 142.932612
_cell_angle_gamma 90.000000
_cell_volume 3304.213511
_symmetry_space_group_name_H-M "C 2/M"
_symmetry_group_IT_number 12
_symmetry_cell_setting 'monoclinic'
loop_
_space_group_symop_operation_xyz
x,y,z
-x,y,-z
-x,-y,-z
x,-y,z
1/2+x,1/2+y,z
1/2-x,1/2+y,-z
1/2-x,1/2-y,-z
1/2+x,1/2-y,z
loop_
_atom_site_type_symbol
_atom_site_label
_atom_site_fract_x
_atom_site_fract_y
_atom_site_fract_z
Si Si1 0.727179 0.663309 0.270125
Si Si2 0.182626 0.836106 0.885264
Si Si3 0.599181 0.166384 0.881814
Si Si4 0.444294 0.838196 0.750796
Si Si5 0.292800 0.836970 0.495783
Si Si6 0.237394 0.339827 0.149029
Si Si7 0.069313 0.836035 0.129364
O O1 0.745178 0.500000 0.279953
O O2 0.771098 0.719971 0.392438
O O3 0.754521 0.745088 0.236778
O O4 0.640606 0.689837 0.171600
O O5 0.110076 0.757821 0.824484
O O6 0.191482 0.827253 0.812844
O O7 0.184455 0.000000 0.911841
O O8 0.250000 0.750000 0.000000
O O9 0.520900 0.213641 0.814274
O O10 0.602259 0.000000 0.867265
O O11 0.662463 0.207814 0.016235
O O12 0.380454 0.820441 0.613679
O O13 0.421903 0.746165 0.788369
O O14 0.451278 0.000000 0.784301
O O15 0.250000 0.750000 0.500000
O O16 0.267542 0.000000 0.471707
O O17 0.227241 0.500000 0.162145
O O18 0.058700 0.000000 0.134845
O O19 0.000000 0.776633 0.000000
#
# Coordination Sequence:
#
# PCOD8095162 Si02
#       7
#     8   8   8   8   8   8   8
#     4  10  20  32  47  69  97 127 164 205 242 289
#     4   9  17  30  49  74 102 131 162 197 239 293
#     4   9  18  32  49  74 103 128 160 202 245 294
#     4  10  20  33  51  72  96 128 166 207 247 289
#     4  10  20  35  52  70  93 127 171 212 247 289
#     4   9  18  31  48  72 100 126 157 196 240 292
#     4  10  20  32  46  69 101 131 159 197 245 295
#
# _framework density 16.948056999999999
#
# number of rings (size 3 to 8) (size 9 to 14) (size 15 to 20)
#    0.000    2.429    1.429    2.143    0.000    4.857 
#    0.000    0.000    0.000    0.857    0.000    6.000 
#    0.000    0.000    0.000    0.000    0.000    0.000 
#
# Total GULP energy -347159.120157 kJ/mol
# GULP energy per Si atom -12398.540006 kJ/mol
# Density = 1.690948 g / cm^3
# Si number density = 16.948057 Si / 1000 Ang^3
#
#
#
# Elastic Constant Matrix: (Units=GPa)
#
#
# Indices 1 2 3 4 5 6 
#
# 1 87.3666 45.5198 25.5651 0.0000 -20.0279 0.0000
# 2 45.5198 65.7603 24.3123 0.0000 -16.0546 0.0000
# 3 25.5651 24.3123 76.4363 0.0000 -17.7967 0.0000
# 4 0.0000 0.0000 0.0000 21.4599 0.0000 -8.4625
# 5 -20.0279 -16.0546 -17.7967 0.0000 21.1161 0.0000
# 6 0.0000 0.0000 0.0000 -8.4625 0.0000 30.5057
#
#
#
# Elastic Compliance Matrix: (Units=1/GPa)
#
#
# Indices 1 2 3 4 5 6 
#
# 1 0.019561 -0.010893 -0.000854 0.000000 0.009551 0.000000
# 2 -0.010893 0.025422 -0.002921 0.000000 0.006535 0.000000
# 3 -0.000854 -0.002921 0.016910 0.000000 0.011221 0.000000
# 4 0.000000 0.000000 0.000000 0.052322 0.000000 0.014514
# 5 0.009551 0.006535 0.011221 0.000000 0.070842 0.000000
# 6 0.000000 0.000000 0.000000 0.014514 0.000000 0.036807
#
#
# Mechanical properties :
#
#
# Convention : Reuss Voigt Hill
#
# Bulk Modulus (GPa) = 30.71483 46.70639 38.71061
# Shear Modulus (GPa) = 19.08016 23.56075 21.32046
#
# Velocity S-wave (km/s) = 3.35894 3.73255 3.55066
# Velocity P-wave (km/s) = 5.76243 6.79664 6.30079
#
# Compressibility (1/GPa) = 0.03255756
#
# Stress axis : x y z
#
# Youngs Moduli (GPa) = 51.12298 39.33573 59.13611
#
# Poissons Ratio (x) = 0.42846 0.05049
# Poissons Ratio (y) = 0.55686 0.17276
# Poissons Ratio (z) = 0.04365 0.11491
#
# Static dielectric constant tensor:
#      x y z
#    x 3.384910 0.000000 0.052480 
#    y 0.000000 3.244230 0.000000 
#    z 0.052480 0.000000 3.123240 
# 
# 
# High freq. dielectric constant tensor:
#      x y z
#    x 1.653500 0.000000 -0.001010 
#    y 0.000000 1.655790 0.000000 
#    z -0.001010 0.000000 1.631030 
# 
# From -- ./inp_files/287913.got.cif
#   From: 2010.06.25/outbox.cif.g09.slc.cpg/sg12_144_cif.got.tgz:287913.got - 2010.06.28 00:19:55.
