data_PCOD8095308
_publ_section_title
;
Structure prediction by ZEFSAII (Michael W. Deem and Ramdas Pophale) SiO2 
 PCOD8095308
Probable space group: C 2/M
;
_chemical_formula_sum "Si O2"
_cell_formula_units_Z 56
_cell_length_a 31.761348
_cell_length_b 16.021052
_cell_length_c 9.498268
_cell_angle_alpha 90.000000
_cell_angle_beta 147.253086
_cell_angle_gamma 90.000000
_cell_volume 2614.416517
_symmetry_space_group_name_H-M "C 2/M"
_symmetry_group_IT_number 12
_symmetry_cell_setting 'monoclinic'
loop_
_space_group_symop_operation_xyz
x,y,z
-x,y,-z
-x,-y,-z
x,-y,z
1/2+x,1/2+y,z
1/2-x,1/2+y,-z
1/2-x,1/2-y,-z
1/2+x,1/2-y,z
loop_
_atom_site_type_symbol
_atom_site_label
_atom_site_fract_x
_atom_site_fract_y
_atom_site_fract_z
Si Si1 0.275486 0.841709 0.709357
Si Si2 0.239125 0.148265 0.303857
Si Si3 0.495075 0.597601 0.825139
Si Si4 0.426844 0.650783 0.217728
Si Si5 0.084886 0.662148 0.712327
Si Si6 0.821053 0.096122 0.327738
Si Si7 0.317834 0.901064 0.256596
O O1 0.268705 0.886303 0.537843
O O2 0.285774 0.742598 0.732895
O O3 0.196937 0.858631 0.575534
O O4 0.351247 0.879445 0.003332
O O5 0.309561 0.133999 0.392259
O O6 0.158486 0.105464 0.017952
O O7 0.517861 0.500000 0.876970
O O8 0.551855 0.654000 0.889162
O O9 0.408149 0.614993 0.523027
O O10 0.500000 0.627534 0.000000
O O11 0.500000 0.601916 0.500000
O O12 0.420659 0.739466 0.277045
O O13 0.110647 0.643341 0.623201
O O14 0.000000 0.621153 0.500000
O O15 0.808068 0.000000 0.323174
O O16 0.762456 0.127325 0.042941
O O17 0.330776 0.000000 0.294912
#
# Coordination Sequence:
#
# PCOD8095308 Si02
#       7
#     8   8   8   8   8   8   8
#     4   9  19  34  54  78 106 138 170 210 257 305
#     4  10  20  34  52  79 108 135 172 214 256 304
#     4  10  20  32  48  75 111 146 176 208 249 298
#     4  10  20  33  52  78 108 143 176 210 252 300
#     4   9  20  38  56  77 101 132 173 217 266 314
#     4   9  18  33  52  75 104 140 177 209 247 301
#     4  10  21  36  56  78 100 132 173 217 263 310
#
# _framework density 21.419692999999999
#
# number of rings (size 3 to 8) (size 9 to 14) (size 15 to 20)
#    0.000    2.429    0.000    1.714    0.000    9.143 
#    0.000    0.714    0.000    0.857    0.000    0.000 
#    0.000    0.000    0.000    0.000    0.000    0.000 
#
# Total GULP energy -346975.570199 kJ/mol
# GULP energy per Si atom -12391.984650 kJ/mol
# Density = 2.137094 g / cm^3
# Si number density = 21.419693 Si / 1000 Ang^3
#
#
#
# Elastic Constant Matrix: (Units=GPa)
#
#
# Indices 1 2 3 4 5 6 
#
# 1 175.0019 29.7536 37.3271 0.0000 -2.6806 0.0000
# 2 29.7536 34.1034 7.6201 0.0000 -2.0213 0.0000
# 3 37.3271 7.6201 70.3324 0.0000 8.0338 0.0000
# 4 0.0000 0.0000 0.0000 10.6117 0.0000 5.7491
# 5 -2.6806 -2.0213 8.0338 0.0000 36.7408 0.0000
# 6 0.0000 0.0000 0.0000 5.7491 0.0000 3.9660
#
#
#
# Elastic Compliance Matrix: (Units=1/GPa)
#
#
# Indices 1 2 3 4 5 6 
#
# 1 0.007424 -0.005650 -0.003440 0.000000 0.000983 0.000000
# 2 -0.005650 0.034562 -0.000940 0.000000 0.001695 0.000000
# 3 -0.003440 -0.000940 0.016595 0.000000 -0.003931 0.000000
# 4 0.000000 0.000000 0.000000 0.439006 0.000000 -0.636381
# 5 0.000983 0.001695 -0.003931 0.000000 0.028242 0.000000
# 6 0.000000 0.000000 0.000000 -0.636381 0.000000 1.174637
#
#
# Mechanical properties :
#
#
# Convention : Reuss Voigt Hill
#
# Bulk Modulus (GPa) = 25.95956 47.64880 36.80418
# Shear Modulus (GPa) = 2.88456 23.91283 13.39870
#
# Velocity S-wave (km/s) = 1.16173 3.34487 2.50378
# Velocity P-wave (km/s) = 3.73434 6.10010 5.05749
#
# Compressibility (1/GPa) = 0.03852146
#
# Stress axis : x y z
#
# Youngs Moduli (GPa) = 134.70548 28.93339 60.25993
#
# Poissons Ratio (x) = 0.16347 0.20730
# Poissons Ratio (y) = 0.76106 0.05662
# Poissons Ratio (z) = 0.46339 0.02719
#
# Static dielectric constant tensor:
#      x y z
#    x 3.950700 0.000000 0.071060 
#    y 0.000000 3.352210 0.000000 
#    z 0.071060 0.000000 4.452740 
# 
# 
# High freq. dielectric constant tensor:
#      x y z
#    x 1.854480 0.000000 -0.000380 
#    y 0.000000 1.795090 0.000000 
#    z -0.000380 0.000000 1.836770 
# 
# From -- ./inp_files/106049.got.cif
#   From: 2010.06.25/outbox.cif.g09.slc.cpg/sg12_54_cif.got.tgz:106049.got - 2010.06.28 00:19:55.
