data_PCOD8095796
_publ_section_title
;
Structure prediction by ZEFSAII (Michael W. Deem and Ramdas Pophale) SiO2 
 PCOD8095796
Probable space group: C 2/M
;
_chemical_formula_sum "Si O2"
_cell_formula_units_Z 56
_cell_length_a 29.236265
_cell_length_b 9.090826
_cell_length_c 18.923922
_cell_angle_alpha 90.000000
_cell_angle_beta 142.961582
_cell_angle_gamma 90.000000
_cell_volume 3029.602007
_symmetry_space_group_name_H-M "C 2/M"
_symmetry_group_IT_number 12
_symmetry_cell_setting 'monoclinic'
loop_
_space_group_symop_operation_xyz
x,y,z
-x,y,-z
-x,-y,-z
x,-y,z
1/2+x,1/2+y,z
1/2-x,1/2+y,-z
1/2-x,1/2-y,-z
1/2+x,1/2-y,z
loop_
_atom_site_type_symbol
_atom_site_label
_atom_site_fract_x
_atom_site_fract_y
_atom_site_fract_z
Si Si1 0.569847 0.167733 0.432142
Si Si2 0.851994 0.164877 0.083213
Si Si3 0.651964 0.331373 0.653094
Si Si4 0.975017 0.837251 0.751471
Si Si5 0.819184 0.668599 0.907199
Si Si6 0.398257 0.831016 0.271448
Si Si7 0.037185 0.827006 0.972720
O O1 0.627546 0.265369 0.548129
O O2 0.573057 0.223775 0.354924
O O3 0.485789 0.185203 0.358982
O O4 0.597305 0.000000 0.467450
O O5 0.938936 0.159848 0.168322
O O6 0.843904 0.250693 0.147410
O O7 0.819380 0.000000 0.052150
O O8 0.805876 0.249005 0.965295
O O9 0.625378 0.500000 0.625763
O O10 0.742407 0.317744 0.768209
O O11 0.610692 0.241946 0.663699
O O12 0.939171 0.000000 0.699324
O O13 0.977070 0.788038 0.836175
O O14 0.840757 0.500000 0.950033
O O15 0.884658 0.740297 0.940637
O O16 0.373167 0.000000 0.244407
O O17 0.056322 0.000000 0.994870
O O18 0.000000 0.776679 0.000000
#
# Coordination Sequence:
#
# PCOD8095796 Si02
#       7
#     8   8   8   8   8   8   8
#     4  10  20  33  50  72  98 130 171 214 250 287
#     4   9  17  31  51  72  97 132 169 206 251 299
#     4  11  23  35  48  68  98 137 175 210 250 296
#     4   8  15  29  50  75 101 128 158 195 241 292
#     4  10  21  35  50  73 103 133 166 204 250 300
#     4  10  20  33  50  73  99 129 171 219 258 292
#     4   9  18  34  58  85 107 128 157 195 244 303
#
# _framework density 18.484276999999999
#
# number of rings (size 3 to 8) (size 9 to 14) (size 15 to 20)
#    0.000    2.429    0.000    3.429    0.000   10.000 
#    0.000    0.000    0.000    0.857    0.000    0.000 
#    0.000    0.000    0.000    0.000    0.000    0.000 
#
# Total GULP energy -347236.422268 kJ/mol
# GULP energy per Si atom -12401.300795 kJ/mol
# Density = 1.844221 g / cm^3
# Si number density = 18.484277 Si / 1000 Ang^3
#
#
#
# Elastic Constant Matrix: (Units=GPa)
#
#
# Indices 1 2 3 4 5 6 
#
# 1 57.5349 42.9714 46.9271 0.0000 -24.5755 0.0000
# 2 42.9714 144.1005 68.8086 0.0000 -12.8520 0.0000
# 3 46.9271 68.8086 101.5607 0.0000 -27.1341 0.0000
# 4 0.0000 0.0000 0.0000 32.3735 0.0000 -3.7724
# 5 -24.5755 -12.8520 -27.1341 0.0000 26.4896 0.0000
# 6 0.0000 0.0000 0.0000 -3.7724 0.0000 22.3431
#
#
#
# Elastic Compliance Matrix: (Units=1/GPa)
#
#
# Indices 1 2 3 4 5 6 
#
# 1 0.038336 -0.005852 -0.006891 0.000000 0.025668 0.000000
# 2 -0.005852 0.011322 -0.006815 0.000000 -0.006917 0.000000
# 3 -0.006891 -0.006815 0.020729 0.000000 0.011534 0.000000
# 4 0.000000 0.000000 0.000000 0.031509 0.000000 0.005320
# 5 0.025668 -0.006917 0.011534 0.000000 0.070023 0.000000
# 6 0.000000 0.000000 0.000000 0.005320 0.000000 0.045655
#
#
# Mechanical properties :
#
#
# Convention : Reuss Voigt Hill
#
# Bulk Modulus (GPa) = 31.97809 68.95670 50.46740
# Shear Modulus (GPa) = 18.71871 25.87385 22.29628
#
# Velocity S-wave (km/s) = 3.18572 3.74542 3.47685
# Velocity P-wave (km/s) = 5.55603 7.48938 6.59395
#
# Compressibility (1/GPa) = 0.03127141
#
# Stress axis : x y z
#
# Youngs Moduli (GPa) = 26.08527 88.32464 48.24220
#
# Poissons Ratio (x) = 0.51690 0.33242
# Poissons Ratio (y) = 0.15266 0.32875
# Poissons Ratio (z) = 0.17974 0.60189
#
# Static dielectric constant tensor:
#      x y z
#    x 3.127620 0.000000 -0.305100 
#    y 0.000000 3.609930 0.000000 
#    z -0.305100 0.000000 3.458430 
# 
# 
# High freq. dielectric constant tensor:
#      x y z
#    x 1.679070 0.000000 -0.020400 
#    y 0.000000 1.730490 0.000000 
#    z -0.020400 0.000000 1.716880 
# 
# From -- ./inp_files/280969.got.cif
#   From: 2010.06.25/outbox.cif.g09.slc.cpg/sg12_141_cif.got.tgz:280969.got - 2010.06.28 00:19:55.
