data_PCOD8095824
_publ_section_title
;
Structure prediction by ZEFSAII (Michael W. Deem and Ramdas Pophale) SiO2 
 PCOD8095824
Probable space group: C 2/M
;
_chemical_formula_sum "Si O2"
_cell_formula_units_Z 64
_cell_length_a 32.810257
_cell_length_b 8.945682
_cell_length_c 16.699287
_cell_angle_alpha 90.000000
_cell_angle_beta 127.902362
_cell_angle_gamma 90.000000
_cell_volume 3867.500359
_symmetry_space_group_name_H-M "C 2/M"
_symmetry_group_IT_number 12
_symmetry_cell_setting 'monoclinic'
loop_
_space_group_symop_operation_xyz
x,y,z
-x,y,-z
-x,-y,-z
x,-y,z
1/2+x,1/2+y,z
1/2-x,1/2+y,-z
1/2-x,1/2-y,-z
1/2+x,1/2-y,z
loop_
_atom_site_type_symbol
_atom_site_label
_atom_site_fract_x
_atom_site_fract_y
_atom_site_fract_z
Si Si1 0.327672 0.826432 0.056489
Si Si2 0.769901 0.674932 0.297086
Si Si3 0.218318 0.173153 0.848477
Si Si4 0.099485 0.172230 0.971564
Si Si5 0.335865 0.167903 0.822635
Si Si6 0.890008 0.666159 0.720480
Si Si7 0.510929 0.670566 0.101324
Si Si8 0.796268 0.323077 0.506417
O O1 0.315575 0.764063 0.129300
O O2 0.377018 0.737584 0.082046
O O3 0.341448 0.000000 0.080492
O O4 0.279264 0.799916 0.938424
O O5 0.776286 0.500000 0.288076
O O6 0.796745 0.765956 0.257377
O O7 0.710047 0.715385 0.226318
O O8 0.794855 0.723347 0.411514
O O9 0.203859 0.000000 0.838378
O O10 0.037607 0.187284 0.897652
O O11 0.116462 0.000000 0.002199
O O12 0.118059 0.272200 0.067622
O O13 0.354917 0.163044 0.756016
O O14 0.319203 0.000000 0.830595
O O15 0.908222 0.500000 0.719487
O O16 0.941242 0.760809 0.793720
O O17 0.852279 0.731871 0.605978
O O18 0.525882 0.500000 0.103349
O O19 0.500000 0.744124 0.000000
O O20 0.790162 0.500000 0.510095
O O21 0.750000 0.250000 0.500000
#
# Coordination Sequence:
#
# PCOD8095824 Si02
#       8
#     8   8   8   8   8   8   8   8
#     4  10  20  33  50  73 102 133 167 205 249 301
#     4  11  21  32  50  73 101 137 172 206 250 299
#     4  10  20  33  50  73 103 133 166 206 248 299
#     4  11  21  33  50  72 102 136 171 208 250 299
#     4  11  20  30  47  71 101 134 172 211 248 292
#     4  10  21  35  50  70 100 134 173 216 251 290
#     4  10  21  35  50  72 100 133 172 210 250 298
#     4  10  21  35  50  73 101 134 173 211 251 296
#
# _framework density 16.548155999999999
#
# number of rings (size 3 to 8) (size 9 to 14) (size 15 to 20)
#    0.000    1.625    3.750    1.875    0.000    3.750 
#    0.000    0.000    0.000    0.000    0.000    0.875 
#    0.000    7.000    0.000    0.000    0.000    0.000 
#
# Total GULP energy -396802.721303 kJ/mol
# GULP energy per Si atom -12400.085041 kJ/mol
# Density = 1.651049 g / cm^3
# Si number density = 16.548156 Si / 1000 Ang^3
#
#
#
# Elastic Constant Matrix: (Units=GPa)
#
#
# Indices 1 2 3 4 5 6 
#
# 1 82.9198 36.2316 46.3828 0.0000 -6.3066 0.0000
# 2 36.2316 66.8817 37.8193 0.0000 -4.5513 0.0000
# 3 46.3828 37.8193 115.7038 0.0000 -2.9725 0.0000
# 4 0.0000 0.0000 0.0000 23.5235 0.0000 -1.3958
# 5 -6.3066 -4.5513 -2.9725 0.0000 22.9673 0.0000
# 6 0.0000 0.0000 0.0000 -1.3958 0.0000 30.0247
#
#
#
# Elastic Compliance Matrix: (Units=1/GPa)
#
#
# Indices 1 2 3 4 5 6 
#
# 1 0.017996 -0.006760 -0.004928 0.000000 0.002964 0.000000
# 2 -0.006760 0.021072 -0.004132 0.000000 0.001785 0.000000
# 3 -0.004928 -0.004132 0.011953 0.000000 -0.000625 0.000000
# 4 0.000000 0.000000 0.000000 0.042628 0.000000 0.001982
# 5 0.002964 0.001785 -0.000625 0.000000 0.044627 0.000000
# 6 0.000000 0.000000 0.000000 0.001982 0.000000 0.033398
#
#
# Mechanical properties :
#
#
# Convention : Reuss Voigt Hill
#
# Bulk Modulus (GPa) = 51.59985 56.26361 53.93173
# Shear Modulus (GPa) = 23.83515 24.97455 24.40485
#
# Velocity S-wave (km/s) = 3.79931 3.88906 3.84445
# Velocity P-wave (km/s) = 7.10603 7.36479 7.23657
#
# Compressibility (1/GPa) = 0.01937990
#
# Stress axis : x y z
#
# Youngs Moduli (GPa) = 55.56813 47.45678 83.66240
#
# Poissons Ratio (x) = 0.32083 0.41231
# Poissons Ratio (y) = 0.37566 0.34566
# Poissons Ratio (z) = 0.27385 0.19608
#
# Static dielectric constant tensor:
#      x y z
#    x 3.004200 0.000000 -0.124450 
#    y 0.000000 3.237170 0.000000 
#    z -0.124450 0.000000 3.117870 
# 
# 
# High freq. dielectric constant tensor:
#      x y z
#    x 1.622530 0.000000 -0.013040 
#    y 0.000000 1.648190 0.000000 
#    z -0.013040 0.000000 1.617870 
# 
# From -- ./inp_files/249174.got.cif
#   From: 2010.06.25/outbox.cif.g09.slc.cpg/sg12_125_cif.got.tgz:249174.got - 2010.06.28 00:19:55.
