data_PCOD8095516
_publ_section_title
;
Structure prediction by ZEFSAII (Michael W. Deem and Ramdas Pophale) SiO2 
 PCOD8095516
Probable space group: C 2/M
;
_chemical_formula_sum "Si O2"
_cell_formula_units_Z 64
_cell_length_a 21.286650
_cell_length_b 19.073442
_cell_length_c 9.195765
_cell_angle_alpha 90.000000
_cell_angle_beta 118.588386
_cell_angle_gamma 90.000000
_cell_volume 3278.372793
_symmetry_space_group_name_H-M "C 2/M"
_symmetry_group_IT_number 12
_symmetry_cell_setting 'monoclinic'
loop_
_space_group_symop_operation_xyz
x,y,z
-x,y,-z
-x,-y,-z
x,-y,z
1/2+x,1/2+y,z
1/2-x,1/2+y,-z
1/2-x,1/2-y,-z
1/2+x,1/2-y,z
loop_
_atom_site_type_symbol
_atom_site_label
_atom_site_fract_x
_atom_site_fract_y
_atom_site_fract_z
Si Si1 0.998391 0.325081 0.155796
Si Si2 0.904938 0.799632 0.979326
Si Si3 0.652591 0.208599 0.337319
Si Si4 0.201609 0.163508 0.569779
Si Si5 0.777035 0.419924 0.196176
Si Si6 0.647465 0.418019 0.256597
Si Si7 0.935319 0.580751 0.322682
Si Si8 0.291766 0.679927 0.085846
O O1 0.942793 0.367148 0.193911
O O2 0.078770 0.327188 0.308904
O O3 0.976665 0.242394 0.106996
O O4 0.000000 0.362608 0.000000
O O5 0.857207 0.747809 0.827938
O O6 0.914166 0.871943 0.894312
O O7 0.867100 0.819577 0.087212
O O8 0.714480 0.151450 0.375968
O O9 0.677535 0.259792 0.492287
O O10 0.154801 0.104101 0.434489
O O11 0.189171 0.163156 0.727325
O O12 0.764343 0.500000 0.148134
O O13 0.724413 0.397313 0.269110
O O14 0.860588 0.404022 0.323856
O O15 0.757957 0.382459 0.025187
O O16 0.628118 0.500000 0.223227
O O17 0.938602 0.500000 0.272883
O O18 0.000000 0.598366 0.500000
O O19 0.250000 0.750000 0.000000
#
# Coordination Sequence:
#
# PCOD8095516 Si02
#       8
#     8   8   8   8   8   8   8   8
#     4  10  21  35  56  77 109 143 185 227 267 318
#     4   9  18  35  53  80 108 141 177 225 276 322
#     4   9  19  34  50  76 108 140 175 223 270 316
#     4  10  20  32  53  78 107 138 176 225 271 316
#     4   9  20  36  52  73 107 144 180 222 268 321
#     4   9  19  36  58  80 108 144 183 224 274 329
#     4  10  22  37  50  72 109 151 189 220 263 320
#     4  11  19  30  54  80 106 135 180 224 273 316
#
# _framework density 19.521878999999998
#
# number of rings (size 3 to 8) (size 9 to 14) (size 15 to 20)
#    0.000    2.375    1.250    0.750    5.250    1.750 
#    0.000    0.000    0.000    9.375    0.000    0.000 
#    0.000   20.500    0.000    0.000    0.000    0.000 
#
# Total GULP energy -396543.833955 kJ/mol
# GULP energy per Si atom -12391.994811 kJ/mol
# Density = 1.947745 g / cm^3
# Si number density = 19.521879 Si / 1000 Ang^3
#
#
#
# Elastic Constant Matrix: (Units=GPa)
#
#
# Indices 1 2 3 4 5 6 
#
# 1 47.7388 6.7444 22.6141 0.0000 -1.1415 0.0000
# 2 6.7444 63.5901 20.9212 0.0000 -10.5834 0.0000
# 3 22.6141 20.9212 94.3487 0.0000 -16.8423 0.0000
# 4 0.0000 0.0000 0.0000 24.1518 0.0000 1.2614
# 5 -1.1415 -10.5834 -16.8423 0.0000 30.6858 0.0000
# 6 0.0000 0.0000 0.0000 1.2614 0.0000 24.7402
#
#
#
# Elastic Compliance Matrix: (Units=1/GPa)
#
#
# Indices 1 2 3 4 5 6 
#
# 1 0.023860 -0.001019 -0.005983 0.000000 -0.002748 0.000000
# 2 -0.001019 0.017509 -0.002846 0.000000 0.004439 0.000000
# 3 -0.005983 -0.002846 0.013801 0.000000 0.006371 0.000000
# 4 0.000000 0.000000 0.000000 0.041515 0.000000 -0.002117
# 5 -0.002748 0.004439 0.006371 0.000000 0.037514 0.000000
# 6 0.000000 0.000000 0.000000 -0.002117 0.000000 0.040528
#
#
# Mechanical properties :
#
#
# Convention : Reuss Voigt Hill
#
# Bulk Modulus (GPa) = 28.19037 34.02634 31.10836
# Shear Modulus (GPa) = 24.24255 26.27544 25.25900
#
# Velocity S-wave (km/s) = 3.52776 3.67270 3.60096
# Velocity P-wave (km/s) = 5.57362 5.95421 5.76705
#
# Compressibility (1/GPa) = 0.03547310
#
# Stress axis : x y z
#
# Youngs Moduli (GPa) = 41.91118 57.11397 72.45619
#
# Poissons Ratio (x) = 0.05822 0.43354
# Poissons Ratio (y) = 0.04273 0.20619
# Poissons Ratio (z) = 0.25077 0.16253
#
# Static dielectric constant tensor:
#      x y z
#    x 3.702590 0.000000 0.051810 
#    y 0.000000 3.445450 0.000000 
#    z 0.051810 0.000000 3.501740 
# 
# 
# High freq. dielectric constant tensor:
#      x y z
#    x 1.754030 0.000000 -0.000910 
#    y 0.000000 1.742070 0.000000 
#    z -0.000910 0.000000 1.755890 
# 
# From -- ./inp_files/89615.got.cif
#   From: 2010.06.25/outbox.cif.g09.slc.cpg/sg12_45_cif.got.tgz:89615.got - 2010.06.28 00:19:55.
