data_PCOD8095881
_publ_section_title
;
Structure prediction by ZEFSAII (Michael W. Deem and Ramdas Pophale) SiO2 
 PCOD8095881
Probable space group: C 2/M
;
_chemical_formula_sum "Si O2"
_cell_formula_units_Z 64
_cell_length_a 14.569865
_cell_length_b 9.408002
_cell_length_c 29.605989
_cell_angle_alpha 90.000000
_cell_angle_beta 60.570516
_cell_angle_gamma 90.000000
_cell_volume 3534.526571
_symmetry_space_group_name_H-M "C 2/M"
_symmetry_group_IT_number 12
_symmetry_cell_setting 'monoclinic'
loop_
_space_group_symop_operation_xyz
x,y,z
-x,y,-z
-x,-y,-z
x,-y,z
1/2+x,1/2+y,z
1/2-x,1/2+y,-z
1/2-x,1/2-y,-z
1/2+x,1/2-y,z
loop_
_atom_site_type_symbol
_atom_site_label
_atom_site_fract_x
_atom_site_fract_y
_atom_site_fract_z
Si Si1 0.792149 0.164681 0.127203
Si Si2 0.029741 0.666539 0.870012
Si Si3 0.656422 0.664271 0.226352
Si Si4 0.423599 0.666250 0.307231
Si Si5 0.388262 0.333737 0.506311
Si Si6 0.794554 0.338165 0.948214
Si Si7 0.315764 0.665190 0.425018
Si Si8 0.155387 0.339008 0.753106
O O1 0.900839 0.241520 0.112623
O O2 0.693665 0.239055 0.175727
O O3 0.780878 0.180220 0.076340
O O4 0.795157 0.000000 0.141198
O O5 0.049994 0.500000 0.874880
O O6 0.062212 0.701517 0.810671
O O7 0.910455 0.714368 0.906273
O O8 0.656366 0.500000 0.210596
O O9 0.542634 0.717255 0.269983
O O10 0.732824 0.685387 0.250300
O O11 0.412082 0.500000 0.302651
O O12 0.390446 0.710357 0.365635
O O13 0.347130 0.740008 0.289858
O O14 0.500000 0.281375 0.500000
O O15 0.373297 0.500000 0.519737
O O16 0.381802 0.299502 0.454389
O O17 0.292763 0.251719 0.553405
O O18 0.799695 0.500000 0.963121
O O19 0.750000 0.250000 0.000000
O O20 0.285323 0.500000 0.430813
O O21 0.142302 0.500000 0.739718
#
# Coordination Sequence:
#
# PCOD8095881 Si02
#       8
#     8   8   8   8   8   8   8   8
#     4  10  20  35  55  78 102 130 168 213 252 292
#     4   9  19  37  56  74 100 135 169 203 250 304
#     4   9  19  35  53  74 102 137 170 200 245 303
#     4  10  20  33  50  74 106 138 165 201 250 299
#     4   9  18  34  56  76  95 129 175 213 247 295
#     4  10  22  37  53  75 103 133 167 208 255 304
#     4   9  19  34  50  74 106 133 163 208 256 297
#     4   9  18  33  53  75 100 132 170 207 243 291
#
# _framework density 18.107094
#
# number of rings (size 3 to 8) (size 9 to 14) (size 15 to 20)
#    0.000    2.625    0.000    1.875    0.000    7.250 
#    0.000    5.000    0.000    0.000    0.000    0.000 
#    0.000    0.000    0.000    0.000    0.000    0.000 
#
# Total GULP energy -396839.982924 kJ/mol
# GULP energy per Si atom -12401.249466 kJ/mol
# Density = 1.806588 g / cm^3
# Si number density = 18.107094 Si / 1000 Ang^3
#
#
#
# Elastic Constant Matrix: (Units=GPa)
#
#
# Indices 1 2 3 4 5 6 
#
# 1 87.1413 35.1342 34.8115 0.0000 3.6521 0.0000
# 2 35.1342 55.1383 37.6283 0.0000 6.0771 0.0000
# 3 34.8115 37.6283 83.3753 0.0000 10.9090 0.0000
# 4 0.0000 0.0000 0.0000 32.5342 0.0000 1.7503
# 5 3.6521 6.0771 10.9090 0.0000 19.2775 0.0000
# 6 0.0000 0.0000 0.0000 1.7503 0.0000 31.1630
#
#
#
# Elastic Compliance Matrix: (Units=1/GPa)
#
#
# Indices 1 2 3 4 5 6 
#
# 1 0.015976 -0.008173 -0.003157 0.000000 0.001336 0.000000
# 2 -0.008173 0.030440 -0.010014 0.000000 -0.002381 0.000000
# 3 -0.003157 -0.010014 0.018727 0.000000 -0.006842 0.000000
# 4 0.000000 0.000000 0.000000 0.030830 0.000000 -0.001732
# 5 0.001336 -0.002381 -0.006842 0.000000 0.056244 0.000000
# 6 0.000000 0.000000 0.000000 -0.001732 0.000000 0.032187
#
#
# Mechanical properties :
#
#
# Convention : Reuss Voigt Hill
#
# Bulk Modulus (GPa) = 44.53249 48.97809 46.75529
# Shear Modulus (GPa) = 21.31506 24.46699 22.89103
#
# Velocity S-wave (km/s) = 3.43471 3.67991 3.55942
# Velocity P-wave (km/s) = 6.35429 6.72038 6.53989
#
# Compressibility (1/GPa) = 0.02245552
#
# Stress axis : x y z
#
# Youngs Moduli (GPa) = 62.59448 32.85103 53.39952
#
# Poissons Ratio (x) = 0.26849 0.16856
# Poissons Ratio (y) = 0.51158 0.53475
# Poissons Ratio (z) = 0.19759 0.32898
#
# Static dielectric constant tensor:
#      x y z
#    x 3.346350 0.000000 -0.050590 
#    y 0.000000 3.312280 0.000000 
#    z -0.050590 0.000000 3.327630 
# 
# 
# High freq. dielectric constant tensor:
#      x y z
#    x 1.705480 0.000000 -0.000290 
#    y 0.000000 1.698520 0.000000 
#    z -0.000290 0.000000 1.696600 
# 
# From -- ./inp_files/338835.got.cif
#   From: 2010.06.25/outbox.cif.g09.slc.cpg/sg12_170_cif.got.tgz:338835.got - 2010.06.28 00:19:55.
