data_PCOD8095334
_publ_section_title
;
Structure prediction by ZEFSAII (Michael W. Deem and Ramdas Pophale) SiO2 
 PCOD8095334
Probable space group: C 2/M
;
_chemical_formula_sum "Si O2"
_cell_formula_units_Z 56
_cell_length_a 28.667319
_cell_length_b 8.859905
_cell_length_c 18.836600
_cell_angle_alpha 90.000000
_cell_angle_beta 39.955352
_cell_angle_gamma 90.000000
_cell_volume 3072.433678
_symmetry_space_group_name_H-M "C 2/M"
_symmetry_group_IT_number 12
_symmetry_cell_setting 'monoclinic'
loop_
_space_group_symop_operation_xyz
x,y,z
-x,y,-z
-x,-y,-z
x,-y,z
1/2+x,1/2+y,z
1/2-x,1/2+y,-z
1/2-x,1/2-y,-z
1/2+x,1/2-y,z
loop_
_atom_site_type_symbol
_atom_site_label
_atom_site_fract_x
_atom_site_fract_y
_atom_site_fract_z
Si Si1 0.292666 0.322357 0.163500
Si Si2 0.159271 0.176833 0.373387
Si Si3 0.442171 0.825239 0.009095
Si Si4 0.464067 0.172536 0.823416
Si Si5 0.797080 0.321774 0.007810
Si Si6 0.066917 0.333503 0.370238
Si Si7 0.970374 0.176346 0.375854
O O1 0.288715 0.500000 0.158717
O O2 0.234925 0.266829 0.290411
O O3 0.371035 0.275643 0.101435
O O4 0.272774 0.245407 0.111711
O O5 0.124627 0.221766 0.338165
O O6 0.106477 0.226473 0.499981
O O7 0.174525 0.000000 0.357200
O O8 0.419777 0.000000 0.044421
O O9 0.500000 0.773128 0.000000
O O10 0.477198 0.798366 0.891177
O O11 0.523547 0.276592 0.713607
O O12 0.479895 0.000000 0.784845
O O13 0.381872 0.216998 0.897676
O O14 0.783927 0.500000 0.025196
O O15 0.750000 0.250000 0.000000
O O16 0.101170 0.500000 0.315421
O O17 0.000000 0.352285 0.500000
O O18 0.039192 0.261029 0.329917
O O19 0.980620 0.000000 0.375598
#
# Coordination Sequence:
#
# PCOD8095334 Si02
#       7
#     8   8   8   8   8   8   8
#     4  11  22  35  54  81 109 138 176 221 270 320
#     4  10  20  34  50  71 103 143 185 223 260 310
#     4   9  19  39  64  85 106 134 170 216 271 329
#     4   9  19  34  53  78 106 136 174 215 263 320
#     4  10  21  36  52  73 105 145 183 221 266 316
#     4   9  17  29  45  66  95 135 181 222 257 298
#     4  10  20  32  49  73 104 143 182 220 262 308
#
# _framework density 18.226593999999999
#
# number of rings (size 3 to 8) (size 9 to 14) (size 15 to 20)
#    0.000    2.286    0.000    3.857    2.000    6.571 
#    0.000    0.000    0.000    0.857    0.000    0.000 
#    0.000    0.000    0.000    0.000    0.000    0.000 
#
# Total GULP energy -347166.512471 kJ/mol
# GULP energy per Si atom -12398.804017 kJ/mol
# Density = 1.818511 g / cm^3
# Si number density = 18.226594 Si / 1000 Ang^3
#
#
#
# Elastic Constant Matrix: (Units=GPa)
#
#
# Indices 1 2 3 4 5 6 
#
# 1 104.7048 37.2756 45.9135 -0.0064 4.2185 0.0123
# 2 37.2756 94.3160 51.4015 -0.0158 -2.1419 0.0254
# 3 45.9135 51.4015 116.1518 0.0034 -1.2313 0.0073
# 4 -0.0064 -0.0158 0.0034 29.5297 0.0037 -0.8519
# 5 4.2185 -2.1419 -1.2313 0.0037 15.4970 -0.0094
# 6 0.0123 0.0254 0.0073 -0.8519 -0.0094 24.1748
#
#
#
# Elastic Compliance Matrix: (Units=1/GPa)
#
#
# Indices 1 2 3 4 5 6 
#
# 1 0.012366 -0.003021 -0.003595 0.000002 -0.004069 -0.000004
# 2 -0.003021 0.014743 -0.005304 0.000007 0.002438 -0.000011
# 3 -0.003595 -0.005304 0.012391 -0.000005 0.001230 0.000004
# 4 0.000002 0.000007 -0.000005 0.033899 -0.000007 0.001195
# 5 -0.004069 0.002438 0.001230 -0.000007 0.066071 0.000025
# 6 -0.000004 -0.000011 0.000004 0.001195 0.000025 0.041408
#
#
# Mechanical properties :
#
#
# Convention : Reuss Voigt Hill
#
# Bulk Modulus (GPa) = 63.85530 64.92818 64.39174
# Shear Modulus (GPa) = 23.81676 25.87911 24.84793
#
# Velocity S-wave (km/s) = 3.61876 3.77218 3.69627
# Velocity P-wave (km/s) = 7.25057 7.39409 7.32268
#
# Compressibility (1/GPa) = 0.01566041
#
# Stress axis : x y z
#
# Youngs Moduli (GPa) = 80.86515 67.83026 80.70586
#
# Poissons Ratio (x) = 0.20490 0.29010
# Poissons Ratio (y) = 0.24428 0.42808
# Poissons Ratio (z) = 0.29068 0.35979
#
# Static dielectric constant tensor:
#      x y z
#    x 3.144410 -0.000010 -0.004540 
#    y -0.000010 3.399130 0.000030 
#    z -0.004540 0.000030 3.456970 
# 
# 
# High freq. dielectric constant tensor:
#      x y z
#    x 1.667950 0.000000 -0.000800 
#    y 0.000000 1.714590 0.000000 
#    z -0.000800 0.000000 1.710670 
# 
# From -- ./inp_files/288248.got.cif
#   From: 2010.06.25/outbox.cif.g09.slc.cpg/sg12_145_cif.got.tgz:288248.got - 2010.06.28 00:19:55.
