data_PCOD8095854
_publ_section_title
;
Structure prediction by ZEFSAII (Michael W. Deem and Ramdas Pophale) SiO2 
 PCOD8095854
Probable space group: C 2/M
;
_chemical_formula_sum "Si O2"
_cell_formula_units_Z 48
_cell_length_a 22.529226
_cell_length_b 8.908955
_cell_length_c 28.841950
_cell_angle_alpha 90.000000
_cell_angle_beta 151.802811
_cell_angle_gamma 90.000000
_cell_volume 2735.308955
_symmetry_space_group_name_H-M "C 2/M"
_symmetry_group_IT_number 12
_symmetry_cell_setting 'monoclinic'
loop_
_space_group_symop_operation_xyz
x,y,z
-x,y,-z
-x,-y,-z
x,-y,z
1/2+x,1/2+y,z
1/2-x,1/2+y,-z
1/2-x,1/2-y,-z
1/2+x,1/2-y,z
loop_
_atom_site_type_symbol
_atom_site_label
_atom_site_fract_x
_atom_site_fract_y
_atom_site_fract_z
Si Si1 0.209984 0.173462 0.045309
Si Si2 0.296114 0.176574 0.281241
Si Si3 0.855638 0.676471 0.905500
Si Si4 0.036189 0.166086 0.471361
Si Si5 0.567727 0.171890 0.867670
Si Si6 0.786398 0.674816 0.682077
O O1 0.196623 0.276301 0.080756
O O2 0.348923 0.202570 0.120386
O O3 0.189007 0.000000 0.044004
O O4 0.106747 0.219730 0.936311
O O5 0.224747 0.241297 0.188360
O O6 0.443200 0.223726 0.379885
O O7 0.228784 0.233616 0.281147
O O8 0.288188 0.000000 0.274199
O O9 0.840039 0.500000 0.888206
O O10 0.000000 0.726211 0.000000
O O11 0.182086 0.222114 0.571479
O O12 0.000000 0.161878 0.500000
O O13 0.023871 0.000000 0.440804
O O14 0.423492 0.205905 0.755117
O O15 0.585090 0.000000 0.896413
O O16 0.766887 0.500000 0.681316
#
# Coordination Sequence:
#
# PCOD8095854 Si02
#       6
#     8   8   8   8   8   8
#     4  10  20  33  50  74 101 127 159 200 242 282
#     4  11  21  31  47  73 103 129 156 199 247 285
#     4  11  23  37  52  69  94 130 166 197 235 288
#     4   8  15  29  48  69  95 128 163 196 234 283
#     4   9  18  33  52  73  99 130 161 195 237 285
#     4   9  17  31  51  73  98 130 165 196 232 284
#
# _framework density 17.548293000000001
#
# number of rings (size 3 to 8) (size 9 to 14) (size 15 to 20)
#    0.000    2.333    0.000    4.500    0.000    9.667 
#    0.000    0.000    0.000    1.000    0.000    0.000 
#    0.000    0.000    0.000    0.000    0.000    0.000 
#
# Total GULP energy -297560.626687 kJ/mol
# GULP energy per Si atom -12398.359445 kJ/mol
# Density = 1.750835 g / cm^3
# Si number density = 17.548293 Si / 1000 Ang^3
#
#
#
# Elastic Constant Matrix: (Units=GPa)
#
#
# Indices 1 2 3 4 5 6 
#
# 1 73.8318 37.3583 57.9032 -0.0001 9.8979 0.0001
# 2 37.3583 76.9325 48.8630 0.0000 5.2530 0.0003
# 3 57.9032 48.8630 142.0014 -0.0007 27.4180 0.0004
# 4 -0.0001 0.0000 -0.0007 29.0864 -0.0002 -18.9928
# 5 9.8979 5.2530 27.4180 -0.0002 24.6902 0.0001
# 6 0.0001 0.0003 0.0004 -18.9928 0.0001 49.2069
#
#
#
# Elastic Compliance Matrix: (Units=1/GPa)
#
#
# Indices 1 2 3 4 5 6 
#
# 1 0.022141 -0.006415 -0.006836 0.000000 0.000081 0.000000
# 2 -0.006415 0.018746 -0.004533 0.000000 0.003617 0.000000
# 3 -0.006836 -0.004533 0.013588 0.000000 -0.011384 0.000000
# 4 0.000000 0.000000 0.000000 0.045965 0.000000 0.017742
# 5 0.000081 0.003617 -0.011384 0.000000 0.052341 0.000000
# 6 0.000000 0.000000 0.000000 0.017742 0.000000 0.027170
#
#
# Mechanical properties :
#
#
# Convention : Reuss Voigt Hill
#
# Bulk Modulus (GPa) = 52.89514 64.55717 58.72616
# Shear Modulus (GPa) = 22.54059 30.50613 26.52336
#
# Velocity S-wave (km/s) = 3.58787 4.17395 3.89195
# Velocity P-wave (km/s) = 6.88271 7.75224 7.33038
#
# Compressibility (1/GPa) = 0.01890533
#
# Stress axis : x y z
#
# Youngs Moduli (GPa) = 45.16513 53.34572 73.59599
#
# Poissons Ratio (x) = 0.34221 0.50314
# Poissons Ratio (y) = 0.28973 0.33361
# Poissons Ratio (z) = 0.30877 0.24182
#
# Static dielectric constant tensor:
#      x y z
#    x 3.157700 0.000000 0.353790 
#    y 0.000000 3.295450 0.000000 
#    z 0.353790 0.000000 3.708380 
# 
# 
# High freq. dielectric constant tensor:
#      x y z
#    x 1.645170 0.000000 0.018230 
#    y 0.000000 1.681520 0.000000 
#    z 0.018230 0.000000 1.689090 
# 
# From -- ./inp_files/365558.got.cif
#   From: 2010.06.25/outbox.cif.g09.slc.cpg/sg12_183_cif.got.tgz:365558.got - 2010.06.28 00:19:55.
