data_PCOD8095540
_publ_section_title
;
Structure prediction by ZEFSAII (Michael W. Deem and Ramdas Pophale) SiO2 
 PCOD8095540
Probable space group: C 2/M
;
_chemical_formula_sum "Si O2"
_cell_formula_units_Z 52
_cell_length_a 17.004085
_cell_length_b 31.380096
_cell_length_c 10.580766
_cell_angle_alpha 90.000000
_cell_angle_beta 150.399955
_cell_angle_gamma 90.000000
_cell_volume 2788.695423
_symmetry_space_group_name_H-M "C 2/M"
_symmetry_group_IT_number 12
_symmetry_cell_setting 'monoclinic'
loop_
_space_group_symop_operation_xyz
x,y,z
-x,y,-z
-x,-y,-z
x,-y,z
1/2+x,1/2+y,z
1/2-x,1/2+y,-z
1/2-x,1/2-y,-z
1/2+x,1/2-y,z
loop_
_atom_site_type_symbol
_atom_site_label
_atom_site_fract_x
_atom_site_fract_y
_atom_site_fract_z
Si Si1 0.033996 0.500000 0.403125
Si Si2 0.077659 0.411698 0.745184
Si Si3 0.025206 0.641373 0.900425
Si Si4 0.000000 0.851951 0.000000
Si Si5 0.268150 0.299945 0.515297
Si Si6 0.392662 0.500000 0.970039
Si Si7 0.421534 0.591439 0.128997
Si Si8 0.881742 0.846463 0.443428
O O1 0.224031 0.500000 0.662414
O O2 0.000000 0.500000 0.500000
O O3 0.948336 0.458274 0.228126
O O4 0.980798 0.383608 0.711214
O O5 0.000000 0.407002 0.500000
O O6 0.262044 0.399561 0.986935
O O7 0.910843 0.682266 0.749170
O O8 0.209592 0.651657 0.140261
O O9 0.000000 0.616303 0.000000
O O10 0.928800 0.882040 0.009677
O O11 0.145035 0.821387 0.243991
O O12 0.250000 0.250000 0.500000
O O13 0.377470 0.310774 0.546693
O O14 0.500000 0.500000 0.000000
O O15 0.426685 0.541142 0.105268
O O16 0.564608 0.607807 0.420199
O O17 0.000000 0.830685 0.500000
#
# Coordination Sequence:
#
# PCOD8095540 Si02
#       8
#     4   8   8   4   8   4   8   8
#     4  10  20  32  54  86 121 160 197 261 311 351
#     4  11  19  35  62  87 120 156 217 252 308 363
#     4  10  22  39  63  86 122 167 202 247 320 371
#     4  10  22  37  60  94 122 150 212 255 310 370
#     4  10  23  40  65  90 122 157 202 255 319 378
#     4  12  22  34  58  89 131 162 206 260 316 355
#     4  11  20  36  59  91 121 164 208 258 302 365
#     4  10  21  40  61  87 121 165 204 247 308 378
#
# _framework density 18.646712000000001
#
# number of rings (size 3 to 8) (size 9 to 14) (size 15 to 20)
#    0.000    1.538    5.385    0.923    3.231    1.231 
#    0.000    4.615    0.000    0.000    0.000    0.000 
#    0.000    0.000    0.000    0.000    0.000    0.000 
#
# Total GULP energy -322128.710251 kJ/mol
# GULP energy per Si atom -12389.565779 kJ/mol
# Density = 1.860427 g / cm^3
# Si number density = 18.646712 Si / 1000 Ang^3
#
#
#
# Elastic Constant Matrix: (Units=GPa)
#
#
# Indices 1 2 3 4 5 6 
#
# 1 135.1061 61.3022 39.7872 0.0000 11.1158 0.0000
# 2 61.3022 133.2934 40.8437 0.0000 -1.2007 0.0000
# 3 39.7872 40.8437 104.9352 0.0000 11.9667 0.0000
# 4 0.0000 0.0000 0.0000 22.9980 0.0000 7.1178
# 5 11.1158 -1.2007 11.9667 0.0000 35.3785 0.0000
# 6 0.0000 0.0000 0.0000 7.1178 0.0000 19.1361
#
#
#
# Elastic Compliance Matrix: (Units=1/GPa)
#
#
# Indices 1 2 3 4 5 6 
#
# 1 0.010019 -0.004042 -0.001925 0.000000 -0.002634 0.000000
# 2 -0.004042 0.010222 -0.002736 0.000000 0.002542 0.000000
# 3 -0.001925 -0.002736 0.011718 0.000000 -0.003452 0.000000
# 4 0.000000 0.000000 0.000000 0.049139 0.000000 -0.018277
# 5 -0.002634 0.002542 -0.003452 0.000000 0.030347 0.000000
# 6 0.000000 0.000000 0.000000 -0.018277 0.000000 0.059056
#
#
# Mechanical properties :
#
#
# Convention : Reuss Voigt Hill
#
# Bulk Modulus (GPa) = 68.71321 73.02234 70.86778
# Shear Modulus (GPa) = 25.93909 30.92927 28.43418
#
# Velocity S-wave (km/s) = 3.73377 4.07713 3.90922
# Velocity P-wave (km/s) = 7.45104 7.83645 7.64618
#
# Compressibility (1/GPa) = 0.01455324
#
# Stress axis : x y z
#
# Youngs Moduli (GPa) = 99.80943 97.82483 85.33585
#
# Poissons Ratio (x) = 0.39537 0.16430
# Poissons Ratio (y) = 0.40339 0.23351
# Poissons Ratio (z) = 0.19217 0.26768
#
# Static dielectric constant tensor:
#      x y z
#    x 3.656440 0.000000 0.047250 
#    y 0.000000 3.476760 0.000000 
#    z 0.047250 0.000000 3.567250 
# 
# 
# High freq. dielectric constant tensor:
#      x y z
#    x 1.737430 0.000000 0.008640 
#    y 0.000000 1.702680 0.000000 
#    z 0.008640 0.000000 1.728140 
# 
# From -- ./inp_files/160876.got.cif
#   From: 2010.06.25/outbox.cif.g09.slc.cpg/sg12_81_cif.got.tgz:160876.got - 2010.06.28 00:19:55.
