data_PCOD8095139
_publ_section_title
;
Structure prediction by ZEFSAII (Michael W. Deem and Ramdas Pophale) SiO2 
 PCOD8095139
Probable space group: C 2/M
;
_chemical_formula_sum "Si O2"
_cell_formula_units_Z 64
_cell_length_a 14.181939
_cell_length_b 9.433171
_cell_length_c 27.334540
_cell_angle_alpha 90.000000
_cell_angle_beta 106.316368
_cell_angle_gamma 90.000000
_cell_volume 3509.554016
_symmetry_space_group_name_H-M "C 2/M"
_symmetry_group_IT_number 12
_symmetry_cell_setting 'monoclinic'
loop_
_space_group_symop_operation_xyz
x,y,z
-x,y,-z
-x,-y,-z
x,-y,z
1/2+x,1/2+y,z
1/2-x,1/2+y,-z
1/2-x,1/2-y,-z
1/2+x,1/2-y,z
loop_
_atom_site_type_symbol
_atom_site_label
_atom_site_fract_x
_atom_site_fract_y
_atom_site_fract_z
Si Si1 0.292041 0.664918 0.858854
Si Si2 0.505378 0.330776 0.380838
Si Si3 0.886367 0.332599 0.678965
Si Si4 0.109930 0.335797 0.208419
Si Si5 0.412183 0.164931 0.124568
Si Si6 0.510383 0.664765 0.057068
Si Si7 0.308157 0.331295 0.403212
Si Si8 0.395529 0.655897 0.511017
O O1 0.286186 0.500000 0.844676
O O2 0.311482 0.748463 0.811597
O O3 0.189920 0.718324 0.867109
O O4 0.378660 0.697380 0.909900
O O5 0.513309 0.500000 0.375617
O O6 0.523627 0.251469 0.332345
O O7 0.397211 0.283511 0.381501
O O8 0.584892 0.271986 0.433146
O O9 0.903142 0.500000 0.676181
O O10 0.879007 0.287482 0.734139
O O11 0.790059 0.277157 0.636660
O O12 0.135893 0.500000 0.205435
O O13 0.998685 0.303252 0.175719
O O14 0.431577 0.249691 0.077564
O O15 0.406153 0.000000 0.110126
O O16 0.484447 0.500000 0.058731
O O17 0.500000 0.716459 0.000000
O O18 0.309763 0.500000 0.408233
O O19 0.321738 0.267094 0.461019
O O20 0.500000 0.641661 0.500000
O O21 0.353294 0.500000 0.515605
#
# Coordination Sequence:
#
# PCOD8095139 Si02
#       8
#     8   8   8   8   8   8   8   8
#     4   9  18  33  52  71  92 123 160 193 227 268
#     4   9  17  30  48  68  88 114 151 188 221 269
#     4  10  20  32  46  67  94 120 147 186 237 279
#     4   9  19  34  48  65  92 123 155 192 231 272
#     4   9  18  33  51  70  94 126 161 192 226 270
#     4   9  18  32  49  73 104 129 152 189 230 266
#     4   8  15  29  47  65  88 119 150 180 222 278
#     4   7  11  23  44  65  84 111 147 182 216 264
#
# _framework density 18.235935999999999
#
# number of rings (size 3 to 8) (size 9 to 14) (size 15 to 20)
#    0.000    3.250    0.000    1.500    0.000    3.250 
#    0.000    0.625    0.000    3.375    0.000    0.000 
#    0.000    0.000    0.000    0.000    0.000    0.000 
#
# Total GULP energy -396588.225292 kJ/mol
# GULP energy per Si atom -12393.382040 kJ/mol
# Density = 1.819443 g / cm^3
# Si number density = 18.235936 Si / 1000 Ang^3
#
#
#
# Elastic Constant Matrix: (Units=GPa)
#
#
# Indices 1 2 3 4 5 6 
#
# 1 80.8295 27.4722 37.6074 0.0000 -18.3342 0.0000
# 2 27.4722 34.7037 38.0220 0.0000 -12.1473 0.0000
# 3 37.6074 38.0220 122.2917 0.0000 -17.0110 0.0000
# 4 0.0000 0.0000 0.0000 21.8055 0.0000 -5.3014
# 5 -18.3342 -12.1473 -17.0110 0.0000 24.9555 0.0000
# 6 0.0000 0.0000 0.0000 -5.3014 0.0000 21.4855
#
#
#
# Elastic Compliance Matrix: (Units=1/GPa)
#
#
# Indices 1 2 3 4 5 6 
#
# 1 0.018192 -0.010322 -0.001353 0.000000 0.007419 0.000000
# 2 -0.010322 0.053933 -0.012149 0.000000 0.010387 0.000000
# 3 -0.001353 -0.012149 0.012605 0.000000 0.001684 0.000000
# 4 0.000000 0.000000 0.000000 0.048787 0.000000 0.012038
# 5 0.007419 0.010387 0.001684 0.000000 0.051726 0.000000
# 6 0.000000 0.000000 0.000000 0.012038 0.000000 0.049513
#
#
# Mechanical properties :
#
#
# Convention : Reuss Voigt Hill
#
# Bulk Modulus (GPa) = 26.96771 49.33646 38.15209
# Shear Modulus (GPa) = 16.96256 22.63084 19.79670
#
# Velocity S-wave (km/s) = 3.05318 3.52661 3.29840
# Velocity P-wave (km/s) = 5.22011 6.61029 5.95590
#
# Compressibility (1/GPa) = 0.03708138
#
# Stress axis : x y z
#
# Youngs Moduli (GPa) = 54.96811 18.54136 79.33334
#
# Poissons Ratio (x) = 0.19138 0.10737
# Poissons Ratio (y) = 0.56738 0.96385
# Poissons Ratio (z) = 0.07439 0.22527
#
# Static dielectric constant tensor:
#      x y z
#    x 3.339640 0.000000 0.082600 
#    y 0.000000 3.019380 0.000000 
#    z 0.082600 0.000000 3.524720 
# 
# 
# High freq. dielectric constant tensor:
#      x y z
#    x 1.702860 0.000000 -0.000060 
#    y 0.000000 1.673570 0.000000 
#    z -0.000060 0.000000 1.712710 
# 
# From -- ./inp_files/335253.got.cif
#   From: 2010.06.25/outbox.cif.g09.slc.cpg/sg12_168_cif.got.tgz:335253.got - 2010.06.28 00:19:55.
