data_PCOD8095221
_publ_section_title
;
Structure prediction by ZEFSAII (Michael W. Deem and Ramdas Pophale) SiO2 
 PCOD8095221
Probable space group: C 2/M
;
_chemical_formula_sum "Si O2"
_cell_formula_units_Z 56
_cell_length_a 28.357085
_cell_length_b 8.846220
_cell_length_c 17.798304
_cell_angle_alpha 90.000000
_cell_angle_beta 43.632250
_cell_angle_gamma 90.000000
_cell_volume 3080.803904
_symmetry_space_group_name_H-M "C 2/M"
_symmetry_group_IT_number 12
_symmetry_cell_setting 'monoclinic'
loop_
_space_group_symop_operation_xyz
x,y,z
-x,y,-z
-x,-y,-z
x,-y,z
1/2+x,1/2+y,z
1/2-x,1/2+y,-z
1/2-x,1/2-y,-z
1/2+x,1/2-y,z
loop_
_atom_site_type_symbol
_atom_site_label
_atom_site_fract_x
_atom_site_fract_y
_atom_site_fract_z
Si Si1 0.912146 0.179274 0.835293
Si Si2 0.354267 0.320573 0.599210
Si Si3 0.325512 0.178297 0.060314
Si Si4 0.179160 0.678942 0.607849
Si Si5 0.794742 0.321934 0.258189
Si Si6 0.433950 0.320763 0.365791
Si Si7 0.328344 0.320788 0.791533
O O1 0.867360 0.248431 0.818386
O O2 0.989591 0.236252 0.737054
O O3 0.909098 0.000000 0.837930
O O4 0.883853 0.238245 0.946594
O O5 0.351438 0.500000 0.604398
O O6 0.282278 0.255212 0.651297
O O7 0.413719 0.267884 0.473717
O O8 0.365183 0.261956 0.672232
O O9 0.333990 0.232378 0.137494
O O10 0.250899 0.229080 0.116238
O O11 0.335545 0.000000 0.039970
O O12 0.183897 0.500000 0.591804
O O13 0.250000 0.750000 0.500000
O O14 0.166630 0.723955 0.709941
O O15 0.115237 0.743537 0.637309
O O16 0.787243 0.500000 0.260351
O O17 0.426566 0.500000 0.365404
O O18 0.333033 0.500000 0.788884
#
# Coordination Sequence:
#
# PCOD8095221 Si02
#       7
#     8   8   8   8   8   8   8
#     4  10  20  32  47  73 106 134 165 207 252 293
#     4   8  13  26  48  72  98 125 161 206 245 288
#     4   9  17  32  54  73  94 129 171 208 245 292
#     4  11  20  33  55  79 102 127 162 205 249 299
#     4   8  15  29  51  75  95 121 162 208 244 285
#     4  10  20  33  49  72 105 138 165 200 248 299
#     4   8  15  28  50  76  97 126 170 212 246 287
#
# _framework density 18.177074000000001
#
# number of rings (size 3 to 8) (size 9 to 14) (size 15 to 20)
#    0.000    2.857    1.429    2.571    0.000    1.143 
#    0.000    5.000    0.000    5.143    0.000    2.000 
#    0.000    0.000    0.000    0.000    0.000    0.000 
#
# Total GULP energy -346993.048924 kJ/mol
# GULP energy per Si atom -12392.608890 kJ/mol
# Density = 1.813570 g / cm^3
# Si number density = 18.177074 Si / 1000 Ang^3
#
#
#
# Elastic Constant Matrix: (Units=GPa)
#
#
# Indices 1 2 3 4 5 6 
#
# 1 84.2604 19.2204 70.2229 0.0259 11.5504 -0.0183
# 2 19.2204 19.7425 23.9914 0.0200 -0.4699 -0.0111
# 3 70.2229 23.9914 172.2844 0.0181 10.4796 -0.0207
# 4 0.0259 0.0200 0.0181 25.1568 -0.0081 1.1134
# 5 11.5504 -0.4699 10.4796 -0.0081 27.8940 0.0058
# 6 -0.0183 -0.0111 -0.0207 1.1134 0.0058 21.7433
#
#
#
# Elastic Compliance Matrix: (Units=1/GPa)
#
#
# Indices 1 2 3 4 5 6 
#
# 1 0.021009 -0.012861 -0.006376 -0.000009 -0.006521 0.000007
# 2 -0.012861 0.069354 -0.004923 -0.000037 0.008343 0.000019
# 3 -0.006376 -0.004923 0.009142 0.000004 -0.000877 0.000001
# 4 -0.000009 -0.000037 0.000004 0.039841 0.000014 -0.002040
# 5 -0.006521 0.008343 -0.000877 0.000014 0.039020 -0.000013
# 6 0.000007 0.000019 0.000001 -0.002040 -0.000013 0.046096
#
#
# Mechanical properties :
#
#
# Convention : Reuss Voigt Hill
#
# Bulk Modulus (GPa) = 19.53669 55.90630 37.72150
# Shear Modulus (GPa) = 17.25066 25.81565 21.53316
#
# Velocity S-wave (km/s) = 3.08398 3.77268 3.44558
# Velocity P-wave (km/s) = 4.84279 7.05697 6.05200
#
# Compressibility (1/GPa) = 0.05118574
#
# Stress axis : x y z
#
# Youngs Moduli (GPa) = 47.59862 14.41872 109.38462
#
# Poissons Ratio (x) = 0.18544 0.69740
# Poissons Ratio (y) = 0.61215 0.53854
# Poissons Ratio (z) = 0.30347 0.07099
#
# Static dielectric constant tensor:
#      x y z
#    x 3.614520 0.000000 0.306680 
#    y 0.000000 2.889790 0.000000 
#    z 0.306680 0.000000 3.615410 
# 
# 
# High freq. dielectric constant tensor:
#      x y z
#    x 1.701310 0.000000 0.019370 
#    y 0.000000 1.657010 0.000000 
#    z 0.019370 0.000000 1.710340 
# 
# From -- ./inp_files/287872.got.cif
#   From: 2010.06.25/outbox.cif.g09.slc.cpg/sg12_144_cif.got.tgz:287872.got - 2010.06.28 00:19:55.
