data_PCOD8095137
_publ_section_title
;
Structure prediction by ZEFSAII (Michael W. Deem and Ramdas Pophale) SiO2 
 PCOD8095137
Probable space group: C 2/M
;
_chemical_formula_sum "Si O2"
_cell_formula_units_Z 40
_cell_length_a 5.134629
_cell_length_b 23.515135
_cell_length_c 17.588130
_cell_angle_alpha 90.000000
_cell_angle_beta 76.176501
_cell_angle_gamma 90.000000
_cell_volume 2062.109429
_symmetry_space_group_name_H-M "C 2/M"
_symmetry_group_IT_number 12
_symmetry_cell_setting 'monoclinic'
loop_
_space_group_symop_operation_xyz
x,y,z
-x,y,-z
-x,-y,-z
x,-y,z
1/2+x,1/2+y,z
1/2-x,1/2+y,-z
1/2-x,1/2-y,-z
1/2+x,1/2-y,z
loop_
_atom_site_type_symbol
_atom_site_label
_atom_site_fract_x
_atom_site_fract_y
_atom_site_fract_z
Si Si1 0.713297 0.932465 0.544284
Si Si2 0.854357 0.432951 0.278853
Si Si3 0.219697 0.936019 0.036099
Si Si4 0.940805 0.894826 0.193237
Si Si5 0.409588 0.285899 0.089897
O O1 0.500000 0.906659 0.500000
O O2 0.634914 0.913456 0.634433
O O3 0.000000 0.907305 0.500000
O O4 0.716359 0.000000 0.538367
O O5 0.790742 0.500000 0.275418
O O6 0.609579 0.395985 0.259922
O O7 0.142135 0.419211 0.222068
O O8 0.126034 0.936414 0.129356
O O9 0.254751 0.000000 0.002940
O O10 0.500000 0.903396 0.000000
O O11 0.000000 0.903859 0.000000
O O12 0.927600 0.834353 0.152770
O O13 0.605185 0.235893 0.105671
O O14 0.500000 0.307424 0.000000
#
# Coordination Sequence:
#
# PCOD8095137 Si02
#       5
#     8   8   8   8   8
#     4   9  17  31  50  72 105 148 183 208 241 297
#     4  11  22  34  52  82 117 148 176 211 260 319
#     4  10  20  32  46  66  96 137 176 203 239 303
#     4  12  22  35  54  77 108 139 176 224 278 318
#     4  10  22  40  59  77  99 134 184 237 282 321
#
# _framework density 19.397614000000001
#
# number of rings (size 3 to 8) (size 9 to 14) (size 15 to 20)
#    0.000    1.600    0.000    6.000    0.000    7.200 
#    0.000    0.000    0.000    0.000    0.000    0.000 
#    0.000   56.000    0.000    0.000    0.000    0.000 
#
# Total GULP energy -247899.110515 kJ/mol
# GULP energy per Si atom -12394.955526 kJ/mol
# Density = 1.935346 g / cm^3
# Si number density = 19.397614 Si / 1000 Ang^3
#
#
#
# Elastic Constant Matrix: (Units=GPa)
#
#
# Indices 1 2 3 4 5 6 
#
# 1 144.4095 21.5754 39.8775 0.0000 8.1127 0.0000
# 2 21.5754 55.0378 31.0721 0.0000 8.8905 0.0000
# 3 39.8775 31.0721 104.6159 0.0000 10.4093 0.0000
# 4 0.0000 0.0000 0.0000 4.9627 0.0000 -1.2630
# 5 8.1127 8.8905 10.4093 0.0000 44.7768 0.0000
# 6 0.0000 0.0000 0.0000 -1.2630 0.0000 12.7334
#
#
#
# Elastic Compliance Matrix: (Units=1/GPa)
#
#
# Indices 1 2 3 4 5 6 
#
# 1 0.007877 -0.001606 -0.002473 0.000000 -0.000534 0.000000
# 2 -0.001606 0.022530 -0.005797 0.000000 -0.002835 0.000000
# 3 -0.002473 -0.005797 0.012350 0.000000 -0.001272 0.000000
# 4 0.000000 0.000000 0.000000 0.206721 0.000000 0.020505
# 5 -0.000534 -0.002835 -0.001272 0.000000 0.023288 0.000000
# 6 0.000000 0.000000 0.000000 0.020505 0.000000 0.080567
#
#
# Mechanical properties :
#
#
# Convention : Reuss Voigt Hill
#
# Bulk Modulus (GPa) = 43.46879 54.34590 48.90735
# Shear Modulus (GPa) = 13.13185 26.59714 19.86450
#
# Velocity S-wave (km/s) = 2.60471 3.70693 3.20358
# Velocity P-wave (km/s) = 5.61285 6.81171 6.24113
#
# Compressibility (1/GPa) = 0.02300501
#
# Stress axis : x y z
#
# Youngs Moduli (GPa) = 126.94444 44.38584 80.97323
#
# Poissons Ratio (x) = 0.07128 0.20022
# Poissons Ratio (y) = 0.20386 0.46943
# Poissons Ratio (z) = 0.31389 0.25732
#
# Static dielectric constant tensor:
#      x y z
#    x 3.247670 0.000000 0.044830 
#    y 0.000000 3.026990 0.000000 
#    z 0.044830 0.000000 3.600400 
# 
# 
# High freq. dielectric constant tensor:
#      x y z
#    x 1.785600 0.000000 0.004810 
#    y 0.000000 1.704730 0.000000 
#    z 0.004810 0.000000 1.749700 
# 
# From -- ./inp_files/191472.got.cif
#   From: 2010.06.25/outbox.cif.g09.slc.cpg/sg12_96_cif.got.tgz:191472.got - 2010.06.28 00:19:55.
