data_PCOD8095337
_publ_section_title
;
Structure prediction by ZEFSAII (Michael W. Deem and Ramdas Pophale) SiO2 
 PCOD8095337
Probable space group: C 2/M
;
_chemical_formula_sum "Si O2"
_cell_formula_units_Z 56
_cell_length_a 23.233969
_cell_length_b 8.498974
_cell_length_c 18.948016
_cell_angle_alpha 90.000000
_cell_angle_beta 51.830982
_cell_angle_gamma 90.000000
_cell_volume 2941.587786
_symmetry_space_group_name_H-M "C 2/M"
_symmetry_group_IT_number 12
_symmetry_cell_setting 'monoclinic'
loop_
_space_group_symop_operation_xyz
x,y,z
-x,y,-z
-x,-y,-z
x,-y,z
1/2+x,1/2+y,z
1/2-x,1/2+y,-z
1/2-x,1/2-y,-z
1/2+x,1/2-y,z
loop_
_atom_site_type_symbol
_atom_site_label
_atom_site_fract_x
_atom_site_fract_y
_atom_site_fract_z
Si Si1 0.183850 0.819465 0.252532
Si Si2 0.658762 0.180646 0.131355
Si Si3 0.616971 0.815947 0.012067
Si Si4 0.037845 0.181705 0.833177
Si Si5 0.971593 0.684023 0.596127
Si Si6 0.169453 0.817360 0.828680
Si Si7 0.507800 0.320122 0.280217
O O1 0.203566 0.784663 0.154470
O O2 0.114698 0.718873 0.330461
O O3 0.255068 0.774041 0.243962
O O4 0.164731 0.000000 0.277956
O O5 0.667244 0.231416 0.042513
O O6 0.573560 0.201718 0.213871
O O7 0.681153 0.000000 0.125053
O O8 0.531748 0.782677 0.090687
O O9 0.626502 0.000000 0.987466
O O10 0.642173 0.710412 0.928472
O O11 0.109273 0.246666 0.818998
O O12 0.051376 0.198232 0.738041
O O13 0.023412 0.000000 0.864853
O O14 0.985963 0.500000 0.590583
O O15 0.020061 0.769654 0.620854
O O16 0.000000 0.750326 0.500000
O O17 0.184262 0.000000 0.805541
O O18 0.536712 0.500000 0.260751
#
# Coordination Sequence:
#
# PCOD8095337 Si02
#       7
#     8   8   8   8   8   8   8
#     4  11  22  35  52  75 102 130 165 207 251 299
#     4   9  17  31  49  69  98 133 166 204 252 301
#     4  10  20  32  49  74 100 130 174 221 255 287
#     4   9  19  34  51  72  99 136 176 210 248 292
#     4  10  20  35  57  83 107 129 155 191 241 303
#     4  11  22  35  50  68  99 140 175 209 251 298
#     4   9  16  29  51  77 102 127 162 205 244 287
#
# _framework density 19.037337000000001
#
# number of rings (size 3 to 8) (size 9 to 14) (size 15 to 20)
#    0.000    2.143    0.000    5.571    0.000    6.857 
#    0.000    0.000    0.000    0.857    0.000    0.000 
#    0.000    0.000    0.000    0.000    0.000    0.000 
#
# Total GULP energy -347049.745268 kJ/mol
# GULP energy per Si atom -12394.633760 kJ/mol
# Density = 1.899401 g / cm^3
# Si number density = 19.037337 Si / 1000 Ang^3
#
#
#
# Elastic Constant Matrix: (Units=GPa)
#
#
# Indices 1 2 3 4 5 6 
#
# 1 83.4727 3.4493 14.8342 0.0026 8.2657 0.0060
# 2 3.4493 44.2692 -1.1177 0.0010 3.8187 0.0109
# 3 14.8342 -1.1177 75.9338 0.0010 17.6713 0.0012
# 4 0.0026 0.0010 0.0010 23.7928 -0.0003 4.1766
# 5 8.2657 3.8187 17.6713 -0.0003 19.0023 0.0014
# 6 0.0060 0.0109 0.0012 4.1766 0.0014 25.4883
#
#
#
# Elastic Compliance Matrix: (Units=1/GPa)
#
#
# Indices 1 2 3 4 5 6 
#
# 1 0.012676 -0.000690 -0.001577 -0.000001 -0.003909 -0.000002
# 2 -0.000690 0.023220 0.001905 0.000001 -0.006138 -0.000010
# 3 -0.001577 0.001905 0.017146 -0.000001 -0.015642 0.000000
# 4 -0.000001 0.000001 -0.000001 0.043274 0.000002 -0.007091
# 5 -0.003909 -0.006138 -0.015642 0.000002 0.070105 0.000000
# 6 -0.000002 -0.000010 0.000000 -0.007091 0.000000 0.040396
#
#
# Mechanical properties :
#
#
# Convention : Reuss Voigt Hill
#
# Bulk Modulus (GPa) = 19.11407 26.44526 22.77967
# Shear Modulus (GPa) = 22.22419 26.09067 24.15743
#
# Velocity S-wave (km/s) = 3.42043 3.70604 3.56610
# Velocity P-wave (km/s) = 5.06569 5.67754 5.38032
#
# Compressibility (1/GPa) = 0.05231747
#
# Stress axis : x y z
#
# Youngs Moduli (GPa) = 78.89080 43.06558 58.32407
#
# Poissons Ratio (x) = 0.02973 0.09197
# Poissons Ratio (y) = 0.05446 -0.11111
# Poissons Ratio (z) = 0.12440 -0.08204
#
# Static dielectric constant tensor:
#      x y z
#    x 3.727800 -0.000010 0.447160 
#    y -0.000010 3.393020 0.000000 
#    z 0.447160 0.000000 3.454330 
# 
# 
# High freq. dielectric constant tensor:
#      x y z
#    x 1.737020 0.000000 0.025250 
#    y 0.000000 1.745150 0.000000 
#    z 0.025250 0.000000 1.706980 
# 
# From -- ./inp_files/287335.got.cif
#   From: 2010.06.25/outbox.cif.g09.slc.cpg/sg12_144_cif.got.tgz:287335.got - 2010.06.28 00:19:55.
