data_PCOD8095577
_publ_section_title
;
Structure prediction by ZEFSAII (Michael W. Deem and Ramdas Pophale) SiO2 
 PCOD8095577
Probable space group: C 2/M
;
_chemical_formula_sum "Si O2"
_cell_formula_units_Z 52
_cell_length_a 5.254139
_cell_length_b 24.658109
_cell_length_c 22.974971
_cell_angle_alpha 90.000000
_cell_angle_beta 98.158721
_cell_angle_gamma 90.000000
_cell_volume 2946.444677
_symmetry_space_group_name_H-M "C 2/M"
_symmetry_group_IT_number 12
_symmetry_cell_setting 'monoclinic'
loop_
_space_group_symop_operation_xyz
x,y,z
-x,y,-z
-x,-y,-z
x,-y,z
1/2+x,1/2+y,z
1/2-x,1/2+y,-z
1/2-x,1/2-y,-z
1/2+x,1/2-y,z
loop_
_atom_site_type_symbol
_atom_site_label
_atom_site_fract_x
_atom_site_fract_y
_atom_site_fract_z
Si Si1 0.769577 0.500000 0.538848
Si Si2 0.544250 0.435382 0.066442
Si Si3 0.042632 0.391990 0.433289
Si Si4 0.584635 0.064766 0.132706
Si Si5 0.650710 0.936960 0.264154
Si Si6 0.207538 0.726728 0.433294
Si Si7 0.181644 0.936107 0.334043
O O1 0.500000 0.500000 0.500000
O O2 0.789772 0.445685 0.579339
O O3 0.000000 0.500000 0.500000
O O4 0.544164 0.500000 0.066363
O O5 0.315938 0.413511 0.100068
O O6 0.815538 0.412992 0.098834
O O7 0.500000 0.413041 0.000000
O O8 0.200679 0.337831 0.425188
O O9 0.000000 0.391973 0.500000
O O10 0.770320 0.398656 0.391510
O O11 0.623835 0.088502 0.198950
O O12 0.579247 0.000000 0.133424
O O13 0.389434 0.925211 0.290103
O O14 0.904146 0.913508 0.304850
O O15 0.704385 0.000000 0.258381
O O16 0.250000 0.750000 0.500000
O O17 0.439624 0.748611 0.401132
O O18 0.175789 0.000000 0.351639
#
# Coordination Sequence:
#
# PCOD8095577 Si02
#       7
#     4   8   8   8   8   8   8
#     4  10  24  34  50  74  96 122 144 176 229 302
#     4   9  15  21  32  53  76  97 134 182 226 262
#     4  11  22  38  55  73  99 120 150 189 248 303
#     4   9  15  24  37  50  70 108 138 172 222 267
#     4   9  18  31  44  57  82 112 150 180 219 279
#     4  10  21  37  55  73  92 120 151 181 220 292
#     4  10  20  33  45  66  87 112 144 188 230 281
#
# _framework density 17.648389000000002
#
# number of rings (size 3 to 8) (size 9 to 14) (size 15 to 20)
#    0.000    2.308    2.308    1.385    2.154    9.231 
#    0.000    0.000    0.000    0.000    0.000    0.000 
#    0.000    0.000    0.000    0.000    0.000    0.000 
#
# Total GULP energy -322223.826051 kJ/mol
# GULP energy per Si atom -12393.224079 kJ/mol
# Density = 1.760822 g / cm^3
# Si number density = 17.648389 Si / 1000 Ang^3
#
#
#
# Elastic Constant Matrix: (Units=GPa)
#
#
# Indices 1 2 3 4 5 6 
#
# 1 112.2240 20.9016 22.8720 0.0000 23.7139 0.0000
# 2 20.9016 83.1364 5.4608 0.0000 9.4764 0.0000
# 3 22.8720 5.4608 98.6397 0.0000 16.8683 0.0000
# 4 0.0000 0.0000 0.0000 0.8568 0.0000 2.9261
# 5 23.7139 9.4764 16.8683 0.0000 30.0141 0.0000
# 6 0.0000 0.0000 0.0000 2.9261 0.0000 10.6829
#
#
#
# Elastic Compliance Matrix: (Units=1/GPa)
#
#
# Indices 1 2 3 4 5 6 
#
# 1 0.011083 -0.001853 -0.001184 0.000000 -0.007507 0.000000
# 2 -0.001853 0.012787 0.000179 0.000000 -0.002674 0.000000
# 3 -0.001184 0.000179 0.011342 0.000000 -0.005496 0.000000
# 4 0.000000 0.000000 0.000000 18.085584 0.000000 -4.953765
# 5 -0.007507 -0.002674 -0.005496 0.000000 0.043182 0.000000
# 6 0.000000 0.000000 0.000000 -4.953765 0.000000 1.450478
#
#
# Mechanical properties :
#
#
# Convention : Reuss Voigt Hill
#
# Bulk Modulus (GPa) = 33.90118 43.60764 38.75441
# Shear Modulus (GPa) = 0.25471 24.62846 12.44159
#
# Velocity S-wave (km/s) = 0.38031 3.73970 2.65801
# Velocity P-wave (km/s) = 4.40951 6.58862 5.60597
#
# Compressibility (1/GPa) = 0.02949750
#
# Stress axis : x y z
#
# Youngs Moduli (GPa) = 90.22568 78.20230 88.16553
#
# Poissons Ratio (x) = 0.14492 0.10436
# Poissons Ratio (y) = 0.16720 -0.01578
# Poissons Ratio (z) = 0.10680 -0.01400
#
# Static dielectric constant tensor:
#      x y z
#    x 3.856520 0.000000 0.195890 
#    y 0.000000 -7.270640 0.000000 
#    z 0.195890 0.000000 3.360110 
# 
# 
# High freq. dielectric constant tensor:
#      x y z
#    x 1.706840 0.000000 0.011290 
#    y 0.000000 1.601380 0.000000 
#    z 0.011290 0.000000 1.669000 
# 
# From -- ./inp_files/298031.got.cif
#   From: 2010.06.25/outbox.cif.g09.slc.cpg/sg12_150_cif.got.tgz:298031.got - 2010.06.28 00:19:55.
