data_PCOD8095893
_publ_section_title
;
Structure prediction by ZEFSAII (Michael W. Deem and Ramdas Pophale) SiO2 
 PCOD8095893
Probable space group: C 2/M
;
_chemical_formula_sum "Si O2"
_cell_formula_units_Z 48
_cell_length_a 14.273329
_cell_length_b 9.407216
_cell_length_c 20.135769
_cell_angle_alpha 90.000000
_cell_angle_beta 109.134502
_cell_angle_gamma 90.000000
_cell_volume 2554.302299
_symmetry_space_group_name_H-M "C 2/M"
_symmetry_group_IT_number 12
_symmetry_cell_setting 'monoclinic'
loop_
_space_group_symop_operation_xyz
x,y,z
-x,y,-z
-x,-y,-z
x,-y,z
1/2+x,1/2+y,z
1/2-x,1/2+y,-z
1/2-x,1/2-y,-z
1/2+x,1/2-y,z
loop_
_atom_site_type_symbol
_atom_site_label
_atom_site_fract_x
_atom_site_fract_y
_atom_site_fract_z
Si Si1 0.551583 0.666238 0.611569
Si Si2 0.153205 0.166576 0.499569
Si Si3 0.505393 0.836742 0.143704
Si Si4 0.607772 0.161316 0.752934
Si Si5 0.688097 0.332695 0.133919
Si Si6 0.100218 0.842967 0.981235
O O1 0.555549 0.500000 0.626113
O O2 0.625424 0.706251 0.568681
O O3 0.439088 0.711669 0.568322
O O4 0.588009 0.743654 0.685179
O O5 0.250000 0.250000 0.500000
O O6 0.174612 0.000000 0.497839
O O7 0.482424 0.825280 0.216411
O O8 0.606521 0.753287 0.156004
O O9 0.413186 0.769902 0.080981
O O10 0.516588 0.000000 0.123857
O O11 0.706724 0.213741 0.812835
O O12 0.620087 0.000000 0.731315
O O13 0.666549 0.500000 0.138023
O O14 0.684853 0.294840 0.054022
O O15 0.123572 0.000000 0.957190
O O16 0.000000 0.849192 0.000000
#
# Coordination Sequence:
#
# PCOD8095893 Si02
#       6
#     8   8   8   8   8   8
#     4   9  20  38  56  78 110 140 169 208 251 301
#     4   9  19  37  60  84 108 136 170 208 251 299
#     4  10  20  33  50  75 104 132 170 222 268 303
#     4  10  22  37  52  75 108 141 172 210 257 307
#     4   9  19  36  53  70  99 139 177 213 259 314
#     4   8  15  30  51  71  95 132 175 216 260 311
#
# _framework density 18.791823999999998
#
# number of rings (size 3 to 8) (size 9 to 14) (size 15 to 20)
#    0.000    2.833    0.000    2.500    0.000    8.333 
#    0.000    8.333    0.000    0.000    0.000    0.000 
#    0.000    0.000    0.000    0.000    0.000    0.000 
#
# Total GULP energy -297536.597859 kJ/mol
# GULP energy per Si atom -12397.358244 kJ/mol
# Density = 1.874905 g / cm^3
# Si number density = 18.791824 Si / 1000 Ang^3
#
#
#
# Elastic Constant Matrix: (Units=GPa)
#
#
# Indices 1 2 3 4 5 6 
#
# 1 84.2986 35.8452 28.8244 0.0000 2.6994 0.0000
# 2 35.8452 68.0975 43.0468 0.0000 -1.6025 0.0000
# 3 28.8244 43.0468 106.9100 0.0000 1.7870 0.0000
# 4 0.0000 0.0000 0.0000 39.2944 0.0000 0.1432
# 5 2.6994 -1.6025 1.7870 0.0000 20.4119 0.0000
# 6 0.0000 0.0000 0.0000 0.1432 0.0000 27.4222
#
#
#
# Elastic Compliance Matrix: (Units=1/GPa)
#
#
# Indices 1 2 3 4 5 6 
#
# 1 0.015526 -0.007530 -0.001112 0.000000 -0.002547 0.000000
# 2 -0.007530 0.023454 -0.007472 0.000000 0.003491 0.000000
# 3 -0.001112 -0.007472 0.012688 0.000000 -0.001550 0.000000
# 4 0.000000 0.000000 0.000000 0.025449 0.000000 -0.000133
# 5 -0.002547 0.003491 -0.001550 0.000000 0.049738 0.000000
# 6 0.000000 0.000000 0.000000 -0.000133 0.000000 0.036468
#
#
# Mechanical properties :
#
#
# Convention : Reuss Voigt Hill
#
# Bulk Modulus (GPa) = 51.43737 52.74875 52.09306
# Shear Modulus (GPa) = 24.74894 27.53168 26.14031
#
# Velocity S-wave (km/s) = 3.63299 3.83180 3.73372
# Velocity P-wave (km/s) = 6.71043 6.90709 6.80947
#
# Compressibility (1/GPa) = 0.01944112
#
# Stress axis : x y z
#
# Youngs Moduli (GPa) = 64.40772 42.63718 78.81635
#
# Poissons Ratio (x) = 0.32105 0.08761
# Poissons Ratio (y) = 0.48498 0.58889
# Poissons Ratio (z) = 0.07160 0.31857
#
# Static dielectric constant tensor:
#      x y z
#    x 3.329080 0.000000 0.138570 
#    y 0.000000 3.390420 0.000000 
#    z 0.138570 0.000000 3.551430 
# 
# 
# High freq. dielectric constant tensor:
#      x y z
#    x 1.724570 0.000000 0.005070 
#    y 0.000000 1.727270 0.000000 
#    z 0.005070 0.000000 1.728500 
# 
# From -- ./inp_files/308317.got.cif
#   From: 2010.06.25/outbox.cif.g09.slc.cpg/sg12_155_cif.got.tgz:308317.got - 2010.06.28 00:19:55.
