data_PCOD8095159
_publ_section_title
;
Structure prediction by ZEFSAII (Michael W. Deem and Ramdas Pophale) SiO2 
 PCOD8095159
Probable space group: C 2/M
;
_chemical_formula_sum "Si O2"
_cell_formula_units_Z 64
_cell_length_a 14.638670
_cell_length_b 8.968282
_cell_length_c 34.585086
_cell_angle_alpha 90.000000
_cell_angle_beta 131.652428
_cell_angle_gamma 90.000000
_cell_volume 3392.586558
_symmetry_space_group_name_H-M "C 2/M"
_symmetry_group_IT_number 12
_symmetry_cell_setting 'monoclinic'
loop_
_space_group_symop_operation_xyz
x,y,z
-x,y,-z
-x,-y,-z
x,-y,z
1/2+x,1/2+y,z
1/2-x,1/2+y,-z
1/2-x,1/2-y,-z
1/2+x,1/2-y,z
loop_
_atom_site_type_symbol
_atom_site_label
_atom_site_fract_x
_atom_site_fract_y
_atom_site_fract_z
Si Si1 0.062385 0.177091 0.556788
Si Si2 0.490094 0.323015 0.813379
Si Si3 0.458949 0.823690 0.248887
Si Si4 0.404035 0.672934 0.006215
Si Si5 0.284090 0.176536 0.267056
Si Si6 0.378740 0.172987 0.079101
Si Si7 0.010869 0.676390 0.618620
Si Si8 0.835760 0.323411 0.636413
O O1 0.987263 0.242120 0.571549
O O2 0.199680 0.243237 0.598251
O O3 0.000000 0.234624 0.500000
O O4 0.060917 0.000000 0.558309
O O5 0.493721 0.500000 0.814433
O O6 0.564355 0.260472 0.797778
O O7 0.352347 0.258656 0.770952
O O8 0.548401 0.265575 0.868941
O O9 0.350478 0.770767 0.246550
O O10 0.587991 0.772325 0.304354
O O11 0.456031 0.000000 0.240806
O O12 0.425905 0.500000 0.022743
O O13 0.265035 0.699779 0.953352
O O14 0.500000 0.724269 0.000000
O O15 0.424452 0.770357 0.050245
O O16 0.360348 0.229884 0.326109
O O17 0.282416 0.000000 0.266660
O O18 0.412061 0.000000 0.091802
O O19 0.009042 0.500000 0.611772
O O20 0.902556 0.730336 0.616249
O O21 0.831868 0.500000 0.634820
#
# Coordination Sequence:
#
# PCOD8095159 Si02
#       8
#     8   8   8   8   8   8   8   8
#     4  10  20  32  46  69 100 128 155 195 252 306
#     4  11  21  33  50  75 108 136 160 200 251 293
#     4   9  17  33  54  72  93 128 172 205 238 291
#     4   9  19  38  61  79  99 133 173 210 248 288
#     4   8  17  33  52  72  96 130 166 201 244 294
#     4  10  21  36  54  79 107 134 169 207 244 290
#     4   9  17  33  54  71  90 123 169 208 238 284
#     4   8  16  32  52  70  93 128 163 199 246 297
#
# _framework density 18.864661999999999
#
# number of rings (size 3 to 8) (size 9 to 14) (size 15 to 20)
#    0.000    2.750    0.000    3.000    0.000    2.500 
#    0.000   10.000    0.000    0.000    0.000    0.000 
#    0.000    0.000    0.000    0.000    0.000    0.000 
#
# Total GULP energy -396738.761793 kJ/mol
# GULP energy per Si atom -12398.086306 kJ/mol
# Density = 1.882173 g / cm^3
# Si number density = 18.864662 Si / 1000 Ang^3
#
#
#
# Elastic Constant Matrix: (Units=GPa)
#
#
# Indices 1 2 3 4 5 6 
#
# 1 82.3632 22.8453 34.1016 0.0000 -16.7578 0.0000
# 2 22.8453 44.9742 31.6221 0.0000 -7.8227 0.0000
# 3 34.1016 31.6221 96.4436 0.0000 -20.5639 0.0000
# 4 0.0000 0.0000 0.0000 24.3464 0.0000 -4.1100
# 5 -16.7578 -7.8227 -20.5639 0.0000 25.9542 0.0000
# 6 0.0000 0.0000 0.0000 -4.1100 0.0000 23.4560
#
#
#
# Elastic Compliance Matrix: (Units=1/GPa)
#
#
# Indices 1 2 3 4 5 6 
#
# 1 0.015998 -0.005180 -0.002513 0.000000 0.006777 0.000000
# 2 -0.005180 0.030620 -0.008367 0.000000 -0.000745 0.000000
# 3 -0.002513 -0.008367 0.015783 0.000000 0.008361 0.000000
# 4 0.000000 0.000000 0.000000 0.042326 0.000000 0.007416
# 5 0.006777 -0.000745 0.008361 0.000000 0.049305 0.000000
# 6 0.000000 0.000000 0.000000 0.007416 0.000000 0.043933
#
#
# Mechanical properties :
#
#
# Convention : Reuss Voigt Hill
#
# Bulk Modulus (GPa) = 33.02507 44.54657 38.78582
# Shear Modulus (GPa) = 20.81790 23.76544 22.29167
#
# Velocity S-wave (km/s) = 3.32556 3.55320 3.44126
# Velocity P-wave (km/s) = 5.68244 6.36385 6.03278
#
# Compressibility (1/GPa) = 0.03028003
#
# Stress axis : x y z
#
# Youngs Moduli (GPa) = 62.50956 32.65876 63.35759
#
# Poissons Ratio (x) = 0.16919 0.15922
# Poissons Ratio (y) = 0.32383 0.53010
# Poissons Ratio (z) = 0.15709 0.27325
#
# Static dielectric constant tensor:
#      x y z
#    x 3.725980 0.000000 0.138150 
#    y 0.000000 3.106470 0.000000 
#    z 0.138150 0.000000 3.520470 
# 
# 
# High freq. dielectric constant tensor:
#      x y z
#    x 1.738730 0.000000 -0.006420 
#    y 0.000000 1.705120 0.000000 
#    z -0.006420 0.000000 1.734380 
# 
# From -- ./inp_files/375112.got.cif
#   From: 2010.06.25/outbox.cif.g09.slc.cpg/sg12_188_cif.got.tgz:375112.got - 2010.06.28 00:19:55.
