data_PCOD8095544
_publ_section_title
;
Structure prediction by ZEFSAII (Michael W. Deem and Ramdas Pophale) SiO2 
 PCOD8095544
Probable space group: C 2/M
;
_chemical_formula_sum "Si O2"
_cell_formula_units_Z 56
_cell_length_a 22.248735
_cell_length_b 28.192259
_cell_length_c 14.735281
_cell_angle_alpha 90.000000
_cell_angle_beta 161.627819
_cell_angle_gamma 90.000000
_cell_volume 2913.155684
_symmetry_space_group_name_H-M "C 2/M"
_symmetry_group_IT_number 12
_symmetry_cell_setting 'monoclinic'
loop_
_space_group_symop_operation_xyz
x,y,z
-x,y,-z
-x,-y,-z
x,-y,z
1/2+x,1/2+y,z
1/2-x,1/2+y,-z
1/2-x,1/2-y,-z
1/2+x,1/2-y,z
loop_
_atom_site_type_symbol
_atom_site_label
_atom_site_fract_x
_atom_site_fract_y
_atom_site_fract_z
Si Si1 0.561102 0.616993 0.326888
Si Si2 0.822877 0.781779 0.813805
Si Si3 0.115796 0.223886 0.379506
Si Si4 0.497196 0.053461 0.334373
Si Si5 0.659255 0.445810 0.299895
Si Si6 0.941721 0.944927 0.314714
Si Si7 0.166841 0.635441 0.684089
O O1 0.664659 0.668405 0.467783
O O2 0.651347 0.584916 0.378674
O O3 0.574382 0.589001 0.441601
O O4 0.338108 0.625344 0.996743
O O5 0.656424 0.747510 0.536447
O O6 0.728842 0.833693 0.685749
O O7 0.000000 0.784610 0.000000
O O8 0.902327 0.768966 0.029980
O O9 0.250000 0.250000 0.500000
O O10 0.625539 0.059354 0.428033
O O11 0.586715 0.084850 0.540807
O O12 0.510079 0.000000 0.388646
O O13 0.280789 0.068596 0.006981
O O14 0.610032 0.500000 0.254323
O O15 0.500000 0.427168 0.000000
O O16 0.000000 0.934577 0.500000
O O17 0.976210 0.000000 0.337035
O O18 0.000000 0.662907 0.500000
#
# Coordination Sequence:
#
# PCOD8095544 Si02
#       7
#     8   8   8   8   8   8   8
#     4  11  21  36  61  89 117 155 199 246 296 362
#     4   9  20  39  60  79 112 153 194 245 299 361
#     4   9  20  37  58  85 112 149 197 242 304 359
#     4  10  21  35  55  86 122 155 190 233 291 355
#     4  10  20  32  54  93 126 149 184 240 303 359
#     4  10  22  42  60  80 121 170 207 243 289 348
#     4  11  21  34  56  87 116 148 187 238 303 352
#
# _framework density 19.223140000000001
#
# number of rings (size 3 to 8) (size 9 to 14) (size 15 to 20)
#    0.000    2.000    2.857    0.429    6.000    0.857 
#    2.571    5.714    0.000    3.429    0.000    0.000 
#    0.000    0.000    0.000    0.000    0.000    0.000 
#
# Total GULP energy -346928.895763 kJ/mol
# GULP energy per Si atom -12390.317706 kJ/mol
# Density = 1.917939 g / cm^3
# Si number density = 19.223140 Si / 1000 Ang^3
#
#
#
# Elastic Constant Matrix: (Units=GPa)
#
#
# Indices 1 2 3 4 5 6 
#
# 1 87.7517 56.7963 28.6166 0.0003 -8.5737 0.0005
# 2 56.7963 116.7569 43.1008 0.0000 -13.5977 -0.0001
# 3 28.6166 43.1008 57.3515 0.0005 -9.5978 0.0002
# 4 0.0003 0.0000 0.0005 15.1543 0.0005 -22.0587
# 5 -8.5737 -13.5977 -9.5978 0.0005 29.9462 0.0007
# 6 0.0005 -0.0001 0.0002 -22.0587 0.0007 -1.7654
#
#
#
# Elastic Compliance Matrix: (Units=1/GPa)
#
#
# Indices 1 2 3 4 5 6 
#
# 1 0.017046 -0.007079 -0.003071 0.000000 0.000682 0.000000
# 2 -0.007079 0.014998 -0.007332 0.000000 0.002434 0.000000
# 3 -0.003071 -0.007332 0.025122 0.000000 0.003843 0.000001
# 4 0.000000 0.000000 0.000000 0.003439 0.000001 -0.042971
# 5 0.000682 0.002434 0.003843 0.000001 0.035925 0.000002
# 6 0.000000 0.000000 0.000001 -0.042971 0.000002 -0.029521
#
#
# Mechanical properties :
#
#
# Convention : Reuss Voigt Hill
#
# Bulk Modulus (GPa) = 45.04163 57.65416 51.34789
# Shear Modulus (GPa) = 45.71441 17.55678 31.63559
#
# Velocity S-wave (km/s) = 4.88186 3.02539 4.06113
# Velocity P-wave (km/s) = 7.43361 6.50086 6.98282
#
# Compressibility (1/GPa) = 0.02220168
#
# Stress axis : x y z
#
# Youngs Moduli (GPa) = 58.66633 66.67411 39.80516
#
# Poissons Ratio (x) = 0.47196 0.12226
# Poissons Ratio (y) = 0.41528 0.29186
# Poissons Ratio (z) = 0.18019 0.48887
#
# Static dielectric constant tensor:
#      x y z
#    x 2.804380 0.000000 -0.380830 
#    y 0.000000 3.702980 0.000000 
#    z -0.380830 0.000000 3.596510 
# 
# 
# High freq. dielectric constant tensor:
#      x y z
#    x 1.739460 0.000000 0.002700 
#    y 0.000000 1.748980 0.000000 
#    z 0.002700 0.000000 1.734810 
# 
# From -- ./inp_files/242188.got.cif
#   From: 2010.06.25/outbox.cif.g09.slc.cpg/sg12_122_cif.got.tgz:242188.got - 2010.06.28 00:19:55.
