data_PCOD8095456
_publ_section_title
;
Structure prediction by ZEFSAII (Michael W. Deem and Ramdas Pophale) SiO2 
 PCOD8095456
Probable space group: C 2/M
;
_chemical_formula_sum "Si O2"
_cell_formula_units_Z 64
_cell_length_a 22.328076
_cell_length_b 13.813194
_cell_length_c 11.885809
_cell_angle_alpha 90.000000
_cell_angle_beta 110.205046
_cell_angle_gamma 90.000000
_cell_volume 3440.258954
_symmetry_space_group_name_H-M "C 2/M"
_symmetry_group_IT_number 12
_symmetry_cell_setting 'monoclinic'
loop_
_space_group_symop_operation_xyz
x,y,z
-x,y,-z
-x,-y,-z
x,-y,z
1/2+x,1/2+y,z
1/2-x,1/2+y,-z
1/2-x,1/2-y,-z
1/2+x,1/2-y,z
loop_
_atom_site_type_symbol
_atom_site_label
_atom_site_fract_x
_atom_site_fract_y
_atom_site_fract_z
Si Si1 0.586199 0.611747 0.759063
Si Si2 0.242334 0.610880 0.665029
Si Si3 0.058606 0.111976 0.335073
Si Si4 0.657344 0.385389 0.585957
Si Si5 0.796490 0.386727 0.601828
Si Si6 0.867268 0.233581 0.772939
Si Si7 0.780210 0.387109 0.100817
Si Si8 0.151271 0.226533 0.984227
O O1 0.599666 0.500000 0.796526
O O2 0.513765 0.625507 0.669703
O O3 0.634779 0.649743 0.694397
O O4 0.596389 0.674920 0.876987
O O5 0.263828 0.500000 0.669610
O O6 0.198932 0.637493 0.528676
O O7 0.307365 0.668346 0.702346
O O8 0.204251 0.629403 0.756543
O O9 0.106552 0.151884 0.461508
O O10 0.070120 0.179124 0.233015
O O11 0.071600 0.000000 0.312823
O O12 0.656759 0.500000 0.581161
O O13 0.728561 0.346316 0.606779
O O14 0.802558 0.500000 0.629415
O O15 0.855069 0.336655 0.704579
O O16 0.876374 0.249463 0.911138
O O17 0.783468 0.500000 0.070005
O O18 0.831356 0.329240 0.060459
O O19 0.710278 0.347233 0.027239
#
# Coordination Sequence:
#
# PCOD8095456 Si02
#       8
#     8   8   8   8   8   8   8   8
#     4  10  21  35  53  76 106 142 177 215 257 306
#     4   9  17  31  49  74 103 133 168 208 258 313
#     4  10  20  35  54  77 105 139 176 215 263 312
#     4   9  18  32  52  78 108 136 169 215 263 314
#     4  10  20  32  51  80 109 137 171 213 266 317
#     4  11  21  32  50  75 107 141 174 214 260 306
#     4   9  19  34  52  72 104 140 171 216 265 307
#     4  10  22  34  49  76 105 138 181 218 250 311
#
# _framework density 18.603251
#
# number of rings (size 3 to 8) (size 9 to 14) (size 15 to 20)
#    0.000    2.250    1.250    1.500    5.250    4.000 
#    0.000    1.250    0.000    0.750    0.000    1.750 
#    0.000    5.000    0.000    0.000    0.000    0.000 
#
# Total GULP energy -396791.048839 kJ/mol
# GULP energy per Si atom -12399.720276 kJ/mol
# Density = 1.856091 g / cm^3
# Si number density = 18.603251 Si / 1000 Ang^3
#
#
#
# Elastic Constant Matrix: (Units=GPa)
#
#
# Indices 1 2 3 4 5 6 
#
# 1 49.5232 28.5860 27.4978 0.0000 -9.4458 0.0000
# 2 28.5860 74.7543 38.8416 0.0000 -8.6635 0.0000
# 3 27.4978 38.8416 108.1671 0.0000 -17.9006 0.0000
# 4 0.0000 0.0000 0.0000 31.0547 0.0000 -0.9915
# 5 -9.4458 -8.6635 -17.9006 0.0000 25.9260 0.0000
# 6 0.0000 0.0000 0.0000 -0.9915 0.0000 25.9834
#
#
#
# Elastic Compliance Matrix: (Units=1/GPa)
#
#
# Indices 1 2 3 4 5 6 
#
# 1 0.027777 -0.008360 -0.003214 0.000000 0.005107 0.000000
# 2 -0.008360 0.019021 -0.004693 0.000000 0.000070 0.000000
# 3 -0.003214 -0.004693 0.012751 0.000000 0.006065 0.000000
# 4 0.000000 0.000000 0.000000 0.032241 0.000000 0.001230
# 5 0.005107 0.000070 0.006065 0.000000 0.044643 0.000000
# 6 0.000000 0.000000 0.000000 0.001230 0.000000 0.038533
#
#
# Mechanical properties :
#
#
# Convention : Reuss Voigt Hill
#
# Bulk Modulus (GPa) = 37.01822 46.92172 41.96997
# Shear Modulus (GPa) = 23.09421 25.76076 24.42748
#
# Velocity S-wave (km/s) = 3.52718 3.72525 3.62757
# Velocity P-wave (km/s) = 6.04401 6.61668 6.33681
#
# Compressibility (1/GPa) = 0.02701372
#
# Stress axis : x y z
#
# Youngs Moduli (GPa) = 36.00107 52.57436 78.42508
#
# Poissons Ratio (x) = 0.43952 0.25207
# Poissons Ratio (y) = 0.30097 0.36808
# Poissons Ratio (z) = 0.11571 0.24675
#
# Static dielectric constant tensor:
#      x y z
#    x 3.197210 0.000000 -0.252070 
#    y 0.000000 3.343560 0.000000 
#    z -0.252070 0.000000 3.532410 
# 
# 
# High freq. dielectric constant tensor:
#      x y z
#    x 1.686070 0.000000 -0.020480 
#    y 0.000000 1.716320 0.000000 
#    z -0.020480 0.000000 1.726330 
# 
# From -- ./inp_files/176163.got.cif
#   From: 2010.06.25/outbox.cif.g09.slc.cpg/sg12_89_cif.got.tgz:176163.got - 2010.06.28 00:19:55.
