data_PCOD8095760
_publ_section_title
;
Structure prediction by ZEFSAII (Michael W. Deem and Ramdas Pophale) SiO2 
 PCOD8095760
Probable space group: C 2/M
;
_chemical_formula_sum "Si O2"
_cell_formula_units_Z 60
_cell_length_a 14.334486
_cell_length_b 27.373629
_cell_length_c 11.370326
_cell_angle_alpha 90.000000
_cell_angle_beta 51.091310
_cell_angle_gamma 90.000000
_cell_volume 3471.758971
_symmetry_space_group_name_H-M "C 2/M"
_symmetry_group_IT_number 12
_symmetry_cell_setting 'monoclinic'
loop_
_space_group_symop_operation_xyz
x,y,z
-x,y,-z
-x,-y,-z
x,-y,z
1/2+x,1/2+y,z
1/2-x,1/2+y,-z
1/2-x,1/2-y,-z
1/2+x,1/2-y,z
loop_
_atom_site_type_symbol
_atom_site_label
_atom_site_fract_x
_atom_site_fract_y
_atom_site_fract_z
Si Si1 0.744307 0.842394 0.046573
Si Si2 0.565015 0.604422 0.335536
Si Si3 0.641966 0.241718 0.674690
Si Si4 0.272405 0.691571 0.777732
Si Si5 0.313529 0.446768 0.965599
Si Si6 0.000000 0.082352 0.000000
Si Si7 0.436030 0.216233 0.669712
Si Si8 0.475219 0.658168 0.196802
O O1 0.669081 0.821765 0.214980
O O2 0.706150 0.813823 0.956890
O O3 0.721899 0.901324 0.055214
O O4 0.886013 0.833119 0.952100
O O5 0.500000 0.581061 0.500000
O O6 0.672076 0.638965 0.298421
O O7 0.614813 0.561362 0.213534
O O8 0.473893 0.638687 0.332160
O O9 0.750000 0.250000 0.500000
O O10 0.677367 0.207150 0.754852
O O11 0.532570 0.215669 0.696871
O O12 0.603554 0.293903 0.756638
O O13 0.381136 0.730185 0.697454
O O14 0.248764 0.500000 0.010379
O O15 0.406884 0.450082 0.000168
O O16 0.076366 0.116848 0.849687
O O17 0.500000 0.198635 0.500000
#
# Coordination Sequence:
#
# PCOD8095760 Si02
#       8
#     8   8   8   8   8   4   8   8
#     4   9  21  37  51  71 101 142 171 213 260 298
#     4   9  16  32  48  68 106 138 161 206 256 301
#     4  12  22  29  50  77 104 150 177 204 253 291
#     4  10  20  33  50  71 105 143 176 202 242 304
#     4   9  18  32  52  75  97 129 171 216 269 312
#     4   8  17  28  48  74  98 124 162 220 259 312
#     4  12  22  36  49  74 111 138 177 216 246 300
#     4   9  19  31  48  71 103 141 174 200 254 302
#
# _framework density 17.282305999999998
#
# number of rings (size 3 to 8) (size 9 to 14) (size 15 to 20)
#    0.000    2.667    4.000    1.800    3.733    0.800 
#    0.000    0.000    0.000    0.400    0.000    7.467 
#    0.000    0.000    0.000    0.000    0.000    0.000 
#
# Total GULP energy -371760.763542 kJ/mol
# GULP energy per Si atom -12392.025451 kJ/mol
# Density = 1.724297 g / cm^3
# Si number density = 17.282306 Si / 1000 Ang^3
#
#
#
# Elastic Constant Matrix: (Units=GPa)
#
#
# Indices 1 2 3 4 5 6 
#
# 1 79.0762 21.9451 16.7269 0.0000 10.6416 0.0000
# 2 21.9451 92.1080 36.3021 0.0000 0.7866 0.0000
# 3 16.7269 36.3021 100.8601 0.0000 6.2601 0.0000
# 4 0.0000 0.0000 0.0000 8.4298 0.0000 -0.2180
# 5 10.6416 0.7866 6.2601 0.0000 21.8621 0.0000
# 6 0.0000 0.0000 0.0000 -0.2180 0.0000 8.9293
#
#
#
# Elastic Compliance Matrix: (Units=1/GPa)
#
#
# Indices 1 2 3 4 5 6 
#
# 1 0.014593 -0.003065 -0.000899 0.000000 -0.006736 0.000000
# 2 -0.003065 0.013311 -0.004424 0.000000 0.002280 0.000000
# 3 -0.000899 -0.004424 0.011829 0.000000 -0.002791 0.000000
# 4 0.000000 0.000000 0.000000 0.118702 0.000000 0.002898
# 5 -0.006736 0.002280 -0.002791 0.000000 0.049737 0.000000
# 6 0.000000 0.000000 0.000000 0.002898 0.000000 0.112062
#
#
# Mechanical properties :
#
#
# Convention : Reuss Voigt Hill
#
# Bulk Modulus (GPa) = 43.55883 46.88804 45.22343
# Shear Modulus (GPa) = 14.50690 20.98226 17.74458
#
# Velocity S-wave (km/s) = 2.90040 3.48816 3.20777
# Velocity P-wave (km/s) = 6.03949 6.58882 6.32013
#
# Compressibility (1/GPa) = 0.02295746
#
# Stress axis : x y z
#
# Youngs Moduli (GPa) = 68.52486 75.12394 84.53510
#
# Poissons Ratio (x) = 0.23026 0.07599
# Poissons Ratio (y) = 0.21004 0.37401
# Poissons Ratio (z) = 0.06160 0.33237
#
# Static dielectric constant tensor:
#      x y z
#    x 3.269520 0.000000 0.283780 
#    y 0.000000 3.017840 0.000000 
#    z 0.283780 0.000000 3.184130 
# 
# 
# High freq. dielectric constant tensor:
#      x y z
#    x 1.655060 0.000000 0.030130 
#    y 0.000000 1.645260 0.000000 
#    z 0.030130 0.000000 1.657150 
# 
# From -- ./inp_files/150021.got.cif
#   From: 2010.06.25/outbox.cif.g09.slc.cpg/sg12_76_cif.got.tgz:150021.got - 2010.06.28 00:19:55.
