data_PCOD8095049
_publ_section_title
;
Structure prediction by ZEFSAII (Michael W. Deem and Ramdas Pophale) SiO2 
 PCOD8095049
Probable space group: C 2/M
;
_chemical_formula_sum "Si O2"
_cell_formula_units_Z 48
_cell_length_a 9.885200
_cell_length_b 18.734821
_cell_length_c 31.032862
_cell_angle_alpha 90.000000
_cell_angle_beta 151.785216
_cell_angle_gamma 90.000000
_cell_volume 2717.153895
_symmetry_space_group_name_H-M "C 2/M"
_symmetry_group_IT_number 12
_symmetry_cell_setting 'monoclinic'
loop_
_space_group_symop_operation_xyz
x,y,z
-x,y,-z
-x,-y,-z
x,-y,z
1/2+x,1/2+y,z
1/2-x,1/2+y,-z
1/2-x,1/2-y,-z
1/2+x,1/2-y,z
loop_
_atom_site_type_symbol
_atom_site_label
_atom_site_fract_x
_atom_site_fract_y
_atom_site_fract_z
Si Si1 0.212010 0.168530 0.437782
Si Si2 0.223381 0.813129 0.753599
Si Si3 0.761015 0.661823 0.546380
Si Si4 0.616687 0.323854 0.254768
Si Si5 0.625606 0.917969 0.079467
Si Si6 0.676779 0.918302 0.918509
O O1 0.500000 0.135188 0.500000
O O2 0.233076 0.253461 0.447118
O O3 0.176385 0.135862 0.474988
O O4 0.957166 0.147093 0.334267
O O5 0.348842 0.740233 0.769515
O O6 0.479229 0.866368 0.835582
O O7 0.024733 0.796897 0.739781
O O8 0.500000 0.628007 0.500000
O O9 0.079283 0.636969 0.650049
O O10 0.417070 0.380666 0.175418
O O11 0.382785 0.908242 0.047547
O O12 0.706221 0.000000 0.094633
O O13 0.500000 0.884658 0.000000
O O14 0.617916 0.000000 0.887849
O O15 0.000000 0.895640 0.000000
#
# Coordination Sequence:
#
# PCOD8095049 Si02
#       6
#     8   8   8   8   8   8
#     4   9  15  27  44  67  99 131 163 196 233 293
#     4  10  20  31  50  77 103 131 162 204 249 287
#     4   9  17  27  44  69 100 132 164 197 239 286
#     4  10  20  32  49  77 104 129 163 205 249 288
#     4   9  19  37  57  73  94 130 170 203 243 299
#     4   9  19  37  56  73  97 129 166 205 247 296
#
# _framework density 17.665543
#
# number of rings (size 3 to 8) (size 9 to 14) (size 15 to 20)
#    0.000    2.667    1.667    0.000    7.000    2.000 
#    0.000    3.333    0.000    2.000    0.000    0.000 
#    0.000    0.000    0.000    0.000    0.000    0.000 
#
# Total GULP energy -297460.710477 kJ/mol
# GULP energy per Si atom -12394.196270 kJ/mol
# Density = 1.762534 g / cm^3
# Si number density = 17.665543 Si / 1000 Ang^3
#
#
#
# Elastic Constant Matrix: (Units=GPa)
#
#
# Indices 1 2 3 4 5 6 
#
# 1 140.1585 35.6449 91.8232 0.0000 -1.1154 -0.0004
# 2 35.6449 36.4988 44.4491 0.0040 -1.0211 -0.0012
# 3 91.8232 44.4491 155.5036 0.0174 -1.0419 -0.0019
# 4 0.0000 0.0040 0.0174 -0.2433 0.0025 1.2337
# 5 -1.1154 -1.0211 -1.0419 0.0025 38.4092 -0.0010
# 6 -0.0004 -0.0012 -0.0019 1.2337 -0.0010 15.4737
#
#
#
# Elastic Compliance Matrix: (Units=1/GPa)
#
#
# Indices 1 2 3 4 5 6 
#
# 1 0.012162 -0.004802 -0.005808 -0.000353 0.000068 0.000027
# 2 -0.004802 0.043948 -0.009722 0.000028 0.000765 0.000000
# 3 -0.005808 -0.009722 0.012639 0.000532 -0.000084 -0.000042
# 4 -0.000353 0.000028 0.000532 -2.926465 0.000203 0.233318
# 5 0.000068 0.000765 -0.000084 0.000203 0.026055 -0.000015
# 6 0.000027 0.000000 -0.000042 0.233318 -0.000015 0.046024
#
#
# Mechanical properties :
#
#
# Convention : Reuss Voigt Hill
#
# Bulk Modulus (GPa) = 35.60600 75.11059 55.35830
# Shear Modulus (GPa) = -1.82774 21.41083 9.79154
#
# Velocity S-wave (km/s) = -1.01828 3.48517 2.35686
# Velocity P-wave (km/s) = 4.33784 7.66849 6.22987
#
# Compressibility (1/GPa) = 0.02808515
#
# Stress axis : x y z
#
# Youngs Moduli (GPa) = 82.22473 22.75412 79.12201
#
# Poissons Ratio (x) = 0.10926 0.45957
# Poissons Ratio (y) = 0.39482 0.76919
# Poissons Ratio (z) = 0.47759 0.22121
#
# Static dielectric constant tensor:
#      x y z
#    x 3.609590 0.000000 -0.003720 
#    y 0.000000 2.803080 -0.000010 
#    z -0.003720 -0.000010 3.480020 
# 
# 
# High freq. dielectric constant tensor:
#      x y z
#    x 1.700670 0.000000 -0.000980 
#    y 0.000000 1.629460 0.000000 
#    z -0.000980 0.000000 1.696530 
# 
# From -- ./inp_files/247333.got.cif
#   From: 2010.06.25/outbox.cif.g09.slc.cpg/sg12_124_cif.got.tgz:247333.got - 2010.06.28 00:19:55.
