data_PCOD8095416
_publ_section_title
;
Structure prediction by ZEFSAII (Michael W. Deem and Ramdas Pophale) SiO2 
 PCOD8095416
Probable space group: C 2/M
;
_chemical_formula_sum "Si O2"
_cell_formula_units_Z 56
_cell_length_a 20.926151
_cell_length_b 9.260056
_cell_length_c 29.286859
_cell_angle_alpha 90.000000
_cell_angle_beta 31.498013
_cell_angle_gamma 90.000000
_cell_volume 2965.079126
_symmetry_space_group_name_H-M "C 2/M"
_symmetry_group_IT_number 12
_symmetry_cell_setting 'monoclinic'
loop_
_space_group_symop_operation_xyz
x,y,z
-x,y,-z
-x,-y,-z
x,-y,z
1/2+x,1/2+y,z
1/2-x,1/2+y,-z
1/2-x,1/2-y,-z
1/2+x,1/2-y,z
loop_
_atom_site_type_symbol
_atom_site_label
_atom_site_fract_x
_atom_site_fract_y
_atom_site_fract_z
Si Si1 0.084793 0.333189 0.408394
Si Si2 0.848293 0.168140 0.224383
Si Si3 0.382775 0.164629 0.462075
Si Si4 0.019321 0.170942 0.041105
Si Si5 0.497426 0.339230 0.220878
Si Si6 0.345417 0.168672 0.382354
Si Si7 0.228912 0.335075 0.966299
O O1 0.103354 0.500000 0.410802
O O2 0.218772 0.259066 0.319184
O O3 0.000000 0.261415 0.500000
O O4 0.016025 0.313884 0.402252
O O5 0.954330 0.204413 0.196173
O O6 0.899696 0.219530 0.143623
O O7 0.820941 0.000000 0.237209
O O8 0.389583 0.215620 0.405723
O O9 0.284395 0.258234 0.550053
O O10 0.338731 0.000000 0.492487
O O11 0.043422 0.000000 0.032157
O O12 0.135605 0.255699 0.989516
O O13 0.000000 0.212986 0.000000
O O14 0.447165 0.500000 0.262872
O O15 0.447572 0.222142 0.285891
O O16 0.642148 0.336543 0.137950
O O17 0.329523 0.000000 0.386469
O O18 0.185844 0.500000 0.002489
O O19 0.250000 0.250000 0.000000
#
# Coordination Sequence:
#
# PCOD8095416 Si02
#       7
#     8   8   8   8   8   8   8
#     4   9  16  27  50  77  99 132 177 222 262 316
#     4   9  17  32  53  79 107 138 184 231 276 335
#     4   9  18  33  51  74 106 140 177 222 274 327
#     4  10  21  38  60  86 118 154 191 239 297 351
#     4  10  20  35  56  79 106 142 184 229 278 336
#     4  10  20  32  50  77 107 140 179 225 274 330
#     4  11  22  38  61  85 114 150 192 240 291 350
#
# _framework density 18.886510999999999
#
# number of rings (size 3 to 8) (size 9 to 14) (size 15 to 20)
#    0.000    2.286    1.429    1.714    0.000    5.429 
#    0.000    2.857    0.000    4.714    0.000    0.000 
#    0.000    0.000    0.000    0.000    0.000    0.000 
#
# Total GULP energy -347093.749736 kJ/mol
# GULP energy per Si atom -12396.205348 kJ/mol
# Density = 1.884352 g / cm^3
# Si number density = 18.886511 Si / 1000 Ang^3
#
#
#
# Elastic Constant Matrix: (Units=GPa)
#
#
# Indices 1 2 3 4 5 6 
#
# 1 106.8671 37.0723 60.7637 0.0018 -1.8781 -0.0041
# 2 37.0723 61.4768 30.1844 0.0060 0.5301 -0.0122
# 3 60.7637 30.1844 136.0818 0.0010 1.7041 -0.0039
# 4 0.0018 0.0060 0.0010 26.9125 -0.0010 -0.7172
# 5 -1.8781 0.5301 1.7041 -0.0010 32.1101 0.0046
# 6 -0.0041 -0.0122 -0.0039 -0.7172 0.0046 25.3198
#
#
#
# Elastic Compliance Matrix: (Units=1/GPa)
#
#
# Indices 1 2 3 4 5 6 
#
# 1 0.014421 -0.006214 -0.005076 0.000001 0.001215 -0.000002
# 2 -0.006214 0.020933 -0.001861 -0.000004 -0.000610 0.000009
# 3 -0.005076 -0.001861 0.010038 0.000000 -0.000799 0.000000
# 4 0.000001 -0.000004 0.000000 0.037185 0.000001 0.001053
# 5 0.001215 -0.000610 -0.000799 0.000001 0.031266 -0.000006
# 6 -0.000002 0.000009 0.000000 0.001053 -0.000006 0.039525
#
#
# Mechanical properties :
#
#
# Convention : Reuss Voigt Hill
#
# Bulk Modulus (GPa) = 52.38566 62.27406 57.32986
# Shear Modulus (GPa) = 26.87704 28.62883 27.75294
#
# Velocity S-wave (km/s) = 3.77647 3.89760 3.83751
# Velocity P-wave (km/s) = 6.84200 7.30064 7.07504
#
# Compressibility (1/GPa) = 0.01908919
#
# Stress axis : x y z
#
# Youngs Moduli (GPa) = 69.34478 47.77254 99.62374
#
# Poissons Ratio (x) = 0.29687 0.50569
# Poissons Ratio (y) = 0.43093 0.18536
# Poissons Ratio (z) = 0.35199 0.08888
#
# Static dielectric constant tensor:
#      x y z
#    x 3.483260 0.000000 -0.021740 
#    y 0.000000 3.226350 0.000000 
#    z -0.021740 0.000000 3.667530 
# 
# 
# High freq. dielectric constant tensor:
#      x y z
#    x 1.733710 0.000000 0.000010 
#    y 0.000000 1.699830 0.000000 
#    z 0.000010 0.000000 1.742220 
# 
# From -- ./inp_files/280455.got.cif
#   From: 2010.06.25/outbox.cif.g09.slc.cpg/sg12_141_cif.got.tgz:280455.got - 2010.06.28 00:19:55.
