data_PCOD8095951
_publ_section_title
;
Structure prediction by ZEFSAII (Michael W. Deem and Ramdas Pophale) SiO2 
 PCOD8095951
Probable space group: C 2/M
;
_chemical_formula_sum "Si O2"
_cell_formula_units_Z 56
_cell_length_a 14.463975
_cell_length_b 8.607685
_cell_length_c 34.664942
_cell_angle_alpha 90.000000
_cell_angle_beta 136.469861
_cell_angle_gamma 90.000000
_cell_volume 2972.468894
_symmetry_space_group_name_H-M "C 2/M"
_symmetry_group_IT_number 12
_symmetry_cell_setting 'monoclinic'
loop_
_space_group_symop_operation_xyz
x,y,z
-x,y,-z
-x,-y,-z
x,-y,z
1/2+x,1/2+y,z
1/2-x,1/2+y,-z
1/2-x,1/2-y,-z
1/2+x,1/2-y,z
loop_
_atom_site_type_symbol
_atom_site_label
_atom_site_fract_x
_atom_site_fract_y
_atom_site_fract_z
Si Si1 0.128397 0.182727 0.643315
Si Si2 0.371457 0.822038 0.437631
Si Si3 0.665398 0.676921 0.440635
Si Si4 0.357730 0.816336 0.857304
Si Si5 0.347903 0.816771 0.767357
Si Si6 0.146110 0.815677 0.938214
Si Si7 0.649802 0.815366 0.855726
O O1 0.161756 0.219766 0.609357
O O2 0.238886 0.259323 0.705288
O O3 0.981431 0.254605 0.608050
O O4 0.129109 0.000000 0.650306
O O5 0.500000 0.756786 0.500000
O O6 0.238610 0.804758 0.422432
O O7 0.400252 0.000000 0.434371
O O8 0.646218 0.500000 0.446998
O O9 0.750000 0.750000 0.500000
O O10 0.310828 0.769038 0.799927
O O11 0.498624 0.732968 0.908195
O O12 0.246335 0.761861 0.853674
O O13 0.379889 0.000000 0.867437
O O14 0.497150 0.759681 0.800914
O O15 0.345014 0.000000 0.762444
O O16 0.186896 0.741741 0.909607
O O17 0.155810 0.000000 0.938281
O O18 0.250000 0.750000 0.000000
O O19 0.665066 0.000000 0.858489
#
# Coordination Sequence:
#
# PCOD8095951 Si02
#       7
#     8   8   8   8   8   8   8
#     4  10  20  35  55  78 102 137 181 223 268 329
#     4  10  20  34  50  72 104 135 166 216 275 326
#     4  10  20  33  51  72  99 133 170 211 264 324
#     4  10  20  37  60  85 114 151 190 235 284 334
#     4   8  18  36  55  77 109 141 178 230 281 328
#     4  11  22  38  59  87 121 156 194 235 280 331
#     4  10  20  37  59  83 114 152 190 235 285 334
#
# _framework density 18.839556999999999
#
# number of rings (size 3 to 8) (size 9 to 14) (size 15 to 20)
#    0.000    2.143    1.429    3.000    0.000    2.571 
#    0.000    8.571    0.000    0.000    0.000    0.000 
#    0.000    0.000    0.000    0.000    0.000    0.000 
#
# Total GULP energy -347159.838551 kJ/mol
# GULP energy per Si atom -12398.565663 kJ/mol
# Density = 1.879668 g / cm^3
# Si number density = 18.839557 Si / 1000 Ang^3
#
#
#
# Elastic Constant Matrix: (Units=GPa)
#
#
# Indices 1 2 3 4 5 6 
#
# 1 121.8334 8.0317 59.9441 0.0000 -0.7791 0.0000
# 2 8.0317 32.0204 14.1132 0.0000 2.5391 0.0000
# 3 59.9441 14.1132 166.0400 0.0000 10.5494 0.0000
# 4 0.0000 0.0000 0.0000 24.0557 0.0000 -3.6026
# 5 -0.7791 2.5391 10.5494 0.0000 21.8484 0.0000
# 6 0.0000 0.0000 0.0000 -3.6026 0.0000 29.9690
#
#
#
# Elastic Compliance Matrix: (Units=1/GPa)
#
#
# Indices 1 2 3 4 5 6 
#
# 1 0.010117 -0.001085 -0.003705 0.000000 0.002276 0.000000
# 2 -0.001085 0.032697 -0.002211 0.000000 -0.002771 0.000000
# 3 -0.003705 -0.002211 0.007779 0.000000 -0.003631 0.000000
# 4 0.000000 0.000000 0.000000 0.042332 0.000000 0.005089
# 5 0.002276 -0.002771 -0.003631 0.000000 0.047926 0.000000
# 6 0.000000 0.000000 0.000000 0.005089 0.000000 0.033980
#
#
# Mechanical properties :
#
#
# Convention : Reuss Voigt Hill
#
# Bulk Modulus (GPa) = 27.33009 53.78575 40.55792
# Shear Modulus (GPa) = 24.87198 31.02829 27.95013
#
# Velocity S-wave (km/s) = 3.63740 4.06270 3.85592
# Velocity P-wave (km/s) = 5.67266 7.11468 6.43420
#
# Compressibility (1/GPa) = 0.03658971
#
# Stress axis : x y z
#
# Youngs Moduli (GPa) = 98.84538 30.58419 128.55445
#
# Poissons Ratio (x) = 0.03319 0.47626
# Poissons Ratio (y) = 0.10726 0.28428
# Poissons Ratio (z) = 0.36620 0.06763
#
# Static dielectric constant tensor:
#      x y z
#    x 3.397510 0.000000 0.149040 
#    y 0.000000 3.373230 0.000000 
#    z 0.149040 0.000000 3.720270 
# 
# 
# High freq. dielectric constant tensor:
#      x y z
#    x 1.740890 0.000000 0.003370 
#    y 0.000000 1.718860 0.000000 
#    z 0.003370 0.000000 1.736470 
# 
# From -- ./inp_files/375126.got.cif
#   From: 2010.06.25/outbox.cif.g09.slc.cpg/sg12_188_cif.got.tgz:375126.got - 2010.06.28 00:19:55.
