data_PCOD8095442
_publ_section_title
;
Structure prediction by ZEFSAII (Michael W. Deem and Ramdas Pophale) SiO2 
 PCOD8095442
Probable space group: C 2/M
;
_chemical_formula_sum "Si O2"
_cell_formula_units_Z 56
_cell_length_a 27.480953
_cell_length_b 20.488180
_cell_length_c 18.504494
_cell_angle_alpha 90.000000
_cell_angle_beta 162.044416
_cell_angle_gamma 90.000000
_cell_volume 3211.864563
_symmetry_space_group_name_H-M "C 2/M"
_symmetry_group_IT_number 12
_symmetry_cell_setting 'monoclinic'
loop_
_space_group_symop_operation_xyz
x,y,z
-x,y,-z
-x,-y,-z
x,-y,z
1/2+x,1/2+y,z
1/2-x,1/2+y,-z
1/2-x,1/2-y,-z
1/2+x,1/2-y,z
loop_
_atom_site_type_symbol
_atom_site_label
_atom_site_fract_x
_atom_site_fract_y
_atom_site_fract_z
Si Si1 0.961388 0.073897 0.029781
Si Si2 0.405430 0.668755 0.686225
Si Si3 0.321145 0.334308 0.040111
Si Si4 0.444220 0.924507 0.339921
Si Si5 0.850739 0.746555 0.741141
Si Si6 0.463199 0.733035 0.370641
Si Si7 0.815183 0.666931 0.381124
O O1 0.823565 0.125611 0.853347
O O2 0.915240 0.000000 0.986196
O O3 0.000000 0.077594 0.000000
O O4 0.104735 0.099752 0.283466
O O5 0.252656 0.681301 0.419679
O O6 0.418867 0.728057 0.761857
O O7 0.561589 0.670641 0.860103
O O8 0.240380 0.405769 0.928520
O O9 0.182179 0.282689 0.831331
O O10 0.419729 0.323394 0.252830
O O11 0.500000 0.905724 0.500000
O O12 0.539711 0.884711 0.412301
O O13 0.468694 0.000000 0.358085
O O14 0.744351 0.804983 0.625910
O O15 0.000000 0.726323 0.000000
O O16 0.500000 0.700400 0.500000
O O17 0.625476 0.770342 0.579406
#
# Coordination Sequence:
#
# PCOD8095442 Si02
#       7
#     8   8   8   8   8   8   8
#     4  11  21  33  53  81 114 148 180 216 266 328
#     4  11  20  35  53  76 113 145 179 231 272 329
#     4  10  20  32  52  77 104 140 182 216 274 323
#     4  10  21  34  53  79 111 146 179 223 271 325
#     4  11  22  33  52  81 113 144 183 227 280 322
#     4  10  20  32  51  77 108 139 172 224 271 325
#     4  11  17  35  51  79 111 142 174 219 272 322
#
# _framework density 17.435355999999999
#
# number of rings (size 3 to 8) (size 9 to 14) (size 15 to 20)
#    0.000    1.429    4.286    3.857    0.000    1.714 
#    0.000    0.000    0.000    0.857    0.000    0.000 
#    0.000    0.000    0.000    0.000    0.000    0.000 
#
# Total GULP energy -346931.463709 kJ/mol
# GULP energy per Si atom -12390.409418 kJ/mol
# Density = 1.739567 g / cm^3
# Si number density = 17.435356 Si / 1000 Ang^3
#
#
#
# Elastic Constant Matrix: (Units=GPa)
#
#
# Indices 1 2 3 4 5 6 
#
# 1 94.0708 36.1722 50.0705 0.0000 -0.7308 0.0000
# 2 36.1722 83.1862 54.1852 0.0000 -7.6327 0.0000
# 3 50.0705 54.1852 103.1429 0.0000 -5.7877 0.0000
# 4 0.0000 0.0000 0.0000 27.6405 0.0000 0.4306
# 5 -0.7308 -7.6327 -5.7877 0.0000 31.4444 0.0000
# 6 0.0000 0.0000 0.0000 0.4306 0.0000 17.7182
#
#
#
# Elastic Compliance Matrix: (Units=1/GPa)
#
#
# Indices 1 2 3 4 5 6 
#
# 1 0.014769 -0.002781 -0.005787 0.000000 -0.001397 0.000000
# 2 -0.002781 0.019027 -0.008478 0.000000 0.002994 0.000000
# 3 -0.005787 -0.008478 0.017011 0.000000 0.000939 0.000000
# 4 0.000000 0.000000 0.000000 0.036193 0.000000 -0.000880
# 5 -0.001397 0.002994 0.000939 0.000000 0.032669 0.000000
# 6 0.000000 0.000000 0.000000 -0.000880 0.000000 0.056461
#
#
# Mechanical properties :
#
#
# Convention : Reuss Voigt Hill
#
# Bulk Modulus (GPa) = 59.82341 62.36174 61.09257
# Shear Modulus (GPa) = 23.17033 24.69209 23.93121
#
# Velocity S-wave (km/s) = 3.64940 3.76734 3.70884
# Velocity P-wave (km/s) = 7.22105 7.40060 7.31137
#
# Compressibility (1/GPa) = 0.01671586
#
# Stress axis : x y z
#
# Youngs Moduli (GPa) = 67.70968 52.55588 58.78487
#
# Poissons Ratio (x) = 0.14614 0.34020
# Poissons Ratio (y) = 0.18827 0.49838
# Poissons Ratio (z) = 0.39185 0.44557
#
# Static dielectric constant tensor:
#      x y z
#    x 3.405690 0.000000 0.067060 
#    y 0.000000 3.230740 0.000000 
#    z 0.067060 0.000000 3.465110 
# 
# 
# High freq. dielectric constant tensor:
#      x y z
#    x 1.686300 0.000000 0.015560 
#    y 0.000000 1.639490 0.000000 
#    z 0.015560 0.000000 1.663370 
# 
# From -- ./inp_files/294106.got.cif
#   From: 2010.06.25/outbox.cif.g09.slc.cpg/sg12_148_cif.got.tgz:294106.got - 2010.06.28 00:19:55.
