data_PCOD8095157
_publ_section_title
;
Structure prediction by ZEFSAII (Michael W. Deem and Ramdas Pophale) SiO2 
 PCOD8095157
Probable space group: C 2/M
;
_chemical_formula_sum "Si O2"
_cell_formula_units_Z 48
_cell_length_a 14.319632
_cell_length_b 9.347246
_cell_length_c 24.140607
_cell_angle_alpha 90.000000
_cell_angle_beta 52.914395
_cell_angle_gamma 90.000000
_cell_volume 2577.642059
_symmetry_space_group_name_H-M "C 2/M"
_symmetry_group_IT_number 12
_symmetry_cell_setting 'monoclinic'
loop_
_space_group_symop_operation_xyz
x,y,z
-x,y,-z
-x,-y,-z
x,-y,z
1/2+x,1/2+y,z
1/2-x,1/2+y,-z
1/2-x,1/2-y,-z
1/2+x,1/2-y,z
loop_
_atom_site_type_symbol
_atom_site_label
_atom_site_fract_x
_atom_site_fract_y
_atom_site_fract_z
Si Si1 0.034536 0.669057 0.256486
Si Si2 0.228145 0.329583 0.632865
Si Si3 0.906429 0.829156 0.661711
Si Si4 0.595282 0.666970 0.010408
Si Si5 0.637670 0.833758 0.102524
Si Si6 0.405037 0.342881 0.485746
O O1 0.047176 0.500000 0.260450
O O2 0.114156 0.751154 0.272578
O O3 0.076350 0.715394 0.180926
O O4 0.902998 0.725678 0.313136
O O5 0.233613 0.500000 0.626491
O O6 0.298461 0.280921 0.662131
O O7 0.290232 0.265164 0.554135
O O8 0.028899 0.769492 0.590149
O O9 0.910177 0.000000 0.667939
O O10 0.577705 0.500000 0.028362
O O11 0.575862 0.748290 0.075085
O O12 0.500000 0.721999 0.000000
O O13 0.724683 0.701508 0.941247
O O14 0.617003 0.000000 0.097981
O O15 0.500000 0.358068 0.500000
O O16 0.366365 0.500000 0.479740
#
# Coordination Sequence:
#
# PCOD8095157 Si02
#       6
#     8   8   8   8   8   8
#     4  10  20  32  46  68  99 127 148 182 235 281
#     4   8  15  29  47  65  89 124 159 189 230 280
#     4   9  17  30  48  68  89 119 162 200 225 263
#     4   9  18  34  55  74  92 119 153 187 225 267
#     4   9  19  34  49  70  99 124 150 185 223 271
#     4   7  11  23  44  65  84 113 157 200 227 258
#
# _framework density 18.621670000000002
#
# number of rings (size 3 to 8) (size 9 to 14) (size 15 to 20)
#    0.000    3.333    0.000    2.000    0.000    3.000 
#    0.000    0.833    0.000    4.500    0.000    0.000 
#    0.000    0.000    0.000    0.000    0.000    0.000 
#
# Total GULP energy -297368.585033 kJ/mol
# GULP energy per Si atom -12390.357710 kJ/mol
# Density = 1.857929 g / cm^3
# Si number density = 18.621670 Si / 1000 Ang^3
#
#
#
# Elastic Constant Matrix: (Units=GPa)
#
#
# Indices 1 2 3 4 5 6 
#
# 1 71.3928 21.1639 27.9685 0.0000 13.6378 0.0000
# 2 21.1639 26.2398 27.1724 0.0000 10.6883 0.0000
# 3 27.9685 27.1724 103.2314 0.0000 16.8120 0.0000
# 4 0.0000 0.0000 0.0000 16.8555 0.0000 3.5864
# 5 13.6378 10.6883 16.8120 0.0000 27.5341 0.0000
# 6 0.0000 0.0000 0.0000 3.5864 0.0000 20.4807
#
#
#
# Elastic Compliance Matrix: (Units=1/GPa)
#
#
# Indices 1 2 3 4 5 6 
#
# 1 0.018895 -0.012422 -0.001233 0.000000 -0.003784 0.000000
# 2 -0.012422 0.065290 -0.011876 0.000000 -0.011941 0.000000
# 3 -0.001233 -0.011876 0.013655 0.000000 -0.003116 0.000000
# 4 0.000000 0.000000 0.000000 0.061624 0.000000 -0.010791
# 5 -0.003784 -0.011941 -0.003116 0.000000 0.044731 0.000000
# 6 0.000000 0.000000 0.000000 -0.010791 0.000000 0.050716
#
#
# Mechanical properties :
#
#
# Convention : Reuss Voigt Hill
#
# Bulk Modulus (GPa) = 21.37703 39.27487 30.32595
# Shear Modulus (GPa) = 15.54891 21.27799 18.41345
#
# Velocity S-wave (km/s) = 2.89275 3.38397 3.14796
# Velocity P-wave (km/s) = 4.76046 6.03366 5.43448
#
# Compressibility (1/GPa) = 0.04677917
#
# Stress axis : x y z
#
# Youngs Moduli (GPa) = 52.92307 15.31618 73.23555
#
# Poissons Ratio (x) = 0.19025 0.09034
# Poissons Ratio (y) = 0.65739 0.86971
# Poissons Ratio (z) = 0.06528 0.18189
#
# Static dielectric constant tensor:
#      x y z
#    x 3.360630 0.000000 -0.095790 
#    y 0.000000 2.963430 0.000000 
#    z -0.095790 0.000000 3.671210 
# 
# 
# High freq. dielectric constant tensor:
#      x y z
#    x 1.717550 0.000000 0.000520 
#    y 0.000000 1.678350 0.000000 
#    z 0.000520 0.000000 1.731290 
# 
# From -- ./inp_files/261772.got.cif
#   From: 2010.06.25/outbox.cif.g09.slc.cpg/sg12_131_cif.got.tgz:261772.got - 2010.06.28 00:19:55.
