data_PCOD8095976
_publ_section_title
;
Structure prediction by ZEFSAII (Michael W. Deem and Ramdas Pophale) SiO2 
 PCOD8095976
Probable space group: C 2/M
;
_chemical_formula_sum "Si O2"
_cell_formula_units_Z 56
_cell_length_a 24.162976
_cell_length_b 9.453368
_cell_length_c 16.232528
_cell_angle_alpha 90.000000
_cell_angle_beta 122.723052
_cell_angle_gamma 90.000000
_cell_volume 3119.396693
_symmetry_space_group_name_H-M "C 2/M"
_symmetry_group_IT_number 12
_symmetry_cell_setting 'monoclinic'
loop_
_space_group_symop_operation_xyz
x,y,z
-x,y,-z
-x,-y,-z
x,-y,z
1/2+x,1/2+y,z
1/2-x,1/2+y,-z
1/2-x,1/2-y,-z
1/2+x,1/2-y,z
loop_
_atom_site_type_symbol
_atom_site_label
_atom_site_fract_x
_atom_site_fract_y
_atom_site_fract_z
Si Si1 0.258057 0.664781 0.879056
Si Si2 0.982969 0.838439 0.575773
Si Si3 0.985309 0.664423 0.246688
Si Si4 0.736491 0.836384 0.281095
Si Si5 0.333850 0.339336 0.503233
Si Si6 0.129235 0.662528 0.317578
Si Si7 0.153595 0.337560 0.933267
O O1 0.273483 0.500000 0.878981
O O2 0.248141 0.737444 0.783339
O O3 0.191979 0.689150 0.878640
O O4 0.319884 0.735972 0.974246
O O5 0.905804 0.822128 0.524093
O O6 0.000000 0.777106 0.500000
O O7 0.022440 0.749011 0.674873
O O8 0.006703 0.000000 0.603384
O O9 0.985844 0.500000 0.269923
O O10 0.923100 0.700355 0.139378
O O11 0.052575 0.710151 0.253589
O O12 0.783945 0.787761 0.393113
O O13 0.661527 0.814015 0.253462
O O14 0.748960 0.000000 0.266589
O O15 0.318392 0.500000 0.516143
O O16 0.327817 0.246203 0.580482
O O17 0.134588 0.500000 0.348282
O O18 0.163064 0.500000 0.969133
#
# Coordination Sequence:
#
# PCOD8095976 Si02
#       7
#     8   8   8   8   8   8   8
#     4  10  21  35  53  78 100 124 163 207 250 297
#     4   9  18  30  44  69 103 134 166 200 237 289
#     4   9  18  33  53  73  96 129 165 202 246 292
#     4  10  20  33  51  74 102 134 168 204 246 292
#     4   9  18  31  47  70 101 137 171 202 241 287
#     4   9  18  33  51  74 101 132 169 205 242 289
#     4   9  19  37  56  74  99 128 161 203 253 302
#
# _framework density 17.952189000000001
#
# number of rings (size 3 to 8) (size 9 to 14) (size 15 to 20)
#    0.000    2.714    0.000    0.857    2.000    2.571 
#    0.000    0.714    0.000    4.286    0.000    0.000 
#    0.000    0.000    0.000    0.000    0.000    0.000 
#
# Total GULP energy -347202.725612 kJ/mol
# GULP energy per Si atom -12400.097343 kJ/mol
# Density = 1.791133 g / cm^3
# Si number density = 17.952189 Si / 1000 Ang^3
#
#
#
# Elastic Constant Matrix: (Units=GPa)
#
#
# Indices 1 2 3 4 5 6 
#
# 1 49.0323 29.6829 42.1987 0.0000 4.1554 0.0000
# 2 29.6829 70.5434 49.9089 0.0000 0.6024 0.0000
# 3 42.1987 49.9089 85.4303 0.0000 9.6519 0.0000
# 4 0.0000 0.0000 0.0000 37.7987 0.0000 -4.0233
# 5 4.1554 0.6024 9.6519 0.0000 27.3893 0.0000
# 6 0.0000 0.0000 0.0000 -4.0233 0.0000 21.0341
#
#
#
# Elastic Compliance Matrix: (Units=1/GPa)
#
#
# Indices 1 2 3 4 5 6 
#
# 1 0.036263 -0.004407 -0.015337 0.000000 0.000000 0.000000
# 2 -0.004407 0.025275 -0.013124 0.000000 0.004738 0.000000
# 3 -0.015337 -0.013124 0.027758 0.000000 -0.007166 0.000000
# 4 0.000000 0.000000 0.000000 0.027006 0.000000 0.005166
# 5 0.000000 0.004738 -0.007166 0.000000 0.038932 0.000000
# 6 0.000000 0.000000 0.000000 0.005166 0.000000 0.048530
#
#
# Mechanical properties :
#
#
# Convention : Reuss Voigt Hill
#
# Bulk Modulus (GPa) = 42.44782 49.84301 46.14541
# Shear Modulus (GPa) = 18.02761 22.79213 20.40987
#
# Velocity S-wave (km/s) = 3.17235 3.56701 3.37545
# Velocity P-wave (km/s) = 6.09218 6.69248 6.39938
#
# Compressibility (1/GPa) = 0.02355833
#
# Stress axis : x y z
#
# Youngs Moduli (GPa) = 27.57666 39.56519 36.02565
#
# Poissons Ratio (x) = 0.17438 0.55253
# Poissons Ratio (y) = 0.12154 0.47279
# Poissons Ratio (z) = 0.42295 0.51925
#
# Static dielectric constant tensor:
#      x y z
#    x 3.472630 0.000000 0.081410 
#    y 0.000000 3.370470 0.000000 
#    z 0.081410 0.000000 3.184260 
# 
# 
# High freq. dielectric constant tensor:
#      x y z
#    x 1.700310 0.000000 0.006470 
#    y 0.000000 1.692650 0.000000 
#    z 0.006470 0.000000 1.679830 
# 
# From -- ./inp_files/238335.got.cif
#   From: 2010.06.25/outbox.cif.g09.slc.cpg/sg12_120_cif.got.tgz:238335.got - 2010.06.28 00:19:55.
