data_PCOD8095634
_publ_section_title
;
Structure prediction by ZEFSAII (Michael W. Deem and Ramdas Pophale) SiO2 
 PCOD8095634
Probable space group: C 2/M
;
_chemical_formula_sum "Si O2"
_cell_formula_units_Z 56
_cell_length_a 16.958355
_cell_length_b 24.136324
_cell_length_c 9.554935
_cell_angle_alpha 90.000000
_cell_angle_beta 50.299380
_cell_angle_gamma 90.000000
_cell_volume 3009.058393
_symmetry_space_group_name_H-M "C 2/M"
_symmetry_group_IT_number 12
_symmetry_cell_setting 'monoclinic'
loop_
_space_group_symop_operation_xyz
x,y,z
-x,y,-z
-x,-y,-z
x,-y,z
1/2+x,1/2+y,z
1/2-x,1/2+y,-z
1/2-x,1/2-y,-z
1/2+x,1/2-y,z
loop_
_atom_site_type_symbol
_atom_site_label
_atom_site_fract_x
_atom_site_fract_y
_atom_site_fract_z
Si Si1 0.882867 0.327660 0.608670
Si Si2 0.451117 0.648668 0.706835
Si Si3 0.044703 0.064982 0.798345
Si Si4 0.272469 0.188489 0.014042
Si Si5 0.245468 0.133497 0.530754
Si Si6 0.893875 0.763884 0.376341
Si Si7 0.890550 0.667255 0.155635
O O1 0.822653 0.368984 0.573826
O O2 0.876052 0.265414 0.548863
O O3 0.000000 0.345513 0.500000
O O4 0.829356 0.337136 0.817127
O O5 0.500000 0.642785 0.500000
O O6 0.471394 0.591894 0.766414
O O7 0.329946 0.655005 0.833444
O O8 0.502121 0.700147 0.731477
O O9 0.159749 0.087629 0.649449
O O10 0.047074 0.000000 0.770699
O O11 0.000000 0.080945 0.000000
O O12 0.345811 0.189216 0.062823
O O13 0.250000 0.250000 0.000000
O O14 0.199982 0.195831 0.559547
O O15 0.314052 0.122432 0.313966
O O16 0.910469 0.718529 0.238244
O O17 0.000000 0.638723 0.000000
#
# Coordination Sequence:
#
# PCOD8095634 Si02
#       7
#     8   8   8   8   8   8   8
#     4  11  20  31  47  73 107 141 178 214 250 301
#     4  11  22  36  53  80 112 140 175 220 268 316
#     4  10  22  41  63  83 101 128 172 225 280 334
#     4  12  20  29  48  74 105 144 180 213 253 298
#     4  10  20  36  53  73 104 142 177 216 269 323
#     4  10  20  33  48  71 111 152 182 212 252 310
#     4  11  21  32  48  74 109 149 185 212 247 307
#
# _framework density 18.610472000000001
#
# number of rings (size 3 to 8) (size 9 to 14) (size 15 to 20)
#    0.000    1.286    0.000   10.714    0.000    3.714 
#    0.000    0.000    0.000    0.857    0.000    2.000 
#    0.000    0.000    0.000    0.000    0.000    0.000 
#
# Total GULP energy -347170.805081 kJ/mol
# GULP energy per Si atom -12398.957324 kJ/mol
# Density = 1.856811 g / cm^3
# Si number density = 18.610472 Si / 1000 Ang^3
#
#
#
# Elastic Constant Matrix: (Units=GPa)
#
#
# Indices 1 2 3 4 5 6 
#
# 1 119.8350 30.4347 63.0274 0.0000 -1.9499 0.0000
# 2 30.4347 60.7265 33.7628 0.0000 -1.9128 0.0000
# 3 63.0274 33.7628 153.6586 0.0000 -7.2459 0.0000
# 4 0.0000 0.0000 0.0000 14.4069 0.0000 6.2040
# 5 -1.9499 -1.9128 -7.2459 0.0000 42.7596 0.0000
# 6 0.0000 0.0000 0.0000 6.2040 0.0000 23.4489
#
#
#
# Elastic Compliance Matrix: (Units=1/GPa)
#
#
# Indices 1 2 3 4 5 6 
#
# 1 0.011262 -0.003506 -0.003863 0.000000 -0.000298 0.000000
# 2 -0.003506 0.019851 -0.002913 0.000000 0.000235 0.000000
# 3 -0.003863 -0.002913 0.008788 0.000000 0.001183 0.000000
# 4 0.000000 0.000000 0.000000 0.078336 0.000000 -0.020726
# 5 -0.000298 0.000235 0.001183 0.000000 0.023584 0.000000
# 6 0.000000 0.000000 0.000000 -0.020726 0.000000 0.048129
#
#
# Mechanical properties :
#
#
# Convention : Reuss Voigt Hill
#
# Bulk Modulus (GPa) = 51.71154 65.40776 58.55965
# Shear Modulus (GPa) = 23.04566 29.92276 26.48421
#
# Velocity S-wave (km/s) = 3.52279 4.01414 3.77647
# Velocity P-wave (km/s) = 6.66283 7.53037 7.10984
#
# Compressibility (1/GPa) = 0.01933804
#
# Stress axis : x y z
#
# Youngs Moduli (GPa) = 88.79243 50.37493 113.78732
#
# Poissons Ratio (x) = 0.17661 0.43959
# Poissons Ratio (y) = 0.31129 0.33143
# Poissons Ratio (z) = 0.34303 0.14673
#
# Static dielectric constant tensor:
#      x y z
#    x 3.769320 0.000000 0.026370 
#    y 0.000000 2.928740 0.000000 
#    z 0.026370 0.000000 3.228780 
# 
# 
# High freq. dielectric constant tensor:
#      x y z
#    x 1.747870 0.000000 -0.000510 
#    y 0.000000 1.654130 0.000000 
#    z -0.000510 0.000000 1.745120 
# 
# From -- ./inp_files/79075.got.cif
#   From: 2010.06.25/outbox.cif.g09.slc.cpg/sg12_40_cif.got.tgz:79075.got - 2010.06.28 00:19:55.
