data_PCOD8095549
_publ_section_title
;
Structure prediction by ZEFSAII (Michael W. Deem and Ramdas Pophale) SiO2 
 PCOD8095549
Probable space group: C 2/M
;
_chemical_formula_sum "Si O2"
_cell_formula_units_Z 48
_cell_length_a 15.027539
_cell_length_b 18.571359
_cell_length_c 9.497509
_cell_angle_alpha 90.000000
_cell_angle_beta 107.185706
_cell_angle_gamma 90.000000
_cell_volume 2532.239201
_symmetry_space_group_name_H-M "C 2/M"
_symmetry_group_IT_number 12
_symmetry_cell_setting 'monoclinic'
loop_
_space_group_symop_operation_xyz
x,y,z
-x,y,-z
-x,-y,-z
x,-y,z
1/2+x,1/2+y,z
1/2-x,1/2+y,-z
1/2-x,1/2-y,-z
1/2+x,1/2-y,z
loop_
_atom_site_type_symbol
_atom_site_label
_atom_site_fract_x
_atom_site_fract_y
_atom_site_fract_z
Si Si1 0.775682 0.417655 0.736949
Si Si2 0.423254 0.161431 0.343825
Si Si3 0.410806 0.317991 0.657296
Si Si4 0.550164 0.826998 0.164838
Si Si5 0.747354 0.081514 0.606337
Si Si6 0.612776 0.682175 0.680332
O O1 0.766898 0.500000 0.783087
O O2 0.870727 0.384053 0.838764
O O3 0.772540 0.411683 0.567643
O O4 0.692311 0.372093 0.769745
O O5 0.500000 0.178797 0.500000
O O6 0.478724 0.130773 0.234819
O O7 0.345117 0.106157 0.355666
O O8 0.375773 0.235352 0.264142
O O9 0.405428 0.242342 0.736506
O O10 0.338291 0.373028 0.696030
O O11 0.379317 0.308473 0.483076
O O12 0.516119 0.349310 0.699155
O O13 0.500000 0.800627 0.000000
O O14 0.768207 0.000000 0.659878
#
# Coordination Sequence:
#
# PCOD8095549 Si02
#       6
#     8   8   8   8   8   8
#     4  10  20  33  52  81 112 143 174 216 270 318
#     4  11  18  34  56  78 105 140 181 222 260 304
#     4   9  17  34  54  80 107 136 179 224 265 307
#     4  11  22  36  55  80 109 142 179 220 265 317
#     4  10  20  32  55  84 108 137 177 223 267 314
#     4   9  16  32  57  80 102 139 181 224 264 305
#
# _framework density 18.955556000000001
#
# number of rings (size 3 to 8) (size 9 to 14) (size 15 to 20)
#    0.000    2.000    5.000    1.000    0.000    4.667 
#    0.000   10.833    0.000    0.500    0.000    0.000 
#    0.000    0.000    0.000    0.000    0.000    0.000 
#
# Total GULP energy -297456.773791 kJ/mol
# GULP energy per Si atom -12394.032241 kJ/mol
# Density = 1.891241 g / cm^3
# Si number density = 18.955556 Si / 1000 Ang^3
#
#
#
# Elastic Constant Matrix: (Units=GPa)
#
#
# Indices 1 2 3 4 5 6 
#
# 1 103.0400 46.9853 17.1915 0.0000 9.9491 0.0000
# 2 46.9853 93.1642 17.6010 0.0000 15.7169 0.0000
# 3 17.1915 17.6010 34.9036 0.0000 2.5489 0.0000
# 4 0.0000 0.0000 0.0000 8.3166 0.0000 0.7645
# 5 9.9491 15.7169 2.5489 0.0000 12.7184 0.0000
# 6 0.0000 0.0000 0.0000 0.7645 0.0000 21.3104
#
#
#
# Elastic Compliance Matrix: (Units=1/GPa)
#
#
# Indices 1 2 3 4 5 6 
#
# 1 0.013037 -0.005453 -0.003470 0.000000 -0.002764 0.000000
# 2 -0.005453 0.017059 -0.004758 0.000000 -0.015861 0.000000
# 3 -0.003470 -0.004758 0.032608 0.000000 0.002059 0.000000
# 4 0.000000 0.000000 0.000000 0.120640 0.000000 -0.004328
# 5 -0.002764 -0.015861 0.002059 0.000000 0.099977 0.000000
# 6 0.000000 0.000000 0.000000 -0.004328 0.000000 0.047081
#
#
# Mechanical properties :
#
#
# Convention : Reuss Voigt Hill
#
# Bulk Modulus (GPa) = 28.29454 43.85149 36.07302
# Shear Modulus (GPa) = 13.53018 18.42439 15.97728
#
# Velocity S-wave (km/s) = 2.67457 3.12104 2.90639
# Velocity P-wave (km/s) = 4.94944 6.01431 5.50767
#
# Compressibility (1/GPa) = 0.03534251
#
# Stress axis : x y z
#
# Youngs Moduli (GPa) = 76.70236 58.62119 30.66705
#
# Poissons Ratio (x) = 0.31968 0.10640
# Poissons Ratio (y) = 0.41828 0.14591
# Poissons Ratio (z) = 0.26613 0.27892
#
# Static dielectric constant tensor:
#      x y z
#    x 3.829350 0.000000 -0.034660 
#    y 0.000000 3.473250 0.000000 
#    z -0.034660 0.000000 3.007230 
# 
# 
# High freq. dielectric constant tensor:
#      x y z
#    x 1.755500 0.000000 -0.001760 
#    y 0.000000 1.726190 0.000000 
#    z -0.001760 0.000000 1.682890 
# 
# From -- ./inp_files/63632.got.cif
#   From: 2010.06.25/outbox.cif.g09.slc.cpg/sg12_32_cif.got.tgz:63632.got - 2010.06.28 00:19:55.
