data_PCOD8095800
_publ_section_title
;
Structure prediction by ZEFSAII (Michael W. Deem and Ramdas Pophale) SiO2 
 PCOD8095800
Probable space group: C 2/M
;
_chemical_formula_sum "Si O2"
_cell_formula_units_Z 64
_cell_length_a 29.114466
_cell_length_b 13.688576
_cell_length_c 12.956454
_cell_angle_alpha 90.000000
_cell_angle_beta 44.989028
_cell_angle_gamma 90.000000
_cell_volume 3650.522906
_symmetry_space_group_name_H-M "C 2/M"
_symmetry_group_IT_number 12
_symmetry_cell_setting 'monoclinic'
loop_
_space_group_symop_operation_xyz
x,y,z
-x,y,-z
-x,-y,-z
x,-y,z
1/2+x,1/2+y,z
1/2-x,1/2+y,-z
1/2-x,1/2-y,-z
1/2+x,1/2-y,z
loop_
_atom_site_type_symbol
_atom_site_label
_atom_site_fract_x
_atom_site_fract_y
_atom_site_fract_z
Si Si1 0.739720 0.891305 0.979840
Si Si2 0.913265 0.115590 0.409407
Si Si3 0.226793 0.110262 0.305458
Si Si4 0.517333 0.114003 0.166862
Si Si5 0.485327 0.252768 0.639504
Si Si6 0.346832 0.714273 0.921754
Si Si7 0.640823 0.208550 0.881703
Si Si8 0.057078 0.227280 0.836920
O O1 0.775389 0.881620 0.814066
O O2 0.793889 0.867919 0.979566
O O3 0.712588 0.000000 0.042182
O O4 0.678497 0.819093 0.080521
O O5 0.840492 0.155103 0.546336
O O6 0.930207 0.142765 0.265476
O O7 0.961341 0.168362 0.412004
O O8 0.919133 0.000000 0.417316
O O9 0.288622 0.165344 0.253549
O O10 0.232886 0.000000 0.334296
O O11 0.515616 0.157711 0.285184
O O12 0.463789 0.170542 0.183443
O O13 0.499457 0.000000 0.198798
O O14 0.588476 0.127128 0.002119
O O15 0.500000 0.218075 0.500000
O O16 0.415385 0.306390 0.757739
O O17 0.355298 0.712172 0.032217
O O18 0.620418 0.257448 0.806629
O O19 0.000000 0.187263 0.000000
#
# Coordination Sequence:
#
# PCOD8095800 Si02
#       8
#     8   8   8   8   8   8   8   8
#     4   9  17  31  50  71  97 123 149 193 244 284
#     4  10  21  35  49  69  98 129 163 202 240 281
#     4   9  17  29  48  72  93 120 159 198 242 287
#     4   9  18  32  50  74 101 126 157 198 242 288
#     4  10  20  33  50  72  99 130 162 195 234 283
#     4   9  18  31  48  72  96 122 160 194 230 286
#     4   9  17  30  50  72  96 123 160 203 240 280
#     4   9  19  34  50  71  97 128 163 199 243 287
#
# _framework density 17.531735000000001
#
# number of rings (size 3 to 8) (size 9 to 14) (size 15 to 20)
#    0.000    2.750    0.000    1.875    0.000    7.500 
#    0.000    0.625    0.000    0.000    0.000    0.000 
#    0.000    0.000    0.000    0.000    0.000    0.000 
#
# Total GULP energy -396749.225323 kJ/mol
# GULP energy per Si atom -12398.413291 kJ/mol
# Density = 1.749183 g / cm^3
# Si number density = 17.531735 Si / 1000 Ang^3
#
#
#
# Elastic Constant Matrix: (Units=GPa)
#
#
# Indices 1 2 3 4 5 6 
#
# 1 115.6391 22.4585 40.2467 0.0000 -4.5104 0.0000
# 2 22.4585 59.3273 21.9769 0.0000 -6.1456 0.0000
# 3 40.2467 21.9769 91.8779 0.0000 -10.2910 0.0000
# 4 0.0000 0.0000 0.0000 17.7150 0.0000 -1.3924
# 5 -4.5104 -6.1456 -10.2910 0.0000 33.7356 0.0000
# 6 0.0000 0.0000 0.0000 -1.3924 0.0000 16.9862
#
#
#
# Elastic Compliance Matrix: (Units=1/GPa)
#
#
# Indices 1 2 3 4 5 6 
#
# 1 0.010533 -0.002519 -0.004043 0.000000 -0.000284 0.000000
# 2 -0.002519 0.019240 -0.003255 0.000000 0.002175 0.000000
# 3 -0.004043 -0.003255 0.013778 0.000000 0.003069 0.000000
# 4 0.000000 0.000000 0.000000 0.056815 0.000000 0.004657
# 5 -0.000284 0.002175 0.003069 0.000000 0.030937 0.000000
# 6 0.000000 0.000000 0.000000 0.004657 0.000000 0.059253
#
#
# Mechanical properties :
#
#
# Convention : Reuss Voigt Hill
#
# Bulk Modulus (GPa) = 41.81272 48.46761 45.14017
# Shear Modulus (GPa) = 22.91870 25.83153 24.37511
#
# Velocity S-wave (km/s) = 3.61954 3.84267 3.73277
# Velocity P-wave (km/s) = 6.43192 6.88432 6.66196
#
# Compressibility (1/GPa) = 0.02391617
#
# Stress axis : x y z
#
# Youngs Moduli (GPa) = 94.94062 51.97410 72.58202
#
# Poissons Ratio (x) = 0.13092 0.29346
# Poissons Ratio (y) = 0.23915 0.23627
# Poissons Ratio (z) = 0.38386 0.16919
#
# Static dielectric constant tensor:
#      x y z
#    x 3.415400 0.000000 -0.056410 
#    y 0.000000 2.998610 0.000000 
#    z -0.056410 0.000000 3.219410 
# 
# 
# High freq. dielectric constant tensor:
#      x y z
#    x 1.692270 0.000000 -0.005080 
#    y 0.000000 1.651080 0.000000 
#    z -0.005080 0.000000 1.668640 
# 
# From -- ./inp_files/189439.got.cif
#   From: 2010.06.25/outbox.cif.g09.slc.cpg/sg12_95_cif.got.tgz:189439.got - 2010.06.28 00:19:55.
