data_PCOD8095075
_publ_section_title
;
Structure prediction by ZEFSAII (Michael W. Deem and Ramdas Pophale) SiO2 
 PCOD8095075
Probable space group: C 2/M
;
_chemical_formula_sum "Si O2"
_cell_formula_units_Z 48
_cell_length_a 23.909945
_cell_length_b 22.659513
_cell_length_c 12.219027
_cell_angle_alpha 90.000000
_cell_angle_beta 158.760769
_cell_angle_gamma 90.000000
_cell_volume 2398.223095
_symmetry_space_group_name_H-M "C 2/M"
_symmetry_group_IT_number 12
_symmetry_cell_setting 'monoclinic'
loop_
_space_group_symop_operation_xyz
x,y,z
-x,y,-z
-x,-y,-z
x,-y,z
1/2+x,1/2+y,z
1/2-x,1/2+y,-z
1/2-x,1/2-y,-z
1/2+x,1/2-y,z
loop_
_atom_site_type_symbol
_atom_site_label
_atom_site_fract_x
_atom_site_fract_y
_atom_site_fract_z
Si Si1 0.209444 0.671725 0.218756
Si Si2 0.816217 0.811498 0.166277
Si Si3 0.028215 0.748890 0.290952
Si Si4 0.737949 0.831732 0.804998
Si Si5 0.173508 0.932835 0.186498
Si Si6 0.184330 0.066667 0.458319
O O1 0.253531 0.669636 0.170353
O O2 0.332350 0.713317 0.507667
O O3 0.207442 0.607471 0.268866
O O4 0.039369 0.701044 0.918732
O O5 0.000000 0.814391 0.500000
O O6 0.750000 0.750000 0.000000
O O7 0.742899 0.855597 0.939542
O O8 0.095837 0.713202 0.520271
O O9 0.895452 0.794248 0.081016
O O10 0.728673 0.887671 0.707932
O O11 0.206924 0.916970 0.373095
O O12 0.224544 0.000000 0.254316
O O13 0.993085 0.925078 0.830961
O O14 0.238163 0.000000 0.578454
#
# Coordination Sequence:
#
# PCOD8095075 Si02
#       6
#     8   8   8   8   8   8
#     4  11  19  34  50  80 105 136 173 207 253 308
#     4  12  18  28  51  75 108 138 165 203 252 307
#     4  10  20  31  53  74 110 138 165 209 260 300
#     4  11  19  34  50  80 105 136 173 207 253 308
#     4   9  18  35  57  75  98 136 176 213 252 301
#     4   9  18  35  57  75  98 136 176 213 252 301
#
# _framework density 20.014818999999999
#
# number of rings (size 3 to 8) (size 9 to 14) (size 15 to 20)
#    0.000    1.667    6.667    1.000    0.000    0.000 
#    0.000    7.500    0.000    5.000    0.000    2.333 
#    0.000    0.000    0.000    0.000    0.000    0.000 
#
# Total GULP energy -297328.035589 kJ/mol
# GULP energy per Si atom -12388.668150 kJ/mol
# Density = 1.996926 g / cm^3
# Si number density = 20.014819 Si / 1000 Ang^3
#
#
#
# Elastic Constant Matrix: (Units=GPa)
#
#
# Indices 1 2 3 4 5 6 
#
# 1 47.5160 42.4912 12.9315 0.0000 -18.5727 0.0000
# 2 42.4912 107.3251 49.8210 0.0000 -24.3361 0.0000
# 3 12.9315 49.8210 103.2854 0.0000 -11.0339 0.0000
# 4 0.0000 0.0000 0.0000 12.3930 0.0000 -6.3063
# 5 -18.5727 -24.3361 -11.0339 0.0000 24.7278 0.0000
# 6 0.0000 0.0000 0.0000 -6.3063 0.0000 21.5941
#
#
#
# Elastic Compliance Matrix: (Units=1/GPa)
#
#
# Indices 1 2 3 4 5 6 
#
# 1 0.038492 -0.012675 0.003203 0.000000 0.017866 0.000000
# 2 -0.012675 0.018893 -0.006885 0.000000 0.006001 0.000000
# 3 0.003203 -0.006885 0.012742 0.000000 0.001316 0.000000
# 4 0.000000 0.000000 0.000000 0.094775 0.000000 0.027678
# 5 0.017866 0.006001 0.001316 0.000000 0.060352 0.000000
# 6 0.000000 0.000000 0.000000 0.027678 0.000000 0.054392
#
#
# Mechanical properties :
#
#
# Convention : Reuss Voigt Hill
#
# Bulk Modulus (GPa) = 26.72866 52.06820 39.39843
# Shear Modulus (GPa) = 15.39265 21.93516 18.66391
#
# Velocity S-wave (km/s) = 2.77621 3.31410 3.05701
# Velocity P-wave (km/s) = 4.86414 6.38088 5.67342
#
# Compressibility (1/GPa) = 0.03741303
#
# Stress axis : x y z
#
# Youngs Moduli (GPa) = 25.97951 52.93084 78.47759
#
# Poissons Ratio (x) = 0.67092 -0.25140
# Poissons Ratio (y) = 0.32930 0.54032
# Poissons Ratio (z) = -0.08322 0.36443
#
# Static dielectric constant tensor:
#      x y z
#    x 3.652260 0.000000 -0.250200 
#    y 0.000000 3.601780 0.000000 
#    z -0.250200 0.000000 4.088440 
# 
# 
# High freq. dielectric constant tensor:
#      x y z
#    x 1.748850 0.000000 -0.010590 
#    y 0.000000 1.757500 0.000000 
#    z -0.010590 0.000000 1.796620 
# 
# From -- ./inp_files/121950.got.cif
#   From: 2010.06.25/outbox.cif.g09.slc.cpg/sg12_61_cif.got.tgz:121950.got - 2010.06.28 00:19:55.
