data_PCOD8095899
_publ_section_title
;
Structure prediction by ZEFSAII (Michael W. Deem and Ramdas Pophale) SiO2 
 PCOD8095899
Probable space group: C 2/M
;
_chemical_formula_sum "Si O2"
_cell_formula_units_Z 56
_cell_length_a 18.812004
_cell_length_b 8.924555
_cell_length_c 29.453019
_cell_angle_alpha 90.000000
_cell_angle_beta 37.824715
_cell_angle_gamma 90.000000
_cell_volume 3032.406892
_symmetry_space_group_name_H-M "C 2/M"
_symmetry_group_IT_number 12
_symmetry_cell_setting 'monoclinic'
loop_
_space_group_symop_operation_xyz
x,y,z
-x,y,-z
-x,-y,-z
x,-y,z
1/2+x,1/2+y,z
1/2-x,1/2+y,-z
1/2-x,1/2-y,-z
1/2+x,1/2-y,z
loop_
_atom_site_type_symbol
_atom_site_label
_atom_site_fract_x
_atom_site_fract_y
_atom_site_fract_z
Si Si1 0.428606 0.334559 0.222789
Si Si2 0.531433 0.828213 0.932334
Si Si3 0.413077 0.176187 0.628850
Si Si4 0.276644 0.664701 0.209675
Si Si5 0.873950 0.823526 0.939039
Si Si6 0.819310 0.322909 0.505879
Si Si7 0.760091 0.823348 0.630072
O O1 0.432257 0.500000 0.243831
O O2 0.356597 0.345336 0.213217
O O3 0.557239 0.281980 0.142428
O O4 0.368787 0.216634 0.286717
O O5 0.664731 0.776054 0.856276
O O6 0.441368 0.732614 0.949101
O O7 0.520751 0.000000 0.923066
O O8 0.500000 0.802543 0.000000
O O9 0.348790 0.221064 0.708658
O O10 0.546149 0.219662 0.567513
O O11 0.360307 0.265917 0.613081
O O12 0.394923 0.000000 0.627895
O O13 0.265200 0.500000 0.192939
O O14 0.860483 0.000000 0.950183
O O15 0.750000 0.750000 0.000000
O O16 0.800410 0.500000 0.515200
O O17 0.750000 0.250000 0.500000
O O18 0.772464 0.255720 0.575888
O O19 0.771184 0.000000 0.618802
#
# Coordination Sequence:
#
# PCOD8095899 Si02
#       7
#     8   8   8   8   8   8   8
#     4   8  16  32  52  75 103 135 171 213 261 306
#     4  10  20  33  50  75 107 140 174 213 257 307
#     4   9  19  36  57  79 103 134 171 213 261 309
#     4   8  15  30  52  76 100 129 170 216 259 304
#     4  10  20  34  54  78 105 138 175 216 261 310
#     4  11  23  39  56  75 106 143 174 210 261 315
#     4  11  21  33  55  84 107 132 173 218 256 303
#
# _framework density 18.467179999999999
#
# number of rings (size 3 to 8) (size 9 to 14) (size 15 to 20)
#    0.000    2.429    0.000    4.714    0.000    9.714 
#    0.000    1.429    0.000    3.429    0.000    0.000 
#    0.000    0.000    0.000    0.000    0.000    0.000 
#
# Total GULP energy -347092.218230 kJ/mol
# GULP energy per Si atom -12396.150651 kJ/mol
# Density = 1.842515 g / cm^3
# Si number density = 18.467180 Si / 1000 Ang^3
#
#
#
# Elastic Constant Matrix: (Units=GPa)
#
#
# Indices 1 2 3 4 5 6 
#
# 1 74.4921 52.7290 66.5921 -0.0001 -6.6131 -0.0018
# 2 52.7290 109.7587 76.0781 -0.0002 0.1487 -0.0031
# 3 66.5921 76.0781 163.6169 0.0000 -7.9452 0.0000
# 4 -0.0001 -0.0002 0.0000 31.1412 0.0001 3.2521
# 5 -6.6131 0.1487 -7.9452 0.0001 24.1250 -0.0002
# 6 -0.0018 -0.0031 0.0000 3.2521 -0.0002 26.0211
#
#
#
# Elastic Compliance Matrix: (Units=1/GPa)
#
#
# Indices 1 2 3 4 5 6 
#
# 1 0.024901 -0.007532 -0.006401 0.000000 0.004764 0.000001
# 2 -0.007532 0.015836 -0.004474 0.000000 -0.003636 0.000001
# 3 -0.006401 -0.004474 0.010888 0.000000 0.001859 -0.000001
# 4 0.000000 0.000000 0.000000 0.032536 0.000000 -0.004066
# 5 0.004764 -0.003636 0.001859 0.000000 0.043391 0.000000
# 6 0.000001 0.000001 -0.000001 -0.004066 0.000000 0.038939
#
#
# Mechanical properties :
#
#
# Convention : Reuss Voigt Hill
#
# Bulk Modulus (GPa) = 67.52443 82.07400 74.79922
# Shear Modulus (GPa) = 24.01051 26.42202 25.21626
#
# Velocity S-wave (km/s) = 3.60970 3.78664 3.69923
# Velocity P-wave (km/s) = 7.34964 7.97858 7.67056
#
# Compressibility (1/GPa) = 0.01480945
#
# Stress axis : x y z
#
# Youngs Moduli (GPa) = 40.15876 63.14905 91.84706
#
# Poissons Ratio (x) = 0.47566 0.58792
# Poissons Ratio (y) = 0.30249 0.41093
# Poissons Ratio (z) = 0.25706 0.28253
#
# Static dielectric constant tensor:
#      x y z
#    x 2.874020 0.000030 -0.115790 
#    y 0.000030 3.464640 0.000000 
#    z -0.115790 0.000000 4.285120 
# 
# 
# High freq. dielectric constant tensor:
#      x y z
#    x 1.673910 0.000000 -0.007050 
#    y 0.000000 1.720630 0.000000 
#    z -0.007050 0.000000 1.739840 
# 
# From -- ./inp_files/362928.got.cif
#   From: 2010.06.25/outbox.cif.g09.slc.cpg/sg12_182_cif.got.tgz:362928.got - 2010.06.28 00:19:55.
