data_PCOD8095740
_publ_section_title
;
Structure prediction by ZEFSAII (Michael W. Deem and Ramdas Pophale) SiO2 
 PCOD8095740
Probable space group: C 2/M
;
_chemical_formula_sum "Si O2"
_cell_formula_units_Z 64
_cell_length_a 23.293570
_cell_length_b 20.860295
_cell_length_c 9.523945
_cell_angle_alpha 90.000000
_cell_angle_beta 134.805711
_cell_angle_gamma 90.000000
_cell_volume 3283.417309
_symmetry_space_group_name_H-M "C 2/M"
_symmetry_group_IT_number 12
_symmetry_cell_setting 'monoclinic'
loop_
_space_group_symop_operation_xyz
x,y,z
-x,y,-z
-x,-y,-z
x,-y,z
1/2+x,1/2+y,z
1/2-x,1/2+y,-z
1/2-x,1/2-y,-z
1/2+x,1/2-y,z
loop_
_atom_site_type_symbol
_atom_site_label
_atom_site_fract_x
_atom_site_fract_y
_atom_site_fract_z
Si Si1 0.780135 0.924404 0.389574
Si Si2 0.996645 0.614714 0.839014
Si Si3 0.752645 0.923455 0.020703
Si Si4 0.174118 0.343788 0.415874
Si Si5 0.922558 0.743371 0.944145
Si Si6 0.572217 0.928668 0.706632
Si Si7 0.086757 0.925863 0.177581
Si Si8 0.183344 0.852420 0.131816
O O1 0.780203 0.906500 0.225648
O O2 0.709923 0.888465 0.354053
O O3 0.867965 0.902186 0.602118
O O4 0.765716 0.000000 0.386502
O O5 0.901897 0.621994 0.637768
O O6 0.044294 0.567148 0.819911
O O7 0.000000 0.585365 0.000000
O O8 0.044059 0.682608 0.912581
O O9 0.762347 0.000000 0.008181
O O10 0.660566 0.898402 0.843341
O O11 0.803421 0.878979 0.002250
O O12 0.142887 0.278569 0.287238
O O13 0.235959 0.328987 0.648618
O O14 0.880224 0.793440 0.977046
O O15 0.000000 0.775922 0.000000
O O16 0.500000 0.890542 0.500000
O O17 0.578698 0.000000 0.655888
O O18 0.146108 0.912282 0.150616
O O19 0.071561 0.000000 0.165405
O O20 0.000000 0.891865 0.000000
#
# Coordination Sequence:
#
# PCOD8095740 Si02
#       8
#     8   8   8   8   8   8   8   8
#     4   9  18  33  52  75 106 137 162 200 255 306
#     4   9  18  33  51  72  99 129 167 209 248 293
#     4  10  20  33  49  75 109 137 164 205 257 307
#     4   9  18  32  52  76  98 127 171 215 249 292
#     4   9  19  34  51  72  98 130 169 216 260 292
#     4  10  20  33  50  74 106 140 169 202 249 300
#     4   9  18  33  54  78  99 125 166 213 257 302
#     4  11  19  31  53  75  98 132 171 208 249 305
#
# _framework density 19.491886000000001
#
# number of rings (size 3 to 8) (size 9 to 14) (size 15 to 20)
#    0.000    2.750    0.000    3.375    0.000    1.250 
#    0.000    3.125    0.000    9.375    0.000    0.000 
#    0.000    0.000    0.000    0.000    0.000    0.000 
#
# Total GULP energy -396419.914988 kJ/mol
# GULP energy per Si atom -12388.122343 kJ/mol
# Density = 1.944752 g / cm^3
# Si number density = 19.491886 Si / 1000 Ang^3
#
#
#
# Elastic Constant Matrix: (Units=GPa)
#
#
# Indices 1 2 3 4 5 6 
#
# 1 105.7230 29.3346 56.8000 0.0000 0.9926 0.0000
# 2 29.3346 38.9922 28.3628 0.0000 -1.9519 0.0000
# 3 56.8000 28.3628 123.2985 0.0000 10.0510 0.0000
# 4 0.0000 0.0000 0.0000 7.9174 0.0000 -4.8773
# 5 0.9926 -1.9519 10.0510 0.0000 34.8147 0.0000
# 6 0.0000 0.0000 0.0000 -4.8773 0.0000 27.9580
#
#
#
# Elastic Compliance Matrix: (Units=1/GPa)
#
#
# Indices 1 2 3 4 5 6 
#
# 1 0.014018 -0.006941 -0.004912 0.000000 0.000629 0.000000
# 2 -0.006941 0.034753 -0.005091 0.000000 0.003616 0.000000
# 3 -0.004912 -0.005091 0.011835 0.000000 -0.003562 0.000000
# 4 0.000000 0.000000 0.000000 0.141512 0.000000 0.024687
# 5 0.000629 0.003616 -0.003562 0.000000 0.029937 0.000000
# 6 0.000000 0.000000 0.000000 0.024687 0.000000 0.040075
#
#
# Mechanical properties :
#
#
# Convention : Reuss Voigt Hill
#
# Bulk Modulus (GPa) = 37.43128 55.22316 46.32722
# Shear Modulus (GPa) = 15.87684 24.37244 20.12464
#
# Velocity S-wave (km/s) = 2.85710 3.53992 3.21668
# Velocity P-wave (km/s) = 5.48901 6.71572 6.13311
#
# Compressibility (1/GPa) = 0.02671562
#
# Stress axis : x y z
#
# Youngs Moduli (GPa) = 71.33776 28.77475 84.49611
#
# Poissons Ratio (x) = 0.19973 0.41506
# Poissons Ratio (y) = 0.49518 0.43021
# Poissons Ratio (z) = 0.35042 0.14650
#
# Static dielectric constant tensor:
#      x y z
#    x 3.530810 0.000000 0.283980 
#    y 0.000000 3.217920 0.000000 
#    z 0.283980 0.000000 3.849560 
# 
# 
# High freq. dielectric constant tensor:
#      x y z
#    x 1.753440 0.000000 0.018430 
#    y 0.000000 1.734030 0.000000 
#    z 0.018430 0.000000 1.763620 
# 
# From -- ./inp_files/90694.got.cif
#   From: 2010.06.25/outbox.cif.g09.slc.cpg/sg12_46_cif.got.tgz:90694.got - 2010.06.28 00:19:55.
