data_PCOD8095280
_publ_section_title
;
Structure prediction by ZEFSAII (Michael W. Deem and Ramdas Pophale) SiO2 
 PCOD8095280
Probable space group: C 2/M
;
_chemical_formula_sum "Si O2"
_cell_formula_units_Z 48
_cell_length_a 25.044959
_cell_length_b 9.637882
_cell_length_c 11.656237
_cell_angle_alpha 90.000000
_cell_angle_beta 90.482335
_cell_angle_gamma 90.000000
_cell_volume 2813.486981
_symmetry_space_group_name_H-M "C 2/M"
_symmetry_group_IT_number 12
_symmetry_cell_setting 'monoclinic'
loop_
_space_group_symop_operation_xyz
x,y,z
-x,y,-z
-x,-y,-z
x,-y,z
1/2+x,1/2+y,z
1/2-x,1/2+y,-z
1/2-x,1/2-y,-z
1/2+x,1/2-y,z
loop_
_atom_site_type_symbol
_atom_site_label
_atom_site_fract_x
_atom_site_fract_y
_atom_site_fract_z
Si Si1 0.938634 0.161200 0.490140
Si Si2 0.690183 0.658695 0.105248
Si Si3 0.592888 0.658702 0.257464
Si Si4 0.188497 0.339437 0.889724
Si Si5 0.403774 0.839333 0.280683
Si Si6 0.994397 0.338565 0.869064
O O1 0.908693 0.193853 0.608236
O O2 0.907969 0.248100 0.394110
O O3 0.000000 0.210273 0.500000
O O4 0.935842 0.000000 0.456240
O O5 0.686511 0.500000 0.063701
O O6 0.652948 0.685727 0.214612
O O7 0.750578 0.696316 0.142889
O O8 0.670265 0.752605 0.999900
O O9 0.575013 0.500000 0.236796
O O10 0.553252 0.755213 0.187883
O O11 0.180576 0.500000 0.922112
O O12 0.151902 0.300086 0.781030
O O13 0.450964 0.802554 0.194115
O O14 0.405580 0.000000 0.316726
O O15 0.980021 0.500000 0.860430
O O16 0.000000 0.290514 0.000000
#
# Coordination Sequence:
#
# PCOD8095280 Si02
#       6
#     8   8   8   8   8   8
#     4  10  20  35  52  70  98 136 172 207 246 290
#     4   9  18  33  54  77 101 131 166 204 248 297
#     4  10  20  34  51  73  99 130 168 206 247 291
#     4   9  18  34  54  76 103 132 163 203 250 298
#     4  10  20  33  51  74 100 131 167 205 248 297
#     4  10  20  32  48  73 102 129 159 201 251 299
#
# _framework density 17.060679
#
# number of rings (size 3 to 8) (size 9 to 14) (size 15 to 20)
#    0.000    2.333    1.667    1.000    0.000    4.000 
#    0.000    0.833    0.000    0.000    0.000    0.000 
#    0.000    0.000    0.000    0.000    0.000    0.000 
#
# Total GULP energy -297671.413255 kJ/mol
# GULP energy per Si atom -12402.975552 kJ/mol
# Density = 1.702185 g / cm^3
# Si number density = 17.060679 Si / 1000 Ang^3
#
#
#
# Elastic Constant Matrix: (Units=GPa)
#
#
# Indices 1 2 3 4 5 6 
#
# 1 100.7038 47.2020 72.0391 0.0000 1.9464 0.0000
# 2 47.2020 55.9412 64.9097 0.0000 1.9873 0.0000
# 3 72.0391 64.9097 141.7616 0.0000 3.3015 0.0000
# 4 0.0000 0.0000 0.0000 33.0325 0.0000 4.1999
# 5 1.9464 1.9873 3.3015 0.0000 24.7481 0.0000
# 6 0.0000 0.0000 0.0000 4.1999 0.0000 23.4765
#
#
#
# Elastic Compliance Matrix: (Units=1/GPa)
#
#
# Indices 1 2 3 4 5 6 
#
# 1 0.017735 -0.009616 -0.004609 0.000000 -0.000008 0.000000
# 2 -0.009616 0.043365 -0.014953 0.000000 -0.000731 0.000000
# 3 -0.004609 -0.014953 0.016257 0.000000 -0.000606 0.000000
# 4 0.000000 0.000000 0.000000 0.030978 0.000000 -0.005542
# 5 -0.000008 -0.000731 -0.000606 0.000000 0.040547 0.000000
# 6 0.000000 0.000000 0.000000 -0.005542 0.000000 0.043587
#
#
# Mechanical properties :
#
#
# Convention : Reuss Voigt Hill
#
# Bulk Modulus (GPa) = 52.62657 74.07868 63.35263
# Shear Modulus (GPa) = 19.44331 23.86846 21.65589
#
# Velocity S-wave (km/s) = 3.37954 3.74442 3.56665
# Velocity P-wave (km/s) = 6.79280 7.88728 7.36041
#
# Compressibility (1/GPa) = 0.01900181
#
# Stress axis : x y z
#
# Youngs Moduli (GPa) = 56.38722 23.05998 61.51212
#
# Poissons Ratio (x) = 0.22174 0.28352
# Poissons Ratio (y) = 0.54220 0.91977
# Poissons Ratio (z) = 0.25990 0.34481
#
# Static dielectric constant tensor:
#      x y z
#    x 3.303640 0.000000 -0.101890 
#    y 0.000000 3.205260 0.000000 
#    z -0.101890 0.000000 3.165500 
# 
# 
# High freq. dielectric constant tensor:
#      x y z
#    x 1.659830 0.000000 -0.005490 
#    y 0.000000 1.658810 0.000000 
#    z -0.005490 0.000000 1.654050 
# 
# From -- ./inp_files/102433.got.cif
#   From: 2010.06.25/outbox.cif.g09.slc.cpg/sg12_52_cif.got.tgz:102433.got - 2010.06.28 00:19:55.
