data_PCOD8095455
_publ_section_title
;
Structure prediction by ZEFSAII (Michael W. Deem and Ramdas Pophale) SiO2 
 PCOD8095455
Probable space group: C 2/M
;
_chemical_formula_sum "Si O2"
_cell_formula_units_Z 44
_cell_length_a 26.010725
_cell_length_b 11.522670
_cell_length_c 11.242991
_cell_angle_alpha 90.000000
_cell_angle_beta 53.011481
_cell_angle_gamma 90.000000
_cell_volume 2691.544876
_symmetry_space_group_name_H-M "C 2/M"
_symmetry_group_IT_number 12
_symmetry_cell_setting 'monoclinic'
loop_
_space_group_symop_operation_xyz
x,y,z
-x,y,-z
-x,-y,-z
x,-y,z
1/2+x,1/2+y,z
1/2-x,1/2+y,-z
1/2-x,1/2-y,-z
1/2+x,1/2-y,z
loop_
_atom_site_type_symbol
_atom_site_label
_atom_site_fract_x
_atom_site_fract_y
_atom_site_fract_z
Si Si1 0.832727 0.133113 0.900146
Si Si2 0.456532 0.000000 0.796158
Si Si3 0.339514 0.873879 0.592687
Si Si4 0.095057 0.500000 0.693246
Si Si5 0.062652 0.711465 0.347858
Si Si6 0.343610 0.000000 0.137691
Si Si7 0.739936 0.207439 0.822702
O O1 0.902185 0.183191 0.767553
O O2 0.782092 0.142789 0.863289
O O3 0.841737 0.000000 0.923173
O O4 0.808064 0.202024 0.049182
O O5 0.517820 0.000000 0.798124
O O6 0.460544 0.885699 0.711326
O O7 0.390132 0.000000 0.960038
O O8 0.376465 0.885245 0.414260
O O9 0.389866 0.847244 0.625386
O O10 0.284671 0.775840 0.665890
O O11 0.308430 0.000000 0.667869
O O12 0.115031 0.500000 0.801230
O O13 0.000000 0.763675 0.500000
O O14 0.299414 0.113833 0.197450
#
# Coordination Sequence:
#
# PCOD8095455 Si02
#       7
#     8   4   8   4   8   4   8
#     4  10  20  32  51  80 106 135 167 213 271 325
#     4  12  19  36  53  84 104 140 175 221 270 301
#     4   9  18  33  54  79 102 144 170 213 260 316
#     4  10  22  36  54  79 106 141 188 211 254 307
#     4  11  18  31  57  78 108 134 173 222 265 310
#     4  12  23  35  52  82 108 143 173 222 260 306
#     4  10  20  33  52  77 110 134 171 216 266 312
#
# _framework density 16.347488999999999
#
# number of rings (size 3 to 8) (size 9 to 14) (size 15 to 20)
#    0.545    1.091    5.455    1.091    0.000    1.091 
#    0.000    0.000    0.000    0.000    0.000    1.273 
#    0.000    0.000    0.000    0.000    0.000    0.000 
#
# Total GULP energy -272754.135413 kJ/mol
# GULP energy per Si atom -12397.915246 kJ/mol
# Density = 1.631028 g / cm^3
# Si number density = 16.347489 Si / 1000 Ang^3
#
#
#
# Elastic Constant Matrix: (Units=GPa)
#
#
# Indices 1 2 3 4 5 6 
#
# 1 76.0612 33.0717 19.7983 0.0000 -10.4216 0.0000
# 2 33.0717 103.9452 27.9089 0.0000 -15.3146 0.0000
# 3 19.7983 27.9089 67.0681 0.0000 -21.0566 0.0000
# 4 0.0000 0.0000 0.0000 19.3843 0.0000 -2.7262
# 5 -10.4216 -15.3146 -21.0566 0.0000 26.0551 0.0000
# 6 0.0000 0.0000 0.0000 -2.7262 0.0000 1.1804
#
#
#
# Elastic Compliance Matrix: (Units=1/GPa)
#
#
# Indices 1 2 3 4 5 6 
#
# 1 0.015817 -0.004110 -0.002320 0.000000 0.002036 0.000000
# 2 -0.004110 0.012164 -0.002841 0.000000 0.003210 0.000000
# 3 -0.002320 -0.002841 0.021388 0.000000 0.014688 0.000000
# 4 0.000000 0.000000 0.000000 0.076405 0.000000 0.176455
# 5 0.002036 0.003210 0.014688 0.000000 0.052951 0.000000
# 6 0.000000 0.000000 0.000000 0.176455 0.000000 1.254663
#
#
# Mechanical properties :
#
#
# Convention : Reuss Voigt Hill
#
# Bulk Modulus (GPa) = 32.43690 45.40359 38.92024
# Shear Modulus (GPa) = 3.41950 20.41035 11.91492
#
# Velocity S-wave (km/s) = 1.44786 3.53729 2.70266
# Velocity P-wave (km/s) = 4.76238 6.67215 5.79646
#
# Compressibility (1/GPa) = 0.03082909
#
# Stress axis : x y z
#
# Youngs Moduli (GPa) = 63.22318 82.21234 46.75446
#
# Poissons Ratio (x) = 0.33786 0.10846
# Poissons Ratio (y) = 0.25982 0.13281
# Poissons Ratio (z) = 0.14666 0.23354
#
# Static dielectric constant tensor:
#      x y z
#    x 2.839300 0.000000 -0.217390 
#    y 0.000000 3.012530 0.000000 
#    z -0.217390 0.000000 3.208860 
# 
# 
# High freq. dielectric constant tensor:
#      x y z
#    x 1.607570 0.000000 -0.016210 
#    y 0.000000 1.620870 0.000000 
#    z -0.016210 0.000000 1.633760 
# 
# From -- ./inp_files/173739.got.cif
#   From: 2010.06.25/outbox.cif.g09.slc.cpg/sg12_87_cif.got.tgz:173739.got - 2010.06.28 00:19:55.
