data_PCOD8095935
_publ_section_title
;
Structure prediction by ZEFSAII (Michael W. Deem and Ramdas Pophale) SiO2 
 PCOD8095935
Probable space group: C 2/M
;
_chemical_formula_sum "Si O2"
_cell_formula_units_Z 56
_cell_length_a 18.184251
_cell_length_b 20.811767
_cell_length_c 14.667582
_cell_angle_alpha 90.000000
_cell_angle_beta 148.353394
_cell_angle_gamma 90.000000
_cell_volume 2912.434775
_symmetry_space_group_name_H-M "C 2/M"
_symmetry_group_IT_number 12
_symmetry_cell_setting 'monoclinic'
loop_
_space_group_symop_operation_xyz
x,y,z
-x,y,-z
-x,-y,-z
x,-y,z
1/2+x,1/2+y,z
1/2-x,1/2+y,-z
1/2-x,1/2-y,-z
1/2+x,1/2-y,z
loop_
_atom_site_type_symbol
_atom_site_label
_atom_site_fract_x
_atom_site_fract_y
_atom_site_fract_z
Si Si1 0.655047 0.070662 0.697291
Si Si2 0.566959 0.428752 0.299212
Si Si3 0.365679 0.355337 0.803930
Si Si4 0.345953 0.786247 0.833285
Si Si5 0.749931 0.571825 0.010883
Si Si6 0.432315 0.648211 0.523663
Si Si7 0.288643 0.297856 0.121573
O O1 0.500000 0.069038 0.500000
O O2 0.730804 0.124137 0.718009
O O3 0.648186 0.088061 0.797440
O O4 0.725461 0.000000 0.759115
O O5 0.629636 0.500000 0.352988
O O6 0.643389 0.381992 0.308549
O O7 0.588660 0.409208 0.427381
O O8 0.402817 0.427041 0.104449
O O9 0.368907 0.278623 0.800267
O O10 0.500000 0.382369 0.000000
O O11 0.224842 0.826072 0.655494
O O12 0.294976 0.770194 0.881165
O O13 0.500000 0.821184 0.000000
O O14 0.779899 0.500000 0.000391
O O15 0.763530 0.628428 0.950626
O O16 0.500000 0.622741 0.500000
O O17 0.542671 0.700840 0.681662
O O18 0.250000 0.250000 0.000000
#
# Coordination Sequence:
#
# PCOD8095935 Si02
#       7
#     8   8   8   8   8   8   8
#     4  10  20  33  50  78 117 152 185 228 284 348
#     4  10  20  35  61  89 111 146 193 237 286 343
#     4  11  21  34  57  83 118 152 188 229 286 348
#     4  10  23  39  56  83 118 151 190 242 292 338
#     4   9  18  34  56  82 111 147 195 242 285 339
#     4   9  21  41  60  84 114 148 195 241 286 339
#     4  10  20  36  62  85 113 151 199 239 287 347
#
# _framework density 19.227898
#
# number of rings (size 3 to 8) (size 9 to 14) (size 15 to 20)
#    0.000    2.143    1.429    1.286    6.000    4.286 
#    2.571    2.143    0.000    0.857    0.000    0.000 
#    0.000    0.000    0.000    0.000    0.000    0.000 
#
# Total GULP energy -347050.371649 kJ/mol
# GULP energy per Si atom -12394.656130 kJ/mol
# Density = 1.918413 g / cm^3
# Si number density = 19.227898 Si / 1000 Ang^3
#
#
#
# Elastic Constant Matrix: (Units=GPa)
#
#
# Indices 1 2 3 4 5 6 
#
# 1 78.8068 42.6798 35.0832 0.0000 -13.3808 0.0000
# 2 42.6798 90.4341 32.6392 0.0000 -9.5084 0.0000
# 3 35.0832 32.6392 120.2861 0.0000 -5.5831 0.0000
# 4 0.0000 0.0000 0.0000 39.2560 0.0000 -9.4776
# 5 -13.3808 -9.5084 -5.5831 0.0000 31.1573 0.0000
# 6 0.0000 0.0000 0.0000 -9.4776 0.0000 36.0298
#
#
#
# Elastic Compliance Matrix: (Units=1/GPa)
#
#
# Indices 1 2 3 4 5 6 
#
# 1 0.018977 -0.007189 -0.003336 0.000000 0.005358 0.000000
# 2 -0.007189 0.015300 -0.001998 0.000000 0.001224 0.000000
# 3 -0.003336 -0.001998 0.009815 0.000000 -0.000283 0.000000
# 4 0.000000 0.000000 0.000000 0.027201 0.000000 0.007155
# 5 0.005358 0.001224 -0.000283 0.000000 0.034719 0.000000
# 6 0.000000 0.000000 0.000000 0.007155 0.000000 0.029637
#
#
# Mechanical properties :
#
#
# Convention : Reuss Voigt Hill
#
# Bulk Modulus (GPa) = 52.49958 56.70348 54.60153
# Shear Modulus (GPa) = 29.93196 33.23027 31.58112
#
# Velocity S-wave (km/s) = 3.94978 4.16171 4.05713
# Velocity P-wave (km/s) = 6.94004 7.25585 7.09970
#
# Compressibility (1/GPa) = 0.01904777
#
# Stress axis : x y z
#
# Youngs Moduli (GPa) = 52.69417 65.35766 101.88052
#
# Poissons Ratio (x) = 0.46986 0.33984
# Poissons Ratio (y) = 0.37882 0.20357
# Poissons Ratio (z) = 0.17577 0.13059
#
# Static dielectric constant tensor:
#      x y z
#    x 4.333870 0.000000 0.873540 
#    y 0.000000 3.529630 0.000000 
#    z 0.873540 0.000000 4.543650 
# 
# 
# High freq. dielectric constant tensor:
#      x y z
#    x 1.733730 0.000000 -0.012070 
#    y 0.000000 1.736110 0.000000 
#    z -0.012070 0.000000 1.751390 
# 
# From -- ./inp_files/77613.got.cif
#   From: 2010.06.25/outbox.cif.g09.slc.cpg/sg12_39_cif.got.tgz:77613.got - 2010.06.28 00:19:55.
