data_PCOD8095643
_publ_section_title
;
Structure prediction by ZEFSAII (Michael W. Deem and Ramdas Pophale) SiO2 
 PCOD8095643
Probable space group: C 2/M
;
_chemical_formula_sum "Si O2"
_cell_formula_units_Z 56
_cell_length_a 29.603741
_cell_length_b 12.977342
_cell_length_c 17.188354
_cell_angle_alpha 90.000000
_cell_angle_beta 28.047235
_cell_angle_gamma 90.000000
_cell_volume 3104.907194
_symmetry_space_group_name_H-M "C 2/M"
_symmetry_group_IT_number 12
_symmetry_cell_setting 'monoclinic'
loop_
_space_group_symop_operation_xyz
x,y,z
-x,y,-z
-x,-y,-z
x,-y,z
1/2+x,1/2+y,z
1/2-x,1/2+y,-z
1/2-x,1/2-y,-z
1/2+x,1/2-y,z
loop_
_atom_site_type_symbol
_atom_site_label
_atom_site_fract_x
_atom_site_fract_y
_atom_site_fract_z
Si Si1 0.686241 0.769032 0.281402
Si Si2 0.806596 0.619531 0.192685
Si Si3 0.621551 0.380687 0.064886
Si Si4 0.017122 0.619779 0.623327
Si Si5 0.508306 0.201204 0.172010
Si Si6 0.858319 0.771530 0.815396
Si Si7 0.594897 0.886277 0.805761
O O1 0.717168 0.685250 0.298076
O O2 0.774648 0.839309 0.118798
O O3 0.608749 0.843666 0.436121
O O4 0.637661 0.705835 0.283141
O O5 0.779404 0.500000 0.229341
O O6 0.823968 0.652701 0.256696
O O7 0.899243 0.638312 0.998040
O O8 0.610703 0.500000 0.060636
O O9 0.538613 0.319220 0.143667
O O10 0.606033 0.363708 0.181785
O O11 0.004620 0.500000 0.628943
O O12 0.032607 0.645678 0.689938
O O13 0.919866 0.670208 0.739638
O O14 0.423225 0.195255 0.236571
O O15 0.750000 0.750000 0.000000
O O16 0.621436 0.000000 0.731603
O O17 0.500000 0.898806 0.000000
#
# Coordination Sequence:
#
# PCOD8095643 Si02
#       7
#     8   8   8   8   8   8   8
#     4  10  20  33  48  74 105 130 163 203 245 298
#     4   9  17  31  53  76  99 131 167 205 248 289
#     4   9  18  33  51  70  97 134 168 202 248 295
#     4  11  21  33  52  76 102 131 162 201 248 295
#     4   9  17  30  51  77 100 124 167 214 246 287
#     4   9  20  34  49  71  94 123 165 203 237 285
#     4   8  13  25  49  77  99 123 161 208 251 284
#
# _framework density 18.035965999999998
#
# number of rings (size 3 to 8) (size 9 to 14) (size 15 to 20)
#    0.000    2.714    0.000    3.857    0.000    4.000 
#    0.000    3.571    0.000   15.857    0.000    0.000 
#    0.000    0.000    0.000    0.000    0.000    0.000 
#
# Total GULP energy -346989.301909 kJ/mol
# GULP energy per Si atom -12392.475068 kJ/mol
# Density = 1.799491 g / cm^3
# Si number density = 18.035966 Si / 1000 Ang^3
#
#
#
# Elastic Constant Matrix: (Units=GPa)
#
#
# Indices 1 2 3 4 5 6 
#
# 1 154.3802 73.4994 34.7456 0.0000 18.9796 0.0000
# 2 73.4994 121.2806 29.0425 0.0000 -4.7759 0.0000
# 3 34.7456 29.0425 56.6658 0.0000 4.0114 0.0000
# 4 0.0000 0.0000 0.0000 21.0739 0.0000 0.3319
# 5 18.9796 -4.7759 4.0114 0.0000 13.5182 0.0000
# 6 0.0000 0.0000 0.0000 0.3319 0.0000 17.7011
#
#
#
# Elastic Compliance Matrix: (Units=1/GPa)
#
#
# Indices 1 2 3 4 5 6 
#
# 1 0.013819 -0.008627 -0.002515 0.000000 -0.021704 0.000000
# 2 -0.008627 0.015107 -0.003767 0.000000 0.018568 0.000000
# 3 -0.002515 -0.003767 0.021415 0.000000 -0.004154 0.000000
# 4 0.000000 0.000000 0.000000 0.047466 0.000000 -0.000890
# 5 -0.021704 0.018568 -0.004154 0.000000 0.112240 0.000000
# 6 0.000000 0.000000 0.000000 -0.000890 0.000000 0.056511
#
#
# Mechanical properties :
#
#
# Convention : Reuss Voigt Hill
#
# Bulk Modulus (GPa) = 48.73030 67.43350 58.08190
# Shear Modulus (GPa) = 16.48984 23.46124 19.97554
#
# Velocity S-wave (km/s) = 3.02698 3.61058 3.33158
# Velocity P-wave (km/s) = 6.26848 7.40616 6.86094
#
# Compressibility (1/GPa) = 0.02052111
#
# Stress axis : x y z
#
# Youngs Moduli (GPa) = 72.36247 66.19466 46.69729
#
# Poissons Ratio (x) = 0.57107 0.11747
# Poissons Ratio (y) = 0.62429 0.17592
# Poissons Ratio (z) = 0.18203 0.24937
#
# Static dielectric constant tensor:
#      x y z
#    x 3.620530 0.000000 0.189900 
#    y 0.000000 3.083030 0.000000 
#    z 0.189900 0.000000 3.143700 
# 
# 
# High freq. dielectric constant tensor:
#      x y z
#    x 1.711450 0.000000 0.013010 
#    y 0.000000 1.675840 0.000000 
#    z 0.013010 0.000000 1.674880 
# 
# From -- ./inp_files/250997.got.cif
#   From: 2010.06.25/outbox.cif.g09.slc.cpg/sg12_126_cif.got.tgz:250997.got - 2010.06.28 00:19:55.
