data_PCOD8095058
_publ_section_title
;
Structure prediction by ZEFSAII (Michael W. Deem and Ramdas Pophale) SiO2 
 PCOD8095058
Probable space group: C 2/M
;
_chemical_formula_sum "Si O2"
_cell_formula_units_Z 64
_cell_length_a 29.211432
_cell_length_b 14.283750
_cell_length_c 11.525431
_cell_angle_alpha 90.000000
_cell_angle_beta 42.999774
_cell_angle_gamma 90.000000
_cell_volume 3279.697254
_symmetry_space_group_name_H-M "C 2/M"
_symmetry_group_IT_number 12
_symmetry_cell_setting 'monoclinic'
loop_
_space_group_symop_operation_xyz
x,y,z
-x,y,-z
-x,-y,-z
x,-y,z
1/2+x,1/2+y,z
1/2-x,1/2+y,-z
1/2-x,1/2-y,-z
1/2+x,1/2-y,z
loop_
_atom_site_type_symbol
_atom_site_label
_atom_site_fract_x
_atom_site_fract_y
_atom_site_fract_z
Si Si1 0.484503 0.103856 0.736827
Si Si2 0.169430 0.896737 0.136185
Si Si3 0.199174 0.722798 0.695487
Si Si4 0.071274 0.392731 0.914460
Si Si5 0.390127 0.792475 0.766810
Si Si6 0.278943 0.891147 0.124492
Si Si7 0.274525 0.395435 0.217900
Si Si8 0.630344 0.106457 0.431452
O O1 0.463757 0.175956 0.673783
O O2 0.561964 0.122368 0.632856
O O3 0.479745 0.000000 0.691693
O O4 0.433412 0.111743 0.938013
O O5 0.110837 0.820290 0.234236
O O6 0.211905 0.878186 0.173459
O O7 0.136319 0.000000 0.201812
O O8 0.217474 0.887885 0.935433
O O9 0.250000 0.750000 0.500000
O O10 0.132141 0.675673 0.765069
O O11 0.233131 0.650591 0.724069
O O12 0.180553 0.820082 0.796408
O O13 0.084392 0.500000 0.847280
O O14 0.000000 0.355373 0.000000
O O15 0.372237 0.827364 0.673694
O O16 0.337596 0.833245 0.955793
O O17 0.299131 0.000000 0.097423
O O18 0.293306 0.500000 0.227043
O O19 0.195701 0.371499 0.388596
O O20 0.636137 0.000000 0.375552
#
# Coordination Sequence:
#
# PCOD8095058 Si02
#       8
#     8   8   8   8   8   8   8   8
#     4  10  20  33  53  82 115 153 190 228 291 364
#     4  10  20  34  56  83 112 151 193 237 294 355
#     4  12  25  38  57  87 118 157 203 252 292 352
#     4  10  22  41  62  83 115 156 195 245 306 362
#     4  12  18  31  54  81 119 151 187 230 286 355
#     4  11  20  34  56  84 118 153 188 237 301 361
#     4  10  20  36  56  83 117 151 191 244 295 342
#     4  10  20  31  51  86 121 149 182 230 293 361
#
# _framework density 19.513995999999999
#
# number of rings (size 3 to 8) (size 9 to 14) (size 15 to 20)
#    0.000    1.375    3.750    3.000    1.750    2.000 
#    0.000    0.000    0.000    1.875    0.000    0.000 
#    0.000    0.000    0.000    0.000    0.000    0.000 
#
# Total GULP energy -396691.543325 kJ/mol
# GULP energy per Si atom -12396.610729 kJ/mol
# Density = 1.946958 g / cm^3
# Si number density = 19.513996 Si / 1000 Ang^3
#
#
#
# Elastic Constant Matrix: (Units=GPa)
#
#
# Indices 1 2 3 4 5 6 
#
# 1 70.1615 47.2177 16.0676 0.0000 -13.2997 0.0000
# 2 47.2177 129.5422 29.1136 0.0000 -13.9117 0.0000
# 3 16.0676 29.1136 68.6910 0.0000 -3.7488 0.0000
# 4 0.0000 0.0000 0.0000 26.1686 0.0000 -1.9283
# 5 -13.2997 -13.9117 -3.7488 0.0000 28.0430 0.0000
# 6 0.0000 0.0000 0.0000 -1.9283 0.0000 30.9841
#
#
#
# Elastic Compliance Matrix: (Units=1/GPa)
#
#
# Indices 1 2 3 4 5 6 
#
# 1 0.020018 -0.006253 -0.001696 0.000000 0.006165 0.000000
# 2 -0.006253 0.010902 -0.003047 0.000000 0.002035 0.000000
# 3 -0.001696 -0.003047 0.016238 0.000000 -0.000145 0.000000
# 4 0.000000 0.000000 0.000000 0.038390 0.000000 0.002389
# 5 0.006165 0.002035 -0.000145 0.000000 0.039574 0.000000
# 6 0.000000 0.000000 0.000000 0.002389 0.000000 0.032423
#
#
# Mechanical properties :
#
#
# Convention : Reuss Voigt Hill
#
# Bulk Modulus (GPa) = 39.73525 50.35472 45.04498
# Shear Modulus (GPa) = 26.60620 28.77217 27.68918
#
# Velocity S-wave (km/s) = 3.69649 3.84401 3.77097
# Velocity P-wave (km/s) = 6.21493 6.74998 6.48797
#
# Compressibility (1/GPa) = 0.02516657
#
# Stress axis : x y z
#
# Youngs Moduli (GPa) = 49.95445 91.72461 61.58379
#
# Poissons Ratio (x) = 0.57360 0.10442
# Poissons Ratio (y) = 0.31239 0.18764
# Poissons Ratio (z) = 0.08470 0.27948
#
# Static dielectric constant tensor:
#      x y z
#    x 3.527520 0.000000 0.014780 
#    y 0.000000 3.753900 0.000000 
#    z 0.014780 0.000000 3.475550 
# 
# 
# High freq. dielectric constant tensor:
#      x y z
#    x 1.749910 0.000000 0.008640 
#    y 0.000000 1.755320 0.000000 
#    z 0.008640 0.000000 1.740690 
# 
# From -- ./inp_files/189454.got.cif
#   From: 2010.06.25/outbox.cif.g09.slc.cpg/sg12_95_cif.got.tgz:189454.got - 2010.06.28 00:19:55.
