data_PCOD8095802
_publ_section_title
;
Structure prediction by ZEFSAII (Michael W. Deem and Ramdas Pophale) SiO2 
 PCOD8095802
Probable space group: C 2/M
;
_chemical_formula_sum "Si O2"
_cell_formula_units_Z 56
_cell_length_a 30.070390
_cell_length_b 8.950956
_cell_length_c 18.926346
_cell_angle_alpha 90.000000
_cell_angle_beta 142.702664
_cell_angle_gamma 90.000000
_cell_volume 3086.832480
_symmetry_space_group_name_H-M "C 2/M"
_symmetry_group_IT_number 12
_symmetry_cell_setting 'monoclinic'
loop_
_space_group_symop_operation_xyz
x,y,z
-x,y,-z
-x,-y,-z
x,-y,z
1/2+x,1/2+y,z
1/2-x,1/2+y,-z
1/2-x,1/2-y,-z
1/2+x,1/2-y,z
loop_
_atom_site_type_symbol
_atom_site_label
_atom_site_fract_x
_atom_site_fract_y
_atom_site_fract_z
Si Si1 0.963571 0.176131 0.026672
Si Si2 0.900708 0.177025 0.277820
Si Si3 0.830447 0.672558 0.323679
Si Si4 0.954594 0.671325 0.591152
Si Si5 0.650980 0.664859 0.934689
Si Si6 0.684520 0.176078 0.113315
Si Si7 0.018726 0.164334 0.241370
O O1 0.021084 0.217034 0.162337
O O2 0.946240 0.000000 0.005625
O O3 0.887551 0.262362 0.939901
O O4 0.000000 0.228733 0.000000
O O5 0.873189 0.259746 0.311754
O O6 0.845871 0.218745 0.143111
O O7 0.983524 0.228258 0.367151
O O8 0.901365 0.000000 0.290952
O O9 0.814392 0.500000 0.287933
O O10 0.878670 0.693972 0.454559
O O11 0.754628 0.757863 0.242338
O O12 0.980744 0.500000 0.622725
O O13 0.940579 0.720921 0.654836
O O14 0.686496 0.500000 0.988285
O O15 0.566112 0.655244 0.846427
O O16 0.690774 0.778499 0.038237
O O17 0.685348 0.000000 0.119709
O O18 0.054771 0.000000 0.295428
#
# Coordination Sequence:
#
# PCOD8095802 Si02
#       7
#     8   8   8   8   8   8   8
#     4   9  18  35  59  83 106 131 157 190 241 305
#     4  10  20  33  51  74  98 129 172 218 256 289
#     4  11  23  36  49  67  98 139 176 210 250 297
#     4  10  20  33  50  72  99 135 175 211 248 290
#     4   8  16  32  50  69  98 133 166 202 249 303
#     4  11  22  34  51  76 103 131 165 206 252 297
#     4   8  15  29  51  77 101 128 162 200 242 288
#
# _framework density 18.141575
#
# number of rings (size 3 to 8) (size 9 to 14) (size 15 to 20)
#    0.000    2.429    0.000    4.714    0.000   10.571 
#    0.000    0.000    0.000    0.857    0.000    0.000 
#    0.000    0.000    0.000    0.000    0.000    0.000 
#
# Total GULP energy -347122.729267 kJ/mol
# GULP energy per Si atom -12397.240331 kJ/mol
# Density = 1.810028 g / cm^3
# Si number density = 18.141575 Si / 1000 Ang^3
#
#
#
# Elastic Constant Matrix: (Units=GPa)
#
#
# Indices 1 2 3 4 5 6 
#
# 1 94.4818 45.7697 48.1431 0.0000 -24.8100 0.0000
# 2 45.7697 105.4770 56.0488 0.0000 -5.6126 0.0000
# 3 48.1431 56.0488 95.5974 0.0000 -11.6987 0.0000
# 4 0.0000 0.0000 0.0000 28.3275 0.0000 -4.1021
# 5 -24.8100 -5.6126 -11.6987 0.0000 20.8455 0.0000
# 6 0.0000 0.0000 0.0000 -4.1021 0.0000 22.6482
#
#
#
# Elastic Compliance Matrix: (Units=1/GPa)
#
#
# Indices 1 2 3 4 5 6 
#
# 1 0.021299 -0.005508 -0.004914 0.000000 0.021109 0.000000
# 2 -0.005508 0.015211 -0.006921 0.000000 -0.006344 0.000000
# 3 -0.004914 -0.006921 0.017232 0.000000 0.001959 0.000000
# 4 0.000000 0.000000 0.000000 0.036252 0.000000 0.006566
# 5 0.021109 -0.006344 0.001959 0.000000 0.072487 0.000000
# 6 0.000000 0.000000 0.000000 0.006566 0.000000 0.045343
#
#
# Mechanical properties :
#
#
# Convention : Reuss Voigt Hill
#
# Bulk Modulus (GPa) = 52.47220 66.16435 59.31828
# Shear Modulus (GPa) = 20.09149 24.07057 22.08103
#
# Velocity S-wave (km/s) = 3.33150 3.64650 3.49255
# Velocity P-wave (km/s) = 6.61703 7.36747 7.00231
#
# Compressibility (1/GPa) = 0.01905771
#
# Stress axis : x y z
#
# Youngs Moduli (GPa) = 46.95028 65.74311 58.03023
#
# Poissons Ratio (x) = 0.36211 0.28514
# Poissons Ratio (y) = 0.25860 0.40160
# Poissons Ratio (z) = 0.23070 0.45498
#
# Static dielectric constant tensor:
#      x y z
#    x 3.452870 0.000000 -0.428360 
#    y 0.000000 3.398340 0.000000 
#    z -0.428360 0.000000 3.428140 
# 
# 
# High freq. dielectric constant tensor:
#      x y z
#    x 1.679030 0.000000 -0.023960 
#    y 0.000000 1.708030 0.000000 
#    z -0.023960 0.000000 1.693680 
# 
# From -- ./inp_files/295169.got.cif
#   From: 2010.06.25/outbox.cif.g09.slc.cpg/sg12_148_cif.got.tgz:295169.got - 2010.06.28 00:19:55.
