data_PCOD8095748
_publ_section_title
;
Structure prediction by ZEFSAII (Michael W. Deem and Ramdas Pophale) SiO2 
 PCOD8095748
Probable space group: C 2/M
;
_chemical_formula_sum "Si O2"
_cell_formula_units_Z 56
_cell_length_a 21.507902
_cell_length_b 8.942670
_cell_length_c 19.565831
_cell_angle_alpha 90.000000
_cell_angle_beta 133.595096
_cell_angle_gamma 90.000000
_cell_volume 2725.464896
_symmetry_space_group_name_H-M "C 2/M"
_symmetry_group_IT_number 12
_symmetry_cell_setting 'monoclinic'
loop_
_space_group_symop_operation_xyz
x,y,z
-x,y,-z
-x,-y,-z
x,-y,z
1/2+x,1/2+y,z
1/2-x,1/2+y,-z
1/2-x,1/2-y,-z
1/2+x,1/2-y,z
loop_
_atom_site_type_symbol
_atom_site_label
_atom_site_fract_x
_atom_site_fract_y
_atom_site_fract_z
Si Si1 0.240332 0.825322 0.276880
Si Si2 0.593063 0.328245 0.256882
Si Si3 0.471404 0.324826 0.277135
Si Si4 0.432617 0.175707 0.391528
Si Si5 0.703258 0.830026 0.118820
Si Si6 0.482525 0.170046 0.060724
Si Si7 0.186003 0.676202 0.898107
O O1 0.193388 0.791405 0.314723
O O2 0.339399 0.772130 0.349301
O O3 0.183831 0.728326 0.180538
O O4 0.234152 0.000000 0.254315
O O5 0.575384 0.500000 0.229222
O O6 0.566325 0.292466 0.315603
O O7 0.528258 0.248459 0.157096
O O8 0.452069 0.500000 0.268483
O O9 0.462297 0.253953 0.344536
O O10 0.407788 0.249805 0.173072
O O11 0.500000 0.223857 0.500000
O O12 0.434093 0.000000 0.378484
O O13 0.776549 0.716606 0.148280
O O14 0.738205 0.000000 0.147502
O O15 0.620619 0.822439 0.006540
O O16 0.515822 0.000000 0.083705
O O17 0.500000 0.245370 0.000000
O O18 0.179624 0.500000 0.905344
O O19 0.250000 0.750000 0.000000
#
# Coordination Sequence:
#
# PCOD8095748 Si02
#       7
#     8   8   8   8   8   8   8
#     4  10  20  37  60  85 115 153 196 243 297 358
#     4  10  22  37  56  84 119 161 202 246 299 356
#     4  11  23  40  61  89 124 159 201 252 307 365
#     4  10  22  42  68  94 118 152 201 255 313 374
#     4  11  21  34  54  81 114 154 201 250 296 348
#     4  10  20  33  49  77 117 160 203 248 293 345
#     4  12  24  38  56  82 119 162 206 250 300 355
#
# _framework density 20.546955000000001
#
# number of rings (size 3 to 8) (size 9 to 14) (size 15 to 20)
#    0.000    1.429    2.857    3.000    0.000    5.143 
#    0.000    0.714    0.000    0.000    0.000    0.000 
#    0.000    0.000    0.000    0.000    0.000    0.000 
#
# Total GULP energy -347011.727418 kJ/mol
# GULP energy per Si atom -12393.275979 kJ/mol
# Density = 2.050019 g / cm^3
# Si number density = 20.546955 Si / 1000 Ang^3
#
#
#
# Elastic Constant Matrix: (Units=GPa)
#
#
# Indices 1 2 3 4 5 6 
#
# 1 169.2249 46.8546 57.0396 0.0000 0.8903 0.0000
# 2 46.8546 73.4651 39.6472 0.0000 -3.2778 0.0000
# 3 57.0396 39.6472 94.7232 0.0000 -0.2570 0.0000
# 4 0.0000 0.0000 0.0000 22.2970 0.0000 -4.2628
# 5 0.8903 -3.2778 -0.2570 0.0000 20.0994 0.0000
# 6 0.0000 0.0000 0.0000 -4.2628 0.0000 28.5654
#
#
#
# Elastic Compliance Matrix: (Units=1/GPa)
#
#
# Indices 1 2 3 4 5 6 
#
# 1 0.007980 -0.003276 -0.003436 0.000000 -0.000932 0.000000
# 2 -0.003276 0.019085 -0.006007 0.000000 0.003181 0.000000
# 3 -0.003436 -0.006007 0.015139 0.000000 -0.000634 0.000000
# 4 0.000000 0.000000 0.000000 0.046166 0.000000 0.006889
# 5 -0.000932 0.003181 -0.000634 0.000000 0.050305 0.000000
# 6 0.000000 0.000000 0.000000 0.006889 0.000000 0.036036
#
#
# Mechanical properties :
#
#
# Convention : Reuss Voigt Hill
#
# Bulk Modulus (GPa) = 59.64872 69.38846 64.51859
# Shear Modulus (GPa) = 24.30291 27.11711 25.71001
#
# Velocity S-wave (km/s) = 3.44291 3.63680 3.54118
# Velocity P-wave (km/s) = 6.70062 7.17489 6.94181
#
# Compressibility (1/GPa) = 0.01676482
#
# Stress axis : x y z
#
# Youngs Moduli (GPa) = 125.31976 52.39704 66.05572
#
# Poissons Ratio (x) = 0.17167 0.22699
# Poissons Ratio (y) = 0.41059 0.39677
# Poissons Ratio (z) = 0.43063 0.31473
#
# Static dielectric constant tensor:
#      x y z
#    x 4.373940 0.000000 0.119490 
#    y 0.000000 3.629960 0.000000 
#    z 0.119490 0.000000 3.400540 
# 
# 
# High freq. dielectric constant tensor:
#      x y z
#    x 1.832930 0.000000 0.003360 
#    y 0.000000 1.798190 0.000000 
#    z 0.003360 0.000000 1.763040 
# 
# From -- ./inp_files/320231.got.cif
#   From: 2010.06.25/outbox.cif.g09.slc.cpg/sg12_161_cif.got.tgz:320231.got - 2010.06.28 00:19:55.
