data_PCOD8095041
_publ_section_title
;
Structure prediction by ZEFSAII (Michael W. Deem and Ramdas Pophale) SiO2 
 PCOD8095041
Probable space group: C 2/M
;
_chemical_formula_sum "Si O2"
_cell_formula_units_Z 56
_cell_length_a 29.482987
_cell_length_b 13.287327
_cell_length_c 23.915923
_cell_angle_alpha 90.000000
_cell_angle_beta 160.732552
_cell_angle_gamma 90.000000
_cell_volume 3091.586526
_symmetry_space_group_name_H-M "C 2/M"
_symmetry_group_IT_number 12
_symmetry_cell_setting 'monoclinic'
loop_
_space_group_symop_operation_xyz
x,y,z
-x,y,-z
-x,-y,-z
x,-y,z
1/2+x,1/2+y,z
1/2-x,1/2+y,-z
1/2-x,1/2-y,-z
1/2+x,1/2-y,z
loop_
_atom_site_type_symbol
_atom_site_label
_atom_site_fract_x
_atom_site_fract_y
_atom_site_fract_z
Si Si1 0.379622 0.884952 0.161863
Si Si2 0.066442 0.613623 0.132953
Si Si3 0.721116 0.750888 0.057668
Si Si4 0.622877 0.611787 0.484388
Si Si5 0.060119 0.753758 0.225431
Si Si6 0.421998 0.616689 0.352778
Si Si7 0.848431 0.695994 0.552396
O O1 0.320746 0.835085 0.149780
O O2 0.547155 0.879478 0.357520
O O3 0.332314 0.000000 0.105396
O O4 0.318012 0.830268 0.036055
O O5 0.013834 0.500000 0.081170
O O6 0.229356 0.618533 0.314795
O O7 0.014232 0.678216 0.123909
O O8 0.000000 0.660013 0.000000
O O9 0.790522 0.811689 0.189773
O O10 0.581621 0.695645 0.918098
O O11 0.597627 0.500000 0.429943
O O12 0.515705 0.636224 0.407980
O O13 0.610143 0.690885 0.419195
O O14 0.127971 0.687239 0.353822
O O15 0.185498 0.827717 0.350478
O O16 0.500000 0.650325 0.500000
O O17 0.376995 0.500000 0.305389
#
# Coordination Sequence:
#
# PCOD8095041 Si02
#       7
#     8   8   8   8   8   8   8
#     4  10  20  35  56  77 104 140 176 213 261 317
#     4   9  18  30  47  72 105 141 174 207 254 316
#     4  10  20  35  52  80 110 138 172 218 264 305
#     4   9  17  31  49  72 105 140 172 213 261 312
#     4   9  19  31  50  71 103 134 169 217 257 305
#     4  10  20  31  49  77 110 145 178 212 259 317
#     4   9  17  35  51  73 102 134 176 214 258 308
#
# _framework density 18.113676999999999
#
# number of rings (size 3 to 8) (size 9 to 14) (size 15 to 20)
#    0.000    2.571    1.429    0.429    2.000    2.857 
#    0.000    4.286    0.000    0.429    0.000    0.000 
#    0.000    7.714    0.000    0.000    0.000    0.000 
#
# Total GULP energy -346989.174428 kJ/mol
# GULP energy per Si atom -12392.470515 kJ/mol
# Density = 1.807245 g / cm^3
# Si number density = 18.113677 Si / 1000 Ang^3
#
#
#
# Elastic Constant Matrix: (Units=GPa)
#
#
# Indices 1 2 3 4 5 6 
#
# 1 79.3097 27.4423 45.3980 -0.0048 2.8482 -0.0027
# 2 27.4423 60.7906 27.0449 -0.0094 -1.3426 -0.0066
# 3 45.3980 27.0449 87.9649 -0.0078 9.3225 -0.0070
# 4 -0.0048 -0.0094 -0.0078 22.4771 -0.0046 -5.2079
# 5 2.8482 -1.3426 9.3225 -0.0046 42.7452 -0.0028
# 6 -0.0027 -0.0066 -0.0070 -5.2079 -0.0028 6.3087
#
#
#
# Elastic Compliance Matrix: (Units=1/GPa)
#
#
# Indices 1 2 3 4 5 6 
#
# 1 0.019085 -0.004872 -0.008395 -0.000003 0.000406 -0.000008
# 2 -0.004872 0.020455 -0.003969 0.000013 0.001833 0.000026
# 3 -0.008395 -0.003969 0.017274 0.000005 -0.003333 0.000014
# 4 -0.000003 0.000013 0.000005 0.055012 0.000008 0.045413
# 5 0.000406 0.001833 -0.003333 0.000008 0.024152 0.000016
# 6 -0.000008 0.000026 0.000014 0.045413 0.000016 0.196001
#
#
# Mechanical properties :
#
#
# Convention : Reuss Voigt Hill
#
# Bulk Modulus (GPa) = 44.75589 47.53729 46.14659
# Shear Modulus (GPa) = 13.37261 22.85153 18.11207
#
# Velocity S-wave (km/s) = 2.72004 3.55570 3.16557
# Velocity P-wave (km/s) = 5.88446 6.56949 6.23639
#
# Compressibility (1/GPa) = 0.02234343
#
# Stress axis : x y z
#
# Youngs Moduli (GPa) = 52.39618 48.88698 57.88962
#
# Poissons Ratio (x) = 0.23817 0.48599
# Poissons Ratio (y) = 0.25526 0.22976
# Poissons Ratio (z) = 0.43987 0.19403
#
# Static dielectric constant tensor:
#      x y z
#    x 3.398370 0.000000 0.238590 
#    y 0.000000 3.014150 0.000000 
#    z 0.238590 0.000000 3.592710 
# 
# 
# High freq. dielectric constant tensor:
#      x y z
#    x 1.702190 0.000000 0.020470 
#    y 0.000000 1.652120 0.000000 
#    z 0.020470 0.000000 1.709960 
# 
# From -- ./inp_files/165019.got.cif
#   From: 2010.06.25/outbox.cif.g09.slc.cpg/sg12_83_cif.got.tgz:165019.got - 2010.06.28 00:19:55.
