data_PCOD8095218
_publ_section_title
;
Structure prediction by ZEFSAII (Michael W. Deem and Ramdas Pophale) SiO2 
 PCOD8095218
Probable space group: C 2/M
;
_chemical_formula_sum "Si O2"
_cell_formula_units_Z 48
_cell_length_a 29.507300
_cell_length_b 9.305939
_cell_length_c 9.180894
_cell_angle_alpha 90.000000
_cell_angle_beta 82.622360
_cell_angle_gamma 90.000000
_cell_volume 2500.139892
_symmetry_space_group_name_H-M "C 2/M"
_symmetry_group_IT_number 12
_symmetry_cell_setting 'monoclinic'
loop_
_space_group_symop_operation_xyz
x,y,z
-x,y,-z
-x,-y,-z
x,-y,z
1/2+x,1/2+y,z
1/2-x,1/2+y,-z
1/2-x,1/2-y,-z
1/2+x,1/2-y,z
loop_
_atom_site_type_symbol
_atom_site_label
_atom_site_fract_x
_atom_site_fract_y
_atom_site_fract_z
Si Si1 0.137357 0.668658 0.731437
Si Si2 0.066270 0.831794 0.578078
Si Si3 0.902737 0.337862 0.937462
Si Si4 0.806024 0.336604 0.901794
Si Si5 0.031771 0.833170 0.277185
Si Si6 0.216670 0.164714 0.809056
O O1 0.141643 0.500000 0.703557
O O2 0.108624 0.737872 0.613582
O O3 0.188525 0.736925 0.707329
O O4 0.113583 0.707945 0.894646
O O5 0.056466 0.787207 0.416224
O O6 0.021738 0.793901 0.693300
O O7 0.077829 0.000000 0.586015
O O8 0.920442 0.500000 0.931871
O O9 0.859866 0.318238 0.842703
O O10 0.945527 0.244212 0.869635
O O11 0.799488 0.500000 0.969422
O O12 0.772456 0.318851 0.774380
O O13 0.794061 0.214113 0.022656
O O14 0.038227 0.000000 0.248477
O O15 0.201483 0.000000 0.793012
#
# Coordination Sequence:
#
# PCOD8095218 Si02
#       6
#     8   8   8   8   8   8
#     4  10  20  32  47  72 102 127 156 196 238 279
#     4   9  19  36  53  69  92 123 159 198 239 283
#     4   9  18  31  47  71 102 128 153 191 236 279
#     4   8  15  27  42  65  97 128 157 191 231 276
#     4   9  19  35  53  71  92 121 159 199 237 283
#     4   9  15  25  44  67  93 127 161 192 230 275
#
# _framework density 19.198926
#
# number of rings (size 3 to 8) (size 9 to 14) (size 15 to 20)
#    0.000    3.000    0.000    3.000    0.000    6.000 
#    0.000    5.000    0.000    1.000    0.000    0.000 
#    0.000    0.000    0.000    0.000    0.000    0.000 
#
# Total GULP energy -297380.716271 kJ/mol
# GULP energy per Si atom -12390.863178 kJ/mol
# Density = 1.915523 g / cm^3
# Si number density = 19.198926 Si / 1000 Ang^3
#
#
#
# Elastic Constant Matrix: (Units=GPa)
#
#
# Indices 1 2 3 4 5 6 
#
# 1 45.5697 17.5376 -0.4473 0.0000 28.2724 0.0000
# 2 17.5376 62.0554 8.7785 0.0000 15.6798 0.0000
# 3 -0.4473 8.7785 14.7236 0.0000 10.5654 0.0000
# 4 0.0000 0.0000 0.0000 22.4935 0.0000 2.9163
# 5 28.2724 15.6798 10.5654 0.0000 31.8659 0.0000
# 6 0.0000 0.0000 0.0000 2.9163 0.0000 29.9610
#
#
#
# Elastic Compliance Matrix: (Units=1/GPa)
#
#
# Indices 1 2 3 4 5 6 
#
# 1 0.090659 -0.011519 0.083027 0.000000 -0.102295 0.000000
# 2 -0.011519 0.020261 -0.016547 0.000000 0.005737 0.000000
# 3 0.083027 -0.016547 0.167074 0.000000 -0.120917 0.000000
# 4 0.000000 0.000000 0.000000 0.045026 0.000000 -0.004383
# 5 -0.102295 0.005737 -0.120917 0.000000 0.159409 0.000000
# 6 0.000000 0.000000 0.000000 -0.004383 0.000000 0.033803
#
#
# Mechanical properties :
#
#
# Convention : Reuss Voigt Hill
#
# Bulk Modulus (GPa) = 2.57787 19.34294 10.96040
# Shear Modulus (GPa) = 9.33507 23.29607 16.31557
#
# Velocity S-wave (km/s) = 2.20745 3.48717 2.91832
# Velocity P-wave (km/s) = 2.80049 5.12940 4.13240
#
# Compressibility (1/GPa) = 0.38791686
#
# Stress axis : x y z
#
# Youngs Moduli (GPa) = 11.03035 49.35509 5.98539
#
# Poissons Ratio (x) = 0.56853 -0.49695
# Poissons Ratio (y) = 0.12706 0.09904
# Poissons Ratio (z) = -0.91582 0.81666
#
# Static dielectric constant tensor:
#      x y z
#    x 3.815880 0.000000 0.233930 
#    y 0.000000 3.436490 0.000000 
#    z 0.233930 0.000000 3.002120 
# 
# 
# High freq. dielectric constant tensor:
#      x y z
#    x 1.758300 0.000000 0.023380 
#    y 0.000000 1.749090 0.000000 
#    z 0.023380 0.000000 1.691660 
# 
# From -- ./inp_files/108603.got.cif
#   From: 2010.06.25/outbox.cif.g09.slc.cpg/sg12_55_cif.got.tgz:108603.got - 2010.06.28 00:19:55.
