data_PCOD8095846
_publ_section_title
;
Structure prediction by ZEFSAII (Michael W. Deem and Ramdas Pophale) SiO2 
 PCOD8095846
Probable space group: C 2/M
;
_chemical_formula_sum "Si O2"
_cell_formula_units_Z 64
_cell_length_a 28.221679
_cell_length_b 9.372405
_cell_length_c 15.481354
_cell_angle_alpha 90.000000
_cell_angle_beta 115.538488
_cell_angle_gamma 90.000000
_cell_volume 3694.807483
_symmetry_space_group_name_H-M "C 2/M"
_symmetry_group_IT_number 12
_symmetry_cell_setting 'monoclinic'
loop_
_space_group_symop_operation_xyz
x,y,z
-x,y,-z
-x,-y,-z
x,-y,z
1/2+x,1/2+y,z
1/2-x,1/2+y,-z
1/2-x,1/2-y,-z
1/2+x,1/2-y,z
loop_
_atom_site_type_symbol
_atom_site_label
_atom_site_fract_x
_atom_site_fract_y
_atom_site_fract_z
Si Si1 0.091402 0.164522 0.894280
Si Si2 0.465511 0.166878 0.392539
Si Si3 0.275067 0.162553 0.595983
Si Si4 0.885298 0.332897 0.756166
Si Si5 0.255415 0.665945 0.237074
Si Si6 0.868770 0.833915 0.261216
Si Si7 0.846276 0.831347 0.885357
Si Si8 0.504267 0.165609 0.235649
O O1 0.123695 0.203570 0.833463
O O2 0.037338 0.251843 0.856377
O O3 0.075348 0.000000 0.883029
O O4 0.127534 0.205279 0.002903
O O5 0.500000 0.220137 0.500000
O O6 0.410244 0.248353 0.351908
O O7 0.497204 0.205652 0.330497
O O8 0.453315 0.000000 0.389703
O O9 0.250000 0.250000 0.500000
O O10 0.336054 0.204507 0.656274
O O11 0.243793 0.193119 0.659762
O O12 0.269893 0.000000 0.563916
O O13 0.883994 0.500000 0.780660
O O14 0.882425 0.239703 0.840495
O O15 0.937376 0.289263 0.745737
O O16 0.243263 0.500000 0.207646
O O17 0.310767 0.715374 0.242033
O O18 0.211318 0.762379 0.157628
O O19 0.877192 0.000000 0.286959
O O20 0.841831 0.000000 0.865356
O O21 0.494350 0.000000 0.211567
#
# Coordination Sequence:
#
# PCOD8095846 Si02
#       8
#     8   8   8   8   8   8   8   8
#     4   9  19  34  50  72 101 127 155 198 245 284
#     4   9  18  32  50  74 102 128 158 200 244 283
#     4   9  18  32  49  70  96 124 156 196 238 280
#     4   9  19  35  51  69  97 130 163 199 237 281
#     4   9  19  35  52  71  97 128 162 199 238 284
#     4   9  18  34  53  71  96 130 163 196 238 288
#     4  10  20  33  50  73  99 126 159 199 243 288
#     4   9  18  33  52  72  95 128 166 197 233 286
#
# _framework density 17.321605999999999
#
# number of rings (size 3 to 8) (size 9 to 14) (size 15 to 20)
#    0.000    2.875    0.000    1.125    0.000    6.250 
#    0.000    3.750    0.000    0.000    0.000    0.000 
#    0.000    0.000    0.000    0.000    0.000    0.000 
#
# Total GULP energy -396849.165421 kJ/mol
# GULP energy per Si atom -12401.536419 kJ/mol
# Density = 1.728218 g / cm^3
# Si number density = 17.321606 Si / 1000 Ang^3
#
#
#
# Elastic Constant Matrix: (Units=GPa)
#
#
# Indices 1 2 3 4 5 6 
#
# 1 153.5600 53.3506 66.0466 0.0000 12.9469 0.0000
# 2 53.3506 62.4209 62.9803 0.0000 7.5938 0.0000
# 3 66.0466 62.9803 139.0744 0.0000 11.6668 0.0000
# 4 0.0000 0.0000 0.0000 33.1391 0.0000 5.1059
# 5 12.9469 7.5938 11.6668 0.0000 14.3768 0.0000
# 6 0.0000 0.0000 0.0000 5.1059 0.0000 27.8993
#
#
#
# Elastic Compliance Matrix: (Units=1/GPa)
#
#
# Indices 1 2 3 4 5 6 
#
# 1 0.009668 -0.006396 -0.001339 0.000000 -0.004241 0.000000
# 2 -0.006396 0.034081 -0.012200 0.000000 -0.002342 0.000000
# 3 -0.001339 -0.012200 0.013638 0.000000 -0.003417 0.000000
# 4 0.000000 0.000000 0.000000 0.031051 0.000000 -0.005683
# 5 -0.004241 -0.002342 -0.003417 0.000000 0.077386 0.000000
# 6 0.000000 0.000000 0.000000 -0.005683 0.000000 0.036883
#
#
# Mechanical properties :
#
#
# Convention : Reuss Voigt Hill
#
# Bulk Modulus (GPa) = 57.08805 79.97892 68.53349
# Shear Modulus (GPa) = 20.12760 26.59488 23.36124
#
# Velocity S-wave (km/s) = 3.41250 3.92262 3.67642
# Velocity P-wave (km/s) = 6.96822 8.17246 7.59425
#
# Compressibility (1/GPa) = 0.01751680
#
# Stress axis : x y z
#
# Youngs Moduli (GPa) = 103.43701 29.34206 73.32647
#
# Poissons Ratio (x) = 0.18767 0.09818
# Poissons Ratio (y) = 0.66158 0.89456
# Poissons Ratio (z) = 0.13850 0.35797
#
# Static dielectric constant tensor:
#      x y z
#    x 3.446210 0.000000 -0.003290 
#    y 0.000000 3.196740 0.000000 
#    z -0.003290 0.000000 3.183640 
# 
# 
# High freq. dielectric constant tensor:
#      x y z
#    x 1.672560 0.000000 0.001820 
#    y 0.000000 1.667290 0.000000 
#    z 0.001820 0.000000 1.666740 
# 
# From -- ./inp_files/249187.got.cif
#   From: 2010.06.25/outbox.cif.g09.slc.cpg/sg12_125_cif.got.tgz:249187.got - 2010.06.28 00:19:55.
