data_PCOD8095145
_publ_section_title
;
Structure prediction by ZEFSAII (Michael W. Deem and Ramdas Pophale) SiO2 
 PCOD8095145
Probable space group: C 2/M
;
_chemical_formula_sum "Si O2"
_cell_formula_units_Z 64
_cell_length_a 23.128281
_cell_length_b 10.186408
_cell_length_c 25.551850
_cell_angle_alpha 90.000000
_cell_angle_beta 142.415756
_cell_angle_gamma 90.000000
_cell_volume 3671.679967
_symmetry_space_group_name_H-M "C 2/M"
_symmetry_group_IT_number 12
_symmetry_cell_setting 'monoclinic'
loop_
_space_group_symop_operation_xyz
x,y,z
-x,y,-z
-x,-y,-z
x,-y,z
1/2+x,1/2+y,z
1/2-x,1/2+y,-z
1/2-x,1/2-y,-z
1/2+x,1/2-y,z
loop_
_atom_site_type_symbol
_atom_site_label
_atom_site_fract_x
_atom_site_fract_y
_atom_site_fract_z
Si Si1 0.996238 0.154989 0.078110
Si Si2 0.997240 0.151259 0.696805
Si Si3 0.068051 0.843864 0.237620
Si Si4 0.154963 0.844504 0.111122
Si Si5 0.926152 0.224277 0.405815
Si Si6 0.565378 0.854029 0.431487
Si Si7 0.178655 0.858272 0.766269
Si Si8 0.778912 0.350269 0.375237
O O1 0.004985 0.209553 0.143551
O O2 0.088958 0.197834 0.112149
O O3 0.994104 0.000000 0.075436
O O4 0.898868 0.201594 0.980696
O O5 0.979337 0.204011 0.742612
O O6 0.938545 0.244202 0.615912
O O7 0.109189 0.163968 0.765818
O O8 0.962877 0.000000 0.665244
O O9 0.174678 0.788019 0.308292
O O10 0.071102 0.000000 0.238602
O O11 0.251300 0.763879 0.185499
O O12 0.178321 0.000000 0.127942
O O13 0.887143 0.128546 0.332864
O O14 0.833520 0.276005 0.368609
O O15 0.000000 0.155490 0.500000
O O16 0.985077 0.339296 0.418882
O O17 0.668072 0.838454 0.531410
O O18 0.553724 0.000000 0.398981
O O19 0.230750 0.000000 0.809564
O O20 0.770328 0.500000 0.350576
#
# Coordination Sequence:
#
# PCOD8095145 Si02
#       8
#     8   8   8   8   8   8   8   8
#     4   8  15  29  51  77  98 115 144 190 235 275
#     4   9  19  33  46  62  89 128 166 192 219 264
#     4   9  16  28  47  67  90 122 158 193 228 269
#     4   9  17  31  53  78  97 115 146 188 234 281
#     4   9  17  29  46  69  96 122 150 189 235 278
#     4   9  17  29  46  69  96 122 150 191 238 276
#     4  10  20  32  46  67  95 126 158 189 224 269
#     4   9  16  26  45  73  95 115 151 196 238 277
#
# _framework density 17.430713000000001
#
# number of rings (size 3 to 8) (size 9 to 14) (size 15 to 20)
#    0.000    3.000    0.000    1.875    0.000    5.750 
#    0.000    3.750    0.000    3.750    0.000    0.000 
#    0.000    0.000    0.000    0.000    0.000    0.000 
#
# Total GULP energy -396524.236892 kJ/mol
# GULP energy per Si atom -12391.382403 kJ/mol
# Density = 1.739104 g / cm^3
# Si number density = 17.430713 Si / 1000 Ang^3
#
#
#
# Elastic Constant Matrix: (Units=GPa)
#
#
# Indices 1 2 3 4 5 6 
#
# 1 107.1309 24.2565 54.0417 0.0000 -14.4467 0.0000
# 2 24.2565 55.4687 31.5011 0.0000 -1.7279 0.0000
# 3 54.0417 31.5011 96.4651 0.0000 -6.8507 0.0000
# 4 0.0000 0.0000 0.0000 15.5980 0.0000 1.8235
# 5 -14.4467 -1.7279 -6.8507 0.0000 25.3565 0.0000
# 6 0.0000 0.0000 0.0000 1.8235 0.0000 13.8973
#
#
#
# Elastic Compliance Matrix: (Units=1/GPa)
#
#
# Indices 1 2 3 4 5 6 
#
# 1 0.014025 -0.002120 -0.006737 0.000000 0.006026 0.000000
# 2 -0.002120 0.022458 -0.006243 0.000000 -0.001364 0.000000
# 3 -0.006737 -0.006243 0.016187 0.000000 0.000109 0.000000
# 4 0.000000 0.000000 0.000000 0.065109 0.000000 -0.008543
# 5 0.006026 -0.001364 0.000109 0.000000 0.042808 0.000000
# 6 0.000000 0.000000 0.000000 -0.008543 0.000000 0.073077
#
#
# Mechanical properties :
#
#
# Convention : Reuss Voigt Hill
#
# Bulk Modulus (GPa) = 44.50199 53.18482 48.84340
# Shear Modulus (GPa) = 18.42599 20.92139 19.67369
#
# Velocity S-wave (km/s) = 3.25483 3.46824 3.36323
# Velocity P-wave (km/s) = 6.30170 6.82763 6.56993
#
# Compressibility (1/GPa) = 0.02247091
#
# Stress axis : x y z
#
# Youngs Moduli (GPa) = 71.29873 44.52719 61.77669
#
# Poissons Ratio (x) = 0.09438 0.41621
# Poissons Ratio (y) = 0.15112 0.38569
# Poissons Ratio (z) = 0.48036 0.27800
#
# Static dielectric constant tensor:
#      x y z
#    x 3.336330 0.000000 -0.185370 
#    y 0.000000 2.868620 0.000000 
#    z -0.185370 0.000000 3.445350 
# 
# 
# High freq. dielectric constant tensor:
#      x y z
#    x 1.667600 0.000000 -0.005220 
#    y 0.000000 1.635050 0.000000 
#    z -0.005220 0.000000 1.672830 
# 
# From -- ./inp_files/346854.got.cif
#   From: 2010.06.25/outbox.cif.g09.slc.cpg/sg12_174_cif.got.tgz:346854.got - 2010.06.28 00:19:55.
