data_PCOD8095333
_publ_section_title
;
Structure prediction by ZEFSAII (Michael W. Deem and Ramdas Pophale) SiO2 
 PCOD8095333
Probable space group: C 2/M
;
_chemical_formula_sum "Si O2"
_cell_formula_units_Z 40
_cell_length_a 15.722250
_cell_length_b 9.449295
_cell_length_c 31.119036
_cell_angle_alpha 90.000000
_cell_angle_beta 28.078542
_cell_angle_gamma 90.000000
_cell_volume 2176.042389
_symmetry_space_group_name_H-M "C 2/M"
_symmetry_group_IT_number 12
_symmetry_cell_setting 'monoclinic'
loop_
_space_group_symop_operation_xyz
x,y,z
-x,y,-z
-x,-y,-z
x,-y,z
1/2+x,1/2+y,z
1/2-x,1/2+y,-z
1/2-x,1/2-y,-z
1/2+x,1/2-y,z
loop_
_atom_site_type_symbol
_atom_site_label
_atom_site_fract_x
_atom_site_fract_y
_atom_site_fract_z
Si Si1 0.715214 0.834532 0.284311
Si Si2 0.817965 0.668220 0.603677
Si Si3 0.570374 0.661196 0.079501
Si Si4 0.900769 0.653844 0.088868
Si Si5 0.968729 0.838550 0.709699
O O1 0.679918 0.776661 0.348099
O O2 0.591731 0.749168 0.305466
O O3 0.930714 0.811288 0.180767
O O4 0.665883 0.000000 0.301196
O O5 0.805126 0.500000 0.610388
O O6 0.648972 0.726902 0.651085
O O7 0.000000 0.722732 0.500000
O O8 0.629083 0.500000 0.050327
O O9 0.465978 0.707491 0.083770
O O10 0.750000 0.750000 0.000000
O O11 0.948386 0.500000 0.089426
O O12 0.683081 0.665935 0.184851
O O13 0.000000 0.657586 0.000000
O O14 0.002732 0.000000 0.679347
#
# Coordination Sequence:
#
# PCOD8095333 Si02
#       5
#     8   8   8   8   8
#     4   9  19  35  54  75 105 138 171 213 260 309
#     4   9  18  33  55  80 102 133 176 215 256 309
#     4  10  20  32  49  73 103 136 172 211 255 306
#     4   9  18  31  50  73 100 135 173 210 253 305
#     4   9  18  33  53  76 104 136 173 214 256 306
#
# _framework density 18.381993999999999
#
# number of rings (size 3 to 8) (size 9 to 14) (size 15 to 20)
#    0.000    2.800    0.000    0.600    2.800    2.000 
#    0.000    1.000    0.000    1.200    0.000    0.000 
#    0.000    0.000    0.000    0.000    0.000    0.000 
#
# Total GULP energy -247771.133891 kJ/mol
# GULP energy per Si atom -12388.556695 kJ/mol
# Density = 1.834016 g / cm^3
# Si number density = 18.381994 Si / 1000 Ang^3
#
#
#
# Elastic Constant Matrix: (Units=GPa)
#
#
# Indices 1 2 3 4 5 6 
#
# 1 124.4163 45.0709 85.2727 -0.0002 -2.0810 -0.0034
# 2 45.0709 61.8296 52.2038 0.0000 0.2371 -0.0033
# 3 85.2727 52.2038 148.8794 -0.0008 -1.9411 -0.0028
# 4 -0.0002 0.0000 -0.0008 15.7099 -0.0012 8.1182
# 5 -2.0810 0.2371 -1.9411 -0.0012 32.7090 0.0016
# 6 -0.0034 -0.0033 -0.0028 8.1182 0.0016 -5.3699
#
#
#
# Elastic Compliance Matrix: (Units=1/GPa)
#
#
# Indices 1 2 3 4 5 6 
#
# 1 0.014238 -0.004974 -0.006403 0.000001 0.000562 -0.000002
# 2 -0.004974 0.024727 -0.005832 0.000002 -0.000842 -0.000005
# 3 -0.006403 -0.005832 0.012434 0.000000 0.000373 0.000001
# 4 0.000001 0.000002 0.000000 0.035736 -0.000001 0.054025
# 5 0.000562 -0.000842 0.000373 -0.000001 0.030637 0.000007
# 6 -0.000002 -0.000005 0.000001 0.054025 0.000007 -0.104547
#
#
# Mechanical properties :
#
#
# Convention : Reuss Voigt Hill
#
# Bulk Modulus (GPa) = 58.89530 77.80223 68.34877
# Shear Modulus (GPa) = 93.80197 18.78166 56.29182
#
# Velocity S-wave (km/s) = 7.15123 3.19994 5.53984
# Velocity P-wave (km/s) = 10.01479 7.48799 8.84211
#
# Compressibility (1/GPa) = 0.01697928
#
# Stress axis : x y z
#
# Youngs Moduli (GPa) = 70.23669 40.44148 80.42272
#
# Poissons Ratio (x) = 0.20117 0.51496
# Poissons Ratio (y) = 0.34938 0.46905
# Poissons Ratio (z) = 0.44974 0.23587
#
# Static dielectric constant tensor:
#      x y z
#    x 3.676830 0.000000 -0.583510 
#    y 0.000000 3.412700 0.000040 
#    z -0.583510 0.000040 5.634910 
# 
# 
# High freq. dielectric constant tensor:
#      x y z
#    x 1.697970 0.000000 -0.003860 
#    y 0.000000 1.692100 0.000000 
#    z -0.003860 0.000000 1.725390 
# 
# From -- ./inp_files/211440.got.cif
#   From: 2010.06.25/outbox.cif.g09.slc.cpg/sg12_106_cif.got.tgz:211440.got - 2010.06.28 00:19:55.
