data_PCOD8095588
_publ_section_title
;
Structure prediction by ZEFSAII (Michael W. Deem and Ramdas Pophale) SiO2 
 PCOD8095588
Probable space group: C 2/M
;
_chemical_formula_sum "Si O2"
_cell_formula_units_Z 64
_cell_length_a 20.672397
_cell_length_b 9.775613
_cell_length_c 20.949559
_cell_angle_alpha 90.000000
_cell_angle_beta 61.976531
_cell_angle_gamma 90.000000
_cell_volume 3737.231628
_symmetry_space_group_name_H-M "C 2/M"
_symmetry_group_IT_number 12
_symmetry_cell_setting 'monoclinic'
loop_
_space_group_symop_operation_xyz
x,y,z
-x,y,-z
-x,-y,-z
x,-y,z
1/2+x,1/2+y,z
1/2-x,1/2+y,-z
1/2-x,1/2-y,-z
1/2+x,1/2-y,z
loop_
_atom_site_type_symbol
_atom_site_label
_atom_site_fract_x
_atom_site_fract_y
_atom_site_fract_z
Si Si1 0.458519 0.337686 0.337973
Si Si2 0.706487 0.658828 0.834378
Si Si3 0.469268 0.662596 0.822865
Si Si4 0.716353 0.156124 0.333742
Si Si5 0.400551 0.652342 0.659754
Si Si6 0.793982 0.160191 0.429925
Si Si7 0.539998 0.662857 0.918653
Si Si8 0.822540 0.152245 0.831846
O O1 0.459513 0.500000 0.331237
O O2 0.482923 0.276042 0.257987
O O3 0.516185 0.294122 0.366852
O O4 0.377688 0.286903 0.393643
O O5 0.713864 0.500000 0.848665
O O6 0.732034 0.688108 0.750431
O O7 0.623821 0.711968 0.879494
O O8 0.755139 0.742521 0.862666
O O9 0.477134 0.500000 0.818770
O O10 0.499242 0.723930 0.875312
O O11 0.383368 0.701833 0.854988
O O12 0.642786 0.247597 0.367780
O O13 0.763565 0.189971 0.373806
O O14 0.689773 0.000000 0.345148
O O15 0.400894 0.500000 0.629317
O O16 0.361504 0.648781 0.745745
O O17 0.750000 0.250000 0.500000
O O18 0.787523 0.000000 0.450432
O O19 0.536375 0.500000 0.918869
O O20 0.500000 0.721089 0.000000
O O21 0.793568 0.000000 0.862180
#
# Coordination Sequence:
#
# PCOD8095588 Si02
#       8
#     8   8   8   8   8   8   8   8
#     4   8  14  27  47  66  83 109 147 184 213 249
#     4   9  16  27  45  67  89 113 142 178 218 257
#     4   8  13  24  44  66  85 110 147 184 214 249
#     4   9  17  29  46  67  89 114 142 174 217 264
#     4   8  14  26  46  69  87 106 140 183 218 250
#     4  10  20  33  47  64  88 116 146 179 215 256
#     4   9  16  25  39  62  90 117 147 183 217 249
#     4   8  14  25  43  66  88 110 140 179 218 256
#
# _framework density 17.124974000000002
#
# number of rings (size 3 to 8) (size 9 to 14) (size 15 to 20)
#    0.000    3.375    0.000    2.250    0.000    3.500 
#    0.000    1.875    0.000    5.625    0.000    0.000 
#    0.000    0.000    0.000    0.000    0.000    0.000 
#
# Total GULP energy -396623.084947 kJ/mol
# GULP energy per Si atom -12394.471405 kJ/mol
# Density = 1.708600 g / cm^3
# Si number density = 17.124974 Si / 1000 Ang^3
#
#
#
# Elastic Constant Matrix: (Units=GPa)
#
#
# Indices 1 2 3 4 5 6 
#
# 1 169.7432 59.2986 58.6807 0.0000 -20.7438 0.0000
# 2 59.2986 47.3414 31.1999 0.0001 -6.0727 -0.0002
# 3 58.6807 31.1999 69.8394 0.0000 -12.4506 0.0000
# 4 0.0000 0.0001 0.0000 12.7689 0.0000 -2.8603
# 5 -20.7438 -6.0727 -12.4506 0.0000 9.1579 0.0000
# 6 0.0000 -0.0002 0.0000 -2.8603 0.0000 27.2033
#
#
#
# Elastic Compliance Matrix: (Units=1/GPa)
#
#
# Indices 1 2 3 4 5 6 
#
# 1 0.013536 -0.013114 -0.002110 0.000000 0.019095 0.000000
# 2 -0.013114 0.042677 -0.010951 0.000000 -0.016295 0.000000
# 3 -0.002110 -0.010951 0.024864 0.000000 0.021762 0.000000
# 4 0.000000 0.000000 0.000000 0.080204 0.000000 0.008433
# 5 0.019095 -0.016295 0.021762 0.000000 0.171229 0.000000
# 6 0.000000 0.000000 0.000000 0.008433 0.000000 0.037647
#
#
# Mechanical properties :
#
#
# Convention : Reuss Voigt Hill
#
# Bulk Modulus (GPa) = 34.81378 65.03137 49.92257
# Shear Modulus (GPa) = 11.57184 19.00900 15.29042
#
# Velocity S-wave (km/s) = 2.60230 3.33531 2.99134
# Velocity P-wave (km/s) = 5.42242 7.27251 6.41452
#
# Compressibility (1/GPa) = 0.02872426
#
# Stress axis : x y z
#
# Youngs Moduli (GPa) = 73.87878 23.43182 40.21952
#
# Poissons Ratio (x) = 0.30729 0.08487
# Poissons Ratio (y) = 0.96887 0.44046
# Poissons Ratio (z) = 0.15590 0.25661
#
# Static dielectric constant tensor:
#      x y z
#    x 3.643040 0.000000 -0.032180 
#    y 0.000000 2.933900 0.000000 
#    z -0.032180 0.000000 3.079000 
# 
# 
# High freq. dielectric constant tensor:
#      x y z
#    x 1.679060 0.000000 -0.001560 
#    y 0.000000 1.615150 0.000000 
#    z -0.001560 0.000000 1.632230 
# 
# From -- ./inp_files/319908.got.cif
#   From: 2010.06.25/outbox.cif.g09.slc.cpg/sg12_160_cif.got.tgz:319908.got - 2010.06.28 00:19:55.
