data_PCOD8095292
_publ_section_title
;
Structure prediction by ZEFSAII (Michael W. Deem and Ramdas Pophale) SiO2 
 PCOD8095292
Probable space group: C 2/M
;
_chemical_formula_sum "Si O2"
_cell_formula_units_Z 56
_cell_length_a 19.246816
_cell_length_b 8.661891
_cell_length_c 20.371080
_cell_angle_alpha 90.000000
_cell_angle_beta 122.889734
_cell_angle_gamma 90.000000
_cell_volume 2851.797598
_symmetry_space_group_name_H-M "C 2/M"
_symmetry_group_IT_number 12
_symmetry_cell_setting 'monoclinic'
loop_
_space_group_symop_operation_xyz
x,y,z
-x,y,-z
-x,-y,-z
x,-y,z
1/2+x,1/2+y,z
1/2-x,1/2+y,-z
1/2-x,1/2-y,-z
1/2+x,1/2-y,z
loop_
_atom_site_type_symbol
_atom_site_label
_atom_site_fract_x
_atom_site_fract_y
_atom_site_fract_z
Si Si1 0.162599 0.683776 0.753181
Si Si2 0.252265 0.319804 0.928676
Si Si3 0.521204 0.321670 0.184738
Si Si4 0.182974 0.317732 0.417111
Si Si5 0.490590 0.316058 0.677063
Si Si6 0.435498 0.317831 0.016941
Si Si7 0.294128 0.320928 0.712659
O O1 0.160187 0.500000 0.752929
O O2 0.189638 0.744906 0.840417
O O3 0.227288 0.740840 0.730962
O O4 0.073900 0.752299 0.685814
O O5 0.238413 0.500000 0.930410
O O6 0.250000 0.250000 0.000000
O O7 0.343125 0.280726 0.947085
O O8 0.501243 0.500000 0.184338
O O9 0.506543 0.245642 0.247811
O O10 0.457111 0.247409 0.099897
O O11 0.615449 0.298022 0.208441
O O12 0.179691 0.500000 0.421471
O O13 0.250000 0.250000 0.500000
O O14 0.094436 0.250076 0.396261
O O15 0.209414 0.272174 0.356997
O O16 0.487940 0.500000 0.670652
O O17 0.451944 0.500000 0.029348
O O18 0.500000 0.240967 0.000000
O O19 0.278647 0.500000 0.687704
#
# Coordination Sequence:
#
# PCOD8095292 Si02
#       7
#     8   8   8   8   8   8   8
#     4  10  20  34  52  77 112 150 189 233 278 325
#     4  10  20  32  48  73 106 145 187 233 281 325
#     4   8  14  26  45  68  95 132 178 224 268 316
#     4  11  22  39  63  89 115 141 173 213 262 323
#     4  10  20  35  56  80 107 142 183 223 267 322
#     4   9  15  24  42  68  95 128 176 227 268 309
#     4   9  18  34  55  80 111 147 185 226 274 326
#
# _framework density 19.636738000000001
#
# number of rings (size 3 to 8) (size 9 to 14) (size 15 to 20)
#    0.000    2.429    0.000    4.286    0.000    5.714 
#    0.000    0.714    0.000    4.714    0.000    0.000 
#    0.000    0.000    0.000    0.000    0.000    0.000 
#
# Total GULP energy -346970.085495 kJ/mol
# GULP energy per Si atom -12391.788768 kJ/mol
# Density = 1.959204 g / cm^3
# Si number density = 19.636738 Si / 1000 Ang^3
#
#
#
# Elastic Constant Matrix: (Units=GPa)
#
#
# Indices 1 2 3 4 5 6 
#
# 1 85.2030 27.9710 16.8434 0.0000 13.3027 0.0000
# 2 27.9710 59.4450 28.8706 0.0000 5.3291 0.0000
# 3 16.8434 28.8706 101.9081 0.0000 14.9877 0.0000
# 4 0.0000 0.0000 0.0000 23.7768 0.0000 1.4623
# 5 13.3027 5.3291 14.9877 0.0000 27.4988 0.0000
# 6 0.0000 0.0000 0.0000 1.4623 0.0000 24.9470
#
#
#
# Elastic Compliance Matrix: (Units=1/GPa)
#
#
# Indices 1 2 3 4 5 6 
#
# 1 0.014772 -0.006557 0.000305 0.000000 -0.006042 0.000000
# 2 -0.006557 0.022434 -0.005543 0.000000 0.001846 0.000000
# 3 0.000305 -0.005543 0.012172 0.000000 -0.005707 0.000000
# 4 0.000000 0.000000 0.000000 0.042210 0.000000 -0.002474
# 5 -0.006042 0.001846 -0.005707 0.000000 0.042041 0.000000
# 6 0.000000 0.000000 0.000000 -0.002474 0.000000 0.040230
#
#
# Mechanical properties :
#
#
# Convention : Reuss Voigt Hill
#
# Bulk Modulus (GPa) = 38.77914 43.76955 41.27434
# Shear Modulus (GPa) = 24.26626 26.76928 25.51777
#
# Velocity S-wave (km/s) = 3.51915 3.69619 3.60876
# Velocity P-wave (km/s) = 6.02525 6.36819 6.19909
#
# Compressibility (1/GPa) = 0.02578706
#
# Stress axis : x y z
#
# Youngs Moduli (GPa) = 67.69392 44.57431 82.15425
#
# Poissons Ratio (x) = 0.29229 -0.02503
# Poissons Ratio (y) = 0.44389 0.45541
# Poissons Ratio (z) = -0.02062 0.24709
#
# Static dielectric constant tensor:
#      x y z
#    x 3.750010 0.000000 0.138270 
#    y 0.000000 3.212480 0.000000 
#    z 0.138270 0.000000 3.751810 
# 
# 
# High freq. dielectric constant tensor:
#      x y z
#    x 1.769770 0.000000 0.012490 
#    y 0.000000 1.728460 0.000000 
#    z 0.012490 0.000000 1.763240 
# 
# From -- ./inp_files/342545.got.cif
#   From: 2010.06.25/outbox.cif.g09.slc.cpg/sg12_172_cif.got.tgz:342545.got - 2010.06.28 00:19:55.
