data_PCOD8095737
_publ_section_title
;
Structure prediction by ZEFSAII (Michael W. Deem and Ramdas Pophale) SiO2 
 PCOD8095737
Probable space group: C 2/M
;
_chemical_formula_sum "Si O2"
_cell_formula_units_Z 56
_cell_length_a 29.359766
_cell_length_b 17.353253
_cell_length_c 6.859022
_cell_angle_alpha 90.000000
_cell_angle_beta 64.347335
_cell_angle_gamma 90.000000
_cell_volume 3150.141717
_symmetry_space_group_name_H-M "C 2/M"
_symmetry_group_IT_number 12
_symmetry_cell_setting 'monoclinic'
loop_
_space_group_symop_operation_xyz
x,y,z
-x,y,-z
-x,-y,-z
x,-y,z
1/2+x,1/2+y,z
1/2-x,1/2+y,-z
1/2-x,1/2-y,-z
1/2+x,1/2-y,z
loop_
_atom_site_type_symbol
_atom_site_label
_atom_site_fract_x
_atom_site_fract_y
_atom_site_fract_z
Si Si1 0.843938 0.708366 0.255354
Si Si2 0.276796 0.175228 0.033446
Si Si3 0.792197 0.589489 0.611371
Si Si4 0.794772 0.138555 0.494605
Si Si5 0.599489 0.584337 0.580943
Si Si6 0.944910 0.795555 0.068239
Si Si7 0.551284 0.586273 0.286422
O O1 0.826765 0.697482 0.063692
O O2 0.834648 0.632365 0.402235
O O3 0.809524 0.773727 0.419716
O O4 0.903263 0.728323 0.142839
O O5 0.238200 0.132505 0.249235
O O6 0.250000 0.250000 0.000000
O O7 0.293647 0.118475 0.830679
O O8 0.806097 0.500000 0.583138
O O9 0.736231 0.603399 0.628318
O O10 0.844563 0.088916 0.436011
O O11 0.577710 0.500000 0.674535
O O12 0.562660 0.648232 0.735690
O O13 0.598393 0.594747 0.349009
O O14 0.940578 0.847485 0.885033
O O15 0.000000 0.757476 0.000000
O O16 0.500000 0.599519 0.500000
O O17 0.551760 0.500000 0.191718
#
# Coordination Sequence:
#
# PCOD8095737 Si02
#       7
#     8   8   8   8   8   8   8
#     4  10  22  37  57  81 113 147 181 228 272 325
#     4  11  19  35  58  80 110 148 183 218 273 330
#     4  11  22  37  58  85 113 144 182 228 274 327
#     4  10  20  35  56  82 114 151 184 218 261 323
#     4  10  21  33  49  76 114 150 183 224 264 310
#     4  11  22  36  56  78 101 143 194 229 273 324
#     4  10  20  33  49  74 109 147 184 227 269 311
#
# _framework density 17.776978
#
# number of rings (size 3 to 8) (size 9 to 14) (size 15 to 20)
#    0.000    1.571    4.286    1.714    2.000    3.429 
#    0.000    2.857    0.000    0.429    0.000    1.000 
#    0.000    0.000    0.000    0.000    0.000    0.000 
#
# Total GULP energy -347171.570524 kJ/mol
# GULP energy per Si atom -12398.984662 kJ/mol
# Density = 1.773652 g / cm^3
# Si number density = 17.776978 Si / 1000 Ang^3
#
#
#
# Elastic Constant Matrix: (Units=GPa)
#
#
# Indices 1 2 3 4 5 6 
#
# 1 124.1306 45.3058 51.1297 0.0000 -3.0133 0.0000
# 2 45.3058 109.2603 44.7748 0.0000 3.0647 0.0000
# 3 51.1297 44.7748 87.5446 0.0000 11.1304 0.0000
# 4 0.0000 0.0000 0.0000 30.3923 0.0000 -12.1661
# 5 -3.0133 3.0647 11.1304 0.0000 30.2373 0.0000
# 6 0.0000 0.0000 0.0000 -12.1661 0.0000 68.1486
#
#
#
# Elastic Compliance Matrix: (Units=1/GPa)
#
#
# Indices 1 2 3 4 5 6 
#
# 1 0.011462 -0.002434 -0.005902 0.000000 0.003562 0.000000
# 2 -0.002434 0.012128 -0.004820 0.000000 0.000302 0.000000
# 3 -0.005902 -0.004820 0.018200 0.000000 -0.006799 0.000000
# 4 0.000000 0.000000 0.000000 0.035435 0.000000 0.006326
# 5 0.003562 0.000302 -0.006799 0.000000 0.035899 0.000000
# 6 0.000000 0.000000 0.000000 0.006326 0.000000 0.015803
#
#
# Mechanical properties :
#
#
# Convention : Reuss Voigt Hill
#
# Bulk Modulus (GPa) = 64.60987 67.03955 65.82471
# Shear Modulus (GPa) = 31.17223 37.73730 34.45477
#
# Velocity S-wave (km/s) = 4.19204 4.61240 4.40724
# Velocity P-wave (km/s) = 7.73657 8.13382 7.93768
#
# Compressibility (1/GPa) = 0.01547751
#
# Stress axis : x y z
#
# Youngs Moduli (GPa) = 87.24472 82.45045 54.94645
#
# Poissons Ratio (x) = 0.20068 0.32431
# Poissons Ratio (y) = 0.21235 0.26484
# Poissons Ratio (z) = 0.51494 0.39741
#
# Static dielectric constant tensor:
#      x y z
#    x 3.438620 0.000000 0.215970 
#    y 0.000000 3.325350 0.000000 
#    z 0.215970 0.000000 3.377670 
# 
# 
# High freq. dielectric constant tensor:
#      x y z
#    x 1.688860 0.000000 0.017900 
#    y 0.000000 1.663140 0.000000 
#    z 0.017900 0.000000 1.688190 
# 
# From -- ./inp_files/31861.got.cif
#   From: 2010.06.25/outbox.cif.g09.slc.cpg/sg12_16_cif.got.tgz:31861.got - 2010.06.28 00:19:55.
