data_PCOD8095431
_publ_section_title
;
Structure prediction by ZEFSAII (Michael W. Deem and Ramdas Pophale) SiO2 
 PCOD8095431
Probable space group: C 2/M
;
_chemical_formula_sum "Si O2"
_cell_formula_units_Z 64
_cell_length_a 12.034223
_cell_length_b 26.351094
_cell_length_c 20.785961
_cell_angle_alpha 90.000000
_cell_angle_beta 149.711299
_cell_angle_gamma 90.000000
_cell_volume 3324.491034
_symmetry_space_group_name_H-M "C 2/M"
_symmetry_group_IT_number 12
_symmetry_cell_setting 'monoclinic'
loop_
_space_group_symop_operation_xyz
x,y,z
-x,y,-z
-x,-y,-z
x,-y,z
1/2+x,1/2+y,z
1/2-x,1/2+y,-z
1/2-x,1/2-y,-z
1/2+x,1/2-y,z
loop_
_atom_site_type_symbol
_atom_site_label
_atom_site_fract_x
_atom_site_fract_y
_atom_site_fract_z
Si Si1 0.885066 0.292563 0.033038
Si Si2 0.942023 0.125274 0.680749
Si Si3 0.183688 0.397066 0.932675
Si Si4 0.566905 0.944916 0.460158
Si Si5 0.669469 0.723776 0.794924
Si Si6 0.739947 0.666928 0.146352
Si Si7 0.141542 0.103321 0.212299
Si Si8 0.640275 0.057680 0.134227
O O1 0.839460 0.344241 0.044697
O O2 0.143687 0.277652 0.167089
O O3 0.750000 0.250000 0.000000
O O4 0.790964 0.301760 0.915513
O O5 0.742664 0.100833 0.539539
O O6 0.900634 0.118907 0.735587
O O7 0.965411 0.185796 0.675927
O O8 0.159414 0.096374 0.766329
O O9 0.166891 0.381684 0.848202
O O10 0.997754 0.434458 0.868180
O O11 0.423202 0.421060 0.070190
O O12 0.500000 0.948011 0.500000
O O13 0.344866 0.935607 0.308416
O O14 0.664935 0.000000 0.487875
O O15 0.602502 0.782683 0.776320
O O16 0.713681 0.652421 0.207583
O O17 0.500000 0.684437 0.000000
O O18 0.728112 0.000000 0.177917
O O19 0.500000 0.068250 0.000000
#
# Coordination Sequence:
#
# PCOD8095431 Si02
#       8
#     8   8   8   8   8   8   8   8
#     4  11  17  28  46  74 114 148 178 203 257 328
#     4  11  20  34  55  82 109 137 185 235 276 330
#     4  11  19  33  50  81 118 142 176 223 268 346
#     4   9  20  38  58  77  98 138 190 237 281 323
#     4  11  19  27  48  81 112 143 180 213 269 324
#     4  10  20  32  50  80 115 154 181 210 262 336
#     4  10  20  34  55  78 110 142 182 229 271 322
#     4  11  21  33  52  79 111 141 168 228 301 332
#
# _framework density 19.251066999999999
#
# number of rings (size 3 to 8) (size 9 to 14) (size 15 to 20)
#    0.000    1.500    6.250    1.125    0.000    1.000 
#    0.000    1.250    0.000    3.000    0.000    1.750 
#    0.000    0.000    0.000    0.000    0.000    0.000 
#
# Total GULP energy -396452.287467 kJ/mol
# GULP energy per Si atom -12389.133983 kJ/mol
# Density = 1.920725 g / cm^3
# Si number density = 19.251067 Si / 1000 Ang^3
#
#
#
# Elastic Constant Matrix: (Units=GPa)
#
#
# Indices 1 2 3 4 5 6 
#
# 1 75.7882 24.7812 26.4747 -0.0009 12.9672 0.0004
# 2 24.7812 88.7939 35.8444 -0.0053 5.6130 0.0027
# 3 26.4747 35.8444 67.1563 0.0010 12.3759 0.0051
# 4 -0.0009 -0.0053 0.0010 23.3000 -0.0040 9.7553
# 5 12.9672 5.6130 12.3759 -0.0040 13.4148 0.0010
# 6 0.0004 0.0027 0.0051 9.7553 0.0010 24.1889
#
#
#
# Elastic Compliance Matrix: (Units=1/GPa)
#
#
# Indices 1 2 3 4 5 6 
#
# 1 0.017356 -0.002837 -0.002958 -0.000003 -0.012861 0.000002
# 2 -0.002837 0.014837 -0.007424 0.000005 0.003383 -0.000002
# 3 -0.002958 -0.007424 0.022796 -0.000005 -0.015064 -0.000001
# 4 -0.000003 0.000005 -0.000005 0.051638 0.000022 -0.020825
# 5 -0.012861 0.003383 -0.015064 0.000022 0.099459 -0.000010
# 6 0.000002 -0.000002 -0.000001 -0.020825 -0.000010 0.049740
#
#
# Mechanical properties :
#
#
# Convention : Reuss Voigt Hill
#
# Bulk Modulus (GPa) = 35.02573 45.10436 40.06505
# Shear Modulus (GPa) = 17.13620 21.82328 19.47974
#
# Velocity S-wave (km/s) = 2.98676 3.37057 3.18445
# Velocity P-wave (km/s) = 5.48890 6.21515 5.86328
#
# Compressibility (1/GPa) = 0.02855044
#
# Stress axis : x y z
#
# Youngs Moduli (GPa) = 57.61690 67.39936 43.86813
#
# Poissons Ratio (x) = 0.19120 0.12976
# Poissons Ratio (y) = 0.16345 0.32569
# Poissons Ratio (z) = 0.17043 0.50040
#
# Static dielectric constant tensor:
#      x y z
#    x 3.925240 0.000110 0.180790 
#    y 0.000110 3.527750 -0.000020 
#    z 0.180790 -0.000020 3.428980 
# 
# 
# High freq. dielectric constant tensor:
#      x y z
#    x 1.746300 0.000000 0.016850 
#    y 0.000000 1.749840 0.000000 
#    z 0.016850 0.000000 1.696660 
# 
# From -- ./inp_files/307507.got.cif
#   From: 2010.06.25/outbox.cif.g09.slc.cpg/sg12_154_cif.got.tgz:307507.got - 2010.06.28 00:19:55.
