data_PCOD8095353
_publ_section_title
;
Structure prediction by ZEFSAII (Michael W. Deem and Ramdas Pophale) SiO2 
 PCOD8095353
Probable space group: C 2/M
;
_chemical_formula_sum "Si O2"
_cell_formula_units_Z 56
_cell_length_a 28.528959
_cell_length_b 9.132987
_cell_length_c 14.035926
_cell_angle_alpha 90.000000
_cell_angle_beta 59.494878
_cell_angle_gamma 90.000000
_cell_volume 3150.919815
_symmetry_space_group_name_H-M "C 2/M"
_symmetry_group_IT_number 12
_symmetry_cell_setting 'monoclinic'
loop_
_space_group_symop_operation_xyz
x,y,z
-x,y,-z
-x,-y,-z
x,-y,z
1/2+x,1/2+y,z
1/2-x,1/2+y,-z
1/2-x,1/2-y,-z
1/2+x,1/2-y,z
loop_
_atom_site_type_symbol
_atom_site_label
_atom_site_fract_x
_atom_site_fract_y
_atom_site_fract_z
Si Si1 0.076084 0.826448 0.490466
Si Si2 0.961052 0.827165 0.675910
Si Si3 0.811243 0.673638 0.132443
Si Si4 0.226124 0.331368 0.114223
Si Si5 0.204648 0.168741 0.671854
Si Si6 0.879864 0.333662 0.878976
Si Si7 0.184467 0.169852 0.479016
O O1 0.070052 0.773330 0.387671
O O2 0.131394 0.765985 0.480202
O O3 0.023685 0.773630 0.605616
O O4 0.076838 0.000000 0.492116
O O5 0.933296 0.758617 0.798317
O O6 0.957283 0.000000 0.689693
O O7 0.805420 0.500000 0.142454
O O8 0.750847 0.745168 0.179181
O O9 0.830558 0.740214 0.213613
O O10 0.852372 0.722959 0.005853
O O11 0.245051 0.500000 0.096665
O O12 0.161073 0.320077 0.169403
O O13 0.250000 0.250000 0.000000
O O14 0.174257 0.186408 0.602603
O O15 0.265201 0.232829 0.604636
O O16 0.208387 0.000000 0.698989
O O17 0.897916 0.500000 0.875800
O O18 0.196050 0.000000 0.441187
#
# Coordination Sequence:
#
# PCOD8095353 Si02
#       7
#     8   8   8   8   8   8   8
#     4   8  16  32  51  73  97 125 161 199 238 285
#     4   9  17  30  51  75  97 124 163 199 232 287
#     4  10  20  33  48  66  95 134 166 200 245 292
#     4   9  17  29  43  64  95 128 162 197 232 282
#     4  10  20  32  49  75 100 125 164 206 241 289
#     4   9  19  32  45  67  99 128 157 196 242 288
#     4   9  18  34  53  71  98 132 161 197 247 294
#
# _framework density 17.772587000000001
#
# number of rings (size 3 to 8) (size 9 to 14) (size 15 to 20)
#    0.000    2.857    0.000    3.000    2.000    4.000 
#    0.000    2.143    0.000    0.857    0.000    6.000 
#    0.000    0.000    0.000    0.000    0.000    0.000 
#
# Total GULP energy -346997.083795 kJ/mol
# GULP energy per Si atom -12392.752993 kJ/mol
# Density = 1.773214 g / cm^3
# Si number density = 17.772587 Si / 1000 Ang^3
#
#
#
# Elastic Constant Matrix: (Units=GPa)
#
#
# Indices 1 2 3 4 5 6 
#
# 1 72.1559 15.8140 22.8629 0.0000 -2.1558 0.0000
# 2 15.8140 67.5364 34.2643 0.0000 -1.3600 0.0000
# 3 22.8629 34.2643 96.3511 0.0000 -2.5554 0.0000
# 4 0.0000 0.0000 0.0000 31.8144 0.0000 -0.0321
# 5 -2.1558 -1.3600 -2.5554 0.0000 19.8851 0.0000
# 6 0.0000 0.0000 0.0000 -0.0321 0.0000 19.5253
#
#
#
# Elastic Compliance Matrix: (Units=1/GPa)
#
#
# Indices 1 2 3 4 5 6 
#
# 1 0.015255 -0.002108 -0.002840 0.000000 0.001145 0.000000
# 2 -0.002108 0.018361 -0.006023 0.000000 0.000253 0.000000
# 3 -0.002840 -0.006023 0.013220 0.000000 0.000979 0.000000
# 4 0.000000 0.000000 0.000000 0.031432 0.000000 0.000052
# 5 0.001145 0.000253 0.000979 0.000000 0.050556 0.000000
# 6 0.000000 0.000000 0.000000 0.000052 0.000000 0.051216
#
#
# Mechanical properties :
#
#
# Convention : Reuss Voigt Hill
#
# Bulk Modulus (GPa) = 40.16839 42.43619 41.30229
# Shear Modulus (GPa) = 23.77784 25.11845 24.44814
#
# Velocity S-wave (km/s) = 3.66169 3.76350 3.71294
# Velocity P-wave (km/s) = 6.36614 6.54327 6.45531
#
# Compressibility (1/GPa) = 0.02489520
#
# Stress axis : x y z
#
# Youngs Moduli (GPa) = 65.55270 54.46286 75.64158
#
# Poissons Ratio (x) = 0.11482 0.21480
# Poissons Ratio (y) = 0.13820 0.45556
# Poissons Ratio (z) = 0.18615 0.32801
#
# Static dielectric constant tensor:
#      x y z
#    x 3.440660 0.000000 0.126030 
#    y 0.000000 3.199640 0.000000 
#    z 0.126030 0.000000 3.289100 
# 
# 
# High freq. dielectric constant tensor:
#      x y z
#    x 1.658210 0.000000 0.006420 
#    y 0.000000 1.679000 0.000000 
#    z 0.006420 0.000000 1.685940 
# 
# From -- ./inp_files/248163.got.cif
#   From: 2010.06.25/outbox.cif.g09.slc.cpg/sg12_125_cif.got.tgz:248163.got - 2010.06.28 00:19:55.
