data_PCOD8095153
_publ_section_title
;
Structure prediction by ZEFSAII (Michael W. Deem and Ramdas Pophale) SiO2 
 PCOD8095153
Probable space group: C 2/M
;
_chemical_formula_sum "Si O2"
_cell_formula_units_Z 48
_cell_length_a 15.175780
_cell_length_b 9.325134
_cell_length_c 18.709109
_cell_angle_alpha 90.000000
_cell_angle_beta 89.999873
_cell_angle_gamma 90.000000
_cell_volume 2647.641675
_symmetry_space_group_name_H-M "C 2/M"
_symmetry_group_IT_number 12
_symmetry_cell_setting 'monoclinic'
loop_
_space_group_symop_operation_xyz
x,y,z
-x,y,-z
-x,-y,-z
x,-y,z
1/2+x,1/2+y,z
1/2-x,1/2+y,-z
1/2-x,1/2-y,-z
1/2+x,1/2-y,z
loop_
_atom_site_type_symbol
_atom_site_label
_atom_site_fract_x
_atom_site_fract_y
_atom_site_fract_z
Si Si1 0.393120 0.330425 0.928911
Si Si2 0.393119 0.669575 0.571088
Si Si3 0.910611 0.830287 0.410472
Si Si4 0.089391 0.830287 0.910472
Si Si5 0.235436 0.666977 0.832300
Si Si6 0.735435 0.166977 0.667699
O O1 0.393929 0.500000 0.924646
O O2 0.488487 0.277486 0.901241
O O3 0.316055 0.267937 0.878811
O O4 0.376963 0.283364 0.010776
O O5 0.393925 0.500000 0.575351
O O6 0.488485 0.722510 0.598760
O O7 0.376966 0.716639 0.489223
O O8 0.316052 0.732062 0.621187
O O9 0.853534 0.750431 0.351093
O O10 0.901929 0.000000 0.399405
O O11 0.146468 0.750431 0.851094
O O12 0.098070 0.000000 0.899404
O O13 0.220803 0.500000 0.849064
O O14 0.258859 0.693016 0.749999
O O15 0.720801 0.000000 0.650936
#
# Coordination Sequence:
#
# PCOD8095153 Si02
#       6
#     8   8   8   8   8   8
#     4   8  16  32  52  72  94 123 158 195 238 284
#     4   8  16  32  52  72  94 123 158 195 238 284
#     4   9  17  32  54  74  91 118 162 206 234 269
#     4   9  17  32  54  74  91 118 162 206 234 269
#     4  10  20  32  46  68 100 132 156 185 235 292
#     4  10  20  32  46  68 100 132 156 185 235 292
#
# _framework density 18.129342000000001
#
# number of rings (size 3 to 8) (size 9 to 14) (size 15 to 20)
#    0.000    3.000    0.000    3.000    0.000    2.000 
#    0.000    8.333    0.000    0.000    0.000    0.000 
#    0.000    0.000    0.000    0.000    0.000    0.000 
#
# Total GULP energy -297544.817801 kJ/mol
# GULP energy per Si atom -12397.700742 kJ/mol
# Density = 1.808808 g / cm^3
# Si number density = 18.129342 Si / 1000 Ang^3
#
#
#
# Elastic Constant Matrix: (Units=GPa)
#
#
# Indices 1 2 3 4 5 6 
#
# 1 94.0388 26.9851 37.4605 0.0000 0.3469 0.0000
# 2 26.9851 31.9361 25.4505 0.0000 0.1213 0.0000
# 3 37.4605 25.4505 66.0182 0.0000 1.8633 0.0000
# 4 0.0000 0.0000 0.0000 24.6944 0.0000 0.1711
# 5 0.3469 0.1213 1.8633 0.0000 25.9745 0.0000
# 6 0.0000 0.0000 0.0000 0.1711 0.0000 26.8653
#
#
#
# Elastic Compliance Matrix: (Units=1/GPa)
#
#
# Indices 1 2 3 4 5 6 
#
# 1 0.015229 -0.008628 -0.005321 0.000000 0.000219 0.000000
# 2 -0.008628 0.050115 -0.014450 0.000000 0.000918 0.000000
# 3 -0.005321 -0.014450 0.023781 0.000000 -0.001567 0.000000
# 4 0.000000 0.000000 0.000000 0.040497 0.000000 -0.000258
# 5 0.000219 0.000918 -0.001567 0.000000 0.038605 0.000000
# 6 0.000000 0.000000 0.000000 -0.000258 0.000000 0.037224
#
#
# Mechanical properties :
#
#
# Convention : Reuss Voigt Hill
#
# Bulk Modulus (GPa) = 30.93394 41.30948 36.12171
# Shear Modulus (GPa) = 18.31341 22.31329 20.31335
#
# Velocity S-wave (km/s) = 3.18174 3.51206 3.35097
# Velocity P-wave (km/s) = 5.53154 6.26750 5.91098
#
# Compressibility (1/GPa) = 0.03232695
#
# Stress axis : x y z
#
# Youngs Moduli (GPa) = 65.66548 19.95425 42.04978
#
# Poissons Ratio (x) = 0.17217 0.22375
# Poissons Ratio (y) = 0.56657 0.60760
# Poissons Ratio (z) = 0.34942 0.28833
#
# Static dielectric constant tensor:
#      x y z
#    x 3.662770 0.000000 0.020160 
#    y 0.000000 2.910910 0.000000 
#    z 0.020160 0.000000 3.406790 
# 
# 
# High freq. dielectric constant tensor:
#      x y z
#    x 1.713730 0.000000 0.001060 
#    y 0.000000 1.660170 0.000000 
#    z 0.001060 0.000000 1.700260 
# 
# From -- ./inp_files/212756.got.cif
#   From: 2010.06.25/outbox.cif.g09.slc.cpg/sg12_107_cif.got.tgz:212756.got - 2010.06.28 00:19:55.
