data_PCOD8095716
_publ_section_title
;
Structure prediction by ZEFSAII (Michael W. Deem and Ramdas Pophale) SiO2 
 PCOD8095716
Probable space group: C 2/M
;
_chemical_formula_sum "Si O2"
_cell_formula_units_Z 64
_cell_length_a 27.651029
_cell_length_b 8.906137
_cell_length_c 15.416710
_cell_angle_alpha 90.000000
_cell_angle_beta 68.236936
_cell_angle_gamma 90.000000
_cell_volume 3525.977416
_symmetry_space_group_name_H-M "C 2/M"
_symmetry_group_IT_number 12
_symmetry_cell_setting 'monoclinic'
loop_
_space_group_symop_operation_xyz
x,y,z
-x,y,-z
-x,-y,-z
x,-y,z
1/2+x,1/2+y,z
1/2-x,1/2+y,-z
1/2-x,1/2-y,-z
1/2+x,1/2-y,z
loop_
_atom_site_type_symbol
_atom_site_label
_atom_site_fract_x
_atom_site_fract_y
_atom_site_fract_z
Si Si1 0.286609 0.671283 0.776942
Si Si2 0.792414 0.674286 0.031404
Si Si3 0.539637 0.822987 0.283571
Si Si4 0.870122 0.175933 0.869608
Si Si5 0.326853 0.824573 0.403450
Si Si6 0.571125 0.677747 0.621391
Si Si7 0.059949 0.164028 0.439104
Si Si8 0.266882 0.174807 0.617189
O O1 0.293750 0.500000 0.742432
O O2 0.228522 0.694418 0.856214
O O3 0.330693 0.714304 0.817431
O O4 0.294228 0.776102 0.688380
O O5 0.797337 0.500000 0.003804
O O6 0.750000 0.750000 0.000000
O O7 0.847236 0.756695 0.975223
O O8 0.574653 0.755355 0.183541
O O9 0.482372 0.753892 0.313149
O O10 0.567557 0.781645 0.356511
O O11 0.535844 0.000000 0.277606
O O12 0.878664 0.000000 0.875650
O O13 0.381843 0.741271 0.352200
O O14 0.305298 0.785050 0.513097
O O15 0.286986 0.765086 0.357640
O O16 0.335402 0.000000 0.384174
O O17 0.565166 0.500000 0.636651
O O18 0.585683 0.720460 0.511678
O O19 0.000000 0.142804 0.500000
O O20 0.082512 0.000000 0.395473
O O21 0.253731 0.000000 0.627904
#
# Coordination Sequence:
#
# PCOD8095716 Si02
#       8
#     8   8   8   8   8   8   8   8
#     4   9  19  33  51  73 100 133 165 201 248 298
#     4   9  17  31  49  72 100 132 165 201 247 297
#     4  11  21  31  46  70  99 130 167 207 243 292
#     4  10  20  33  49  72 103 137 169 204 247 294
#     4  10  21  36  52  72  99 129 166 211 254 292
#     4  10  20  34  51  68  93 130 167 205 250 296
#     4   8  16  30  44  61  88 124 161 198 238 283
#     4  10  21  35  52  75  99 127 166 208 250 297
#
# _framework density 18.150995000000002
#
# number of rings (size 3 to 8) (size 9 to 14) (size 15 to 20)
#    0.000    2.375    0.000    4.500    1.750    7.250 
#    0.000    0.000    0.000    0.000    0.000    0.875 
#    0.000    7.000    0.000    0.000    0.000    0.000 
#
# Total GULP energy -396701.556989 kJ/mol
# GULP energy per Si atom -12396.923656 kJ/mol
# Density = 1.810968 g / cm^3
# Si number density = 18.150995 Si / 1000 Ang^3
#
#
#
# Elastic Constant Matrix: (Units=GPa)
#
#
# Indices 1 2 3 4 5 6 
#
# 1 64.4069 32.6076 11.0486 0.0000 -16.1879 0.0000
# 2 32.6076 104.9682 27.5812 0.0000 -16.5727 0.0000
# 3 11.0486 27.5812 49.4240 0.0000 -17.0651 0.0000
# 4 0.0000 0.0000 0.0000 28.9837 0.0000 -2.7700
# 5 -16.1879 -16.5727 -17.0651 0.0000 26.7092 0.0000
# 6 0.0000 0.0000 0.0000 -2.7700 0.0000 26.8571
#
#
#
# Elastic Compliance Matrix: (Units=1/GPa)
#
#
# Indices 1 2 3 4 5 6 
#
# 1 0.020448 -0.005219 0.001927 0.000000 0.010387 0.000000
# 2 -0.005219 0.012801 -0.005551 0.000000 0.001233 0.000000
# 3 0.001927 -0.005551 0.028374 0.000000 0.015852 0.000000
# 4 0.000000 0.000000 0.000000 0.034846 0.000000 0.003594
# 5 0.010387 0.001233 0.015852 0.000000 0.054629 0.000000
# 6 0.000000 0.000000 0.000000 0.003594 0.000000 0.037605
#
#
# Mechanical properties :
#
#
# Convention : Reuss Voigt Hill
#
# Bulk Modulus (GPa) = 22.75939 40.14154 31.45046
# Shear Modulus (GPa) = 22.62100 26.34744 24.48422
#
# Velocity S-wave (km/s) = 3.53408 3.81408 3.67675
# Velocity P-wave (km/s) = 5.40547 6.44668 5.94890
#
# Compressibility (1/GPa) = 0.04393791
#
# Stress axis : x y z
#
# Youngs Moduli (GPa) = 48.90376 78.11768 35.24407
#
# Poissons Ratio (x) = 0.40767 -0.06793
# Poissons Ratio (y) = 0.25521 0.19565
# Poissons Ratio (z) = -0.09426 0.43366
#
# Static dielectric constant tensor:
#      x y z
#    x 3.202450 0.000000 -0.205720 
#    y 0.000000 3.385610 0.000000 
#    z -0.205720 0.000000 3.464540 
# 
# 
# High freq. dielectric constant tensor:
#      x y z
#    x 1.678940 0.000000 -0.026670 
#    y 0.000000 1.713940 0.000000 
#    z -0.026670 0.000000 1.679090 
# 
# From -- ./inp_files/243768.got.cif
#   From: 2010.06.25/outbox.cif.g09.slc.cpg/sg12_122_cif.got.tgz:243768.got - 2010.06.28 00:19:55.
