data_PCOD8095651
_publ_section_title
;
Structure prediction by ZEFSAII (Michael W. Deem and Ramdas Pophale) SiO2 
 PCOD8095651
Probable space group: C 2/M
;
_chemical_formula_sum "Si O2"
_cell_formula_units_Z 48
_cell_length_a 19.036369
_cell_length_b 9.230887
_cell_length_c 16.135517
_cell_angle_alpha 90.000000
_cell_angle_beta 104.787004
_cell_angle_gamma 90.000000
_cell_volume 2741.470629
_symmetry_space_group_name_H-M "C 2/M"
_symmetry_group_IT_number 12
_symmetry_cell_setting 'monoclinic'
loop_
_space_group_symop_operation_xyz
x,y,z
-x,y,-z
-x,-y,-z
x,-y,z
1/2+x,1/2+y,z
1/2-x,1/2+y,-z
1/2-x,1/2-y,-z
1/2+x,1/2-y,z
loop_
_atom_site_type_symbol
_atom_site_label
_atom_site_fract_x
_atom_site_fract_y
_atom_site_fract_z
Si Si1 0.645993 0.658883 0.245699
Si Si2 0.462629 0.833481 0.576971
Si Si3 0.517938 0.337498 0.741356
Si Si4 0.316105 0.326127 0.564869
Si Si5 0.894366 0.338685 0.910934
Si Si6 0.940895 0.663735 0.098700
O O1 0.673318 0.500000 0.229920
O O2 0.562197 0.655927 0.245739
O O3 0.690434 0.714710 0.339345
O O4 0.659047 0.752834 0.167036
O O5 0.500000 0.827584 0.500000
O O6 0.518025 0.762458 0.659725
O O7 0.389411 0.740194 0.549400
O O8 0.445850 0.000000 0.597808
O O9 0.545160 0.500000 0.728244
O O10 0.572014 0.266965 0.825959
O O11 0.316428 0.500000 0.552343
O O12 0.250000 0.250000 0.500000
O O13 0.863364 0.500000 0.905081
O O14 0.974793 0.337810 0.898809
O O15 0.895662 0.275722 0.005480
O O16 0.916302 0.500000 0.112853
#
# Coordination Sequence:
#
# PCOD8095651 Si02
#       6
#     8   8   8   8   8   8
#     4   8  15  25  36  54  80 109 141 177 218 262
#     4  10  20  33  49  68  91 121 155 191 232 275
#     4   9  16  25  38  57  81 111 145 180 221 266
#     4  10  20  33  49  69  93 122 155 191 231 273
#     4   8  13  20  32  50  73 105 141 174 211 257
#     4   8  13  21  32  49  75 106 140 175 212 258
#
# _framework density 17.508851
#
# number of rings (size 3 to 8) (size 9 to 14) (size 15 to 20)
#    0.000    3.167    0.000    3.500    0.000    6.667 
#    0.000    3.333    0.000    0.000    0.000    0.000 
#    0.000    1.333    0.000    4.333    0.000   10.667 
#
# Total GULP energy -297367.282340 kJ/mol
# GULP energy per Si atom -12390.303431 kJ/mol
# Density = 1.746900 g / cm^3
# Si number density = 17.508851 Si / 1000 Ang^3
#
#
#
# Elastic Constant Matrix: (Units=GPa)
#
#
# Indices 1 2 3 4 5 6 
#
# 1 19.3737 23.1720 28.6977 0.0000 4.6810 0.0000
# 2 23.1720 123.2587 87.4385 0.0000 6.3353 0.0000
# 3 28.6977 87.4385 171.5994 0.0000 16.3498 0.0000
# 4 0.0000 0.0000 0.0000 37.3857 0.0000 3.3257
# 5 4.6810 6.3353 16.3498 0.0000 15.5590 0.0000
# 6 0.0000 0.0000 0.0000 3.3257 0.0000 12.7632
#
#
#
# Elastic Compliance Matrix: (Units=1/GPa)
#
#
# Indices 1 2 3 4 5 6 
#
# 1 0.075130 -0.008456 -0.007145 0.000000 -0.011651 0.000000
# 2 -0.008456 0.013704 -0.005867 0.000000 0.003129 0.000000
# 3 -0.007145 -0.005867 0.010645 0.000000 -0.006648 0.000000
# 4 0.000000 0.000000 0.000000 0.027383 0.000000 -0.007135
# 5 -0.011651 0.003129 -0.006648 0.000000 0.073489 0.000000
# 6 0.000000 0.000000 0.000000 -0.007135 0.000000 0.080210
#
#
# Mechanical properties :
#
#
# Convention : Reuss Voigt Hill
#
# Bulk Modulus (GPa) = 17.68590 65.87203 41.77896
# Shear Modulus (GPa) = 14.60518 24.80314 19.70416
#
# Velocity S-wave (km/s) = 2.89132 3.76787 3.35831
# Velocity P-wave (km/s) = 4.61187 7.52548 6.24108
#
# Compressibility (1/GPa) = 0.05654222
#
# Stress axis : x y z
#
# Youngs Moduli (GPa) = 13.31025 72.97322 93.93864
#
# Poissons Ratio (x) = 0.61708 0.67124
# Poissons Ratio (y) = 0.11256 0.55110
# Poissons Ratio (z) = 0.09511 0.42811
#
# Static dielectric constant tensor:
#      x y z
#    x 2.487100 0.000000 0.127700 
#    y 0.000000 3.584960 0.000000 
#    z 0.127700 0.000000 3.721010 
# 
# 
# High freq. dielectric constant tensor:
#      x y z
#    x 1.585830 0.000000 0.007470 
#    y 0.000000 1.686040 0.000000 
#    z 0.007470 0.000000 1.699620 
# 
# From -- ./inp_files/236868.got.cif
#   From: 2010.06.25/outbox.cif.g09.slc.cpg/sg12_119_cif.got.tgz:236868.got - 2010.06.28 00:19:55.
