data_PCOD8095819
_publ_section_title
;
Structure prediction by ZEFSAII (Michael W. Deem and Ramdas Pophale) SiO2 
 PCOD8095819
Probable space group: C 2/M
;
_chemical_formula_sum "Si O2"
_cell_formula_units_Z 64
_cell_length_a 27.487990
_cell_length_b 9.113149
_cell_length_c 14.557652
_cell_angle_alpha 90.000000
_cell_angle_beta 103.176741
_cell_angle_gamma 90.000000
_cell_volume 3550.710431
_symmetry_space_group_name_H-M "C 2/M"
_symmetry_group_IT_number 12
_symmetry_cell_setting 'monoclinic'
loop_
_space_group_symop_operation_xyz
x,y,z
-x,y,-z
-x,-y,-z
x,-y,z
1/2+x,1/2+y,z
1/2-x,1/2+y,-z
1/2-x,1/2-y,-z
1/2+x,1/2-y,z
loop_
_atom_site_type_symbol
_atom_site_label
_atom_site_fract_x
_atom_site_fract_y
_atom_site_fract_z
Si Si1 0.930530 0.330324 0.297035
Si Si2 0.158249 0.332012 0.099218
Si Si3 0.042979 0.670472 0.373841
Si Si4 0.302313 0.327020 0.541089
Si Si5 0.867424 0.327497 0.716421
Si Si6 0.265627 0.331358 0.097827
Si Si7 0.893714 0.171660 0.452031
Si Si8 0.358323 0.170317 0.109979
O O1 0.926323 0.500000 0.323291
O O2 0.895949 0.238954 0.351538
O O3 0.910733 0.305738 0.184483
O O4 0.987620 0.276063 0.323866
O O5 0.142402 0.500000 0.085174
O O6 0.131344 0.266320 0.178019
O O7 0.217939 0.315331 0.144437
O O8 0.140294 0.261692 0.993677
O O9 0.044085 0.500000 0.401096
O O10 0.078039 0.703070 0.301636
O O11 0.061367 0.759457 0.469751
O O12 0.294213 0.500000 0.549812
O O13 0.250000 0.250000 0.500000
O O14 0.325380 0.261554 0.643789
O O15 0.339867 0.292096 0.473017
O O16 0.853527 0.500000 0.706741
O O17 0.278002 0.500000 0.083580
O O18 0.316076 0.251907 0.153940
O O19 0.250000 0.250000 0.000000
O O20 0.903110 0.000000 0.450798
O O21 0.343102 0.000000 0.098219
#
# Coordination Sequence:
#
# PCOD8095819 Si02
#       8
#     8   8   8   8   8   8   8   8
#     4  10  20  33  50  73 101 131 163 203 249 293
#     4   8  15  29  49  70  94 127 162 196 235 281
#     4   9  18  33  52  73  97 127 164 204 247 295
#     4  10  21  36  52  74 103 130 159 197 242 290
#     4   9  17  32  53  73  96 130 168 202 240 287
#     4   9  16  28  46  67  93 124 158 195 236 282
#     4  10  21  35  52  74  98 127 164 203 244 295
#     4   9  18  32  47  68 100 131 161 200 243 286
#
# _framework density 18.024562
#
# number of rings (size 3 to 8) (size 9 to 14) (size 15 to 20)
#    0.000    2.750    0.000    2.250    0.000    5.000 
#    0.000    7.500    0.000    3.750    0.000    0.000 
#    0.000    9.000    0.000    0.000    0.000    0.000 
#
# Total GULP energy -396604.989030 kJ/mol
# GULP energy per Si atom -12393.905907 kJ/mol
# Density = 1.798354 g / cm^3
# Si number density = 18.024562 Si / 1000 Ang^3
#
#
#
# Elastic Constant Matrix: (Units=GPa)
#
#
# Indices 1 2 3 4 5 6 
#
# 1 101.6082 40.3114 63.4648 0.0000 10.4599 0.0000
# 2 40.3114 62.0911 36.6553 0.0000 3.0145 0.0000
# 3 63.4648 36.6553 118.8572 0.0000 -4.5594 0.0000
# 4 0.0000 0.0000 0.0000 18.1153 0.0000 -0.4310
# 5 10.4599 3.0145 -4.5594 0.0000 27.7827 0.0000
# 6 0.0000 0.0000 0.0000 -0.4310 0.0000 24.1011
#
#
#
# Elastic Compliance Matrix: (Units=1/GPa)
#
#
# Indices 1 2 3 4 5 6 
#
# 1 0.018270 -0.006813 -0.007940 0.000000 -0.007442 0.000000
# 2 -0.006813 0.022509 -0.003320 0.000000 -0.000422 0.000000
# 3 -0.007940 -0.003320 0.013893 0.000000 0.005629 0.000000
# 4 0.000000 0.000000 0.000000 0.055225 0.000000 0.000988
# 5 -0.007442 -0.000422 0.005629 0.000000 0.039765 0.000000
# 6 0.000000 0.000000 0.000000 0.000988 0.000000 0.041510
#
#
# Mechanical properties :
#
#
# Convention : Reuss Voigt Hill
#
# Bulk Modulus (GPa) = 53.97760 62.60218 58.28989
# Shear Modulus (GPa) = 21.41390 23.47482 22.44436
#
# Velocity S-wave (km/s) = 3.45054 3.61276 3.53258
# Velocity P-wave (km/s) = 6.77397 7.22563 7.00344
#
# Compressibility (1/GPa) = 0.01852620
#
# Stress axis : x y z
#
# Youngs Moduli (GPa) = 54.73455 44.42662 71.97928
#
# Poissons Ratio (x) = 0.30267 0.57150
# Poissons Ratio (y) = 0.37290 0.23898
# Poissons Ratio (z) = 0.43458 0.14750
#
# Static dielectric constant tensor:
#      x y z
#    x 3.579190 0.000000 -0.125640 
#    y 0.000000 3.385570 0.000000 
#    z -0.125640 0.000000 3.339740 
# 
# 
# High freq. dielectric constant tensor:
#      x y z
#    x 1.695070 0.000000 -0.001740 
#    y 0.000000 1.685720 0.000000 
#    z -0.001740 0.000000 1.689540 
# 
# From -- ./inp_files/244091.got.cif
#   From: 2010.06.25/outbox.cif.g09.slc.cpg/sg12_123_cif.got.tgz:244091.got - 2010.06.28 00:19:55.
