data_PCOD8095487
_publ_section_title
;
Structure prediction by ZEFSAII (Michael W. Deem and Ramdas Pophale) SiO2 
 PCOD8095487
Probable space group: C 2/M
;
_chemical_formula_sum "Si O2"
_cell_formula_units_Z 48
_cell_length_a 9.953855
_cell_length_b 17.710039
_cell_length_c 16.378732
_cell_angle_alpha 90.000000
_cell_angle_beta 117.522270
_cell_angle_gamma 90.000000
_cell_volume 2560.543233
_symmetry_space_group_name_H-M "C 2/M"
_symmetry_group_IT_number 12
_symmetry_cell_setting 'monoclinic'
loop_
_space_group_symop_operation_xyz
x,y,z
-x,y,-z
-x,-y,-z
x,-y,z
1/2+x,1/2+y,z
1/2-x,1/2+y,-z
1/2-x,1/2-y,-z
1/2+x,1/2-y,z
loop_
_atom_site_type_symbol
_atom_site_label
_atom_site_fract_x
_atom_site_fract_y
_atom_site_fract_z
Si Si1 0.090548 0.844602 0.948899
Si Si2 0.086904 0.589541 0.405471
Si Si3 0.162870 0.590008 0.247676
Si Si4 0.775840 0.589951 0.389474
Si Si5 0.541570 0.411650 0.761978
Si Si6 0.938630 0.327734 0.069341
O O1 0.066335 0.896685 0.864038
O O2 0.029626 0.761112 0.910387
O O3 0.262589 0.844732 0.025852
O O4 0.000000 0.879138 0.000000
O O5 0.083779 0.500000 0.405558
O O6 0.155171 0.618349 0.339140
O O7 0.194591 0.617981 0.509407
O O8 0.914199 0.618582 0.370876
O O9 0.150421 0.500000 0.236833
O O10 0.318509 0.621324 0.251618
O O11 0.019914 0.626104 0.162820
O O12 0.768647 0.500000 0.384604
O O13 0.616875 0.624882 0.313240
O O14 0.535587 0.500000 0.745341
O O15 0.000000 0.356675 0.000000
#
# Coordination Sequence:
#
# PCOD8095487 Si02
#       6
#     8   8   8   8   8   8
#     4  10  22  36  53  73  97 136 175 206 246 297
#     4   8  15  29  48  72 101 136 168 196 244 301
#     4  10  20  32  52  79 104 132 165 205 254 299
#     4   8  15  29  48  71 104 135 163 202 244 296
#     4  10  20  33  50  78 108 130 162 210 255 294
#     4  10  20  38  54  70 100 135 173 206 243 304
#
# _framework density 18.746022
#
# number of rings (size 3 to 8) (size 9 to 14) (size 15 to 20)
#    0.000    2.667    1.667    1.000    2.333    2.000 
#    0.000    3.333    0.000    1.000    0.000    0.000 
#    0.000    0.000    0.000    0.000    0.000    0.000 
#
# Total GULP energy -297538.164970 kJ/mol
# GULP energy per Si atom -12397.423540 kJ/mol
# Density = 1.870335 g / cm^3
# Si number density = 18.746022 Si / 1000 Ang^3
#
#
#
# Elastic Constant Matrix: (Units=GPa)
#
#
# Indices 1 2 3 4 5 6 
#
# 1 142.5887 14.2580 77.7466 0.0000 -14.1759 0.0000
# 2 14.2580 10.3674 11.5120 0.0000 2.7214 0.0000
# 3 77.7466 11.5120 122.3488 0.0000 -9.6490 0.0000
# 4 0.0000 0.0000 0.0000 -5.2265 0.0000 9.8401
# 5 -14.1759 2.7214 -9.6490 0.0000 39.4683 0.0000
# 6 0.0000 0.0000 0.0000 9.8401 0.0000 2.3009
#
#
#
# Elastic Compliance Matrix: (Units=1/GPa)
#
#
# Indices 1 2 3 4 5 6 
#
# 1 0.011780 -0.010138 -0.006264 0.000000 0.003399 0.000000
# 2 -0.010138 0.120531 -0.005956 0.000000 -0.013408 0.000000
# 3 -0.006264 -0.005956 0.012816 0.000000 0.001294 0.000000
# 4 0.000000 0.000000 0.000000 -0.021137 0.000000 0.090398
# 5 0.003399 -0.013408 0.001294 0.000000 0.027798 0.000000
# 6 0.000000 0.000000 0.000000 0.090398 0.000000 0.048014
#
#
# Mechanical properties :
#
#
# Convention : Reuss Voigt Hill
#
# Bulk Modulus (GPa) = 9.95899 53.59313 31.77606
# Shear Modulus (GPa) = 17.98637 18.76110 18.37373
#
# Velocity S-wave (km/s) = 3.10090 3.16698 3.13412
# Velocity P-wave (km/s) = 4.25968 6.48260 5.48494
#
# Compressibility (1/GPa) = 0.10041182
#
# Stress axis : x y z
#
# Youngs Moduli (GPa) = 84.88892 8.29661 78.02628
#
# Poissons Ratio (x) = 0.08411 0.48874
# Poissons Ratio (y) = 0.86057 0.46476
# Poissons Ratio (z) = 0.53172 0.04942
#
# Static dielectric constant tensor:
#      x y z
#    x 3.832650 0.000000 -0.042030 
#    y 0.000000 2.946340 0.000000 
#    z -0.042030 0.000000 3.591970 
# 
# 
# High freq. dielectric constant tensor:
#      x y z
#    x 1.744530 0.000000 -0.001420 
#    y 0.000000 1.674380 0.000000 
#    z -0.001420 0.000000 1.733960 
# 
# From -- ./inp_files/121946.got.cif
#   From: 2010.06.25/outbox.cif.g09.slc.cpg/sg12_61_cif.got.tgz:121946.got - 2010.06.28 00:19:55.
