data_PCOD8095135
_publ_section_title
;
Structure prediction by ZEFSAII (Michael W. Deem and Ramdas Pophale) SiO2 
 PCOD8095135
Probable space group: C 2/M
;
_chemical_formula_sum "Si O2"
_cell_formula_units_Z 56
_cell_length_a 18.629272
_cell_length_b 9.390081
_cell_length_c 20.529452
_cell_angle_alpha 90.000000
_cell_angle_beta 116.982671
_cell_angle_gamma 90.000000
_cell_volume 3200.297594
_symmetry_space_group_name_H-M "C 2/M"
_symmetry_group_IT_number 12
_symmetry_cell_setting 'monoclinic'
loop_
_space_group_symop_operation_xyz
x,y,z
-x,y,-z
-x,-y,-z
x,-y,z
1/2+x,1/2+y,z
1/2-x,1/2+y,-z
1/2-x,1/2-y,-z
1/2+x,1/2-y,z
loop_
_atom_site_type_symbol
_atom_site_label
_atom_site_fract_x
_atom_site_fract_y
_atom_site_fract_z
Si Si1 0.658926 0.670418 0.656812
Si Si2 0.469231 0.668344 0.790617
Si Si3 0.821386 0.331656 0.790617
Si Si4 0.914881 0.844235 0.500000
Si Si5 0.867581 0.165295 0.070382
Si Si6 0.502114 0.329582 0.343189
Si Si7 0.702800 0.834705 0.070381
O O1 0.656369 0.500000 0.653443
O O2 0.744049 0.724402 0.718747
O O3 0.644999 0.732326 0.576958
O O4 0.587648 0.724711 0.675296
O O5 0.453823 0.500000 0.787176
O O6 0.398209 0.750001 0.796417
O O7 0.551335 0.711134 0.860230
O O8 0.474697 0.724401 0.718746
O O9 0.833352 0.500000 0.787175
O O10 0.808896 0.288867 0.860231
O O11 0.931959 0.767673 0.576958
O O12 0.000000 0.861542 0.500000
O O13 0.878535 0.000000 0.500000
O O14 0.793890 0.204223 0.087781
O O15 0.867750 0.000000 0.052707
O O16 0.860879 0.250000 0.000000
O O17 0.502925 0.500000 0.346558
O O18 0.684957 0.000000 0.052705
#
# Coordination Sequence:
#
# PCOD8095135 Si02
#       7
#     8   8   8   8   8   8   8
#     4   8  13  24  44  67  89 115 150 190 226 260
#     4  10  20  32  46  66  94 124 151 181 220 267
#     4  10  20  32  46  66  94 124 151 181 220 267
#     4   7  10  18  37  66  91 109 140 189 232 258
#     4   9  18  33  52  71  89 113 148 188 227 265
#     4   8  13  24  44  67  89 115 150 190 226 260
#     4   9  18  33  52  71  89 113 148 188 227 265
#
# _framework density 17.498370999999999
#
# number of rings (size 3 to 8) (size 9 to 14) (size 15 to 20)
#    0.000    3.286    0.000    2.571    0.000    5.143 
#    0.000    3.571    0.000    2.571    0.000    0.000 
#    0.000    3.429    0.000    0.000    0.000    0.000 
#
# Total GULP energy -346938.353693 kJ/mol
# GULP energy per Si atom -12390.655489 kJ/mol
# Density = 1.745854 g / cm^3
# Si number density = 17.498371 Si / 1000 Ang^3
#
#
#
# Elastic Constant Matrix: (Units=GPa)
#
#
# Indices 1 2 3 4 5 6 
#
# 1 98.7874 31.6219 88.6539 0.0000 0.0165 0.0000
# 2 31.6219 21.0992 42.8984 0.0000 0.1037 0.0000
# 3 88.6539 42.8984 201.0783 0.0000 0.9238 0.0000
# 4 0.0000 0.0000 0.0000 13.1965 0.0000 -0.0970
# 5 0.0165 0.1037 0.9238 0.0000 6.0459 0.0000
# 6 0.0000 0.0000 0.0000 -0.0970 0.0000 23.7100
#
#
#
# Elastic Compliance Matrix: (Units=1/GPa)
#
#
# Indices 1 2 3 4 5 6 
#
# 1 0.021660 -0.023032 -0.004641 0.000000 0.001045 0.000000
# 2 -0.023032 0.108202 -0.012930 0.000000 0.000183 0.000000
# 3 -0.004641 -0.012930 0.009784 0.000000 -0.001260 0.000000
# 4 0.000000 0.000000 0.000000 0.075780 0.000000 0.000310
# 5 0.001045 0.000183 -0.001260 0.000000 0.165587 0.000000
# 6 0.000000 0.000000 0.000000 0.000310 0.000000 0.042178
#
#
# Mechanical properties :
#
#
# Convention : Reuss Voigt Hill
#
# Bulk Modulus (GPa) = 17.11158 71.92372 44.51765
# Shear Modulus (GPa) = 9.54424 19.10986 14.32705
#
# Velocity S-wave (km/s) = 2.33799 3.30827 2.86451
# Velocity P-wave (km/s) = 4.13382 7.46895 6.03629
#
# Compressibility (1/GPa) = 0.05843994
#
# Stress axis : x y z
#
# Youngs Moduli (GPa) = 46.16850 9.24195 102.21101
#
# Poissons Ratio (x) = 0.21286 0.47434
# Poissons Ratio (y) = 1.06334 1.32163
# Poissons Ratio (z) = 0.21426 0.11950
#
# Static dielectric constant tensor:
#      x y z
#    x 3.080770 0.000000 0.006780 
#    y 0.000000 2.760850 0.000000 
#    z 0.006780 0.000000 3.816770 
# 
# 
# High freq. dielectric constant tensor:
#      x y z
#    x 1.656730 0.000000 0.000430 
#    y 0.000000 1.619180 0.000000 
#    z 0.000430 0.000000 1.703280 
# 
# From -- ./inp_files/309502.got.cif
#   From: 2010.06.25/outbox.cif.g09.slc.cpg/sg12_155_cif.got.tgz:309502.got - 2010.06.28 00:19:55.
