data_PCOD8095579
_publ_section_title
;
Structure prediction by ZEFSAII (Michael W. Deem and Ramdas Pophale) SiO2 
 PCOD8095579
Probable space group: C 2/M
;
_chemical_formula_sum "Si O2"
_cell_formula_units_Z 56
_cell_length_a 34.639337
_cell_length_b 9.940444
_cell_length_c 11.879588
_cell_angle_alpha 90.000000
_cell_angle_beta 63.557139
_cell_angle_gamma 90.000000
_cell_volume 3662.550197
_symmetry_space_group_name_H-M "C 2/M"
_symmetry_group_IT_number 12
_symmetry_cell_setting 'monoclinic'
loop_
_space_group_symop_operation_xyz
x,y,z
-x,y,-z
-x,-y,-z
x,-y,z
1/2+x,1/2+y,z
1/2-x,1/2+y,-z
1/2-x,1/2-y,-z
1/2+x,1/2-y,z
loop_
_atom_site_type_symbol
_atom_site_label
_atom_site_fract_x
_atom_site_fract_y
_atom_site_fract_z
Si Si1 0.761357 0.653889 0.323931
Si Si2 0.967492 0.650896 0.380202
Si Si3 0.812235 0.153912 0.403728
Si Si4 0.940300 0.348903 0.673379
Si Si5 0.603461 0.346213 0.575253
Si Si6 0.229112 0.844224 0.119315
Si Si7 0.869509 0.154332 0.712326
O O1 0.776155 0.500000 0.320122
O O2 0.799847 0.749538 0.316506
O O3 0.717984 0.682837 0.449906
O O4 0.752104 0.688016 0.207049
O O5 0.959843 0.500000 0.344300
O O6 0.954171 0.659824 0.526617
O O7 0.938222 0.753542 0.346665
O O8 0.018153 0.689429 0.303996
O O9 0.861158 0.185404 0.375677
O O10 0.807271 0.000000 0.370230
O O11 0.924721 0.500000 0.722661
O O12 0.901402 0.245529 0.746628
O O13 0.587992 0.500000 0.601718
O O14 0.624669 0.315446 0.427077
O O15 0.178880 0.808433 0.191983
O O16 0.235581 0.000000 0.078116
O O17 0.250000 0.750000 0.000000
O O18 0.880290 0.000000 0.725741
#
# Coordination Sequence:
#
# PCOD8095579 Si02
#       7
#     8   8   8   8   8   8   8
#     4   9  17  30  44  59  82 110 139 175 216 250
#     4   8  14  23  34  52  80 109 135 166 201 238
#     4   9  16  27  43  62  84 109 139 174 209 250
#     4   8  14  24  36  52  77 107 137 169 202 239
#     4   9  15  24  39  58  82 110 138 168 203 245
#     4  10  20  33  46  61  84 112 144 182 218 249
#     4   9  16  27  41  56  78 108 140 173 209 246
#
# _framework density 15.289892999999999
#
# number of rings (size 3 to 8) (size 9 to 14) (size 15 to 20)
#    0.000    3.143    1.429    0.857    0.000    2.286 
#    0.000    2.857    0.000    0.000    0.000    0.000 
#    0.000    1.143    0.000   12.571    0.000    9.714 
#
# Total GULP energy -347091.625350 kJ/mol
# GULP energy per Si atom -12396.129477 kJ/mol
# Density = 1.525509 g / cm^3
# Si number density = 15.289893 Si / 1000 Ang^3
#
#
#
# Elastic Constant Matrix: (Units=GPa)
#
#
# Indices 1 2 3 4 5 6 
#
# 1 135.9025 93.1910 35.0242 0.0000 -2.8455 0.0000
# 2 93.1910 106.5118 37.9801 0.0000 -1.0311 0.0000
# 3 35.0242 37.9801 40.9308 0.0000 2.4471 0.0000
# 4 0.0000 0.0000 0.0000 19.4574 0.0000 -1.1267
# 5 -2.8455 -1.0311 2.4471 0.0000 12.2041 0.0000
# 6 0.0000 0.0000 0.0000 -1.1267 0.0000 36.1455
#
#
#
# Elastic Compliance Matrix: (Units=1/GPa)
#
#
# Indices 1 2 3 4 5 6 
#
# 1 0.018564 -0.015655 -0.001557 0.000000 0.003318 0.000000
# 2 -0.015655 0.027413 -0.012107 0.000000 0.001094 0.000000
# 3 -0.001557 -0.012107 0.037531 0.000000 -0.008911 0.000000
# 4 0.000000 0.000000 0.000000 0.051487 0.000000 0.001605
# 5 0.003318 0.001094 -0.008911 0.000000 0.084592 0.000000
# 6 0.000000 0.000000 0.000000 0.001605 0.000000 0.027716
#
#
# Mechanical properties :
#
#
# Convention : Reuss Voigt Hill
#
# Bulk Modulus (GPa) = 40.20824 68.41507 54.31166
# Shear Modulus (GPa) = 15.91191 21.37138 18.64165
#
# Velocity S-wave (km/s) = 3.22946 3.74270 3.49551
# Velocity P-wave (km/s) = 6.34510 7.96991 7.20346
#
# Compressibility (1/GPa) = 0.02487052
#
# Stress axis : x y z
#
# Youngs Moduli (GPa) = 53.86854 36.47888 26.64499
#
# Poissons Ratio (x) = 0.57107 0.04149
# Poissons Ratio (y) = 0.84330 0.32258
# Poissons Ratio (z) = 0.08387 0.44164
#
# Static dielectric constant tensor:
#      x y z
#    x 3.186610 0.000000 -0.052520 
#    y 0.000000 3.069960 0.000000 
#    z -0.052520 0.000000 2.407800 
# 
# 
# High freq. dielectric constant tensor:
#      x y z
#    x 1.594200 0.000000 -0.004260 
#    y 0.000000 1.592790 0.000000 
#    z -0.004260 0.000000 1.519680 
# 
# From -- ./inp_files/188008.got.cif
#   From: 2010.06.25/outbox.cif.g09.slc.cpg/sg12_95_cif.got.tgz:188008.got - 2010.06.28 00:19:55.
