data_PCOD8095219
_publ_section_title
;
Structure prediction by ZEFSAII (Michael W. Deem and Ramdas Pophale) SiO2 
 PCOD8095219
Probable space group: C 2/M
;
_chemical_formula_sum "Si O2"
_cell_formula_units_Z 40
_cell_length_a 20.688984
_cell_length_b 7.622319
_cell_length_c 14.508087
_cell_angle_alpha 90.000000
_cell_angle_beta 76.521629
_cell_angle_gamma 90.000000
_cell_volume 2224.883515
_symmetry_space_group_name_H-M "C 2/M"
_symmetry_group_IT_number 12
_symmetry_cell_setting 'monoclinic'
loop_
_space_group_symop_operation_xyz
x,y,z
-x,y,-z
-x,-y,-z
x,-y,z
1/2+x,1/2+y,z
1/2-x,1/2+y,-z
1/2-x,1/2-y,-z
1/2+x,1/2-y,z
loop_
_atom_site_type_symbol
_atom_site_label
_atom_site_fract_x
_atom_site_fract_y
_atom_site_fract_z
Si Si1 0.067862 0.791425 0.935024
Si Si2 0.325816 0.295070 0.958934
Si Si3 0.066367 0.500000 0.596341
Si Si4 0.050650 0.199706 0.735166
Si Si5 0.089348 0.500000 0.385965
Si Si6 0.895606 0.799509 0.753404
O O1 0.076110 0.734040 0.826162
O O2 0.064939 0.000000 0.940489
O O3 0.129746 0.714193 0.973177
O O4 0.000000 0.713179 0.000000
O O5 0.338177 0.500000 0.954871
O O6 0.349921 0.225637 0.851604
O O7 0.250000 0.250000 0.000000
O O8 0.084073 0.324924 0.647846
O O9 0.108658 0.500000 0.487644
O O10 0.989229 0.500000 0.598615
O O11 0.971206 0.214970 0.761850
O O12 0.072740 0.000000 0.706655
O O13 0.118827 0.675721 0.329463
O O14 0.878170 0.000000 0.731658
#
# Coordination Sequence:
#
# PCOD8095219 Si02
#       6
#     8   8   4   8   4   8
#     4   9  15  29  51  71  96 136 170 199 245 302
#     4  10  20  32  47  72 106 133 166 206 245 300
#     4   9  18  30  42  75 102 123 164 211 256 298
#     4   9  16  29  49  70  98 130 164 206 247 295
#     4   9  18  30  47  66 103 132 159 209 256 302
#     4   9  17  30  48  69  95 134 169 199 244 300
#
# _framework density 17.978470000000002
#
# number of rings (size 3 to 8) (size 9 to 14) (size 15 to 20)
#    0.000    2.800    2.000    0.000    1.400    0.800 
#    1.800    4.500    0.000    0.000    0.000    1.400 
#    0.000    0.000    0.000    0.000    0.000    0.000 
#
# Total GULP energy -247919.417779 kJ/mol
# GULP energy per Si atom -12395.970889 kJ/mol
# Density = 1.793755 g / cm^3
# Si number density = 17.978470 Si / 1000 Ang^3
#
#
#
# Elastic Constant Matrix: (Units=GPa)
#
#
# Indices 1 2 3 4 5 6 
#
# 1 71.3356 13.9713 48.8330 0.0000 5.8871 0.0000
# 2 13.9713 85.9217 73.0089 0.0000 3.3543 0.0000
# 3 48.8330 73.0089 189.0011 0.0000 8.1314 0.0000
# 4 0.0000 0.0000 0.0000 23.0626 0.0000 -4.1808
# 5 5.8871 3.3543 8.1314 0.0000 15.4265 0.0000
# 6 0.0000 0.0000 0.0000 -4.1808 0.0000 12.1788
#
#
#
# Elastic Compliance Matrix: (Units=1/GPa)
#
#
# Indices 1 2 3 4 5 6 
#
# 1 0.017439 0.001494 -0.004894 0.000000 -0.004400 0.000000
# 2 0.001494 0.017454 -0.007102 0.000000 -0.000622 0.000000
# 3 -0.004894 -0.007102 0.009364 0.000000 -0.001524 0.000000
# 4 0.000000 0.000000 0.000000 0.046238 0.000000 0.015873
# 5 -0.004400 -0.000622 -0.001524 0.000000 0.067441 0.000000
# 6 0.000000 0.000000 0.000000 0.015873 0.000000 0.087559
#
#
# Mechanical properties :
#
#
# Convention : Reuss Voigt Hill
#
# Bulk Modulus (GPa) = 43.00111 68.65386 55.82749
# Shear Modulus (GPa) = 18.23164 24.16328 21.19746
#
# Velocity S-wave (km/s) = 3.18792 3.67005 3.43745
# Velocity P-wave (km/s) = 6.12540 7.49858 6.84650
#
# Compressibility (1/GPa) = 0.02325521
#
# Stress axis : x y z
#
# Youngs Moduli (GPa) = 57.34379 57.29274 106.78912
#
# Poissons Ratio (x) = -0.08562 0.52259
# Poissons Ratio (y) = -0.08569 0.75838
# Poissons Ratio (z) = 0.28062 0.40688
#
# Static dielectric constant tensor:
#      x y z
#    x 2.824310 0.000000 0.149070 
#    y 0.000000 3.355030 0.000000 
#    z 0.149070 0.000000 3.559330 
# 
# 
# High freq. dielectric constant tensor:
#      x y z
#    x 1.642640 0.000000 0.007610 
#    y 0.000000 1.694790 0.000000 
#    z 0.007610 0.000000 1.696740 
# 
# From -- ./inp_files/151808.got.cif
#   From: 2010.06.25/outbox.cif.g09.slc.cpg/sg12_76_cif.got.tgz:151808.got - 2010.06.28 00:19:55.
