data_PCOD8095209
_publ_section_title
;
Structure prediction by ZEFSAII (Michael W. Deem and Ramdas Pophale) SiO2 
 PCOD8095209
Probable space group: C 2/M
;
_chemical_formula_sum "Si O2"
_cell_formula_units_Z 56
_cell_length_a 18.867189
_cell_length_b 9.363414
_cell_length_c 17.804362
_cell_angle_alpha 90.000000
_cell_angle_beta 88.472484
_cell_angle_gamma 90.000000
_cell_volume 3144.224032
_symmetry_space_group_name_H-M "C 2/M"
_symmetry_group_IT_number 12
_symmetry_cell_setting 'monoclinic'
loop_
_space_group_symop_operation_xyz
x,y,z
-x,y,-z
-x,-y,-z
x,-y,z
1/2+x,1/2+y,z
1/2-x,1/2+y,-z
1/2-x,1/2-y,-z
1/2+x,1/2-y,z
loop_
_atom_site_type_symbol
_atom_site_label
_atom_site_fract_x
_atom_site_fract_y
_atom_site_fract_z
Si Si1 0.678266 0.667225 0.587684
Si Si2 0.573081 0.330707 0.716495
Si Si3 0.322250 0.835029 0.003567
Si Si4 0.914481 0.167456 0.716609
Si Si5 0.675170 0.161338 0.162938
Si Si6 0.159983 0.167150 0.858728
Si Si7 0.681938 0.665009 0.417154
O O1 0.690612 0.500000 0.600093
O O2 0.615547 0.725964 0.642455
O O3 0.657738 0.703259 0.502411
O O4 0.750655 0.743411 0.609694
O O5 0.569775 0.500000 0.712937
O O6 0.493673 0.267317 0.717326
O O7 0.612668 0.280486 0.790579
O O8 0.367306 0.757830 0.068122
O O9 0.308285 0.000000 0.025276
O O10 0.250000 0.750000 0.000000
O O11 0.358067 0.824675 0.920197
O O12 0.866637 0.233934 0.782332
O O13 0.883050 0.202690 0.635537
O O14 0.915778 0.000000 0.732139
O O15 0.758195 0.202590 0.161525
O O16 0.666181 0.000000 0.192709
O O17 0.150035 0.000000 0.876554
O O18 0.703853 0.500000 0.410439
#
# Coordination Sequence:
#
# PCOD8095209 Si02
#       7
#     8   8   8   8   8   8   8
#     4   9  17  32  53  71  93 127 160 193 235 281
#     4   9  18  32  49  70  96 128 163 194 231 281
#     4   9  17  30  49  73  97 121 155 198 240 282
#     4  10  20  32  47  70  99 127 158 197 236 277
#     4   9  18  32  50  71  94 123 158 193 234 285
#     4   9  17  31  51  72  94 122 160 200 234 278
#     4   9  18  31  49  75  99 120 155 200 239 277
#
# _framework density 17.810434999999998
#
# number of rings (size 3 to 8) (size 9 to 14) (size 15 to 20)
#    0.000    2.857    0.000    2.143    0.000    5.143 
#    0.000    5.714    0.000    4.286    0.000    5.000 
#    0.000    0.000    0.000    0.000    0.000    0.000 
#
# Total GULP energy -347110.106696 kJ/mol
# GULP energy per Si atom -12396.789525 kJ/mol
# Density = 1.776990 g / cm^3
# Si number density = 17.810435 Si / 1000 Ang^3
#
#
#
# Elastic Constant Matrix: (Units=GPa)
#
#
# Indices 1 2 3 4 5 6 
#
# 1 111.9663 36.9331 70.9699 0.0000 15.8455 0.0000
# 2 36.9331 53.3046 47.4847 0.0000 4.4235 0.0000
# 3 70.9699 47.4847 118.9825 0.0000 20.7639 0.0000
# 4 0.0000 0.0000 0.0000 29.3992 0.0000 -1.4641
# 5 15.8455 4.4235 20.7639 0.0000 12.5305 0.0000
# 6 0.0000 0.0000 0.0000 -1.4641 0.0000 18.5255
#
#
#
# Elastic Compliance Matrix: (Units=1/GPa)
#
#
# Indices 1 2 3 4 5 6 
#
# 1 0.015346 -0.004748 -0.005859 0.000000 -0.008021 0.000000
# 2 -0.004748 0.032070 -0.012716 0.000000 0.015754 0.000000
# 3 -0.005859 -0.012716 0.020959 0.000000 -0.022832 0.000000
# 4 0.000000 0.000000 0.000000 0.034149 0.000000 0.002699
# 5 -0.008021 0.015754 -0.022832 0.000000 0.122221 0.000000
# 6 0.000000 0.000000 0.000000 0.002699 0.000000 0.054193
#
#
# Mechanical properties :
#
#
# Convention : Reuss Voigt Hill
#
# Bulk Modulus (GPa) = 46.02155 66.11431 56.06793
# Shear Modulus (GPa) = 15.02280 20.68209 17.85244
#
# Velocity S-wave (km/s) = 2.90743 3.41139 3.16944
# Velocity P-wave (km/s) = 6.09644 7.26075 6.70392
#
# Compressibility (1/GPa) = 0.02172895
#
# Stress axis : x y z
#
# Youngs Moduli (GPa) = 65.16213 31.18149 47.71313
#
# Poissons Ratio (x) = 0.14805 0.27955
# Poissons Ratio (y) = 0.30940 0.60673
# Poissons Ratio (z) = 0.38178 0.39651
#
# Static dielectric constant tensor:
#      x y z
#    x 3.270720 0.000000 0.178140 
#    y 0.000000 3.208820 0.000000 
#    z 0.178140 0.000000 3.721610 
# 
# 
# High freq. dielectric constant tensor:
#      x y z
#    x 1.664570 0.000000 0.010650 
#    y 0.000000 1.672660 0.000000 
#    z 0.010650 0.000000 1.704320 
# 
# From -- ./inp_files/280213.got.cif
#   From: 2010.06.25/outbox.cif.g09.slc.cpg/sg12_141_cif.got.tgz:280213.got - 2010.06.28 00:19:55.
