data_PCOD8095988
_publ_section_title
;
Structure prediction by ZEFSAII (Michael W. Deem and Ramdas Pophale) SiO2 
 PCOD8095988
Probable space group: C 2/M
;
_chemical_formula_sum "Si O2"
_cell_formula_units_Z 48
_cell_length_a 24.418258
_cell_length_b 8.958366
_cell_length_c 12.467693
_cell_angle_alpha 90.000000
_cell_angle_beta 87.496542
_cell_angle_gamma 90.000000
_cell_volume 2724.676121
_symmetry_space_group_name_H-M "C 2/M"
_symmetry_group_IT_number 12
_symmetry_cell_setting 'monoclinic'
loop_
_space_group_symop_operation_xyz
x,y,z
-x,y,-z
-x,-y,-z
x,-y,z
1/2+x,1/2+y,z
1/2-x,1/2+y,-z
1/2-x,1/2-y,-z
1/2+x,1/2-y,z
loop_
_atom_site_type_symbol
_atom_site_label
_atom_site_fract_x
_atom_site_fract_y
_atom_site_fract_z
Si Si1 0.493334 0.335898 0.126979
Si Si2 0.375311 0.676885 0.088989
Si Si3 0.302189 0.173350 0.262849
Si Si4 0.399702 0.825523 0.863728
Si Si5 0.193390 0.827602 0.529186
Si Si6 0.173408 0.169042 0.296884
O O1 0.502984 0.500000 0.177776
O O2 0.430742 0.281654 0.151010
O O3 0.537766 0.221360 0.170691
O O4 0.500000 0.348710 0.000000
O O5 0.367687 0.500000 0.081950
O O6 0.324130 0.750042 0.153307
O O7 0.376963 0.739564 0.968757
O O8 0.332312 0.247111 0.364155
O O9 0.237415 0.202663 0.272860
O O10 0.316824 0.000000 0.260243
O O11 0.361813 0.786690 0.766308
O O12 0.398032 0.000000 0.886968
O O13 0.250000 0.750000 0.500000
O O14 0.157131 0.811356 0.424148
O O15 0.203481 0.000000 0.556108
O O16 0.160084 0.000000 0.260956
#
# Coordination Sequence:
#
# PCOD8095988 Si02
#       6
#     8   8   8   8   8   8
#     4   8  16  32  51  69  92 126 164 198 237 289
#     4  10  20  34  52  72  98 132 164 197 241 293
#     4  10  20  33  51  75 101 129 162 202 245 288
#     4  11  21  31  49  75 100 128 162 203 246 284
#     4   9  17  31  51  72  95 127 166 203 239 283
#     4   9  19  34  50  70  99 133 164 195 237 291
#
# _framework density 17.616772000000001
#
# number of rings (size 3 to 8) (size 9 to 14) (size 15 to 20)
#    0.000    2.500    0.000    5.000    0.000    8.333 
#    0.000    0.000    0.000    1.000    0.000    7.000 
#    0.000    0.000    0.000    0.000    0.000    0.000 
#
# Total GULP energy -297484.537256 kJ/mol
# GULP energy per Si atom -12395.189052 kJ/mol
# Density = 1.757668 g / cm^3
# Si number density = 17.616772 Si / 1000 Ang^3
#
#
#
# Elastic Constant Matrix: (Units=GPa)
#
#
# Indices 1 2 3 4 5 6 
#
# 1 47.1487 31.5310 19.6513 0.0000 15.8770 0.0000
# 2 31.5310 115.7774 36.8039 0.0000 16.5806 0.0000
# 3 19.6513 36.8039 61.4999 0.0000 19.1943 0.0000
# 4 0.0000 0.0000 0.0000 32.1320 0.0000 -0.1839
# 5 15.8770 16.5806 19.1943 0.0000 12.5203 0.0000
# 6 0.0000 0.0000 0.0000 -0.1839 0.0000 23.5219
#
#
#
# Elastic Compliance Matrix: (Units=1/GPa)
#
#
# Indices 1 2 3 4 5 6 
#
# 1 0.040519 -0.005492 0.007873 0.000000 -0.056178 0.000000
# 2 -0.005492 0.011883 -0.005021 0.000000 -0.001074 0.000000
# 3 0.007873 -0.005021 0.034111 0.000000 -0.055629 0.000000
# 4 0.000000 0.000000 0.000000 0.031123 0.000000 0.000243
# 5 -0.056178 -0.001074 -0.055629 0.000000 0.237814 0.000000
# 6 0.000000 0.000000 0.000000 0.000243 0.000000 0.042515
#
#
# Mechanical properties :
#
#
# Convention : Reuss Voigt Hill
#
# Bulk Modulus (GPa) = 12.31036 44.48874 28.39955
# Shear Modulus (GPa) = 11.61918 22.73084 17.17501
#
# Velocity S-wave (km/s) = 2.57096 3.59597 3.12576
# Velocity P-wave (km/s) = 3.97695 6.52302 5.40212
#
# Compressibility (1/GPa) = 0.08123241
#
# Stress axis : x y z
#
# Youngs Moduli (GPa) = 24.67998 84.15381 29.31601
#
# Poissons Ratio (x) = 0.46220 -0.23081
# Poissons Ratio (y) = 0.13555 0.14719
# Poissons Ratio (z) = -0.19431 0.42253
#
# Static dielectric constant tensor:
#      x y z
#    x 3.321440 0.000000 -0.023360 
#    y 0.000000 3.373000 0.000000 
#    z -0.023360 0.000000 3.358470 
# 
# 
# High freq. dielectric constant tensor:
#      x y z
#    x 1.657160 0.000000 0.003710 
#    y 0.000000 1.692110 0.000000 
#    z 0.003710 0.000000 1.666660 
# 
# From -- ./inp_files/172265.got.cif
#   From: 2010.06.25/outbox.cif.g09.slc.cpg/sg12_87_cif.got.tgz:172265.got - 2010.06.28 00:19:55.
