data_PCOD8095417
_publ_section_title
;
Structure prediction by ZEFSAII (Michael W. Deem and Ramdas Pophale) SiO2 
 PCOD8095417
Probable space group: C 2/M
;
_chemical_formula_sum "Si O2"
_cell_formula_units_Z 48
_cell_length_a 15.204959
_cell_length_b 26.650390
_cell_length_c 6.788130
_cell_angle_alpha 90.000000
_cell_angle_beta 76.329411
_cell_angle_gamma 90.000000
_cell_volume 2672.748043
_symmetry_space_group_name_H-M "C 2/M"
_symmetry_group_IT_number 12
_symmetry_cell_setting 'monoclinic'
loop_
_space_group_symop_operation_xyz
x,y,z
-x,y,-z
-x,-y,-z
x,-y,z
1/2+x,1/2+y,z
1/2-x,1/2+y,-z
1/2-x,1/2-y,-z
1/2+x,1/2-y,z
loop_
_atom_site_type_symbol
_atom_site_label
_atom_site_fract_x
_atom_site_fract_y
_atom_site_fract_z
Si Si1 0.735720 0.146073 0.707795
Si Si2 0.511928 0.599551 0.764869
Si Si3 0.117101 0.194362 0.635430
Si Si4 0.403419 0.805144 0.484016
Si Si5 0.354358 0.557775 0.587084
Si Si6 0.256562 0.803127 0.895675
O O1 0.812576 0.182382 0.576456
O O2 0.639383 0.158512 0.658981
O O3 0.760138 0.088177 0.646979
O O4 0.731801 0.154145 0.944583
O O5 0.531259 0.656908 0.685890
O O6 0.419755 0.581147 0.716592
O O7 0.596610 0.565014 0.650258
O O8 0.500000 0.593359 0.000000
O O9 0.082291 0.250532 0.621783
O O10 0.165483 0.187211 0.820839
O O11 0.500000 0.826817 0.500000
O O12 0.342213 0.803783 0.708802
O O13 0.333299 0.500000 0.639102
O O14 0.250000 0.750000 0.000000
#
# Coordination Sequence:
#
# PCOD8095417 Si02
#       6
#     8   8   8   8   8   8
#     4  10  20  38  52  73 107 140 178 228 259 318
#     4  10  20  33  51  82 117 142 177 218 264 327
#     4  10  20  32  50  77 110 148 176 211 257 319
#     4  11  23  33  50  80 111 141 180 222 266 320
#     4  10  22  37  56  77 104 144 186 229 272 312
#     4  11  18  35  55  73 106 149 183 212 264 323
#
# _framework density 17.959043999999999
#
# number of rings (size 3 to 8) (size 9 to 14) (size 15 to 20)
#    0.000    1.667    3.333    3.000    4.667    3.333 
#    0.000    0.000    0.000    0.500    0.000    1.167 
#    0.000    0.000    0.000    0.000    0.000    0.000 
#
# Total GULP energy -297620.392009 kJ/mol
# GULP energy per Si atom -12400.849667 kJ/mol
# Density = 1.791817 g / cm^3
# Si number density = 17.959044 Si / 1000 Ang^3
#
#
#
# Elastic Constant Matrix: (Units=GPa)
#
#
# Indices 1 2 3 4 5 6 
#
# 1 79.7793 55.4933 26.8536 0.0000 12.7709 0.0000
# 2 55.4933 120.2802 27.2920 0.0000 9.4901 0.0000
# 3 26.8536 27.2920 121.2107 0.0000 14.1776 0.0000
# 4 0.0000 0.0000 0.0000 8.8184 0.0000 4.1819
# 5 12.7709 9.4901 14.1776 0.0000 13.5306 0.0000
# 6 0.0000 0.0000 0.0000 4.1819 0.0000 21.0995
#
#
#
# Elastic Compliance Matrix: (Units=1/GPa)
#
#
# Indices 1 2 3 4 5 6 
#
# 1 0.020715 -0.008290 -0.001272 0.000000 -0.012405 0.000000
# 2 -0.008290 0.012343 -0.000963 0.000000 0.000176 0.000000
# 3 -0.001272 -0.000963 0.009721 0.000000 -0.008310 0.000000
# 4 0.000000 0.000000 0.000000 0.125164 0.000000 -0.024808
# 5 -0.012405 0.000176 -0.008310 0.000000 0.094198 0.000000
# 6 0.000000 0.000000 0.000000 -0.024808 0.000000 0.052311
#
#
# Mechanical properties :
#
#
# Convention : Reuss Voigt Hill
#
# Bulk Modulus (GPa) = 46.02164 60.06090 53.04127
# Shear Modulus (GPa) = 14.58812 22.79844 18.69328
#
# Velocity S-wave (km/s) = 2.85318 3.56683 3.22977
# Velocity P-wave (km/s) = 6.04448 7.10485 6.59600
#
# Compressibility (1/GPa) = 0.02172891
#
# Stress axis : x y z
#
# Youngs Moduli (GPa) = 48.27521 81.01632 102.87350
#
# Poissons Ratio (x) = 0.67160 0.13083
# Poissons Ratio (y) = 0.40019 0.09910
# Poissons Ratio (z) = 0.06139 0.07804
#
# Static dielectric constant tensor:
#      x y z
#    x 3.338480 0.000000 0.237780 
#    y 0.000000 3.184280 0.000000 
#    z 0.237780 0.000000 3.707800 
# 
# 
# High freq. dielectric constant tensor:
#      x y z
#    x 1.675990 0.000000 0.012500 
#    y 0.000000 1.667980 0.000000 
#    z 0.012500 0.000000 1.708250 
# 
# From -- ./inp_files/12839.got.cif
#   From: 2010.06.25/outbox.cif.g09.slc.cpg/sg12_7_cif.got.tgz:12839.got - 2010.06.28 00:19:55.
