data_PCOD8095312
_publ_section_title
;
Structure prediction by ZEFSAII (Michael W. Deem and Ramdas Pophale) SiO2 
 PCOD8095312
Probable space group: C 2/M
;
_chemical_formula_sum "Si O2"
_cell_formula_units_Z 48
_cell_length_a 14.084942
_cell_length_b 22.863495
_cell_length_c 12.489732
_cell_angle_alpha 90.000000
_cell_angle_beta 141.259204
_cell_angle_gamma 90.000000
_cell_volume 2517.010919
_symmetry_space_group_name_H-M "C 2/M"
_symmetry_group_IT_number 12
_symmetry_cell_setting 'monoclinic'
loop_
_space_group_symop_operation_xyz
x,y,z
-x,y,-z
-x,-y,-z
x,-y,z
1/2+x,1/2+y,z
1/2-x,1/2+y,-z
1/2-x,1/2-y,-z
1/2+x,1/2-y,z
loop_
_atom_site_type_symbol
_atom_site_label
_atom_site_fract_x
_atom_site_fract_y
_atom_site_fract_z
Si Si1 0.836578 0.850188 0.164498
Si Si2 0.261581 0.639738 0.338196
Si Si3 0.038860 0.752615 0.418897
Si Si4 0.414676 0.068330 0.528587
Si Si5 0.605501 0.568677 0.359325
Si Si6 0.016266 0.348858 0.783904
O O1 0.799543 0.876013 0.249474
O O2 0.901978 0.786030 0.240457
O O3 0.952030 0.893788 0.203631
O O4 0.690650 0.838338 0.963439
O O5 0.328264 0.700844 0.442005
O O6 0.328359 0.586475 0.466609
O O7 0.080185 0.645601 0.191634
O O8 0.000000 0.724785 0.500000
O O9 0.070775 0.699232 0.367067
O O10 0.500000 0.095478 0.500000
O O11 0.233641 0.083659 0.381104
O O12 0.506252 0.090520 0.711958
O O13 0.435874 0.000000 0.546932
O O14 0.565500 0.500000 0.323485
#
# Coordination Sequence:
#
# PCOD8095312 Si02
#       6
#     8   8   8   8   8   8
#     4  10  20  32  48  76 108 130 159 208 255 291
#     4   9  19  33  50  73 102 136 169 203 244 295
#     4   9  18  33  51  71  97 134 173 204 244 298
#     4   9  19  36  55  74  97 128 168 208 245 294
#     4   9  18  34  55  74  96 133 170 198 243 305
#     4  11  19  31  52  75 101 132 168 208 250 292
#
# _framework density 19.070239999999998
#
# number of rings (size 3 to 8) (size 9 to 14) (size 15 to 20)
#    0.000    2.500    0.000    3.500    0.000    2.000 
#    0.000    0.833    0.000    8.000    0.000    0.000 
#    0.000    0.000    0.000    0.000    0.000    0.000 
#
# Total GULP energy -297330.725726 kJ/mol
# GULP energy per Si atom -12388.780239 kJ/mol
# Density = 1.902684 g / cm^3
# Si number density = 19.070240 Si / 1000 Ang^3
#
#
#
# Elastic Constant Matrix: (Units=GPa)
#
#
# Indices 1 2 3 4 5 6 
#
# 1 130.8181 33.6514 30.7084 0.0000 4.3186 0.0000
# 2 33.6514 47.0747 21.3764 0.0000 6.2444 0.0000
# 3 30.7084 21.3764 73.2231 0.0000 14.6822 0.0000
# 4 0.0000 0.0000 0.0000 14.2350 0.0000 -3.1820
# 5 4.3186 6.2444 14.6822 0.0000 21.9705 0.0000
# 6 0.0000 0.0000 0.0000 -3.1820 0.0000 19.6224
#
#
#
# Elastic Compliance Matrix: (Units=1/GPa)
#
#
# Indices 1 2 3 4 5 6 
#
# 1 0.009753 -0.005971 -0.002659 0.000000 0.001557 0.000000
# 2 -0.005971 0.028266 -0.005049 0.000000 -0.003486 0.000000
# 3 -0.002659 -0.005049 0.018307 0.000000 -0.010276 0.000000
# 4 0.000000 0.000000 0.000000 0.072892 0.000000 0.011820
# 5 0.001557 -0.003486 -0.010276 0.000000 0.053068 0.000000
# 6 0.000000 0.000000 0.000000 0.011820 0.000000 0.052879
#
#
# Mechanical properties :
#
#
# Convention : Reuss Voigt Hill
#
# Bulk Modulus (GPa) = 34.52121 46.95427 40.73774
# Shear Modulus (GPa) = 18.37031 22.19087 20.28059
#
# Velocity S-wave (km/s) = 3.10707 3.41492 3.26462
# Velocity P-wave (km/s) = 5.56896 6.34224 5.96814
#
# Compressibility (1/GPa) = 0.02896770
#
# Stress axis : x y z
#
# Youngs Moduli (GPa) = 102.53260 35.37792 54.62509
#
# Poissons Ratio (x) = 0.21124 0.14527
# Poissons Ratio (y) = 0.61221 0.27579
# Poissons Ratio (z) = 0.27267 0.17862
#
# Static dielectric constant tensor:
#      x y z
#    x 3.925730 0.000000 0.058760 
#    y 0.000000 3.384100 0.000000 
#    z 0.058760 0.000000 3.172190 
# 
# 
# High freq. dielectric constant tensor:
#      x y z
#    x 1.755340 0.000000 0.009580 
#    y 0.000000 1.738300 0.000000 
#    z 0.009580 0.000000 1.711940 
# 
# From -- ./inp_files/64845.got.cif
#   From: 2010.06.25/outbox.cif.g09.slc.cpg/sg12_33_cif.got.tgz:64845.got - 2010.06.28 00:19:55.
