data_PCOD8095685
_publ_section_title
;
Structure prediction by ZEFSAII (Michael W. Deem and Ramdas Pophale) SiO2 
 PCOD8095685
Probable space group: C 2/M
;
_chemical_formula_sum "Si O2"
_cell_formula_units_Z 48
_cell_length_a 24.208076
_cell_length_b 9.197719
_cell_length_c 12.205088
_cell_angle_alpha 90.000000
_cell_angle_beta 76.045560
_cell_angle_gamma 90.000000
_cell_volume 2637.372065
_symmetry_space_group_name_H-M "C 2/M"
_symmetry_group_IT_number 12
_symmetry_cell_setting 'monoclinic'
loop_
_space_group_symop_operation_xyz
x,y,z
-x,y,-z
-x,-y,-z
x,-y,z
1/2+x,1/2+y,z
1/2-x,1/2+y,-z
1/2-x,1/2-y,-z
1/2+x,1/2-y,z
loop_
_atom_site_type_symbol
_atom_site_label
_atom_site_fract_x
_atom_site_fract_y
_atom_site_fract_z
Si Si1 0.660651 0.672018 0.331891
Si Si2 0.090377 0.171091 0.159934
Si Si3 0.612157 0.170152 0.930532
Si Si4 0.788869 0.669298 0.281814
Si Si5 0.638210 0.670085 0.583704
Si Si6 0.959664 0.168249 0.206139
O O1 0.657091 0.500000 0.330413
O O2 0.621723 0.733545 0.252710
O O3 0.725569 0.724256 0.283598
O O4 0.636356 0.728334 0.459948
O O5 0.023992 0.207706 0.205098
O O6 0.100641 0.000000 0.138355
O O7 0.117288 0.254729 0.045111
O O8 0.671166 0.203917 0.840707
O O9 0.559420 0.237204 0.888635
O O10 0.600982 0.000000 0.949828
O O11 0.789422 0.500000 0.310843
O O12 0.810267 0.752432 0.378737
O O13 0.651561 0.500000 0.580410
O O14 0.578031 0.706868 0.669392
O O15 0.952752 0.000000 0.176244
#
# Coordination Sequence:
#
# PCOD8095685 Si02
#       6
#     8   8   8   8   8   8
#     4   9  18  32  50  72  98 127 156 191 237 284
#     4  10  20  33  49  70  98 129 158 192 236 282
#     4  10  20  33  50  71  95 125 161 199 236 276
#     4   9  18  33  51  71  96 125 158 196 237 278
#     4   9  17  31  52  75  96 121 157 196 234 280
#     4   9  18  32  51  74  96 121 157 198 236 278
#
# _framework density 18.199935
#
# number of rings (size 3 to 8) (size 9 to 14) (size 15 to 20)
#    0.000    2.667    0.000    1.500    0.000    4.667 
#    0.000    5.000    0.000    0.000    0.000    5.833 
#    0.000    0.000    0.000    0.000    0.000    0.000 
#
# Total GULP energy -297632.104562 kJ/mol
# GULP energy per Si atom -12401.337690 kJ/mol
# Density = 1.815851 g / cm^3
# Si number density = 18.199935 Si / 1000 Ang^3
#
#
#
# Elastic Constant Matrix: (Units=GPa)
#
#
# Indices 1 2 3 4 5 6 
#
# 1 116.9732 32.2691 86.0954 0.0000 17.7412 0.0000
# 2 32.2691 41.4721 45.4971 0.0000 7.3209 0.0000
# 3 86.0954 45.4971 154.2789 0.0000 22.0118 0.0000
# 4 0.0000 0.0000 0.0000 21.9005 0.0000 -0.1480
# 5 17.7412 7.3209 22.0118 0.0000 27.6195 0.0000
# 6 0.0000 0.0000 0.0000 -0.1480 0.0000 21.5469
#
#
#
# Elastic Compliance Matrix: (Units=1/GPa)
#
#
# Indices 1 2 3 4 5 6 
#
# 1 0.015126 -0.003613 -0.006912 0.000000 -0.003250 0.000000
# 2 -0.003613 0.036543 -0.008699 0.000000 -0.000433 0.000000
# 3 -0.006912 -0.008699 0.013474 0.000000 -0.003993 0.000000
# 4 0.000000 0.000000 0.000000 0.045663 0.000000 0.000314
# 5 -0.003250 -0.000433 -0.003993 0.000000 0.041591 0.000000
# 6 0.000000 0.000000 0.000000 0.000314 0.000000 0.046413
#
#
# Mechanical properties :
#
#
# Convention : Reuss Voigt Hill
#
# Bulk Modulus (GPa) = 37.45891 71.16081 54.30986
# Shear Modulus (GPa) = 20.31242 24.13755 22.22498
#
# Velocity S-wave (km/s) = 3.34439 3.64571 3.49830
# Velocity P-wave (km/s) = 5.96153 7.54361 6.79874
#
# Compressibility (1/GPa) = 0.02669592
#
# Stress axis : x y z
#
# Youngs Moduli (GPa) = 66.11188 27.36491 74.21780
#
# Poissons Ratio (x) = 0.09887 0.51298
# Poissons Ratio (y) = 0.23886 0.64560
# Poissons Ratio (z) = 0.45696 0.23804
#
# Static dielectric constant tensor:
#      x y z
#    x 3.476620 0.000000 0.000230 
#    y 0.000000 3.170950 0.000000 
#    z 0.000230 0.000000 3.572520 
# 
# 
# High freq. dielectric constant tensor:
#      x y z
#    x 1.705110 0.000000 -0.007390 
#    y 0.000000 1.682620 0.000000 
#    z -0.007390 0.000000 1.714910 
# 
# From -- ./inp_files/172036.got.cif
#   From: 2010.06.25/outbox.cif.g09.slc.cpg/sg12_87_cif.got.tgz:172036.got - 2010.06.28 00:19:55.
