data_PCOD8095053
_publ_section_title
;
Structure prediction by ZEFSAII (Michael W. Deem and Ramdas Pophale) SiO2 
 PCOD8095053
Probable space group: C 2/M
;
_chemical_formula_sum "Si O2"
_cell_formula_units_Z 40
_cell_length_a 21.602451
_cell_length_b 10.359987
_cell_length_c 19.252617
_cell_angle_alpha 90.000000
_cell_angle_beta 156.324431
_cell_angle_gamma 90.000000
_cell_volume 1730.212863
_symmetry_space_group_name_H-M "C 2/M"
_symmetry_group_IT_number 12
_symmetry_cell_setting 'monoclinic'
loop_
_space_group_symop_operation_xyz
x,y,z
-x,y,-z
-x,-y,-z
x,-y,z
1/2+x,1/2+y,z
1/2-x,1/2+y,-z
1/2-x,1/2-y,-z
1/2+x,1/2-y,z
loop_
_atom_site_type_symbol
_atom_site_label
_atom_site_fract_x
_atom_site_fract_y
_atom_site_fract_z
Si Si1 0.556416 0.354502 0.757158
Si Si2 0.917315 0.642907 0.524424
Si Si3 0.204701 0.279827 0.734712
Si Si4 0.542831 0.000000 0.154254
Si Si5 0.612032 0.766236 0.954165
Si Si6 0.749972 0.000000 0.244893
O O1 0.502143 0.500000 0.684612
O O2 0.431949 0.252121 0.598873
O O3 0.725479 0.332397 0.899462
O O4 0.562937 0.339493 0.847340
O O5 0.898494 0.500000 0.538857
O O6 0.071226 0.643497 0.636489
O O7 0.775813 0.668163 0.324619
O O8 0.361154 0.296752 0.941326
O O9 0.154998 0.128215 0.677218
O O10 0.705917 0.000000 0.281853
O O11 0.523824 0.127485 0.182448
O O12 0.406414 0.000000 0.958783
#
# Coordination Sequence:
#
# PCOD8095053 Si02
#       6
#     8   8   8   4   8   4
#     4  10  20  31  50  80 108 137 170 209 261 318
#     4  10  21  32  50  77 111 141 165 211 270 317
#     4   9  18  31  50  74 106 131 176 210 258 301
#     4   9  16  32  50  76 112 131 177 206 267 304
#     4   9  18  30  51  75 108 133 169 213 260 305
#     4   9  18  29  52  82  98 141 173 222 247 302
#
# _framework density 23.118542000000001
#
# number of rings (size 3 to 8) (size 9 to 14) (size 15 to 20)
#    0.000    2.600    1.000    1.200    7.000    6.400 
#    0.000    0.000    0.000    3.600    0.000   21.000 
#    0.000    0.000    0.000    0.000    0.000    0.000 
#
# Total GULP energy -247770.730865 kJ/mol
# GULP energy per Si atom -12388.536543 kJ/mol
# Density = 2.306592 g / cm^3
# Si number density = 23.118542 Si / 1000 Ang^3
#
#
#
# Elastic Constant Matrix: (Units=GPa)
#
#
# Indices 1 2 3 4 5 6 
#
# 1 55.7797 28.2081 31.7602 -0.0015 -23.9150 -0.0006
# 2 28.2081 166.1059 40.1285 -0.0022 -32.1149 -0.0012
# 3 31.7602 40.1285 71.0379 -0.0023 -42.2905 -0.0014
# 4 -0.0015 -0.0022 -0.0023 18.1765 -0.0015 -16.7411
# 5 -23.9150 -32.1149 -42.2905 -0.0015 34.7986 -0.0007
# 6 -0.0006 -0.0012 -0.0014 -16.7411 -0.0007 29.8565
#
#
#
# Elastic Compliance Matrix: (Units=1/GPa)
#
#
# Indices 1 2 3 4 5 6 
#
# 1 0.025832 -0.001134 -0.003483 0.000006 0.012474 0.000004
# 2 -0.001134 0.007381 -0.000257 0.000003 0.005720 0.000002
# 3 -0.003483 -0.000257 0.051402 0.000030 0.059838 0.000021
# 4 0.000006 0.000003 0.000030 0.113774 0.000051 0.063795
# 5 0.012474 0.005720 0.059838 0.000051 0.115308 0.000035
# 6 0.000004 0.000002 0.000021 0.063795 0.000035 0.069265
#
#
# Mechanical properties :
#
#
# Convention : Reuss Voigt Hill
#
# Bulk Modulus (GPa) = 13.35695 54.79079 34.07387
# Shear Modulus (GPa) = 11.97130 29.42144 20.69637
#
# Velocity S-wave (km/s) = 2.27804 3.57127 2.99528
# Velocity P-wave (km/s) = 3.56503 6.38410 5.17040
#
# Compressibility (1/GPa) = 0.07486741
#
# Stress axis : x y z
#
# Youngs Moduli (GPa) = 38.71144 135.48665 19.45432
#
# Poissons Ratio (x) = 0.15360 0.06776
# Poissons Ratio (y) = 0.04389 0.00501
# Poissons Ratio (z) = 0.13482 0.03489
#
# Static dielectric constant tensor:
#      x y z
#    x 4.132960 0.000000 -0.616960 
#    y 0.000000 4.091740 0.000000 
#    z -0.616960 0.000000 4.043180 
# 
# 
# High freq. dielectric constant tensor:
#      x y z
#    x 1.879930 0.000000 -0.044230 
#    y 0.000000 1.905310 0.000000 
#    z -0.044230 0.000000 1.880330 
# 
# From -- ./inp_files/324440.got.cif
#   From: 2010.06.25/outbox.cif.g09.slc.cpg/sg12_163_cif.got.tgz:324440.got - 2010.06.28 00:19:55.
