data_PCOD8095309
_publ_section_title
;
Structure prediction by ZEFSAII (Michael W. Deem and Ramdas Pophale) SiO2 
 PCOD8095309
Probable space group: C 2/M
;
_chemical_formula_sum "Si O2"
_cell_formula_units_Z 40
_cell_length_a 13.169956
_cell_length_b 12.570927
_cell_length_c 13.011737
_cell_angle_alpha 90.000000
_cell_angle_beta 115.231477
_cell_angle_gamma 90.000000
_cell_volume 1948.678210
_symmetry_space_group_name_H-M "C 2/M"
_symmetry_group_IT_number 12
_symmetry_cell_setting 'monoclinic'
loop_
_space_group_symop_operation_xyz
x,y,z
-x,y,-z
-x,-y,-z
x,-y,z
1/2+x,1/2+y,z
1/2-x,1/2+y,-z
1/2-x,1/2-y,-z
1/2+x,1/2-y,z
loop_
_atom_site_type_symbol
_atom_site_label
_atom_site_fract_x
_atom_site_fract_y
_atom_site_fract_z
Si Si1 0.221648 0.879060 0.711468
Si Si2 0.373617 0.117748 0.407265
Si Si3 0.534249 0.875446 0.130987
Si Si4 0.666050 0.624975 0.459514
Si Si5 0.047308 0.234371 0.729159
O O1 0.340864 0.830270 0.796445
O O2 0.172525 0.836630 0.580803
O O3 0.129756 0.868310 0.764806
O O4 0.249947 0.000000 0.703767
O O5 0.500000 0.117357 0.500000
O O6 0.286621 0.149437 0.460188
O O7 0.370642 0.196556 0.310286
O O8 0.340605 0.000000 0.353925
O O9 0.456731 0.799930 0.167705
O O10 0.518117 0.000000 0.153595
O O11 0.500000 0.854864 0.000000
O O12 0.632730 0.500000 0.435853
O O13 0.573552 0.699974 0.365463
#
# Coordination Sequence:
#
# PCOD8095309 Si02
#       5
#     8   8   8   8   8
#     4  10  21  37  57  82 114 149 181 218 269 328
#     4  10  20  32  48  75 111 146 179 217 263 318
#     4  10  23  42  59  77 106 145 189 234 276 319
#     4  10  21  36  54  83 121 150 173 212 272 336
#     4  12  21  33  58  84 108 141 184 226 272 326
#
# _framework density 20.526734999999999
#
# number of rings (size 3 to 8) (size 9 to 14) (size 15 to 20)
#    0.000    1.600    0.000    5.400    0.000    8.000 
#    0.000    0.000    0.000    2.400    0.000    0.000 
#    0.000    0.000    0.000    0.000    0.000    0.000 
#
# Total GULP energy -247814.675945 kJ/mol
# GULP energy per Si atom -12390.733797 kJ/mol
# Density = 2.048002 g / cm^3
# Si number density = 20.526735 Si / 1000 Ang^3
#
#
#
# Elastic Constant Matrix: (Units=GPa)
#
#
# Indices 1 2 3 4 5 6 
#
# 1 134.1721 34.8167 41.2564 0.0000 -23.9003 0.0000
# 2 34.8167 53.8738 41.7080 0.0000 -15.1172 0.0000
# 3 41.2564 41.7080 101.5755 0.0000 -18.3889 0.0000
# 4 0.0000 0.0000 0.0000 28.3977 0.0000 -8.8983
# 5 -23.9003 -15.1172 -18.3889 0.0000 24.5458 0.0000
# 6 0.0000 0.0000 0.0000 -8.8983 0.0000 43.4536
#
#
#
# Elastic Compliance Matrix: (Units=1/GPa)
#
#
# Indices 1 2 3 4 5 6 
#
# 1 0.009955 -0.003513 -0.001432 0.000000 0.006457 0.000000
# 2 -0.003513 0.030609 -0.009658 0.000000 0.008195 0.000000
# 3 -0.001432 -0.009658 0.015113 0.000000 0.003980 0.000000
# 4 0.000000 0.000000 0.000000 0.037629 0.000000 0.007705
# 5 0.006457 0.008195 0.003980 0.000000 0.055056 0.000000
# 6 0.000000 0.000000 0.000000 0.007705 0.000000 0.024591
#
#
# Mechanical properties :
#
#
# Convention : Reuss Voigt Hill
#
# Bulk Modulus (GPa) = 37.77765 58.35371 48.06568
# Shear Modulus (GPa) = 23.69875 30.73543 27.21709
#
# Velocity S-wave (km/s) = 3.40153 3.87374 3.64529
# Velocity P-wave (km/s) = 5.81990 6.96403 6.41751
#
# Compressibility (1/GPa) = 0.02647068
#
# Stress axis : x y z
#
# Youngs Moduli (GPa) = 100.44912 32.67027 66.17035
#
# Poissons Ratio (x) = 0.11478 0.09475
# Poissons Ratio (y) = 0.35291 0.63906
# Poissons Ratio (z) = 0.14384 0.31552
#
# Static dielectric constant tensor:
#      x y z
#    x 3.787550 0.000000 -0.017090 
#    y 0.000000 4.265340 0.000000 
#    z -0.017090 0.000000 3.360560 
# 
# 
# High freq. dielectric constant tensor:
#      x y z
#    x 1.819800 0.000000 -0.002500 
#    y 0.000000 1.828690 0.000000 
#    z -0.002500 0.000000 1.751790 
# 
# From -- ./inp_files/129108.got.cif
#   From: 2010.06.25/outbox.cif.g09.slc.cpg/sg12_65_cif.got.tgz:129108.got - 2010.06.28 00:19:55.
