data_PCOD8095834
_publ_section_title
;
Structure prediction by ZEFSAII (Michael W. Deem and Ramdas Pophale) SiO2 
 PCOD8095834
Probable space group: C 2/M
;
_chemical_formula_sum "Si O2"
_cell_formula_units_Z 64
_cell_length_a 12.823988
_cell_length_b 20.572530
_cell_length_c 22.396488
_cell_angle_alpha 90.000000
_cell_angle_beta 37.292220
_cell_angle_gamma 90.000000
_cell_volume 3579.955417
_symmetry_space_group_name_H-M "C 2/M"
_symmetry_group_IT_number 12
_symmetry_cell_setting 'monoclinic'
loop_
_space_group_symop_operation_xyz
x,y,z
-x,y,-z
-x,-y,-z
x,-y,z
1/2+x,1/2+y,z
1/2-x,1/2+y,-z
1/2-x,1/2-y,-z
1/2+x,1/2-y,z
loop_
_atom_site_type_symbol
_atom_site_label
_atom_site_fract_x
_atom_site_fract_y
_atom_site_fract_z
Si Si1 0.658591 0.927976 0.172061
Si Si2 0.089722 0.170154 0.900202
Si Si3 0.695053 0.313614 0.061761
Si Si4 0.435478 0.926185 0.918385
Si Si5 0.890255 0.233103 0.767426
Si Si6 0.655555 0.160959 0.656801
Si Si7 0.900526 0.930130 0.484388
Si Si8 0.300638 0.372495 0.715503
O O1 0.836228 0.899982 0.115945
O O2 0.666072 0.924539 0.097330
O O3 0.497862 0.889353 0.269082
O O4 0.638381 0.000000 0.205709
O O5 0.241040 0.218828 0.813659
O O6 0.967840 0.157834 0.899283
O O7 0.000000 0.200768 0.000000
O O8 0.638737 0.292063 0.152590
O O9 0.750000 0.250000 0.000000
O O10 0.844287 0.369350 0.999374
O O11 0.636517 0.909660 0.817763
O O12 0.421696 0.000000 0.952129
O O13 0.886020 0.174365 0.724358
O O14 0.077075 0.268271 0.677579
O O15 0.773556 0.132299 0.549260
O O16 0.753354 0.165330 0.675805
O O17 0.000000 0.937510 0.500000
O O18 0.042932 0.921620 0.368002
O O19 0.805755 0.000000 0.515088
#
# Coordination Sequence:
#
# PCOD8095834 Si02
#       8
#     8   8   8   8   8   8   8   8
#     4   9  17  30  49  74 100 124 157 216 273 307
#     4  11  19  31  48  72  95 130 176 214 255 304
#     4  12  21  34  51  72 102 141 185 217 254 307
#     4  10  20  33  50  73 103 136 177 219 255 302
#     4  11  22  33  50  72 105 141 174 215 257 308
#     4   9  18  34  52  79 102 126 166 215 265 317
#     4   9  17  32  57  80 101 128 163 211 268 324
#     4  10  20  34  51  76 104 136 168 212 267 312
#
# _framework density 17.877317000000001
#
# number of rings (size 3 to 8) (size 9 to 14) (size 15 to 20)
#    0.000    1.875    2.500    3.750    0.000    4.250 
#    0.000    1.875    0.000    0.000    0.000    0.000 
#    0.000   10.000    0.000    0.000    0.000    0.000 
#
# Total GULP energy -396562.156229 kJ/mol
# GULP energy per Si atom -12392.567382 kJ/mol
# Density = 1.783663 g / cm^3
# Si number density = 17.877317 Si / 1000 Ang^3
#
#
#
# Elastic Constant Matrix: (Units=GPa)
#
#
# Indices 1 2 3 4 5 6 
#
# 1 67.6435 38.5833 33.0582 -0.0101 -1.7721 0.0029
# 2 38.5833 120.1355 45.5706 -0.0296 1.9490 -0.0066
# 3 33.0582 45.5706 86.8044 -0.0438 -5.9580 -0.0186
# 4 -0.0101 -0.0296 -0.0438 -11.3367 0.0266 -52.2137
# 5 -1.7721 1.9490 -5.9580 0.0266 15.0068 -0.0010
# 6 0.0029 -0.0066 -0.0186 -52.2137 -0.0010 -48.5178
#
#
#
# Elastic Compliance Matrix: (Units=1/GPa)
#
#
# Indices 1 2 3 4 5 6 
#
# 1 0.019864 -0.004428 -0.005181 0.000000 0.000864 0.000003
# 2 -0.004428 0.011575 -0.004656 0.000004 -0.003875 -0.000005
# 3 -0.005181 -0.004656 0.016384 0.000001 0.006498 -0.000007
# 4 0.000000 0.000004 0.000001 0.022294 -0.000041 -0.023993
# 5 0.000864 -0.003875 0.006498 -0.000041 0.069822 0.000041
# 6 0.000003 -0.000005 -0.000007 -0.023993 0.000041 0.005209
#
#
# Mechanical properties :
#
#
# Convention : Reuss Voigt Hill
#
# Bulk Modulus (GPa) = 51.83524 56.55643 54.19583
# Shear Modulus (GPa) = 27.76090 1.52187 14.64139
#
# Velocity S-wave (km/s) = 3.94490 0.92365 2.86491
# Velocity P-wave (km/s) = 7.05745 5.73080 6.42844
#
# Compressibility (1/GPa) = 0.01929190
#
# Stress axis : x y z
#
# Youngs Moduli (GPa) = 50.34277 86.39089 61.03667
#
# Poissons Ratio (x) = 0.38257 0.31622
# Poissons Ratio (y) = 0.22294 0.28420
# Poissons Ratio (z) = 0.26081 0.40226
#
# Static dielectric constant tensor:
#      x y z
#    x 3.435530 -0.000090 -0.092060 
#    y -0.000090 3.605000 0.000010 
#    z -0.092060 0.000010 3.495250 
# 
# 
# High freq. dielectric constant tensor:
#      x y z
#    x 1.668380 0.000000 -0.016540 
#    y 0.000000 1.694680 0.000000 
#    z -0.016540 0.000000 1.680050 
# 
# From -- ./inp_files/135917.got.cif
#   From: 2010.06.25/outbox.cif.g09.slc.cpg/sg12_68_cif.got.tgz:135917.got - 2010.06.28 00:19:55.
