data_PCOD8095446
_publ_section_title
;
Structure prediction by ZEFSAII (Michael W. Deem and Ramdas Pophale) SiO2 
 PCOD8095446
Probable space group: C 2/M
;
_chemical_formula_sum "Si O2"
_cell_formula_units_Z 64
_cell_length_a 24.088311
_cell_length_b 9.062048
_cell_length_c 21.361888
_cell_angle_alpha 90.000000
_cell_angle_beta 51.306593
_cell_angle_gamma 90.000000
_cell_volume 3639.540494
_symmetry_space_group_name_H-M "C 2/M"
_symmetry_group_IT_number 12
_symmetry_cell_setting 'monoclinic'
loop_
_space_group_symop_operation_xyz
x,y,z
-x,y,-z
-x,-y,-z
x,-y,z
1/2+x,1/2+y,z
1/2-x,1/2+y,-z
1/2-x,1/2-y,-z
1/2+x,1/2-y,z
loop_
_atom_site_type_symbol
_atom_site_label
_atom_site_fract_x
_atom_site_fract_y
_atom_site_fract_z
Si Si1 0.745520 0.172241 0.600017
Si Si2 0.125062 0.173342 0.040732
Si Si3 0.351662 0.169487 0.447860
Si Si4 0.963210 0.170846 0.170234
Si Si5 0.829878 0.671044 0.223101
Si Si6 0.984135 0.330764 0.281878
Si Si7 0.273968 0.172757 0.126383
Si Si8 0.144884 0.672960 0.156813
O O1 0.688697 0.216666 0.587209
O O2 0.822165 0.241415 0.528263
O O3 0.717337 0.234427 0.686190
O O4 0.757758 0.000000 0.596404
O O5 0.152378 0.257539 0.082889
O O6 0.041703 0.201808 0.087867
O O7 0.142064 0.000000 0.036042
O O8 0.165190 0.241091 0.953649
O O9 0.435524 0.202838 0.377184
O O10 0.337857 0.000000 0.472817
O O11 0.906004 0.248476 0.165778
O O12 0.957095 0.230177 0.244746
O O13 0.945371 0.000000 0.184372
O O14 0.846290 0.500000 0.222391
O O15 0.786759 0.699537 0.190415
O O16 0.973038 0.500000 0.268248
O O17 0.066234 0.300110 0.240302
O O18 0.197576 0.242477 0.165746
O O19 0.275370 0.000000 0.107949
O O20 0.163875 0.500000 0.139528
#
# Coordination Sequence:
#
# PCOD8095446 Si02
#       8
#     8   8   8   8   8   8   8   8
#     4   9  17  30  48  72 103 134 164 202 245 294
#     4  10  21  37  55  77 105 131 164 213 262 303
#     4   9  16  28  49  76 104 130 162 203 246 296
#     4  10  20  32  51  78 104 132 166 209 255 298
#     4  10  21  37  53  70 102 143 174 204 247 307
#     4   9  17  32  53  76 104 136 166 203 254 306
#     4  11  23  37  54  74  98 135 178 213 252 301
#     4  10  20  35  57  79 101 131 170 215 258 298
#
# _framework density 17.584638000000002
#
# number of rings (size 3 to 8) (size 9 to 14) (size 15 to 20)
#    0.000    2.250    1.250    1.875    0.000    4.500 
#    0.000    2.500    0.000    0.750    0.000    5.250 
#    0.000    0.000    0.000    0.000    0.000    0.000 
#
# Total GULP energy -396815.082046 kJ/mol
# GULP energy per Si atom -12400.471314 kJ/mol
# Density = 1.754461 g / cm^3
# Si number density = 17.584638 Si / 1000 Ang^3
#
#
#
# Elastic Constant Matrix: (Units=GPa)
#
#
# Indices 1 2 3 4 5 6 
#
# 1 87.2276 49.7653 57.6227 0.0001 -0.4150 -0.0005
# 2 49.7653 74.3064 43.6737 0.0011 -4.1225 -0.0019
# 3 57.6227 43.6737 114.1428 0.0006 -14.9088 -0.0007
# 4 0.0001 0.0011 0.0006 28.7146 -0.0001 -3.3118
# 5 -0.4150 -4.1225 -14.9088 -0.0001 18.8508 0.0005
# 6 -0.0005 -0.0019 -0.0007 -3.3118 0.0005 28.0656
#
#
#
# Elastic Compliance Matrix: (Units=1/GPa)
#
#
# Indices 1 2 3 4 5 6 
#
# 1 0.023581 -0.011104 -0.008816 0.000000 -0.008881 0.000000
# 2 -0.011104 0.022636 -0.002722 -0.000001 0.002553 0.000001
# 3 -0.008816 -0.002722 0.015780 0.000000 0.011691 0.000000
# 4 0.000000 -0.000001 0.000000 0.035306 0.000000 0.004166
# 5 -0.008881 0.002553 0.011691 0.000000 0.062657 -0.000001
# 6 0.000000 0.000001 0.000000 0.004166 -0.000001 0.036122
#
#
# Mechanical properties :
#
#
# Convention : Reuss Voigt Hill
#
# Bulk Modulus (GPa) = 59.83264 64.20002 62.01633
# Shear Modulus (GPa) = 20.24812 23.43387 21.84100
#
# Velocity S-wave (km/s) = 3.39701 3.65449 3.52810
# Velocity P-wave (km/s) = 7.03460 7.37533 7.20698
#
# Compressibility (1/GPa) = 0.01671329
#
# Stress axis : x y z
#
# Youngs Moduli (GPa) = 42.40734 44.17736 63.37209
#
# Poissons Ratio (x) = 0.49055 0.55867
# Poissons Ratio (y) = 0.47090 0.17249
# Poissons Ratio (z) = 0.37385 0.12025
#
# Static dielectric constant tensor:
#      x y z
#    x 3.116430 0.000000 -0.224340 
#    y 0.000000 3.348400 0.000000 
#    z -0.224340 0.000000 3.394770 
# 
# 
# High freq. dielectric constant tensor:
#      x y z
#    x 1.654840 0.000000 -0.019980 
#    y 0.000000 1.686740 0.000000 
#    z -0.019980 0.000000 1.681610 
# 
# From -- ./inp_files/295505.got.cif
#   From: 2010.06.25/outbox.cif.g09.slc.cpg/sg12_148_cif.got.tgz:295505.got - 2010.06.28 00:19:55.
