data_PCOD8095750
_publ_section_title
;
Structure prediction by ZEFSAII (Michael W. Deem and Ramdas Pophale) SiO2 
 PCOD8095750
Probable space group: C 2/M
;
_chemical_formula_sum "Si O2"
_cell_formula_units_Z 48
_cell_length_a 21.428227
_cell_length_b 14.049093
_cell_length_c 9.760150
_cell_angle_alpha 90.000000
_cell_angle_beta 107.949227
_cell_angle_gamma 90.000000
_cell_volume 2795.259945
_symmetry_space_group_name_H-M "C 2/M"
_symmetry_group_IT_number 12
_symmetry_cell_setting 'monoclinic'
loop_
_space_group_symop_operation_xyz
x,y,z
-x,y,-z
-x,-y,-z
x,-y,z
1/2+x,1/2+y,z
1/2-x,1/2+y,-z
1/2-x,1/2-y,-z
1/2+x,1/2-y,z
loop_
_atom_site_type_symbol
_atom_site_label
_atom_site_fract_x
_atom_site_fract_y
_atom_site_fract_z
Si Si1 0.428980 0.300755 0.959288
Si Si2 0.405810 0.500000 0.036536
Si Si3 0.180766 0.000000 0.776309
Si Si4 0.698548 0.299338 0.656356
Si Si5 0.326090 0.699142 0.663925
Si Si6 0.705820 0.000000 0.928586
Si Si7 0.709689 0.500000 0.258925
Si Si8 0.322803 0.790376 0.084104
O O1 0.446515 0.406069 0.026393
O O2 0.378063 0.257731 0.031385
O O3 0.500000 0.247754 0.000000
O O4 0.396041 0.297231 0.786894
O O5 0.388208 0.500000 0.187439
O O6 0.342825 0.500000 0.896853
O O7 0.189299 0.909522 0.685287
O O8 0.232287 0.000000 0.932102
O O9 0.663184 0.276330 0.488246
O O10 0.776188 0.274718 0.698922
O O11 0.664096 0.234663 0.748429
O O12 0.294913 0.593552 0.650941
O O13 0.667154 0.097227 0.934028
O O14 0.722094 0.000000 0.777527
O O15 0.250000 0.750000 0.000000
#
# Coordination Sequence:
#
# PCOD8095750 Si02
#       8
#     8   4   4   8   8   4   4   8
#     4  11  21  36  56  78 106 143 180 218 263 318
#     4   9  17  30  54  75 104 138 181 211 252 317
#     4  11  17  29  51  80 103 140 172 221 263 309
#     4  11  20  31  53  78 112 136 174 221 268 308
#     4  10  20  33  49  81 111 137 173 222 267 314
#     4  11  18  28  54  81 105 132 182 219 252 315
#     4   9  15  29  50  76 107 137 166 216 265 309
#     4  12  19  36  56  81 105 140 179 217 262 312
#
# _framework density 17.171925999999999
#
# number of rings (size 3 to 8) (size 9 to 14) (size 15 to 20)
#    0.000    1.333    6.667    1.750    0.000    0.000 
#    0.000    1.250    0.000    1.000    0.000    1.167 
#    0.000    0.000    0.000    0.000    0.000    0.000 
#
# Total GULP energy -297454.045813 kJ/mol
# GULP energy per Si atom -12393.918576 kJ/mol
# Density = 1.713284 g / cm^3
# Si number density = 17.171926 Si / 1000 Ang^3
#
#
#
# Elastic Constant Matrix: (Units=GPa)
#
#
# Indices 1 2 3 4 5 6 
#
# 1 102.9068 30.0682 51.2659 0.0000 -2.5407 0.0000
# 2 30.0682 94.4406 26.6604 0.0000 -1.5285 0.0000
# 3 51.2659 26.6604 98.6367 0.0000 -11.8722 0.0000
# 4 0.0000 0.0000 0.0000 37.4099 0.0000 -16.7534
# 5 -2.5407 -1.5285 -11.8722 0.0000 19.7619 0.0000
# 6 0.0000 0.0000 0.0000 -16.7534 0.0000 21.8232
#
#
#
# Elastic Compliance Matrix: (Units=1/GPa)
#
#
# Indices 1 2 3 4 5 6 
#
# 1 0.013765 -0.002510 -0.006776 0.000000 -0.002495 0.000000
# 2 -0.002510 0.011941 -0.001995 0.000000 -0.000598 0.000000
# 3 -0.006776 -0.001995 0.015173 0.000000 0.008090 0.000000
# 4 0.000000 0.000000 0.000000 0.040736 0.000000 0.031272
# 5 -0.002495 -0.000598 0.008090 0.000000 0.055095 0.000000
# 6 0.000000 0.000000 0.000000 0.031272 0.000000 0.069830
#
#
# Mechanical properties :
#
#
# Convention : Reuss Voigt Hill
#
# Bulk Modulus (GPa) = 54.59407 56.88591 55.73999
# Shear Modulus (GPa) = 21.25768 28.33164 24.79466
#
# Velocity S-wave (km/s) = 3.52224 4.06628 3.80400
# Velocity P-wave (km/s) = 6.95724 7.43272 7.19891
#
# Compressibility (1/GPa) = 0.01831701
#
# Stress axis : x y z
#
# Youngs Moduli (GPa) = 72.64750 83.74288 65.90621
#
# Poissons Ratio (x) = 0.21020 0.44660
# Poissons Ratio (y) = 0.18235 0.13148
# Poissons Ratio (z) = 0.49228 0.16706
#
# Static dielectric constant tensor:
#      x y z
#    x 2.923040 0.000000 -0.243280 
#    y 0.000000 5.271540 0.000000 
#    z -0.243280 0.000000 3.262140 
# 
# 
# High freq. dielectric constant tensor:
#      x y z
#    x 1.627680 0.000000 -0.028190 
#    y 0.000000 1.665710 0.000000 
#    z -0.028190 0.000000 1.660560 
# 
# From -- ./inp_files/86003.got.cif
#   From: 2010.06.25/outbox.cif.g09.slc.cpg/sg12_44_cif.got.tgz:86003.got - 2010.06.28 00:19:55.
