data_PCOD8095113
_publ_section_title
;
Structure prediction by ZEFSAII (Michael W. Deem and Ramdas Pophale) SiO2 
 PCOD8095113
Probable space group: C 2/M
;
_chemical_formula_sum "Si O2"
_cell_formula_units_Z 56
_cell_length_a 27.139481
_cell_length_b 13.850968
_cell_length_c 12.731388
_cell_angle_alpha 90.000000
_cell_angle_beta 39.243075
_cell_angle_gamma 90.000000
_cell_volume 3027.573232
_symmetry_space_group_name_H-M "C 2/M"
_symmetry_group_IT_number 12
_symmetry_cell_setting 'monoclinic'
loop_
_space_group_symop_operation_xyz
x,y,z
-x,y,-z
-x,-y,-z
x,-y,z
1/2+x,1/2+y,z
1/2-x,1/2+y,-z
1/2-x,1/2-y,-z
1/2+x,1/2-y,z
loop_
_atom_site_type_symbol
_atom_site_label
_atom_site_fract_x
_atom_site_fract_y
_atom_site_fract_z
Si Si1 0.639203 0.716149 0.397055
Si Si2 0.235214 0.391635 0.484370
Si Si3 0.081360 0.609147 0.606810
Si Si4 0.207781 0.718512 0.732065
Si Si5 0.510641 0.387748 0.736108
Si Si6 0.531187 0.784761 0.063440
Si Si7 0.917928 0.894400 0.691944
O O1 0.600169 0.821936 0.476407
O O2 0.729901 0.718799 0.276938
O O3 0.592890 0.640162 0.546793
O O4 0.634490 0.684748 0.282215
O O5 0.267077 0.500000 0.417943
O O6 0.149238 0.379136 0.579979
O O7 0.231119 0.366636 0.613850
O O8 0.294041 0.320469 0.327059
O O9 0.073392 0.500000 0.578182
O O10 0.002620 0.641022 0.794896
O O11 0.123399 0.701672 0.919586
O O12 0.513933 0.500000 0.761863
O O13 0.496416 0.324071 0.863293
O O14 0.437100 0.365092 0.780219
O O15 0.500000 0.811226 0.000000
O O16 0.000000 0.902908 0.500000
O O17 0.876672 0.000000 0.756685
#
# Coordination Sequence:
#
# PCOD8095113 Si02
#       7
#     8   8   8   8   8   8   8
#     4   9  17  31  53  75  98 123 161 214 247 285
#     4   9  18  32  49  65  93 131 165 204 243 283
#     4   9  18  33  50  69  94 134 175 200 233 287
#     4  10  20  32  45  74 101 123 167 207 244 289
#     4   9  19  34  53  77 102 129 160 197 251 308
#     4  11  21  34  49  69 103 139 167 202 239 293
#     4   8  14  29  53  77  99 125 158 197 249 306
#
# _framework density 18.496662000000001
#
# number of rings (size 3 to 8) (size 9 to 14) (size 15 to 20)
#    0.000    2.714    1.429    1.286    2.000    2.857 
#    0.000    0.714    0.000   10.714    0.000    0.000 
#    0.000    0.000    0.000    0.000    0.000    0.000 
#
# Total GULP energy -347123.183143 kJ/mol
# GULP energy per Si atom -12397.256541 kJ/mol
# Density = 1.845456 g / cm^3
# Si number density = 18.496662 Si / 1000 Ang^3
#
#
#
# Elastic Constant Matrix: (Units=GPa)
#
#
# Indices 1 2 3 4 5 6 
#
# 1 49.0234 29.1690 26.9171 0.0000 -13.5168 0.0000
# 2 29.1690 111.4031 11.5193 0.0000 -1.3472 0.0000
# 3 26.9171 11.5193 46.2518 0.0000 -17.2702 0.0000
# 4 0.0000 0.0000 0.0000 10.6181 0.0000 -0.7762
# 5 -13.5168 -1.3472 -17.2702 0.0000 21.0829 0.0000
# 6 0.0000 0.0000 0.0000 -0.7762 0.0000 26.8380
#
#
#
# Elastic Compliance Matrix: (Units=1/GPa)
#
#
# Indices 1 2 3 4 5 6 
#
# 1 0.036276 -0.007785 -0.015378 0.000000 0.010164 0.000000
# 2 -0.007785 0.010935 0.000295 0.000000 -0.004051 0.000000
# 3 -0.015378 0.000295 0.038642 0.000000 0.021813 0.000000
# 4 0.000000 0.000000 0.000000 0.094379 0.000000 0.002730
# 5 0.010164 -0.004051 0.021813 0.000000 0.071558 0.000000
# 6 0.000000 0.000000 0.000000 0.002730 0.000000 0.037340
#
#
# Mechanical properties :
#
#
# Convention : Reuss Voigt Hill
#
# Bulk Modulus (GPa) = 24.92733 37.98765 31.45749
# Shear Modulus (GPa) = 14.35797 20.97932 17.66864
#
# Velocity S-wave (km/s) = 2.78914 3.37147 3.09404
# Velocity P-wave (km/s) = 4.88655 5.97812 5.45968
#
# Compressibility (1/GPa) = 0.04011662
#
# Stress axis : x y z
#
# Youngs Moduli (GPa) = 27.56610 91.44589 25.87876
#
# Poissons Ratio (x) = 0.71194 0.39796
# Poissons Ratio (y) = 0.21461 -0.00762
# Poissons Ratio (z) = 0.42390 -0.02694
#
# Static dielectric constant tensor:
#      x y z
#    x 3.473210 0.000000 0.041720 
#    y 0.000000 3.521110 0.000000 
#    z 0.041720 0.000000 3.059340 
# 
# 
# High freq. dielectric constant tensor:
#      x y z
#    x 1.706600 0.000000 -0.004630 
#    y 0.000000 1.718580 0.000000 
#    z -0.004630 0.000000 1.681890 
# 
# From -- ./inp_files/183446.got.cif
#   From: 2010.06.25/outbox.cif.g09.slc.cpg/sg12_92_cif.got.tgz:183446.got - 2010.06.28 00:19:55.
