data_PCOD8095354
_publ_section_title
;
Structure prediction by ZEFSAII (Michael W. Deem and Ramdas Pophale) SiO2 
 PCOD8095354
Probable space group: C 2/M
;
_chemical_formula_sum "Si O2"
_cell_formula_units_Z 64
_cell_length_a 29.615518
_cell_length_b 9.315970
_cell_length_c 15.047968
_cell_angle_alpha 90.000000
_cell_angle_beta 120.361506
_cell_angle_gamma 90.000000
_cell_volume 3582.302980
_symmetry_space_group_name_H-M "C 2/M"
_symmetry_group_IT_number 12
_symmetry_cell_setting 'monoclinic'
loop_
_space_group_symop_operation_xyz
x,y,z
-x,y,-z
-x,-y,-z
x,-y,z
1/2+x,1/2+y,z
1/2-x,1/2+y,-z
1/2-x,1/2-y,-z
1/2+x,1/2-y,z
loop_
_atom_site_type_symbol
_atom_site_label
_atom_site_fract_x
_atom_site_fract_y
_atom_site_fract_z
Si Si1 0.467028 0.170334 0.239888
Si Si2 0.108057 0.333558 0.985378
Si Si3 0.775161 0.665868 0.945679
Si Si4 0.639704 0.331321 0.547217
Si Si5 0.447780 0.667338 0.396908
Si Si6 0.913150 0.330405 0.663730
Si Si7 0.250083 0.670400 0.272940
Si Si8 0.863232 0.328941 0.796185
O O1 0.437306 0.231183 0.122714
O O2 0.441914 0.243392 0.301069
O O3 0.527164 0.215907 0.290573
O O4 0.460161 0.000000 0.242796
O O5 0.096109 0.500000 0.984954
O O6 0.162914 0.307627 0.991217
O O7 0.109482 0.266281 0.086632
O O8 0.761548 0.500000 0.944531
O O9 0.750946 0.725142 0.829620
O O10 0.750000 0.750000 0.000000
O O11 0.638812 0.500000 0.525235
O O12 0.602048 0.295887 0.592199
O O13 0.622314 0.246988 0.443374
O O14 0.697801 0.272845 0.627094
O O15 0.500000 0.716704 0.500000
O O16 0.450691 0.500000 0.375502
O O17 0.905486 0.500000 0.646489
O O18 0.894997 0.275006 0.742431
O O19 0.250862 0.500000 0.272082
O O20 0.197311 0.724399 0.270221
O O21 0.863247 0.500000 0.802376
#
# Coordination Sequence:
#
# PCOD8095354 Si02
#       8
#     8   8   8   8   8   8   8   8
#     4  10  20  32  49  75 102 127 159 199 244 287
#     4   8  16  31  49  71  99 129 158 191 239 293
#     4   9  17  30  48  70  95 124 159 197 236 282
#     4  10  20  34  51  71  96 130 167 198 237 291
#     4  10  20  34  50  68  95 132 168 200 236 284
#     4  10  20  32  50  76  99 124 162 205 243 280
#     4   8  16  31  50  70  94 127 163 195 235 290
#     4   8  15  31  52  72  98 127 158 200 243 286
#
# _framework density 17.865601000000002
#
# number of rings (size 3 to 8) (size 9 to 14) (size 15 to 20)
#    0.000    2.875    1.250    1.500    1.750    1.750 
#    0.000    3.125    0.000    3.750    0.000    1.750 
#    0.000    0.000    0.000    0.000    0.000    0.000 
#
# Total GULP energy -396676.705824 kJ/mol
# GULP energy per Si atom -12396.147057 kJ/mol
# Density = 1.782494 g / cm^3
# Si number density = 17.865601 Si / 1000 Ang^3
#
#
#
# Elastic Constant Matrix: (Units=GPa)
#
#
# Indices 1 2 3 4 5 6 
#
# 1 64.9206 19.9992 55.5516 0.0000 -18.4713 0.0000
# 2 19.9992 20.4965 26.2729 0.0000 -7.3024 0.0000
# 3 55.5516 26.2729 147.9380 0.0000 0.4350 0.0000
# 4 0.0000 0.0000 0.0000 21.2855 0.0000 -1.9984
# 5 -18.4713 -7.3024 0.4350 0.0000 33.7497 0.0000
# 6 0.0000 0.0000 0.0000 -1.9984 0.0000 15.3209
#
#
#
# Elastic Compliance Matrix: (Units=1/GPa)
#
#
# Indices 1 2 3 4 5 6 
#
# 1 0.032062 -0.013664 -0.009656 0.000000 0.014716 0.000000
# 2 -0.013664 0.076162 -0.008422 0.000000 0.009109 0.000000
# 3 -0.009656 -0.008422 0.011903 0.000000 -0.007261 0.000000
# 4 0.000000 0.000000 0.000000 0.047563 0.000000 0.006204
# 5 0.014716 0.009109 -0.007261 0.000000 0.039748 0.000000
# 6 0.000000 0.000000 0.000000 0.006204 0.000000 0.066080
#
#
# Mechanical properties :
#
#
# Convention : Reuss Voigt Hill
#
# Bulk Modulus (GPa) = 17.65449 48.55583 33.10516
# Shear Modulus (GPa) = 14.04955 22.83997 18.44476
#
# Velocity S-wave (km/s) = 2.80733 3.57940 3.21661
# Velocity P-wave (km/s) = 4.51790 6.65734 5.68909
#
# Compressibility (1/GPa) = 0.05664281
#
# Stress axis : x y z
#
# Youngs Moduli (GPa) = 31.18908 13.12992 84.01549
#
# Poissons Ratio (x) = 0.17941 0.81128
# Poissons Ratio (y) = 0.42617 0.70755
# Poissons Ratio (z) = 0.30117 0.11058
#
# Static dielectric constant tensor:
#      x y z
#    x 3.462870 0.000000 0.063490 
#    y 0.000000 2.862790 0.000000 
#    z 0.063490 0.000000 3.347350 
# 
# 
# High freq. dielectric constant tensor:
#      x y z
#    x 1.697550 0.000000 0.002010 
#    y 0.000000 1.642610 0.000000 
#    z 0.002010 0.000000 1.703790 
# 
# From -- ./inp_files/249237.got.cif
#   From: 2010.06.25/outbox.cif.g09.slc.cpg/sg12_125_cif.got.tgz:249237.got - 2010.06.28 00:19:55.
