data_PCOD8095180
_publ_section_title
;
Structure prediction by ZEFSAII (Michael W. Deem and Ramdas Pophale) SiO2 
 PCOD8095180
Probable space group: C 2/M
;
_chemical_formula_sum "Si O2"
_cell_formula_units_Z 48
_cell_length_a 18.860570
_cell_length_b 9.490551
_cell_length_c 18.221109
_cell_angle_alpha 90.000000
_cell_angle_beta 56.455734
_cell_angle_gamma 90.000000
_cell_volume 2718.349965
_symmetry_space_group_name_H-M "C 2/M"
_symmetry_group_IT_number 12
_symmetry_cell_setting 'monoclinic'
loop_
_space_group_symop_operation_xyz
x,y,z
-x,y,-z
-x,-y,-z
x,-y,z
1/2+x,1/2+y,z
1/2-x,1/2+y,-z
1/2-x,1/2-y,-z
1/2+x,1/2-y,z
loop_
_atom_site_type_symbol
_atom_site_label
_atom_site_fract_x
_atom_site_fract_y
_atom_site_fract_z
Si Si1 0.558920 0.832824 0.281791
Si Si2 0.872695 0.656009 0.906136
Si Si3 0.732318 0.833315 0.254624
Si Si4 0.311838 0.654780 0.059177
Si Si5 0.376734 0.837637 0.439100
Si Si6 0.738741 0.662987 0.393921
O O1 0.570636 0.774342 0.191699
O O2 0.636114 0.785232 0.290002
O O3 0.470602 0.780265 0.366545
O O4 0.561250 0.000000 0.272917
O O5 0.905769 0.500000 0.907033
O O6 0.776919 0.648017 0.932236
O O7 0.877902 0.745940 0.977998
O O8 0.795275 0.793215 0.151711
O O9 0.763479 0.741659 0.305157
O O10 0.736231 0.000000 0.269879
O O11 0.353175 0.500000 0.037256
O O12 0.342375 0.740333 0.523985
O O13 0.319989 0.822179 0.399406
O O14 0.378658 0.000000 0.464978
O O15 0.715837 0.500000 0.392630
#
# Coordination Sequence:
#
# PCOD8095180 Si02
#       6
#     8   8   8   8   8   8
#     4   8  15  29  49  70  88 114 154 188 215 256
#     4   8  13  23  41  64  88 112 142 181 217 251
#     4   9  17  30  48  68  91 119 150 183 218 261
#     4   8  14  24  39  62  90 117 143 172 213 263
#     4   9  18  34  52  65  84 118 154 184 218 266
#     4  10  20  32  47  68  91 115 147 186 226 267
#
# _framework density 17.657771
#
# number of rings (size 3 to 8) (size 9 to 14) (size 15 to 20)
#    0.000    3.333    0.000    2.500    0.000    2.000 
#    0.000    7.500    0.000    1.000    0.000    7.000 
#    0.000    0.000    0.000    0.000    0.000    0.000 
#
# Total GULP energy -297462.899569 kJ/mol
# GULP energy per Si atom -12394.287482 kJ/mol
# Density = 1.761758 g / cm^3
# Si number density = 17.657771 Si / 1000 Ang^3
#
#
#
# Elastic Constant Matrix: (Units=GPa)
#
#
# Indices 1 2 3 4 5 6 
#
# 1 15.0588 10.7109 7.9129 0.0000 6.8128 -0.0001
# 2 10.7109 71.4994 42.5955 0.0000 17.3363 -0.0003
# 3 7.9129 42.5955 80.9884 0.0000 28.4136 0.0000
# 4 0.0000 0.0000 0.0000 34.9174 0.0000 5.3063
# 5 6.8128 17.3363 28.4136 0.0000 19.3592 0.0000
# 6 -0.0001 -0.0003 0.0000 5.3063 0.0000 16.3027
#
#
#
# Elastic Compliance Matrix: (Units=1/GPa)
#
#
# Indices 1 2 3 4 5 6 
#
# 1 0.083880 -0.009551 0.008624 0.000000 -0.033623 0.000000
# 2 -0.009551 0.021712 -0.009986 0.000000 -0.001426 0.000000
# 3 0.008624 -0.009986 0.030272 0.000000 -0.038523 0.000000
# 4 0.000000 0.000000 0.000000 0.030129 0.000000 -0.009807
# 5 -0.033623 -0.001426 -0.038523 0.000000 0.121304 0.000000
# 6 0.000000 0.000000 0.000000 -0.009807 0.000000 0.064531
#
#
# Mechanical properties :
#
#
# Convention : Reuss Voigt Hill
#
# Bulk Modulus (GPa) = 8.76900 32.22058 20.49479
# Shear Modulus (GPa) = 12.14578 21.20434 16.67506
#
# Velocity S-wave (km/s) = 2.62552 3.46909 3.07636
# Velocity P-wave (km/s) = 3.76404 5.85943 4.92448
#
# Compressibility (1/GPa) = 0.11403811
#
# Stress axis : x y z
#
# Youngs Moduli (GPa) = 11.92183 46.05849 33.03391
#
# Poissons Ratio (x) = 0.43989 -0.28488
# Poissons Ratio (y) = 0.11386 0.32987
# Poissons Ratio (z) = -0.10281 0.45993
#
# Static dielectric constant tensor:
#      x y z
#    x 2.922990 0.000000 -0.051610 
#    y 0.000000 3.311610 0.000000 
#    z -0.051610 0.000000 3.524460 
# 
# 
# High freq. dielectric constant tensor:
#      x y z
#    x 1.638690 0.000000 0.004980 
#    y 0.000000 1.664200 0.000000 
#    z 0.004980 0.000000 1.696360 
# 
# From -- ./inp_files/280057.got.cif
#   From: 2010.06.25/outbox.cif.g09.slc.cpg/sg12_141_cif.got.tgz:280057.got - 2010.06.28 00:19:55.
