data_PCOD8095119
_publ_section_title
;
Structure prediction by ZEFSAII (Michael W. Deem and Ramdas Pophale) SiO2 
 PCOD8095119
Probable space group: C 2/M
;
_chemical_formula_sum "Si O2"
_cell_formula_units_Z 64
_cell_length_a 24.684059
_cell_length_b 9.346971
_cell_length_c 17.311688
_cell_angle_alpha 90.000000
_cell_angle_beta 82.314754
_cell_angle_gamma 90.000000
_cell_volume 3958.296161
_symmetry_space_group_name_H-M "C 2/M"
_symmetry_group_IT_number 12
_symmetry_cell_setting 'monoclinic'
loop_
_space_group_symop_operation_xyz
x,y,z
-x,y,-z
-x,-y,-z
x,-y,z
1/2+x,1/2+y,z
1/2-x,1/2+y,-z
1/2-x,1/2-y,-z
1/2+x,1/2-y,z
loop_
_atom_site_type_symbol
_atom_site_label
_atom_site_fract_x
_atom_site_fract_y
_atom_site_fract_z
Si Si1 0.463001 0.668589 0.331030
Si Si2 0.341731 0.839053 0.612951
Si Si3 0.413394 0.330882 0.715599
Si Si4 0.552567 0.342344 0.838503
Si Si5 0.772302 0.833833 0.422928
Si Si6 0.373288 0.831725 0.431324
Si Si7 0.923743 0.841059 0.883739
Si Si8 0.935127 0.659975 0.023249
O O1 0.456064 0.500000 0.350016
O O2 0.526292 0.715219 0.323773
O O3 0.438339 0.706831 0.251426
O O4 0.432036 0.765234 0.399685
O O5 0.367810 0.733823 0.669423
O O6 0.275675 0.824108 0.632021
O O7 0.362569 0.800608 0.523270
O O8 0.359681 0.000000 0.629879
O O9 0.408776 0.500000 0.713757
O O10 0.402254 0.279324 0.805854
O O11 0.577972 0.500000 0.846432
O O12 0.488667 0.350348 0.867352
O O13 0.581370 0.234618 0.892806
O O14 0.750000 0.750000 0.500000
O O15 0.828113 0.753050 0.387734
O O16 0.784365 0.000000 0.440816
O O17 0.370933 0.000000 0.412812
O O18 0.905562 0.739162 0.957384
O O19 0.900190 0.000000 0.903808
O O20 0.912072 0.500000 0.030304
O O21 0.000000 0.661397 0.000000
#
# Coordination Sequence:
#
# PCOD8095119 Si02
#       8
#     8   8   8   8   8   8   8   8
#     4   9  18  31  44  61  86 117 150 180 212 252
#     4   9  19  32  45  63  86 111 140 176 220 261
#     4   9  18  30  44  62  85 116 151 180 209 251
#     4   8  14  25  39  53  75 108 141 172 207 246
#     4   9  17  31  49  67  85 106 136 177 222 263
#     4  10  20  32  46  65  86 112 145 180 220 260
#     4   8  14  25  38  53  76 107 141 173 205 244
#     4   9  15  21  33  55  78 102 136 173 208 246
#
# _framework density 16.168572999999999
#
# number of rings (size 3 to 8) (size 9 to 14) (size 15 to 20)
#    0.000    3.125    0.000    3.375    0.000    6.500 
#    0.000    5.000    0.000    0.000    0.000    0.000 
#    0.000    1.000    0.000    3.250    0.000    4.375 
#
# Total GULP energy -396573.485125 kJ/mol
# GULP energy per Si atom -12392.921410 kJ/mol
# Density = 1.613177 g / cm^3
# Si number density = 16.168573 Si / 1000 Ang^3
#
#
#
# Elastic Constant Matrix: (Units=GPa)
#
#
# Indices 1 2 3 4 5 6 
#
# 1 43.7606 25.5673 20.2471 0.0000 17.9748 0.0000
# 2 25.5673 79.1872 31.8748 0.0000 15.5379 0.0000
# 3 20.2471 31.8748 59.6539 0.0000 22.1115 0.0000
# 4 0.0000 0.0000 0.0000 24.1200 0.0000 5.2995
# 5 17.9748 15.5379 22.1115 0.0000 12.5784 0.0000
# 6 0.0000 0.0000 0.0000 5.2995 0.0000 22.8629
#
#
#
# Elastic Compliance Matrix: (Units=1/GPa)
#
#
# Indices 1 2 3 4 5 6 
#
# 1 0.088538 -0.008786 0.050280 0.000000 -0.204056 0.000000
# 2 -0.008786 0.017823 -0.008709 0.000000 0.005848 0.000000
# 3 0.050280 -0.008709 0.077483 0.000000 -0.197300 0.000000
# 4 0.000000 0.000000 0.000000 0.043684 0.000000 -0.010126
# 5 -0.204056 0.005848 -0.197300 0.000000 0.710709 0.000000
# 6 0.000000 0.000000 0.000000 -0.010126 0.000000 0.046086
#
#
# Mechanical properties :
#
#
# Convention : Reuss Voigt Hill
#
# Bulk Modulus (GPa) = 4.00939 37.55334 20.78137
# Shear Modulus (GPa) = 4.99056 18.90642 11.94849
#
# Velocity S-wave (km/s) = 1.75877 3.42326 2.72140
# Velocity P-wave (km/s) = 2.57090 6.23711 4.77027
#
# Compressibility (1/GPa) = 0.24941420
#
# Stress axis : x y z
#
# Youngs Moduli (GPa) = 11.29458 56.10689 12.90604
#
# Poissons Ratio (x) = 0.49295 -0.64892
# Poissons Ratio (y) = 0.09923 0.11240
# Poissons Ratio (z) = -0.56789 0.48864
#
# Static dielectric constant tensor:
#      x y z
#    x 2.927110 0.000000 0.096060 
#    y 0.000000 3.211770 0.000000 
#    z 0.096060 0.000000 3.071180 
# 
# 
# High freq. dielectric constant tensor:
#      x y z
#    x 1.573900 0.000000 0.012530 
#    y 0.000000 1.629550 0.000000 
#    z 0.012530 0.000000 1.608570 
# 
# From -- ./inp_files/287618.got.cif
#   From: 2010.06.25/outbox.cif.g09.slc.cpg/sg12_144_cif.got.tgz:287618.got - 2010.06.28 00:19:55.
