data_PCOD8095755
_publ_section_title
;
Structure prediction by ZEFSAII (Michael W. Deem and Ramdas Pophale) SiO2 
 PCOD8095755
Probable space group: C 2/M
;
_chemical_formula_sum "Si O2"
_cell_formula_units_Z 64
_cell_length_a 26.044906
_cell_length_b 9.309737
_cell_length_c 14.718777
_cell_angle_alpha 90.000000
_cell_angle_beta 99.869303
_cell_angle_gamma 90.000000
_cell_volume 3516.065101
_symmetry_space_group_name_H-M "C 2/M"
_symmetry_group_IT_number 12
_symmetry_cell_setting 'monoclinic'
loop_
_space_group_symop_operation_xyz
x,y,z
-x,y,-z
-x,-y,-z
x,-y,z
1/2+x,1/2+y,z
1/2-x,1/2+y,-z
1/2-x,1/2-y,-z
1/2+x,1/2-y,z
loop_
_atom_site_type_symbol
_atom_site_label
_atom_site_fract_x
_atom_site_fract_y
_atom_site_fract_z
Si Si1 0.601988 0.670752 0.131172
Si Si2 0.597446 0.328777 0.924533
Si Si3 0.305845 0.660410 0.157752
Si Si4 0.283335 0.668105 0.785786
Si Si5 0.524356 0.329520 0.599124
Si Si6 0.496315 0.671493 0.786770
Si Si7 0.358286 0.339591 0.367477
Si Si8 0.230061 0.331938 0.580820
O O1 0.601010 0.500000 0.133298
O O2 0.657904 0.726196 0.184034
O O3 0.555745 0.732286 0.180601
O O4 0.592365 0.726066 0.026097
O O5 0.597857 0.500000 0.918275
O O6 0.652889 0.272672 0.901652
O O7 0.547910 0.268651 0.853356
O O8 0.288443 0.500000 0.123162
O O9 0.254223 0.757189 0.151383
O O10 0.335831 0.653805 0.260896
O O11 0.279402 0.500000 0.804590
O O12 0.266638 0.704594 0.677922
O O13 0.500000 0.262289 0.500000
O O14 0.520168 0.500000 0.595421
O O15 0.495736 0.273844 0.681987
O O16 0.583702 0.279532 0.620847
O O17 0.497080 0.500000 0.791265
O O18 0.356170 0.500000 0.410614
O O19 0.327752 0.226409 0.419721
O O20 0.228032 0.500000 0.560066
O O21 0.250000 0.250000 0.500000
#
# Coordination Sequence:
#
# PCOD8095755 Si02
#       8
#     8   8   8   8   8   8   8   8
#     4   9  17  27  42  65  97 130 154 192 247 292
#     4   9  15  25  43  67  93 124 161 196 238 290
#     4   9  16  28  48  69  93 126 161 196 232 279
#     4   9  19  33  46  68 100 126 156 197 242 286
#     4   9  16  25  41  67  95 124 159 200 245 286
#     4   9  15  25  40  63  95 126 159 197 238 288
#     4   9  16  29  47  68  96 126 157 196 238 283
#     4  10  20  33  50  70  93 124 162 200 238 287
#
# _framework density 18.202165999999998
#
# number of rings (size 3 to 8) (size 9 to 14) (size 15 to 20)
#    0.000    2.875    1.250    0.750    0.000    3.500 
#    0.000    3.750    0.000    0.375    0.000    1.750 
#    0.000    2.000    0.000    0.000    0.000    0.000 
#
# Total GULP energy -396653.753782 kJ/mol
# GULP energy per Si atom -12395.429806 kJ/mol
# Density = 1.816074 g / cm^3
# Si number density = 18.202166 Si / 1000 Ang^3
#
#
#
# Elastic Constant Matrix: (Units=GPa)
#
#
# Indices 1 2 3 4 5 6 
#
# 1 168.8017 31.2733 82.4385 0.0000 -17.5059 0.0000
# 2 31.2733 30.7127 24.4543 0.0000 -7.0989 0.0000
# 3 82.4385 24.4543 111.3499 0.0000 -23.8080 0.0000
# 4 0.0000 0.0000 0.0000 10.7036 0.0000 -2.5731
# 5 -17.5059 -7.0989 -23.8080 0.0000 32.3005 0.0000
# 6 0.0000 0.0000 0.0000 -2.5731 0.0000 22.7118
#
#
#
# Elastic Compliance Matrix: (Units=1/GPa)
#
#
# Indices 1 2 3 4 5 6 
#
# 1 0.009913 -0.005180 -0.006287 0.000000 -0.000400 0.000000
# 2 -0.005180 0.042369 -0.004842 0.000000 0.002935 0.000000
# 3 -0.006287 -0.004842 0.016313 0.000000 0.007553 0.000000
# 4 0.000000 0.000000 0.000000 0.096042 0.000000 0.010881
# 5 -0.000400 0.002935 0.007553 0.000000 0.036955 0.000000
# 6 0.000000 0.000000 0.000000 0.010881 0.000000 0.045263
#
#
# Mechanical properties :
#
#
# Convention : Reuss Voigt Hill
#
# Bulk Modulus (GPa) = 27.79596 65.24406 46.52001
# Shear Modulus (GPa) = 17.15476 24.65639 20.90558
#
# Velocity S-wave (km/s) = 3.07328 3.68446 3.39266
# Velocity P-wave (km/s) = 5.28178 7.34999 6.39998
#
# Compressibility (1/GPa) = 0.03597645
#
# Stress axis : x y z
#
# Youngs Moduli (GPa) = 100.88114 23.60244 61.29938
#
# Poissons Ratio (x) = 0.12227 0.38537
# Poissons Ratio (y) = 0.52260 0.29681
# Poissons Ratio (z) = 0.63421 0.11428
#
# Static dielectric constant tensor:
#      x y z
#    x 3.739720 0.000000 -0.090540 
#    y 0.000000 2.990760 0.000000 
#    z -0.090540 0.000000 3.482290 
# 
# 
# High freq. dielectric constant tensor:
#      x y z
#    x 1.717850 0.000000 -0.007190 
#    y 0.000000 1.639550 0.000000 
#    z -0.007190 0.000000 1.707650 
# 
# From -- ./inp_files/243950.got.cif
#   From: 2010.06.25/outbox.cif.g09.slc.cpg/sg12_122_cif.got.tgz:243950.got - 2010.06.28 00:19:55.
