data_PCOD8095501
_publ_section_title
;
Structure prediction by ZEFSAII (Michael W. Deem and Ramdas Pophale) SiO2 
 PCOD8095501
Probable space group: C 2/M
;
_chemical_formula_sum "Si O2"
_cell_formula_units_Z 64
_cell_length_a 20.638023
_cell_length_b 9.130222
_cell_length_c 22.742741
_cell_angle_alpha 90.000000
_cell_angle_beta 52.578505
_cell_angle_gamma 90.000000
_cell_volume 3403.414511
_symmetry_space_group_name_H-M "C 2/M"
_symmetry_group_IT_number 12
_symmetry_cell_setting 'monoclinic'
loop_
_space_group_symop_operation_xyz
x,y,z
-x,y,-z
-x,-y,-z
x,-y,z
1/2+x,1/2+y,z
1/2-x,1/2+y,-z
1/2-x,1/2-y,-z
1/2+x,1/2-y,z
loop_
_atom_site_type_symbol
_atom_site_label
_atom_site_fract_x
_atom_site_fract_y
_atom_site_fract_z
Si Si1 0.860091 0.670363 0.895486
Si Si2 0.413856 0.670090 0.074123
Si Si3 0.991016 0.828038 0.239363
Si Si4 0.207623 0.669994 0.939640
Si Si5 0.329462 0.174114 0.661282
Si Si6 0.924147 0.660088 0.499131
Si Si7 0.523802 0.672057 0.355509
Si Si8 0.648222 0.330393 0.766052
O O1 0.859651 0.500000 0.880589
O O2 0.793859 0.748326 0.890848
O O3 0.947148 0.738541 0.834851
O O4 0.840797 0.701879 0.973923
O O5 0.398028 0.500000 0.068009
O O6 0.343678 0.768196 0.085513
O O7 0.409524 0.701986 0.146024
O O8 0.500000 0.721386 0.000000
O O9 0.901102 0.781029 0.265246
O O10 0.002252 0.785028 0.300786
O O11 0.005851 0.000000 0.220542
O O12 0.224864 0.500000 0.920443
O O13 0.349845 0.213165 0.581749
O O14 0.392114 0.250690 0.671832
O O15 0.238561 0.240636 0.721907
O O16 0.337215 0.000000 0.667818
O O17 0.905039 0.500000 0.481605
O O18 0.000000 0.643841 0.500000
O O19 0.945461 0.775502 0.436467
O O20 0.534584 0.500000 0.358224
O O21 0.667656 0.500000 0.750314
#
# Coordination Sequence:
#
# PCOD8095501 Si02
#       8
#     8   8   8   8   8   8   8   8
#     4  10  21  36  55  77 104 140 179 219 268 322
#     4  10  20  34  55  80 105 140 187 228 267 320
#     4  10  21  37  55  77 109 144 179 219 270 322
#     4  10  21  36  54  78 106 136 176 226 277 323
#     4   9  18  34  56  79 104 139 184 225 261 313
#     4   8  15  30  52  77 104 138 179 220 260 312
#     4  10  20  32  52  82 111 139 172 217 275 325
#     4   9  19  36  56  77 105 145 185 222 267 321
#
# _framework density 18.804646000000002
#
# number of rings (size 3 to 8) (size 9 to 14) (size 15 to 20)
#    0.000    2.500    0.000    2.625    1.750    6.000 
#    0.000    1.875    0.000    0.000    0.000    0.000 
#    0.000    0.000    0.000    0.000    0.000    0.000 
#
# Total GULP energy -396708.079263 kJ/mol
# GULP energy per Si atom -12397.127477 kJ/mol
# Density = 1.876185 g / cm^3
# Si number density = 18.804646 Si / 1000 Ang^3
#
#
#
# Elastic Constant Matrix: (Units=GPa)
#
#
# Indices 1 2 3 4 5 6 
#
# 1 126.0177 40.5525 53.6662 0.0001 1.0529 -0.0004
# 2 40.5525 58.5686 31.4404 0.0003 5.0689 -0.0007
# 3 53.6662 31.4404 100.0864 0.0000 -11.4130 -0.0002
# 4 0.0001 0.0003 0.0000 27.0441 0.0000 0.7726
# 5 1.0529 5.0689 -11.4130 0.0000 23.3187 0.0001
# 6 -0.0004 -0.0007 -0.0002 0.7726 0.0001 24.8240
#
#
#
# Elastic Compliance Matrix: (Units=1/GPa)
#
#
# Indices 1 2 3 4 5 6 
#
# 1 0.011726 -0.005404 -0.004783 0.000000 -0.001696 0.000000
# 2 -0.005404 0.024571 -0.005721 0.000000 -0.007897 0.000001
# 3 -0.004783 -0.005721 0.015378 0.000000 0.008986 0.000000
# 4 0.000000 0.000000 0.000000 0.037010 0.000000 -0.001152
# 5 -0.001696 -0.007897 0.008986 0.000000 0.049075 0.000000
# 6 0.000000 0.000001 0.000000 -0.001152 0.000000 0.040320
#
#
# Mechanical properties :
#
#
# Convention : Reuss Voigt Hill
#
# Bulk Modulus (GPa) = 50.35965 59.55456 54.95711
# Shear Modulus (GPa) = 23.09318 25.63827 24.36573
#
# Velocity S-wave (km/s) = 3.50817 3.69643 3.60353
# Velocity P-wave (km/s) = 6.57634 7.06803 6.82661
#
# Compressibility (1/GPa) = 0.01985717
#
# Stress axis : x y z
#
# Youngs Moduli (GPa) = 85.28387 40.69898 65.02885
#
# Poissons Ratio (x) = 0.21996 0.31102
# Poissons Ratio (y) = 0.46091 0.37204
# Poissons Ratio (z) = 0.40790 0.23284
#
# Static dielectric constant tensor:
#      x y z
#    x 3.426610 0.000000 -0.130130 
#    y 0.000000 3.313510 0.000000 
#    z -0.130130 0.000000 3.835650 
# 
# 
# High freq. dielectric constant tensor:
#      x y z
#    x 1.720500 0.000000 -0.002140 
#    y 0.000000 1.715560 0.000000 
#    z -0.002140 0.000000 1.733280 
# 
# From -- ./inp_files/346064.got.cif
#   From: 2010.06.25/outbox.cif.g09.slc.cpg/sg12_174_cif.got.tgz:346064.got - 2010.06.28 00:19:55.
