data_PCOD8095953
_publ_section_title
;
Structure prediction by ZEFSAII (Michael W. Deem and Ramdas Pophale) SiO2 
 PCOD8095953
Probable space group: C 2/M
;
_chemical_formula_sum "Si O2"
_cell_formula_units_Z 64
_cell_length_a 30.228101
_cell_length_b 8.874918
_cell_length_c 15.564302
_cell_angle_alpha 90.000000
_cell_angle_beta 132.256616
_cell_angle_gamma 90.000000
_cell_volume 3090.430792
_symmetry_space_group_name_H-M "C 2/M"
_symmetry_group_IT_number 12
_symmetry_cell_setting 'monoclinic'
loop_
_space_group_symop_operation_xyz
x,y,z
-x,y,-z
-x,-y,-z
x,-y,z
1/2+x,1/2+y,z
1/2-x,1/2+y,-z
1/2-x,1/2-y,-z
1/2+x,1/2-y,z
loop_
_atom_site_type_symbol
_atom_site_label
_atom_site_fract_x
_atom_site_fract_y
_atom_site_fract_z
Si Si1 0.711967 0.821560 0.601187
Si Si2 0.126111 0.175938 0.623597
Si Si3 0.969802 0.676245 0.604336
Si Si4 0.604463 0.830375 0.762619
Si Si5 0.184549 0.321866 0.173635
Si Si6 0.709984 0.169662 0.018607
Si Si7 0.933904 0.321684 0.892917
Si Si8 0.112417 0.322647 0.346996
O O1 0.673513 0.771637 0.632606
O O2 0.777242 0.747291 0.697277
O O3 0.677067 0.766053 0.468798
O O4 0.718662 0.000000 0.610544
O O5 0.059332 0.227307 0.510531
O O6 0.135006 0.216694 0.735002
O O7 0.136736 0.000000 0.621991
O O8 0.960763 0.500000 0.572574
O O9 0.939056 0.722399 0.653321
O O10 0.038384 0.723359 0.700601
O O11 0.641541 0.825708 0.898715
O O12 0.603715 0.000000 0.723166
O O13 0.192781 0.500000 0.187357
O O14 0.114393 0.280982 0.095968
O O15 0.208569 0.258366 0.112929
O O16 0.734167 0.000000 0.056979
O O17 0.750000 0.250000 0.000000
O O18 0.940676 0.500000 0.891122
O O19 0.906798 0.251036 0.769198
O O20 0.000000 0.253612 0.000000
O O21 0.116911 0.500000 0.342370
#
# Coordination Sequence:
#
# PCOD8095953 Si02
#       8
#     8   8   8   8   8   8   8   8
#     4  10  20  36  57  79 108 148 189 226 272 334
#     4  11  21  33  51  78 111 142 179 232 286 328
#     4   9  18  32  52  76 107 145 186 225 267 330
#     4  10  20  33  51  73 103 146 189 227 272 332
#     4  10  21  36  56  87 117 143 185 237 284 329
#     4  10  22  37  53  77 108 143 185 232 279 328
#     4   9  18  32  56  87 118 147 179 228 285 333
#     4   8  16  31  52  80 109 142 185 225 267 326
#
# _framework density 20.709085999999999
#
# number of rings (size 3 to 8) (size 9 to 14) (size 15 to 20)
#    0.000    2.375    0.000    3.375    1.750    5.500 
#    0.000    0.000    0.000    3.375    0.000    0.000 
#    0.000    0.000    0.000    0.000    0.000    0.000 
#
# Total GULP energy -396619.900064 kJ/mol
# GULP energy per Si atom -12394.371877 kJ/mol
# Density = 2.066195 g / cm^3
# Si number density = 20.709086 Si / 1000 Ang^3
#
#
#
# Elastic Constant Matrix: (Units=GPa)
#
#
# Indices 1 2 3 4 5 6 
#
# 1 92.7153 19.5699 59.6963 0.0000 6.0654 0.0000
# 2 19.5699 33.6416 20.2509 0.0000 0.1879 0.0000
# 3 59.6963 20.2509 137.2842 0.0000 3.5024 0.0000
# 4 0.0000 0.0000 0.0000 20.9695 0.0000 3.7276
# 5 6.0654 0.1879 3.5024 0.0000 40.0267 0.0000
# 6 0.0000 0.0000 0.0000 3.7276 0.0000 16.3920
#
#
#
# Elastic Compliance Matrix: (Units=1/GPa)
#
#
# Indices 1 2 3 4 5 6 
#
# 1 0.016017 -0.005644 -0.006084 0.000000 -0.001868 0.000000
# 2 -0.005644 0.034614 -0.002675 0.000000 0.000927 0.000000
# 3 -0.006084 -0.002675 0.010324 0.000000 0.000031 0.000000
# 4 0.000000 0.000000 0.000000 0.049697 0.000000 -0.011301
# 5 -0.001868 0.000927 0.000031 0.000000 0.025259 0.000000
# 6 0.000000 0.000000 0.000000 -0.011301 0.000000 0.063576
#
#
# Mechanical properties :
#
#
# Convention : Reuss Voigt Hill
#
# Bulk Modulus (GPa) = 31.10770 51.40839 41.25805
# Shear Modulus (GPa) = 20.91965 26.41923 23.66944
#
# Velocity S-wave (km/s) = 3.18176 3.57561 3.38442
# Velocity P-wave (km/s) = 5.34341 6.47492 5.93619
#
# Compressibility (1/GPa) = 0.03214638
#
# Stress axis : x y z
#
# Youngs Moduli (GPa) = 62.43415 28.89034 96.86407
#
# Poissons Ratio (x) = 0.16306 0.58937
# Poissons Ratio (y) = 0.35239 0.25913
# Poissons Ratio (z) = 0.37988 0.07729
#
# Static dielectric constant tensor:
#      x y z
#    x 3.725700 0.000000 0.075190 
#    y 0.000000 3.360420 0.000000 
#    z 0.075190 0.000000 4.294210 
# 
# 
# High freq. dielectric constant tensor:
#      x y z
#    x 1.808700 0.000000 0.008350 
#    y 0.000000 1.762440 0.000000 
#    z 0.008350 0.000000 1.824830 
# 
# From -- ./inp_files/250081.got.cif
#   From: 2010.06.25/outbox.cif.g09.slc.cpg/sg12_126_cif.got.tgz:250081.got - 2010.06.28 00:19:55.
