data_PCOD8095239
_publ_section_title
;
Structure prediction by ZEFSAII (Michael W. Deem and Ramdas Pophale) SiO2 
 PCOD8095239
Probable space group: C 2/M
;
_chemical_formula_sum "Si O2"
_cell_formula_units_Z 56
_cell_length_a 23.145786
_cell_length_b 9.134169
_cell_length_c 14.514448
_cell_angle_alpha 90.000000
_cell_angle_beta 91.306277
_cell_angle_gamma 90.000000
_cell_volume 3067.811138
_symmetry_space_group_name_H-M "C 2/M"
_symmetry_group_IT_number 12
_symmetry_cell_setting 'monoclinic'
loop_
_space_group_symop_operation_xyz
x,y,z
-x,y,-z
-x,-y,-z
x,-y,z
1/2+x,1/2+y,z
1/2-x,1/2+y,-z
1/2-x,1/2-y,-z
1/2+x,1/2-y,z
loop_
_atom_site_type_symbol
_atom_site_label
_atom_site_fract_x
_atom_site_fract_y
_atom_site_fract_z
Si Si1 0.586745 0.171114 0.674100
Si Si2 0.543868 0.829201 0.295825
Si Si3 0.378526 0.169827 0.529003
Si Si4 0.634295 0.665569 0.191781
Si Si5 0.714239 0.665015 0.372965
Si Si6 0.273103 0.170626 0.911356
Si Si7 0.305257 0.669646 0.267703
O O1 0.522770 0.216839 0.702165
O O2 0.595118 0.214166 0.567868
O O3 0.630937 0.262188 0.738856
O O4 0.597747 0.000000 0.690347
O O5 0.573091 0.788691 0.394168
O O6 0.572948 0.739425 0.213489
O O7 0.551677 0.000000 0.274836
O O8 0.318906 0.257349 0.543935
O O9 0.362585 0.000000 0.534218
O O10 0.624279 0.500000 0.156711
O O11 0.673238 0.669070 0.283448
O O12 0.665488 0.758159 0.113074
O O13 0.730402 0.500000 0.401968
O O14 0.773021 0.749796 0.350995
O O15 0.226697 0.196572 0.829492
O O16 0.282866 0.000000 0.931713
O O17 0.250000 0.250000 0.000000
O O18 0.308823 0.500000 0.292637
#
# Coordination Sequence:
#
# PCOD8095239 Si02
#       7
#     8   8   8   8   8   8   8
#     4  10  20  32  48  70  98 135 173 208 246 287
#     4   9  17  31  50  71  98 133 173 211 244 282
#     4   9  17  30  48  70  96 129 172 216 251 283
#     4   9  17  30  50  76 102 128 160 199 243 289
#     4   9  17  30  48  69  95 128 166 207 248 291
#     4  10  20  35  57  82 103 124 153 193 243 297
#     4  10  21  35  50  71 100 131 161 196 245 300
#
# _framework density 18.254058000000001
#
# number of rings (size 3 to 8) (size 9 to 14) (size 15 to 20)
#    0.000    2.571    0.000    2.143    0.000    8.571 
#    0.000    0.000    0.000    5.143    0.000    6.000 
#    0.000    0.000    0.000    0.000    0.000    0.000 
#
# Total GULP energy -347261.621819 kJ/mol
# GULP energy per Si atom -12402.200779 kJ/mol
# Density = 1.821251 g / cm^3
# Si number density = 18.254058 Si / 1000 Ang^3
#
#
#
# Elastic Constant Matrix: (Units=GPa)
#
#
# Indices 1 2 3 4 5 6 
#
# 1 123.3592 66.3584 48.7581 0.0000 -27.5768 0.0000
# 2 66.3584 120.9354 61.6185 0.0000 -21.3333 0.0000
# 3 48.7581 61.6185 79.2210 0.0000 -32.1049 0.0000
# 4 0.0000 0.0000 0.0000 28.4243 0.0000 -6.6916
# 5 -27.5768 -21.3333 -32.1049 0.0000 27.0642 0.0000
# 6 0.0000 0.0000 0.0000 -6.6916 0.0000 33.2091
#
#
#
# Elastic Compliance Matrix: (Units=1/GPa)
#
#
# Indices 1 2 3 4 5 6 
#
# 1 0.013136 -0.005552 -0.000223 0.000000 0.008744 0.000000
# 2 -0.005552 0.016222 -0.012154 0.000000 -0.007288 0.000000
# 3 -0.000223 -0.012154 0.035125 0.000000 0.031859 0.000000
# 4 0.000000 0.000000 0.000000 0.036933 0.000000 0.007442
# 5 0.008744 -0.007288 0.031859 0.000000 0.077907 0.000000
# 6 0.000000 0.000000 0.000000 0.007442 0.000000 0.031612
#
#
# Mechanical properties :
#
#
# Convention : Reuss Voigt Hill
#
# Bulk Modulus (GPa) = 34.93427 75.22062 55.07745
# Shear Modulus (GPa) = 19.50574 27.52491 23.51533
#
# Velocity S-wave (km/s) = 3.27245 3.88735 3.59308
# Velocity P-wave (km/s) = 5.78428 7.83874 6.88853
#
# Compressibility (1/GPa) = 0.02862519
#
# Stress axis : x y z
#
# Youngs Moduli (GPa) = 76.12929 61.64338 28.46963
#
# Poissons Ratio (x) = 0.34221 0.00635
# Poissons Ratio (y) = 0.42263 0.34603
# Poissons Ratio (z) = 0.01698 0.74924
#
# Static dielectric constant tensor:
#      x y z
#    x 3.402990 0.000000 -0.184870 
#    y 0.000000 3.462320 0.000000 
#    z -0.184870 0.000000 3.133080 
# 
# 
# High freq. dielectric constant tensor:
#      x y z
#    x 1.703400 0.000000 -0.018380 
#    y 0.000000 1.713310 0.000000 
#    z -0.018380 0.000000 1.680490 
# 
# From -- ./inp_files/287016.got.cif
#   From: 2010.06.25/outbox.cif.g09.slc.cpg/sg12_144_cif.got.tgz:287016.got - 2010.06.28 00:19:55.
