data_PCOD8095396
_publ_section_title
;
Structure prediction by ZEFSAII (Michael W. Deem and Ramdas Pophale) SiO2 
 PCOD8095396
Probable space group: C 2/M
;
_chemical_formula_sum "Si O2"
_cell_formula_units_Z 40
_cell_length_a 27.992607
_cell_length_b 9.212641
_cell_length_c 12.379310
_cell_angle_alpha 90.000000
_cell_angle_beta 137.732583
_cell_angle_gamma 90.000000
_cell_volume 2147.214818
_symmetry_space_group_name_H-M "C 2/M"
_symmetry_group_IT_number 12
_symmetry_cell_setting 'monoclinic'
loop_
_space_group_symop_operation_xyz
x,y,z
-x,y,-z
-x,-y,-z
x,-y,z
1/2+x,1/2+y,z
1/2-x,1/2+y,-z
1/2-x,1/2-y,-z
1/2+x,1/2-y,z
loop_
_atom_site_type_symbol
_atom_site_label
_atom_site_fract_x
_atom_site_fract_y
_atom_site_fract_z
Si Si1 0.949127 0.172832 0.721836
Si Si2 0.392112 0.328170 0.996237
Si Si3 0.563289 0.331461 0.537745
Si Si4 0.321042 0.667893 0.095919
Si Si5 0.178512 0.827566 0.341946
O O1 0.931373 0.235744 0.572909
O O2 0.887805 0.230567 0.698406
O O3 0.947786 0.000000 0.723023
O O4 0.027408 0.230567 0.887737
O O5 0.397357 0.500000 0.011765
O O6 0.361141 0.267627 0.057673
O O7 0.339852 0.281404 0.811737
O O8 0.500000 0.256823 0.500000
O O9 0.544311 0.500000 0.491320
O O10 0.635289 0.306536 0.722139
O O11 0.304516 0.500000 0.048272
O O12 0.250000 0.750000 0.000000
O O13 0.250000 0.750000 0.500000
O O14 0.188896 0.000000 0.370569
#
# Coordination Sequence:
#
# PCOD8095396 Si02
#       5
#     8   8   8   8   8
#     4   9  16  29  51  74  95 125 168 209 239 280
#     4   9  17  32  51  73  99 129 167 207 244 283
#     4   9  15  27  48  75  99 121 160 209 246 278
#     4  10  20  32  50  75 104 133 160 198 247 295
#     4  10  21  34  51  75 101 129 163 205 250 293
#
# _framework density 18.628782999999999
#
# number of rings (size 3 to 8) (size 9 to 14) (size 15 to 20)
#    0.000    2.600    2.000    0.600    2.800    2.400 
#    0.000    0.000    0.000    4.200    0.000    0.000 
#    0.000    0.000    0.000    0.000    0.000    0.000 
#
# Total GULP energy -247886.135591 kJ/mol
# GULP energy per Si atom -12394.306780 kJ/mol
# Density = 1.858638 g / cm^3
# Si number density = 18.628783 Si / 1000 Ang^3
#
#
#
# Elastic Constant Matrix: (Units=GPa)
#
#
# Indices 1 2 3 4 5 6 
#
# 1 119.7886 18.3789 70.2588 0.0000 7.7152 0.0000
# 2 18.3789 17.4878 29.3849 0.0000 5.8317 0.0000
# 3 70.2588 29.3849 131.8694 0.0000 2.3042 0.0000
# 4 0.0000 0.0000 0.0000 25.0146 0.0000 6.8286
# 5 7.7152 5.8317 2.3042 0.0000 42.8040 0.0000
# 6 0.0000 0.0000 0.0000 6.8286 0.0000 15.1078
#
#
#
# Elastic Compliance Matrix: (Units=1/GPa)
#
#
# Indices 1 2 3 4 5 6 
#
# 1 0.012344 -0.002301 -0.006036 0.000000 -0.001586 0.000000
# 2 -0.002301 0.097720 -0.020343 0.000000 -0.011804 0.000000
# 3 -0.006036 -0.020343 0.015279 0.000000 0.003037 0.000000
# 4 0.000000 0.000000 0.000000 0.045603 0.000000 -0.020612
# 5 -0.001586 -0.011804 0.003037 0.000000 0.025093 0.000000
# 6 0.000000 0.000000 0.000000 -0.020612 0.000000 0.075507
#
#
# Mechanical properties :
#
#
# Convention : Reuss Voigt Hill
#
# Bulk Modulus (GPa) = 14.70971 56.13236 35.42104
# Shear Modulus (GPa) = 14.22203 26.66017 20.44110
#
# Velocity S-wave (km/s) = 2.76605 3.78713 3.31612
# Velocity P-wave (km/s) = 4.25614 7.02286 5.80669
#
# Compressibility (1/GPa) = 0.06798228
#
# Stress axis : x y z
#
# Youngs Moduli (GPa) = 81.01393 10.23335 65.44820
#
# Poissons Ratio (x) = 0.02355 0.39505
# Poissons Ratio (y) = 0.18642 1.33141
# Poissons Ratio (z) = 0.48901 0.20818
#
# Static dielectric constant tensor:
#      x y z
#    x 3.569660 0.000000 0.108190 
#    y 0.000000 2.733720 0.000000 
#    z 0.108190 0.000000 3.252660 
# 
# 
# High freq. dielectric constant tensor:
#      x y z
#    x 1.740890 0.000000 -0.004870 
#    y 0.000000 1.641180 0.000000 
#    z -0.004870 0.000000 1.740470 
# 
# From -- ./inp_files/140263.got.cif
#   From: 2010.06.25/outbox.cif.g09.slc.cpg/sg12_71_cif.got.tgz:140263.got - 2010.06.28 00:19:55.
