data_PCOD8095727
_publ_section_title
;
Structure prediction by ZEFSAII (Michael W. Deem and Ramdas Pophale) SiO2 
 PCOD8095727
Probable space group: C 2/M
;
_chemical_formula_sum "Si O2"
_cell_formula_units_Z 56
_cell_length_a 23.440133
_cell_length_b 8.830786
_cell_length_c 19.030838
_cell_angle_alpha 90.000000
_cell_angle_beta 127.552885
_cell_angle_gamma 90.000000
_cell_volume 3123.029691
_symmetry_space_group_name_H-M "C 2/M"
_symmetry_group_IT_number 12
_symmetry_cell_setting 'monoclinic'
loop_
_space_group_symop_operation_xyz
x,y,z
-x,y,-z
-x,-y,-z
x,-y,z
1/2+x,1/2+y,z
1/2-x,1/2+y,-z
1/2-x,1/2-y,-z
1/2+x,1/2-y,z
loop_
_atom_site_type_symbol
_atom_site_label
_atom_site_fract_x
_atom_site_fract_y
_atom_site_fract_z
Si Si1 0.783473 0.334680 0.801006
Si Si2 0.223664 0.332364 0.370840
Si Si3 0.369104 0.177707 0.469312
Si Si4 0.987797 0.826943 0.649123
Si Si5 0.062733 0.318696 0.098042
Si Si6 0.130591 0.820502 0.680023
Si Si7 0.578932 0.326358 0.256426
O O1 0.786898 0.500000 0.838985
O O2 0.778031 0.347289 0.713532
O O3 0.860314 0.253205 0.874442
O O4 0.708100 0.255603 0.768073
O O5 0.222961 0.500000 0.404762
O O6 0.296193 0.246177 0.448234
O O7 0.153250 0.241515 0.342680
O O8 0.434427 0.214361 0.569836
O O9 0.389161 0.244925 0.408550
O O10 0.358986 0.000000 0.454199
O O11 0.980616 0.808546 0.727472
O O12 0.069433 0.782199 0.690654
O O13 0.971005 0.000000 0.613412
O O14 0.066034 0.500000 0.104020
O O15 0.048228 0.259446 0.165387
O O16 0.000000 0.259902 0.000000
O O17 0.138749 0.000000 0.673091
O O18 0.592480 0.500000 0.246218
#
# Coordination Sequence:
#
# PCOD8095727 Si02
#       7
#     8   8   8   8   8   8   8
#     4   7  12  25  47  71  89 113 154 196 230 272
#     4   9  17  32  51  68  93 129 163 197 242 296
#     4  11  21  31  47  72  97 124 165 214 252 279
#     4  10  21  34  47  65  94 134 171 202 243 294
#     4   9  17  31  53  78 100 123 154 194 244 303
#     4   9  17  32  51  67  91 131 173 206 238 284
#     4  10  20  33  49  72  99 125 159 203 249 292
#
# _framework density 17.931305999999999
#
# number of rings (size 3 to 8) (size 9 to 14) (size 15 to 20)
#    0.000    2.714    0.000    4.286    0.000    4.286 
#    0.000    0.000    0.000    0.857    0.000    0.000 
#    0.000    0.000    0.000    0.000    0.000    0.143 
#
# Total GULP energy -346973.317267 kJ/mol
# GULP energy per Si atom -12391.904188 kJ/mol
# Density = 1.789049 g / cm^3
# Si number density = 17.931306 Si / 1000 Ang^3
#
#
#
# Elastic Constant Matrix: (Units=GPa)
#
#
# Indices 1 2 3 4 5 6 
#
# 1 107.8554 24.7968 60.0898 0.0000 15.4970 0.0000
# 2 24.7968 65.3965 27.4012 0.0000 3.5598 0.0000
# 3 60.0898 27.4012 100.3732 0.0000 25.3020 0.0000
# 4 0.0000 0.0000 0.0000 17.9080 0.0000 0.5539
# 5 15.4970 3.5598 25.3020 0.0000 23.3872 0.0000
# 6 0.0000 0.0000 0.0000 0.5539 0.0000 18.6261
#
#
#
# Elastic Compliance Matrix: (Units=1/GPa)
#
#
# Indices 1 2 3 4 5 6 
#
# 1 0.014159 -0.002092 -0.007728 0.000000 -0.000703 0.000000
# 2 -0.002092 0.017774 -0.004492 0.000000 0.003541 0.000000
# 3 -0.007728 -0.004492 0.019735 0.000000 -0.015546 0.000000
# 4 0.000000 0.000000 0.000000 0.055893 0.000000 -0.001662
# 5 -0.000703 0.003541 -0.015546 0.000000 0.059503 0.000000
# 6 0.000000 0.000000 0.000000 -0.001662 0.000000 0.053738
#
#
# Mechanical properties :
#
#
# Convention : Reuss Voigt Hill
#
# Bulk Modulus (GPa) = 43.39865 55.35562 49.37714
# Shear Modulus (GPa) = 19.44704 22.74007 21.09356
#
# Velocity S-wave (km/s) = 3.29679 3.56501 3.43352
# Velocity P-wave (km/s) = 6.22471 6.91980 6.58144
#
# Compressibility (1/GPa) = 0.02304219
#
# Stress axis : x y z
#
# Youngs Moduli (GPa) = 70.62416 56.26118 50.67249
#
# Poissons Ratio (x) = 0.11772 0.39162
# Poissons Ratio (y) = 0.14778 0.22763
# Poissons Ratio (z) = 0.54581 0.25274
#
# Static dielectric constant tensor:
#      x y z
#    x 3.614160 0.000000 0.445480 
#    y 0.000000 3.230210 0.000000 
#    z 0.445480 0.000000 3.212500 
# 
# 
# High freq. dielectric constant tensor:
#      x y z
#    x 1.695810 0.000000 0.025150 
#    y 0.000000 1.679980 0.000000 
#    z 0.025150 0.000000 1.662100 
# 
# From -- ./inp_files/323566.got.cif
#   From: 2010.06.25/outbox.cif.g09.slc.cpg/sg12_162_cif.got.tgz:323566.got - 2010.06.28 00:19:55.
