data_PCOD8095722
_publ_section_title
;
Structure prediction by ZEFSAII (Michael W. Deem and Ramdas Pophale) SiO2 
 PCOD8095722
Probable space group: C 2/M
;
_chemical_formula_sum "Si O2"
_cell_formula_units_Z 56
_cell_length_a 28.553315
_cell_length_b 8.895210
_cell_length_c 18.921055
_cell_angle_alpha 90.000000
_cell_angle_beta 39.817643
_cell_angle_gamma 90.000000
_cell_volume 3077.322113
_symmetry_space_group_name_H-M "C 2/M"
_symmetry_group_IT_number 12
_symmetry_cell_setting 'monoclinic'
loop_
_space_group_symop_operation_xyz
x,y,z
-x,y,-z
-x,-y,-z
x,-y,z
1/2+x,1/2+y,z
1/2-x,1/2+y,-z
1/2-x,1/2-y,-z
1/2+x,1/2-y,z
loop_
_atom_site_type_symbol
_atom_site_label
_atom_site_fract_x
_atom_site_fract_y
_atom_site_fract_z
Si Si1 0.287708 0.326239 0.167162
Si Si2 0.158682 0.176601 0.375473
Si Si3 0.455175 0.673466 0.983781
Si Si4 0.465292 0.175311 0.827269
Si Si5 0.797001 0.322616 0.008097
Si Si6 0.066845 0.333746 0.370383
Si Si7 0.970700 0.177268 0.373721
O O1 0.269360 0.500000 0.177300
O O2 0.237168 0.258447 0.288776
O O3 0.369906 0.300629 0.098211
O O4 0.270580 0.242483 0.113534
O O5 0.126549 0.227979 0.337265
O O6 0.106057 0.226889 0.501195
O O7 0.169952 0.000000 0.362589
O O8 0.471234 0.500000 0.946439
O O9 0.500000 0.726444 0.000000
O O10 0.480493 0.776335 0.889742
O O11 0.525017 0.265731 0.711484
O O12 0.480674 0.000000 0.801204
O O13 0.382755 0.217441 0.899318
O O14 0.784022 0.500000 0.023147
O O15 0.750000 0.250000 0.000000
O O16 0.098997 0.500000 0.315391
O O17 0.000000 0.352345 0.500000
O O18 0.040207 0.254570 0.330166
O O19 0.979955 0.000000 0.368716
#
# Coordination Sequence:
#
# PCOD8095722 Si02
#       7
#     8   8   8   8   8   8   8
#     4  10  20  34  54  79 105 135 173 215 263 315
#     4  10  20  33  49  72 104 142 181 219 258 306
#     4   9  19  38  62  84 105 131 167 213 267 326
#     4  10  21  35  53  79 107 136 175 218 263 313
#     4  10  21  35  50  71 103 141 177 215 260 309
#     4   9  17  29  45  66  95 135 181 221 253 292
#     4  10  20  33  50  72 103 143 182 218 259 306
#
# _framework density 18.19764
#
# number of rings (size 3 to 8) (size 9 to 14) (size 15 to 20)
#    0.000    2.286    0.000    2.571    2.000    6.000 
#    0.000    0.000    0.000    0.857    0.000    0.000 
#    0.000    0.000    0.000    0.000    0.000    0.000 
#
# Total GULP energy -347180.149451 kJ/mol
# GULP energy per Si atom -12399.291052 kJ/mol
# Density = 1.815622 g / cm^3
# Si number density = 18.197640 Si / 1000 Ang^3
#
#
#
# Elastic Constant Matrix: (Units=GPa)
#
#
# Indices 1 2 3 4 5 6 
#
# 1 97.8349 34.5517 43.4382 -0.0022 6.1802 0.0113
# 2 34.5517 82.2569 50.5694 0.0030 3.3642 0.0095
# 3 43.4382 50.5694 119.6369 0.0131 2.9231 -0.0015
# 4 -0.0022 0.0030 0.0131 33.2324 -0.0012 1.5035
# 5 6.1802 3.3642 2.9231 -0.0012 15.5245 -0.0058
# 6 0.0113 0.0095 -0.0015 1.5035 -0.0058 23.4194
#
#
#
# Elastic Compliance Matrix: (Units=1/GPa)
#
#
# Indices 1 2 3 4 5 6 
#
# 1 0.013087 -0.003345 -0.003243 0.000003 -0.003874 -0.000006
# 2 -0.003345 0.017360 -0.006092 0.000001 -0.001283 -0.000006
# 3 -0.003243 -0.006092 0.012103 -0.000005 0.000332 0.000005
# 4 0.000003 0.000001 -0.000005 0.030179 0.000001 -0.001937
# 5 -0.003874 -0.001283 0.000332 0.000001 0.066172 0.000019
# 6 -0.000006 -0.000006 0.000005 -0.001937 0.000019 0.042824
#
#
# Mechanical properties :
#
#
# Convention : Reuss Voigt Hill
#
# Bulk Modulus (GPa) = 58.17388 61.87193 60.02291
# Shear Modulus (GPa) = 23.49453 25.84654 24.67053
#
# Velocity S-wave (km/s) = 3.59705 3.77281 3.68598
# Velocity P-wave (km/s) = 7.02061 7.28372 7.15337
#
# Compressibility (1/GPa) = 0.01718984
#
# Stress axis : x y z
#
# Youngs Moduli (GPa) = 76.40958 57.60452 82.62358
#
# Poissons Ratio (x) = 0.19269 0.26797
# Poissons Ratio (y) = 0.25559 0.50334
# Poissons Ratio (z) = 0.24782 0.35092
#
# Static dielectric constant tensor:
#      x y z
#    x 3.113550 -0.000030 -0.072780 
#    y -0.000030 3.448120 0.000040 
#    z -0.072780 0.000040 3.493040 
# 
# 
# High freq. dielectric constant tensor:
#      x y z
#    x 1.665980 0.000000 -0.002370 
#    y 0.000000 1.719110 0.000000 
#    z -0.002370 0.000000 1.710160 
# 
# From -- ./inp_files/288249.got.cif
#   From: 2010.06.25/outbox.cif.g09.slc.cpg/sg12_145_cif.got.tgz:288249.got - 2010.06.28 00:19:55.
