data_PCOD8095719
_publ_section_title
;
Structure prediction by ZEFSAII (Michael W. Deem and Ramdas Pophale) SiO2 
 PCOD8095719
Probable space group: C 2/M
;
_chemical_formula_sum "Si O2"
_cell_formula_units_Z 64
_cell_length_a 32.566705
_cell_length_b 9.055418
_cell_length_c 17.467351
_cell_angle_alpha 90.000000
_cell_angle_beta 43.218755
_cell_angle_gamma 90.000000
_cell_volume 3527.475811
_symmetry_space_group_name_H-M "C 2/M"
_symmetry_group_IT_number 12
_symmetry_cell_setting 'monoclinic'
loop_
_space_group_symop_operation_xyz
x,y,z
-x,y,-z
-x,-y,-z
x,-y,z
1/2+x,1/2+y,z
1/2-x,1/2+y,-z
1/2-x,1/2-y,-z
1/2+x,1/2-y,z
loop_
_atom_site_type_symbol
_atom_site_label
_atom_site_fract_x
_atom_site_fract_y
_atom_site_fract_z
Si Si1 0.911692 0.171387 0.688875
Si Si2 0.990283 0.327864 0.351965
Si Si3 0.705580 0.170261 0.116762
Si Si4 0.971639 0.670721 0.870415
Si Si5 0.447467 0.337801 0.132404
Si Si6 0.629859 0.325108 0.897769
Si Si7 0.763182 0.669866 0.750806
Si Si8 0.380038 0.670601 0.556473
O O1 0.858621 0.253386 0.805661
O O2 0.904643 0.194660 0.608360
O O3 0.973803 0.243519 0.630425
O O4 0.911189 0.000000 0.712038
O O5 0.986356 0.500000 0.377529
O O6 0.923400 0.260144 0.440490
O O7 0.022752 0.300502 0.227241
O O8 0.731330 0.190265 0.166243
O O9 0.698808 0.000000 0.102803
O O10 0.750000 0.250000 0.000000
O O11 0.965184 0.500000 0.899237
O O12 0.033070 0.727621 0.826798
O O13 0.912306 0.751961 0.980825
O O14 0.434697 0.500000 0.185385
O O15 0.389962 0.280404 0.161956
O O16 0.500000 0.350890 0.000000
O O17 0.624131 0.500000 0.917785
O O18 0.697849 0.270568 0.815633
O O19 0.772077 0.500000 0.714786
O O20 0.812899 0.766193 0.639528
O O21 0.379200 0.500000 0.533972
#
# Coordination Sequence:
#
# PCOD8095719 Si02
#       8
#     8   8   8   8   8   8   8   8
#     4  10  21  36  53  74  99 132 175 218 260 304
#     4  11  23  36  52  76 104 136 172 216 260 305
#     4  10  20  33  49  72 104 140 173 208 254 303
#     4  10  21  33  48  77 109 135 166 207 257 303
#     4   8  15  30  51  74 102 135 167 202 248 305
#     4   9  18  33  54  79 105 135 171 205 247 308
#     4   9  19  35  54  75 100 135 172 208 253 304
#     4  10  21  37  55  76 100 132 174 218 259 301
#
# _framework density 18.143284999999999
#
# number of rings (size 3 to 8) (size 9 to 14) (size 15 to 20)
#    0.000    2.375    0.000    3.000    1.750    8.250 
#    0.000    0.000    0.000    0.750    0.000    0.000 
#    0.000    0.000    0.000    0.000    0.000    0.000 
#
# Total GULP energy -396820.517257 kJ/mol
# GULP energy per Si atom -12400.641164 kJ/mol
# Density = 1.810199 g / cm^3
# Si number density = 18.143285 Si / 1000 Ang^3
#
#
#
# Elastic Constant Matrix: (Units=GPa)
#
#
# Indices 1 2 3 4 5 6 
#
# 1 102.3377 45.6034 34.1872 0.0002 -26.0498 0.0000
# 2 45.6034 105.4330 43.0325 0.0006 -13.7235 -0.0017
# 3 34.1872 43.0325 62.0523 -0.0001 -25.2769 0.0000
# 4 0.0002 0.0006 -0.0001 31.0209 0.0001 -2.8051
# 5 -26.0498 -13.7235 -25.2769 0.0001 25.1604 0.0000
# 6 0.0000 -0.0017 0.0000 -2.8051 0.0000 28.2430
#
#
#
# Elastic Compliance Matrix: (Units=1/GPa)
#
#
# Indices 1 2 3 4 5 6 
#
# 1 0.015328 -0.005136 0.000745 0.000000 0.013818 0.000000
# 2 -0.005136 0.015123 -0.010941 0.000000 -0.008061 0.000001
# 3 0.000745 -0.010941 0.035845 0.000000 0.030814 -0.000001
# 4 0.000000 0.000000 0.000000 0.032528 0.000000 0.003231
# 5 0.013818 -0.008061 0.030814 0.000000 0.080611 -0.000001
# 6 0.000000 0.000001 -0.000001 0.003231 -0.000001 0.035728
#
#
# Mechanical properties :
#
#
# Convention : Reuss Voigt Hill
#
# Bulk Modulus (GPa) = 28.06486 57.27434 42.66960
# Shear Modulus (GPa) = 19.40204 26.68487 23.04346
#
# Velocity S-wave (km/s) = 3.27368 3.83924 3.56769
# Velocity P-wave (km/s) = 5.45815 7.16166 6.36713
#
# Compressibility (1/GPa) = 0.03563175
#
# Stress axis : x y z
#
# Youngs Moduli (GPa) = 65.23824 66.12647 27.89800
#
# Poissons Ratio (x) = 0.33960 -0.02078
# Poissons Ratio (y) = 0.33504 0.30524
# Poissons Ratio (z) = -0.04860 0.72352
#
# Static dielectric constant tensor:
#      x y z
#    x 3.706980 0.000000 -0.168800 
#    y 0.000000 3.442560 0.000000 
#    z -0.168800 0.000000 3.124150 
# 
# 
# High freq. dielectric constant tensor:
#      x y z
#    x 1.698000 0.000000 -0.012530 
#    y 0.000000 1.710730 0.000000 
#    z -0.012530 0.000000 1.682660 
# 
# From -- ./inp_files/249871.got.cif
#   From: 2010.06.25/outbox.cif.g09.slc.cpg/sg12_125_cif.got.tgz:249871.got - 2010.06.28 00:19:55.
