data_PCOD8095622
_publ_section_title
;
Structure prediction by ZEFSAII (Michael W. Deem and Ramdas Pophale) SiO2 
 PCOD8095622
Probable space group: C 2/M
;
_chemical_formula_sum "Si O2"
_cell_formula_units_Z 64
_cell_length_a 23.972228
_cell_length_b 9.397810
_cell_length_c 19.948119
_cell_angle_alpha 90.000000
_cell_angle_beta 56.926621
_cell_angle_gamma 90.000000
_cell_volume 3765.881963
_symmetry_space_group_name_H-M "C 2/M"
_symmetry_group_IT_number 12
_symmetry_cell_setting 'monoclinic'
loop_
_space_group_symop_operation_xyz
x,y,z
-x,y,-z
-x,-y,-z
x,-y,z
1/2+x,1/2+y,z
1/2-x,1/2+y,-z
1/2-x,1/2-y,-z
1/2+x,1/2-y,z
loop_
_atom_site_type_symbol
_atom_site_label
_atom_site_fract_x
_atom_site_fract_y
_atom_site_fract_z
Si Si1 0.549657 0.334278 0.764930
Si Si2 0.122555 0.164825 0.847059
Si Si3 0.204545 0.835104 0.164668
Si Si4 0.601438 0.666131 0.119396
Si Si5 0.723847 0.162784 0.278586
Si Si6 0.356340 0.167538 0.037809
Si Si7 0.205083 0.664798 0.440339
Si Si8 0.347363 0.334251 0.408954
O O1 0.567089 0.500000 0.755788
O O2 0.574057 0.274535 0.820811
O O3 0.472195 0.303526 0.804314
O O4 0.591378 0.271117 0.675083
O O5 0.197234 0.186110 0.772187
O O6 0.108528 0.260630 0.921323
O O7 0.108107 0.000000 0.874687
O O8 0.152616 0.784326 0.142789
O O9 0.188700 0.754563 0.244050
O O10 0.277853 0.798389 0.089632
O O11 0.196311 0.000000 0.185925
O O12 0.611135 0.500000 0.094290
O O13 0.612406 0.762730 0.047969
O O14 0.695327 0.210079 0.369393
O O15 0.706365 0.000000 0.275071
O O16 0.370770 0.000000 0.028781
O O17 0.188810 0.500000 0.461408
O O18 0.280679 0.698173 0.411326
O O19 0.153795 0.753822 0.519157
O O20 0.356113 0.500000 0.418953
#
# Coordination Sequence:
#
# PCOD8095622 Si02
#       8
#     8   8   8   8   8   8   8   8
#     4   9  17  31  51  70  93 124 159 193 225 273
#     4   9  16  30  50  70  92 122 156 189 229 277
#     4   9  19  33  49  70  94 118 154 201 239 270
#     4  10  20  34  51  69  89 122 162 196 231 274
#     4   9  16  28  49  72  95 122 153 190 231 275
#     4  10  20  33  48  69  96 121 150 196 242 278
#     4   9  16  27  45  72 100 122 149 185 227 275
#     4   9  16  28  46  70  98 124 150 185 227 273
#
# _framework density 16.994691
#
# number of rings (size 3 to 8) (size 9 to 14) (size 15 to 20)
#    0.000    2.750    1.250    0.750    0.000    2.000 
#    0.000    4.375    0.000    0.750    0.000    5.250 
#    0.000    0.000    0.000    0.000    0.000    0.000 
#
# Total GULP energy -396796.095490 kJ/mol
# GULP energy per Si atom -12399.877984 kJ/mol
# Density = 1.695601 g / cm^3
# Si number density = 16.994691 Si / 1000 Ang^3
#
#
#
# Elastic Constant Matrix: (Units=GPa)
#
#
# Indices 1 2 3 4 5 6 
#
# 1 35.1704 16.3750 32.9796 -0.0001 -1.6842 0.0000
# 2 16.3750 52.4388 51.0029 -0.0004 6.1216 -0.0006
# 3 32.9796 51.0029 125.8539 0.0001 13.5233 0.0000
# 4 -0.0001 -0.0004 0.0001 29.5374 0.0000 6.5912
# 5 -1.6842 6.1216 13.5233 0.0000 19.2957 0.0000
# 6 0.0000 -0.0006 0.0000 6.5912 0.0000 19.5354
#
#
#
# Elastic Compliance Matrix: (Units=1/GPa)
#
#
# Indices 1 2 3 4 5 6 
#
# 1 0.040528 -0.004082 -0.010258 0.000000 0.012022 0.000000
# 2 -0.004082 0.031911 -0.011610 0.000000 -0.002343 0.000001
# 3 -0.010258 -0.011610 0.016264 0.000000 -0.008610 0.000000
# 4 0.000000 0.000000 0.000000 0.036612 0.000000 -0.012353
# 5 0.012022 -0.002343 -0.008610 0.000000 0.059652 0.000000
# 6 0.000000 0.000001 0.000000 -0.012353 0.000000 0.055357
#
#
# Mechanical properties :
#
#
# Convention : Reuss Voigt Hill
#
# Bulk Modulus (GPa) = 27.17242 46.01981 36.59611
# Shear Modulus (GPa) = 16.42080 21.21406 18.81743
#
# Velocity S-wave (km/s) = 3.11180 3.53693 3.33115
# Velocity P-wave (km/s) = 5.37908 6.61948 6.03125
#
# Compressibility (1/GPa) = 0.03680203
#
# Stress axis : x y z
#
# Youngs Moduli (GPa) = 24.67432 31.33752 61.48519
#
# Poissons Ratio (x) = 0.12793 0.63069
# Poissons Ratio (y) = 0.10073 0.71387
# Poissons Ratio (z) = 0.25310 0.36384
#
# Static dielectric constant tensor:
#      x y z
#    x 3.091060 0.000000 0.150090 
#    y 0.000000 3.059630 0.000000 
#    z 0.150090 0.000000 3.253720 
# 
# 
# High freq. dielectric constant tensor:
#      x y z
#    x 1.635790 0.000000 0.014190 
#    y 0.000000 1.639950 0.000000 
#    z 0.014190 0.000000 1.656880 
# 
# From -- ./inp_files/319930.got.cif
#   From: 2010.06.25/outbox.cif.g09.slc.cpg/sg12_160_cif.got.tgz:319930.got - 2010.06.28 00:19:55.
