data_PCOD8095804
_publ_section_title
;
Structure prediction by ZEFSAII (Michael W. Deem and Ramdas Pophale) SiO2 
 PCOD8095804
Probable space group: C 2/M
;
_chemical_formula_sum "Si O2"
_cell_formula_units_Z 56
_cell_length_a 21.532810
_cell_length_b 9.471702
_cell_length_c 27.008520
_cell_angle_alpha 90.000000
_cell_angle_beta 144.973288
_cell_angle_gamma 90.000000
_cell_volume 3161.621241
_symmetry_space_group_name_H-M "C 2/M"
_symmetry_group_IT_number 12
_symmetry_cell_setting 'monoclinic'
loop_
_space_group_symop_operation_xyz
x,y,z
-x,y,-z
-x,-y,-z
x,-y,z
1/2+x,1/2+y,z
1/2-x,1/2+y,-z
1/2-x,1/2-y,-z
1/2+x,1/2-y,z
loop_
_atom_site_type_symbol
_atom_site_label
_atom_site_fract_x
_atom_site_fract_y
_atom_site_fract_z
Si Si1 0.880885 0.666260 0.913584
Si Si2 0.737751 0.331887 0.730841
Si Si3 0.231438 0.661949 0.059176
Si Si4 0.407880 0.164222 0.125371
Si Si5 0.286631 0.667135 0.475058
Si Si6 0.352184 0.833729 0.708783
Si Si7 0.500103 0.332712 0.556697
O O1 0.894916 0.500000 0.914929
O O2 0.816875 0.731462 0.824815
O O3 0.809256 0.703497 0.913776
O O4 0.000000 0.733658 0.000000
O O5 0.743240 0.500000 0.736080
O O6 0.777840 0.271984 0.704191
O O7 0.612569 0.285459 0.656254
O O8 0.267606 0.500000 0.079142
O O9 0.335358 0.756998 0.118016
O O10 0.135221 0.693993 0.957889
O O11 0.527570 0.228943 0.207702
O O12 0.405406 0.000000 0.137095
O O13 0.290645 0.500000 0.489135
O O14 0.250000 0.750000 0.500000
O O15 0.195949 0.705978 0.375582
O O16 0.401316 0.721602 0.526980
O O17 0.357282 0.000000 0.719462
O O18 0.500000 0.272767 0.500000
O O19 0.488341 0.500000 0.545224
#
# Coordination Sequence:
#
# PCOD8095804 Si02
#       7
#     8   8   8   8   8   8   8
#     4   9  16  25  39  63  93 117 143 188 238 275
#     4   9  15  24  43  68  90 116 152 195 238 274
#     4   9  17  29  44  66  95 122 150 189 234 275
#     4   9  17  29  46  65  89 125 160 185 220 277
#     4  10  20  33  50  73 100 126 156 199 247 290
#     4   9  16  28  46  68  92 121 159 195 229 278
#     4   9  15  27  46  68  91 116 154 202 238 271
#
# _framework density 17.712430999999999
#
# number of rings (size 3 to 8) (size 9 to 14) (size 15 to 20)
#    0.000    2.857    1.429    0.857    0.000    4.571 
#    0.000    2.143    0.000    0.857    0.000    2.000 
#    0.000    0.000    0.000    0.000    0.000    0.000 
#
# Total GULP energy -347031.504980 kJ/mol
# GULP energy per Si atom -12393.982321 kJ/mol
# Density = 1.767212 g / cm^3
# Si number density = 17.712431 Si / 1000 Ang^3
#
#
#
# Elastic Constant Matrix: (Units=GPa)
#
#
# Indices 1 2 3 4 5 6 
#
# 1 124.5038 29.2607 89.7146 0.0000 2.6793 0.0000
# 2 29.2607 17.9217 20.3036 0.0000 1.5114 -0.0002
# 3 89.7146 20.3036 140.7244 -0.0001 13.0224 0.0000
# 4 0.0000 0.0000 -0.0001 11.9765 0.0000 0.0002
# 5 2.6793 1.5114 13.0224 0.0000 35.3964 0.0000
# 6 0.0000 -0.0002 0.0000 0.0002 0.0000 24.0366
#
#
#
# Elastic Compliance Matrix: (Units=1/GPa)
#
#
# Indices 1 2 3 4 5 6 
#
# 1 0.020512 -0.022247 -0.010157 0.000000 0.003134 0.000000
# 2 -0.022247 0.090847 0.001324 0.000000 -0.002682 0.000001
# 3 -0.010157 0.001324 0.013794 0.000000 -0.004363 0.000000
# 4 0.000000 0.000000 0.000000 0.083497 0.000000 -0.000001
# 5 0.003134 -0.002682 -0.004363 0.000000 0.029734 0.000000
# 6 0.000000 0.000001 0.000000 -0.000001 0.000000 0.041603
#
#
# Mechanical properties :
#
#
# Convention : Reuss Voigt Hill
#
# Bulk Modulus (GPa) = 15.87483 62.41197 39.14340
# Shear Modulus (GPa) = 13.76862 23.87331 18.82096
#
# Velocity S-wave (km/s) = 2.79111 3.67526 3.26327
# Velocity P-wave (km/s) = 4.40103 7.30225 6.02876
#
# Compressibility (1/GPa) = 0.06299280
#
# Stress axis : x y z
#
# Youngs Moduli (GPa) = 48.75267 11.00748 72.49519
#
# Poissons Ratio (x) = 0.24488 0.73632
# Poissons Ratio (y) = 1.08460 -0.09596
# Poissons Ratio (z) = 0.49517 -0.01457
#
# Static dielectric constant tensor:
#      x y z
#    x 3.413920 0.000000 0.131490 
#    y 0.000000 2.671970 0.000000 
#    z 0.131490 0.000000 3.592670 
# 
# 
# High freq. dielectric constant tensor:
#      x y z
#    x 1.694560 0.000000 0.006150 
#    y 0.000000 1.609060 0.000000 
#    z 0.006150 0.000000 1.700590 
# 
# From -- ./inp_files/343118.got.cif
#   From: 2010.06.25/outbox.cif.g09.slc.cpg/sg12_172_cif.got.tgz:343118.got - 2010.06.28 00:19:55.
