data_PCOD8095967
_publ_section_title
;
Structure prediction by ZEFSAII (Michael W. Deem and Ramdas Pophale) SiO2 
 PCOD8095967
Probable space group: C 2/M
;
_chemical_formula_sum "Si O2"
_cell_formula_units_Z 56
_cell_length_a 28.670346
_cell_length_b 8.922003
_cell_length_c 18.611795
_cell_angle_alpha 90.000000
_cell_angle_beta 142.759621
_cell_angle_gamma 90.000000
_cell_volume 2881.071263
_symmetry_space_group_name_H-M "C 2/M"
_symmetry_group_IT_number 12
_symmetry_cell_setting 'monoclinic'
loop_
_space_group_symop_operation_xyz
x,y,z
-x,y,-z
-x,-y,-z
x,-y,z
1/2+x,1/2+y,z
1/2-x,1/2+y,-z
1/2-x,1/2-y,-z
1/2+x,1/2-y,z
loop_
_atom_site_type_symbol
_atom_site_label
_atom_site_fract_x
_atom_site_fract_y
_atom_site_fract_z
Si Si1 0.456157 0.832381 0.597959
Si Si2 0.349893 0.676380 0.354956
Si Si3 0.868781 0.666825 0.232616
Si Si4 0.800579 0.175101 0.856186
Si Si5 0.997799 0.169969 0.783437
Si Si6 0.461228 0.824810 0.027823
Si Si7 0.324677 0.332786 0.044882
O O1 0.416301 0.732092 0.488912
O O2 0.546512 0.840142 0.695193
O O3 0.443631 0.756257 0.660121
O O4 0.420969 0.000000 0.554385
O O5 0.339331 0.500000 0.350249
O O6 0.373261 0.715806 0.302500
O O7 0.270271 0.760714 0.277000
O O8 0.842892 0.500000 0.226792
O O9 0.810922 0.718621 0.095860
O O10 0.875192 0.262076 0.921828
O O11 0.814159 0.000000 0.858992
O O12 0.778335 0.205374 0.913811
O O13 0.086629 0.177298 0.869918
O O14 0.968553 0.000000 0.752668
O O15 0.987207 0.247422 0.847652
O O16 0.457699 0.000000 0.039606
O O17 0.500000 0.787002 0.000000
O O18 0.306506 0.500000 0.049959
#
# Coordination Sequence:
#
# PCOD8095967 Si02
#       7
#     8   8   8   8   8   8   8
#     4  10  20  35  54  75 103 139 181 224 262 304
#     4  12  24  35  50  72 103 142 180 220 265 312
#     4  10  20  33  51  74 100 135 180 225 264 303
#     4  10  21  37  55  76 105 138 174 215 262 316
#     4   9  17  31  53  80 107 136 173 213 255 304
#     4  10  20  35  58  87 114 137 165 205 254 310
#     4   8  16  31  50  72  99 132 170 215 262 306
#
# _framework density 19.437214000000001
#
# number of rings (size 3 to 8) (size 9 to 14) (size 15 to 20)
#    0.000    2.143    0.000    4.714    0.000    9.143 
#    0.000    0.000    0.000    0.857    0.000    0.000 
#    0.000    0.000    0.000    0.000    0.000    0.000 
#
# Total GULP energy -347263.261303 kJ/mol
# GULP energy per Si atom -12402.259332 kJ/mol
# Density = 1.939297 g / cm^3
# Si number density = 19.437214 Si / 1000 Ang^3
#
#
#
# Elastic Constant Matrix: (Units=GPa)
#
#
# Indices 1 2 3 4 5 6 
#
# 1 58.3723 38.1559 15.9418 0.0000 -17.0266 0.0000
# 2 38.1559 110.8089 37.3768 0.0000 -24.2259 0.0000
# 3 15.9418 37.3768 111.2785 0.0000 -19.2280 0.0000
# 4 0.0000 0.0000 0.0000 35.5223 0.0000 -3.0238
# 5 -17.0266 -24.2259 -19.2280 0.0000 19.3440 0.0000
# 6 0.0000 0.0000 0.0000 -3.0238 0.0000 27.2193
#
#
#
# Elastic Compliance Matrix: (Units=1/GPa)
#
#
# Indices 1 2 3 4 5 6 
#
# 1 0.025184 -0.005442 0.001054 0.000000 0.016399 0.000000
# 2 -0.005442 0.013907 -0.002064 0.000000 0.010574 0.000000
# 3 0.001054 -0.002064 0.011159 0.000000 0.009434 0.000000
# 4 0.000000 0.000000 0.000000 0.028420 0.000000 0.003157
# 5 0.016399 0.010574 0.009434 0.000000 0.088751 0.000000
# 6 0.000000 0.000000 0.000000 0.003157 0.000000 0.037089
#
#
# Mechanical properties :
#
#
# Convention : Reuss Voigt Hill
#
# Bulk Modulus (GPa) = 26.77758 51.48987 39.13372
# Shear Modulus (GPa) = 21.75198 29.01613 25.38405
#
# Velocity S-wave (km/s) = 3.34891 3.86789 3.61772
# Velocity P-wave (km/s) = 5.36283 6.81874 6.13413
#
# Compressibility (1/GPa) = 0.03734468
#
# Stress axis : x y z
#
# Youngs Moduli (GPa) = 39.70711 71.90836 89.61349
#
# Poissons Ratio (x) = 0.39133 -0.09442
# Poissons Ratio (y) = 0.21609 0.18498
# Poissons Ratio (z) = -0.04184 0.14844
#
# Static dielectric constant tensor:
#      x y z
#    x 3.270550 0.000000 -0.099650 
#    y 0.000000 3.768500 0.000000 
#    z -0.099650 0.000000 3.704480 
# 
# 
# High freq. dielectric constant tensor:
#      x y z
#    x 1.724850 0.000000 -0.002070 
#    y 0.000000 1.772740 0.000000 
#    z -0.002070 0.000000 1.764980 
# 
# From -- ./inp_files/287312.got.cif
#   From: 2010.06.25/outbox.cif.g09.slc.cpg/sg12_144_cif.got.tgz:287312.got - 2010.06.28 00:19:55.
