data_PCOD8095878
_publ_section_title
;
Structure prediction by ZEFSAII (Michael W. Deem and Ramdas Pophale) SiO2 
 PCOD8095878
Probable space group: C 2/M
;
_chemical_formula_sum "Si O2"
_cell_formula_units_Z 56
_cell_length_a 14.749084
_cell_length_b 9.262517
_cell_length_c 21.159482
_cell_angle_alpha 90.000000
_cell_angle_beta 110.832406
_cell_angle_gamma 90.000000
_cell_volume 2701.695158
_symmetry_space_group_name_H-M "C 2/M"
_symmetry_group_IT_number 12
_symmetry_cell_setting 'monoclinic'
loop_
_space_group_symop_operation_xyz
x,y,z
-x,y,-z
-x,-y,-z
x,-y,z
1/2+x,1/2+y,z
1/2-x,1/2+y,-z
1/2-x,1/2-y,-z
1/2+x,1/2-y,z
loop_
_atom_site_type_symbol
_atom_site_label
_atom_site_fract_x
_atom_site_fract_y
_atom_site_fract_z
Si Si1 0.509706 0.160502 0.310222
Si Si2 0.464200 0.332475 0.181894
Si Si3 0.936390 0.168455 0.924357
Si Si4 0.891333 0.839662 0.555786
Si Si5 0.787898 0.339699 0.287407
Si Si6 0.685998 0.839698 0.567251
Si Si7 0.244598 0.669189 0.159368
O O1 0.528236 0.245784 0.249438
O O2 0.550373 0.246100 0.379785
O O3 0.396161 0.147224 0.290154
O O4 0.556614 0.000000 0.318608
O O5 0.479689 0.500000 0.201123
O O6 0.502396 0.289535 0.122524
O O7 0.349973 0.293933 0.156703
O O8 0.836560 0.257477 0.904619
O O9 0.910009 0.000000 0.918781
O O10 0.000000 0.213302 0.000000
O O11 0.780635 0.853634 0.548571
O O12 0.892932 0.761280 0.487523
O O13 0.937386 0.000000 0.561313
O O14 0.739269 0.500000 0.274610
O O15 0.785967 0.272929 0.357572
O O16 0.730351 0.234271 0.226324
O O17 0.640491 0.000000 0.566423
O O18 0.225842 0.500000 0.158247
#
# Coordination Sequence:
#
# PCOD8095878 Si02
#       7
#     8   8   8   8   8   8   8
#     4  10  20  34  54  79 106 138 182 229 274 328
#     4   9  20  39  59  82 117 153 187 231 284 336
#     4  10  22  40  62  87 115 153 194 225 270 342
#     4  10  20  33  50  74 105 140 178 225 280 329
#     4   9  19  36  56  77 103 142 186 226 272 330
#     4   9  19  35  52  71  99 139 184 225 270 326
#     4  10  21  37  58  87 119 149 185 237 288 328
#
# _framework density 20.727727999999999
#
# number of rings (size 3 to 8) (size 9 to 14) (size 15 to 20)
#    0.000    2.429    0.000    1.286    2.000    4.286 
#    0.000    2.857    0.000    0.000    0.000    0.000 
#    0.000    0.000    0.000    0.000    0.000    0.000 
#
# Total GULP energy -347188.597060 kJ/mol
# GULP energy per Si atom -12399.592752 kJ/mol
# Density = 2.068055 g / cm^3
# Si number density = 20.727728 Si / 1000 Ang^3
#
#
#
# Elastic Constant Matrix: (Units=GPa)
#
#
# Indices 1 2 3 4 5 6 
#
# 1 22.4029 9.5664 4.5086 0.0000 2.4760 0.0000
# 2 9.5664 102.8449 48.5982 0.0000 15.4415 0.0000
# 3 4.5086 48.5982 120.9623 0.0000 8.4491 0.0000
# 4 0.0000 0.0000 0.0000 36.2995 0.0000 3.0590
# 5 2.4760 15.4415 8.4491 0.0000 28.0098 0.0000
# 6 0.0000 0.0000 0.0000 3.0590 0.0000 20.9023
#
#
#
# Elastic Compliance Matrix: (Units=1/GPa)
#
#
# Indices 1 2 3 4 5 6 
#
# 1 0.046575 -0.004062 0.000028 0.000000 -0.001886 0.000000
# 2 -0.004062 0.013170 -0.004758 0.000000 -0.005466 0.000000
# 3 0.000028 -0.004758 0.010210 0.000000 -0.000459 0.000000
# 4 0.000000 0.000000 0.000000 0.027893 0.000000 -0.004082
# 5 -0.001886 -0.005466 -0.000459 0.000000 0.039020 0.000000
# 6 0.000000 0.000000 0.000000 -0.004082 0.000000 0.048439
#
#
# Mechanical properties :
#
#
# Convention : Reuss Voigt Hill
#
# Bulk Modulus (GPa) = 19.09506 41.28407 30.18956
# Shear Modulus (GPa) = 22.69133 29.27812 25.98473
#
# Velocity S-wave (km/s) = 3.31226 3.76241 3.54449
# Velocity P-wave (km/s) = 4.88472 6.23177 5.59890
#
# Compressibility (1/GPa) = 0.05236957
#
# Stress axis : x y z
#
# Youngs Moduli (GPa) = 21.47091 75.92796 97.94590
#
# Poissons Ratio (x) = 0.30844 -0.00272
# Poissons Ratio (y) = 0.08722 0.46604
# Poissons Ratio (z) = -0.00060 0.36128
#
# Static dielectric constant tensor:
#      x y z
#    x 3.593760 0.000000 -0.050030 
#    y 0.000000 4.056340 0.000000 
#    z -0.050030 0.000000 3.812260 
# 
# 
# High freq. dielectric constant tensor:
#      x y z
#    x 1.798550 0.000000 -0.001290 
#    y 0.000000 1.810990 0.000000 
#    z -0.001290 0.000000 1.811840 
# 
# From -- ./inp_files/338151.got.cif
#   From: 2010.06.25/outbox.cif.g09.slc.cpg/sg12_170_cif.got.tgz:338151.got - 2010.06.28 00:19:55.
