data_PCOD8095844
_publ_section_title
;
Structure prediction by ZEFSAII (Michael W. Deem and Ramdas Pophale) SiO2 
 PCOD8095844
Probable space group: C 2/M
;
_chemical_formula_sum "Si O2"
_cell_formula_units_Z 48
_cell_length_a 22.068155
_cell_length_b 8.996515
_cell_length_c 28.678906
_cell_angle_alpha 90.000000
_cell_angle_beta 28.797876
_cell_angle_gamma 90.000000
_cell_volume 2742.828564
_symmetry_space_group_name_H-M "C 2/M"
_symmetry_group_IT_number 12
_symmetry_cell_setting 'monoclinic'
loop_
_space_group_symop_operation_xyz
x,y,z
-x,y,-z
-x,-y,-z
x,-y,z
1/2+x,1/2+y,z
1/2-x,1/2+y,-z
1/2-x,1/2-y,-z
1/2+x,1/2-y,z
loop_
_atom_site_type_symbol
_atom_site_label
_atom_site_fract_x
_atom_site_fract_y
_atom_site_fract_z
Si Si1 0.355272 0.674797 0.093717
Si Si2 0.790203 0.826021 0.726257
Si Si3 0.295928 0.173060 0.039602
Si Si4 0.195620 0.673635 0.685613
Si Si5 0.952652 0.171654 0.480336
Si Si6 0.941698 0.827366 0.862923
O O1 0.340210 0.500000 0.097468
O O2 0.285882 0.725846 0.186934
O O3 0.290969 0.754903 0.093549
O O4 0.500000 0.722850 0.000000
O O5 0.730557 0.800640 0.715843
O O6 0.936949 0.767057 0.628134
O O7 0.782948 0.000000 0.744882
O O8 0.161747 0.204658 0.106610
O O9 0.325674 0.000000 0.023937
O O10 0.407042 0.244757 0.934204
O O11 0.170735 0.500000 0.693058
O O12 0.309618 0.735690 0.575074
O O13 0.072740 0.766189 0.754875
O O14 0.000000 0.197925 0.500000
O O15 0.940713 0.000000 0.477237
O O16 0.953233 0.000000 0.866883
#
# Coordination Sequence:
#
# PCOD8095844 Si02
#       6
#     8   8   8   8   8   8
#     4  11  23  35  48  70 100 128 155 194 241 284
#     4   9  17  30  49  72  99 130 162 195 231 278
#     4  10  21  36  52  69  92 127 165 195 231 282
#     4   9  16  28  50  76  99 127 161 193 232 283
#     4   7  12  25  45  70  97 124 158 197 231 269
#     4  10  20  33  50  73  99 123 153 199 243 277
#
# _framework density 17.500181999999999
#
# number of rings (size 3 to 8) (size 9 to 14) (size 15 to 20)
#    0.000    2.667    0.000    4.500    0.000    6.667 
#    0.000    0.833    0.000    4.000    0.000    0.000 
#    0.000    0.000    0.000    0.000    0.000    0.000 
#
# Total GULP energy -297413.098924 kJ/mol
# GULP energy per Si atom -12392.212455 kJ/mol
# Density = 1.746035 g / cm^3
# Si number density = 17.500182 Si / 1000 Ang^3
#
#
#
# Elastic Constant Matrix: (Units=GPa)
#
#
# Indices 1 2 3 4 5 6 
#
# 1 48.3616 33.5138 35.8234 0.0001 -2.6790 0.0001
# 2 33.5138 66.4836 47.5909 0.0008 -6.4621 -0.0010
# 3 35.8234 47.5909 157.1770 0.0016 -18.3672 0.0002
# 4 0.0001 0.0008 0.0016 22.6189 -0.0002 -3.4368
# 5 -2.6790 -6.4621 -18.3672 -0.0002 24.1848 -0.0003
# 6 0.0001 -0.0010 0.0002 -3.4368 -0.0003 21.0749
#
#
#
# Elastic Compliance Matrix: (Units=1/GPa)
#
#
# Indices 1 2 3 4 5 6 
#
# 1 0.033150 -0.014479 -0.003505 0.000000 -0.002859 -0.000001
# 2 -0.014479 0.025541 -0.004196 0.000000 0.002034 0.000001
# 3 -0.003505 -0.004196 0.009059 0.000000 0.005371 0.000000
# 4 0.000000 0.000000 0.000000 0.045334 0.000000 0.007393
# 5 -0.002859 0.002034 0.005371 0.000000 0.045654 0.000001
# 6 -0.000001 0.000001 0.000000 0.007393 0.000001 0.048655
#
#
# Mechanical properties :
#
#
# Convention : Reuss Voigt Hill
#
# Bulk Modulus (GPa) = 42.75405 56.20868 49.48136
# Shear Modulus (GPa) = 19.26409 23.91534 21.58971
#
# Velocity S-wave (km/s) = 3.32142 3.70073 3.51620
# Velocity P-wave (km/s) = 6.26041 7.10276 6.69485
#
# Compressibility (1/GPa) = 0.02338960
#
# Stress axis : x y z
#
# Youngs Moduli (GPa) = 30.16636 39.15241 110.38479
#
# Poissons Ratio (x) = 0.56689 0.38694
# Poissons Ratio (y) = 0.43678 0.46315
# Poissons Ratio (z) = 0.10575 0.16428
#
# Static dielectric constant tensor:
#      x y z
#    x 2.968830 0.000000 -0.185650 
#    y 0.000000 3.107340 0.000000 
#    z -0.185650 0.000000 3.690380 
# 
# 
# High freq. dielectric constant tensor:
#      x y z
#    x 1.643420 0.000000 -0.014850 
#    y 0.000000 1.663370 0.000000 
#    z -0.014850 0.000000 1.694230 
# 
# From -- ./inp_files/365347.got.cif
#   From: 2010.06.25/outbox.cif.g09.slc.cpg/sg12_183_cif.got.tgz:365347.got - 2010.06.28 00:19:55.
