data_PCOD8095206
_publ_section_title
;
Structure prediction by ZEFSAII (Michael W. Deem and Ramdas Pophale) SiO2 
 PCOD8095206
Probable space group: C 2/M
;
_chemical_formula_sum "Si O2"
_cell_formula_units_Z 64
_cell_length_a 19.797302
_cell_length_b 9.154315
_cell_length_c 22.546095
_cell_angle_alpha 90.000000
_cell_angle_beta 116.836788
_cell_angle_gamma 90.000000
_cell_volume 3645.962578
_symmetry_space_group_name_H-M "C 2/M"
_symmetry_group_IT_number 12
_symmetry_cell_setting 'monoclinic'
loop_
_space_group_symop_operation_xyz
x,y,z
-x,y,-z
-x,-y,-z
x,-y,z
1/2+x,1/2+y,z
1/2-x,1/2+y,-z
1/2-x,1/2-y,-z
1/2+x,1/2-y,z
loop_
_atom_site_type_symbol
_atom_site_label
_atom_site_fract_x
_atom_site_fract_y
_atom_site_fract_z
Si Si1 0.757969 0.673157 0.685301
Si Si2 0.358813 0.670452 0.077639
Si Si3 0.900232 0.326969 0.670084
Si Si4 0.806942 0.329151 0.943954
Si Si5 0.503198 0.172404 0.180488
Si Si6 0.051329 0.673239 0.436539
Si Si7 0.110549 0.327428 0.583752
Si Si8 0.147910 0.327293 0.166741
O O1 0.747328 0.500000 0.680513
O O2 0.817156 0.724050 0.658024
O O3 0.678645 0.748218 0.642926
O O4 0.790150 0.728828 0.761301
O O5 0.373520 0.500000 0.074785
O O6 0.282030 0.701291 0.083397
O O7 0.426142 0.740138 0.141813
O O8 0.355561 0.744167 0.011950
O O9 0.901210 0.500000 0.666802
O O10 0.963500 0.278828 0.742697
O O11 0.918151 0.257208 0.612796
O O12 0.825604 0.500000 0.957826
O O13 0.832637 0.265092 0.890491
O O14 0.563367 0.218181 0.153272
O O15 0.486774 0.000000 0.171714
O O16 0.052062 0.500000 0.433553
O O17 0.104627 0.722274 0.512442
O O18 0.965402 0.724510 0.413000
O O19 0.122040 0.500000 0.593233
O O20 0.153365 0.500000 0.167843
#
# Coordination Sequence:
#
# PCOD8095206 Si02
#       8
#     8   8   8   8   8   8   8   8
#     4   9  17  30  48  69  92 116 147 190 231 264
#     4  10  20  32  47  70  97 119 143 183 231 268
#     4   8  15  29  48  67  88 119 156 188 219 262
#     4   9  18  34  52  66  87 122 157 183 213 265
#     4   9  17  31  51  70  88 116 155 190 219 263
#     4   8  15  29  46  64  90 123 156 186 218 264
#     4   9  17  29  46  67  91 121 154 186 222 267
#     4   8  16  32  51  68  87 118 157 187 216 263
#
# _framework density 17.553663
#
# number of rings (size 3 to 8) (size 9 to 14) (size 15 to 20)
#    0.000    3.250    0.000    2.625    0.000    2.500 
#    0.000    7.500    0.000    1.500    0.000    0.000 
#    0.000    0.000    0.000    0.000    0.000    0.000 
#
# Total GULP energy -396662.449448 kJ/mol
# GULP energy per Si atom -12395.701545 kJ/mol
# Density = 1.751371 g / cm^3
# Si number density = 17.553663 Si / 1000 Ang^3
#
#
#
# Elastic Constant Matrix: (Units=GPa)
#
#
# Indices 1 2 3 4 5 6 
#
# 1 40.1737 9.1129 14.2374 0.0000 -9.4726 0.0000
# 2 9.1129 30.1831 11.8394 0.0000 4.9223 0.0000
# 3 14.2374 11.8394 47.5441 0.0000 -5.7404 0.0000
# 4 0.0000 0.0000 0.0000 25.4053 0.0000 10.5173
# 5 -9.4726 4.9223 -5.7404 0.0000 43.0858 0.0000
# 6 0.0000 0.0000 0.0000 10.5173 0.0000 21.8689
#
#
#
# Elastic Compliance Matrix: (Units=1/GPa)
#
#
# Indices 1 2 3 4 5 6 
#
# 1 0.030516 -0.007813 -0.006378 0.000000 0.006752 0.000000
# 2 -0.007813 0.040047 -0.008530 0.000000 -0.007429 0.000000
# 3 -0.006378 -0.008530 0.025424 0.000000 0.002960 0.000000
# 4 0.000000 0.000000 0.000000 0.049146 0.000000 -0.023636
# 5 0.006752 -0.007429 0.002960 0.000000 0.025937 0.000000
# 6 0.000000 0.000000 0.000000 -0.023636 0.000000 0.057094
#
#
# Mechanical properties :
#
#
# Convention : Reuss Voigt Hill
#
# Bulk Modulus (GPa) = 19.78348 20.92004 20.35176
# Shear Modulus (GPa) = 17.21433 23.58610 20.40022
#
# Velocity S-wave (km/s) = 3.13496 3.66957 3.41275
# Velocity P-wave (km/s) = 4.93951 5.46790 5.21041
#
# Compressibility (1/GPa) = 0.05054723
#
# Stress axis : x y z
#
# Youngs Moduli (GPa) = 32.76925 24.97036 39.33237
#
# Poissons Ratio (x) = 0.19510 0.25084
# Poissons Ratio (y) = 0.25603 0.33550
# Poissons Ratio (z) = 0.20899 0.21300
#
# Static dielectric constant tensor:
#      x y z
#    x 3.516640 0.000000 -0.324150 
#    y 0.000000 2.835850 0.000000 
#    z -0.324150 0.000000 3.544030 
# 
# 
# High freq. dielectric constant tensor:
#      x y z
#    x 1.681460 0.000000 -0.002760 
#    y 0.000000 1.636800 0.000000 
#    z -0.002760 0.000000 1.685860 
# 
# From -- ./inp_files/345582.got.cif
#   From: 2010.06.25/outbox.cif.g09.slc.cpg/sg12_173_cif.got.tgz:345582.got - 2010.06.28 00:19:55.
