data_PCOD8095129
_publ_section_title
;
Structure prediction by ZEFSAII (Michael W. Deem and Ramdas Pophale) SiO2 
 PCOD8095129
Probable space group: C 2/M
;
_chemical_formula_sum "Si O2"
_cell_formula_units_Z 56
_cell_length_a 18.473738
_cell_length_b 9.368221
_cell_length_c 17.980571
_cell_angle_alpha 90.000000
_cell_angle_beta 84.180870
_cell_angle_gamma 90.000000
_cell_volume 3095.791070
_symmetry_space_group_name_H-M "C 2/M"
_symmetry_group_IT_number 12
_symmetry_cell_setting 'monoclinic'
loop_
_space_group_symop_operation_xyz
x,y,z
-x,y,-z
-x,-y,-z
x,-y,z
1/2+x,1/2+y,z
1/2-x,1/2+y,-z
1/2-x,1/2-y,-z
1/2+x,1/2-y,z
loop_
_atom_site_type_symbol
_atom_site_label
_atom_site_fract_x
_atom_site_fract_y
_atom_site_fract_z
Si Si1 0.851578 0.831722 0.858935
Si Si2 0.166357 0.838993 0.582917
Si Si3 0.154196 0.842024 0.307101
Si Si4 0.080221 0.332619 0.019050
Si Si5 0.660198 0.160756 0.443057
Si Si6 0.826943 0.659433 0.280060
Si Si7 0.687882 0.169725 0.880826
O O1 0.873173 0.794627 0.771680
O O2 0.769994 0.774747 0.885011
O O3 0.857251 0.000000 0.873081
O O4 0.907640 0.748768 0.905193
O O5 0.253091 0.839897 0.570257
O O6 0.133975 0.751398 0.516841
O O7 0.139026 0.764353 0.661799
O O8 0.135832 0.000000 0.583756
O O9 0.126380 0.731196 0.372133
O O10 0.240782 0.848810 0.297958
O O11 0.124159 0.000000 0.329662
O O12 0.091374 0.500000 0.031315
O O13 0.136741 0.272790 0.951812
O O14 0.000000 0.296758 0.000000
O O15 0.630151 0.000000 0.453285
O O16 0.859537 0.500000 0.287685
O O17 0.844006 0.721382 0.195754
O O18 0.689218 0.000000 0.877624
#
# Coordination Sequence:
#
# PCOD8095129 Si02
#       7
#     8   8   8   8   8   8   8
#     4   9  17  30  48  66  85 114 151 187 222 262
#     4   9  15  21  30  48  77 109 139 172 209 248
#     4   8  14  24  37  54  76 103 137 177 217 251
#     4  10  20  32  46  66  92 118 144 179 224 270
#     4   9  15  21  31  49  75 109 143 170 203 250
#     4   8  13  23  38  53  73 104 141 177 211 251
#     4   8  15  29  47  65  86 115 150 185 222 263
#
# _framework density 18.089075000000001
#
# number of rings (size 3 to 8) (size 9 to 14) (size 15 to 20)
#    0.000    3.286    0.000    3.000    0.000    4.286 
#    0.000    2.857    0.000    0.000    0.000    0.000 
#    0.000    1.143    0.000   13.143    0.000   16.143 
#
# Total GULP energy -347064.322050 kJ/mol
# GULP energy per Si atom -12395.154359 kJ/mol
# Density = 1.804790 g / cm^3
# Si number density = 18.089075 Si / 1000 Ang^3
#
#
#
# Elastic Constant Matrix: (Units=GPa)
#
#
# Indices 1 2 3 4 5 6 
#
# 1 28.3931 21.1690 30.0672 0.0000 11.0321 0.0000
# 2 21.1690 106.4353 82.3304 0.0000 12.6311 0.0000
# 3 30.0672 82.3304 166.5619 0.0000 20.5047 0.0000
# 4 0.0000 0.0000 0.0000 35.0661 0.0000 4.6520
# 5 11.0321 12.6311 20.5047 0.0000 7.7724 0.0000
# 6 0.0000 0.0000 0.0000 4.6520 0.0000 9.0778
#
#
#
# Elastic Compliance Matrix: (Units=1/GPa)
#
#
# Indices 1 2 3 4 5 6 
#
# 1 0.079347 -0.003467 0.000831 0.000000 -0.109183 0.000000
# 2 -0.003467 0.015643 -0.006787 0.000000 -0.002596 0.000000
# 3 0.000831 -0.006787 0.011842 0.000000 -0.021391 0.000000
# 4 0.000000 0.000000 0.000000 0.030598 0.000000 -0.015680
# 5 -0.109183 -0.002596 -0.021391 0.000000 0.344283 0.000000
# 6 0.000000 0.000000 0.000000 -0.015680 0.000000 0.118193
#
#
# Mechanical properties :
#
#
# Convention : Reuss Voigt Hill
#
# Bulk Modulus (GPa) = 11.36541 63.16931 37.26736
# Shear Modulus (GPa) = 7.71510 21.57151 14.64330
#
# Velocity S-wave (km/s) = 2.06744 3.45703 2.84828
# Velocity P-wave (km/s) = 3.46349 7.13665 5.60926
#
# Compressibility (1/GPa) = 0.08798625
#
# Stress axis : x y z
#
# Youngs Moduli (GPa) = 12.60283 63.92774 84.44819
#
# Poissons Ratio (x) = 0.22167 -0.07021
# Poissons Ratio (y) = 0.04370 0.57312
# Poissons Ratio (z) = -0.01048 0.43385
#
# Static dielectric constant tensor:
#      x y z
#    x 2.709560 0.000000 -0.067770 
#    y 0.000000 3.328100 0.000000 
#    z -0.067770 0.000000 3.678580 
# 
# 
# High freq. dielectric constant tensor:
#      x y z
#    x 1.625550 0.000000 0.001610 
#    y 0.000000 1.687960 0.000000 
#    z 0.001610 0.000000 1.719700 
# 
# From -- ./inp_files/280401.got.cif
#   From: 2010.06.25/outbox.cif.g09.slc.cpg/sg12_141_cif.got.tgz:280401.got - 2010.06.28 00:19:55.
