data_PCOD8095452
_publ_section_title
;
Structure prediction by ZEFSAII (Michael W. Deem and Ramdas Pophale) SiO2 
 PCOD8095452
Probable space group: C 2/M
;
_chemical_formula_sum "Si O2"
_cell_formula_units_Z 64
_cell_length_a 29.848621
_cell_length_b 9.697659
_cell_length_c 16.938817
_cell_angle_alpha 90.000000
_cell_angle_beta 43.939712
_cell_angle_gamma 90.000000
_cell_volume 3402.293846
_symmetry_space_group_name_H-M "C 2/M"
_symmetry_group_IT_number 12
_symmetry_cell_setting 'monoclinic'
loop_
_space_group_symop_operation_xyz
x,y,z
-x,y,-z
-x,-y,-z
x,-y,z
1/2+x,1/2+y,z
1/2-x,1/2+y,-z
1/2-x,1/2-y,-z
1/2+x,1/2-y,z
loop_
_atom_site_type_symbol
_atom_site_label
_atom_site_fract_x
_atom_site_fract_y
_atom_site_fract_z
Si Si1 0.861049 0.161244 0.337956
Si Si2 0.707322 0.849790 0.968351
Si Si3 0.182016 0.341217 0.175501
Si Si4 0.609843 0.150854 0.955101
Si Si5 0.707336 0.162410 0.697167
Si Si6 0.071866 0.661884 0.434950
Si Si7 0.996681 0.151954 0.097246
Si Si8 0.146273 0.839847 0.469046
O O1 0.804890 0.251436 0.367592
O O2 0.866580 0.195005 0.423169
O O3 0.927998 0.207701 0.213116
O O4 0.845633 0.000000 0.343280
O O5 0.677502 0.798216 0.089311
O O6 0.740380 0.000000 0.938000
O O7 0.759113 0.746966 0.863810
O O8 0.648655 0.864391 0.985102
O O9 0.199263 0.500000 0.166307
O O10 0.115896 0.304041 0.303274
O O11 0.654683 0.211009 0.828445
O O12 0.583761 0.000000 0.962161
O O13 0.551795 0.246671 0.055714
O O14 0.778331 0.194648 0.642469
O O15 0.702535 0.000000 0.683601
O O16 0.073290 0.500000 0.455512
O O17 0.098817 0.747093 0.475677
O O18 0.000000 0.707951 0.500000
O O19 0.009023 0.000000 0.117620
O O20 0.000000 0.146981 0.000000
O O21 0.131421 0.000000 0.469503
#
# Coordination Sequence:
#
# PCOD8095452 Si02
#       8
#     8   8   8   8   8   8   8   8
#     4  10  21  37  56  79 109 145 184 224 267 317
#     4   9  18  33  53  79 109 139 174 219 267 313
#     4   9  18  34  55  78 106 139 175 217 266 318
#     4  10  20  32  51  79 108 140 177 216 261 313
#     4  10  20  34  54  81 112 143 179 223 269 317
#     4  10  22  39  58  81 110 143 181 224 271 325
#     4  10  20  35  52  72 103 142 177 212 257 308
#     4  10  22  39  58  82 109 139 181 229 272 320
#
# _framework density 18.810839000000001
#
# number of rings (size 3 to 8) (size 9 to 14) (size 15 to 20)
#    0.000    2.250    1.250    1.125    0.000    5.000 
#    0.000    1.250    0.000    0.000    0.000    0.000 
#    0.000    0.000    0.000    0.000    0.000    0.000 
#
# Total GULP energy -396687.176626 kJ/mol
# GULP energy per Si atom -12396.474270 kJ/mol
# Density = 1.876802 g / cm^3
# Si number density = 18.810839 Si / 1000 Ang^3
#
#
#
# Elastic Constant Matrix: (Units=GPa)
#
#
# Indices 1 2 3 4 5 6 
#
# 1 110.5481 59.9669 39.9406 -0.0013 -7.9196 0.0002
# 2 59.9669 71.7957 35.2013 -0.0068 -9.1734 -0.0001
# 3 39.9406 35.2013 77.2793 -0.0028 -7.1110 0.0000
# 4 -0.0013 -0.0068 -0.0028 350.6638 0.0000 -21.0301
# 5 -7.9196 -9.1734 -7.1110 0.0000 26.3823 -0.0001
# 6 0.0002 -0.0001 0.0000 -21.0301 -0.0001 36.0518
#
#
#
# Elastic Compliance Matrix: (Units=1/GPa)
#
#
# Indices 1 2 3 4 5 6 
#
# 1 0.017062 -0.012797 -0.003002 0.000000 -0.000137 0.000000
# 2 -0.012797 0.027983 -0.005733 0.000000 0.004343 0.000000
# 3 -0.003002 -0.005733 0.017265 0.000000 0.001759 0.000000
# 4 0.000000 0.000000 0.000000 0.002955 0.000000 0.001724
# 5 -0.000137 0.004343 0.001759 0.000000 0.039847 0.000000
# 6 0.000000 0.000000 0.000000 0.001724 0.000000 0.028743
#
#
# Mechanical properties :
#
#
# Convention : Reuss Voigt Hill
#
# Bulk Modulus (GPa) = 51.95732 58.87120 55.41426
# Shear Modulus (GPa) = 27.27263 90.92054 59.09658
#
# Velocity S-wave (km/s) = 3.81180 6.95982 5.61110
# Velocity P-wave (km/s) = 6.85959 9.79540 8.45588
#
# Compressibility (1/GPa) = 0.01924657
#
# Stress axis : x y z
#
# Youngs Moduli (GPa) = 58.60903 35.73658 57.92141
#
# Poissons Ratio (x) = 0.45731 0.17388
# Poissons Ratio (y) = 0.75001 0.33205
# Poissons Ratio (z) = 0.17594 0.20487
#
# Static dielectric constant tensor:
#      x y z
#    x 3.297190 0.000000 -0.030060 
#    y 0.000000 3.790260 0.000000 
#    z -0.030060 0.000000 3.644490 
# 
# 
# High freq. dielectric constant tensor:
#      x y z
#    x 1.719530 0.000000 0.004250 
#    y 0.000000 1.728660 0.000000 
#    z 0.004250 0.000000 1.738680 
# 
# From -- ./inp_files/295592.got.cif
#   From: 2010.06.25/outbox.cif.g09.slc.cpg/sg12_148_cif.got.tgz:295592.got - 2010.06.28 00:19:55.
