data_PCOD8095011
_publ_section_title
;
Structure prediction by ZEFSAII (Michael W. Deem and Ramdas Pophale) SiO2 
 PCOD8095011
Probable space group: C 2/M
;
_chemical_formula_sum "Si O2"
_cell_formula_units_Z 64
_cell_length_a 24.251571
_cell_length_b 9.534185
_cell_length_c 18.178067
_cell_angle_alpha 90.000000
_cell_angle_beta 116.869776
_cell_angle_gamma 90.000000
_cell_volume 3749.329135
_symmetry_space_group_name_H-M "C 2/M"
_symmetry_group_IT_number 12
_symmetry_cell_setting 'monoclinic'
loop_
_space_group_symop_operation_xyz
x,y,z
-x,y,-z
-x,-y,-z
x,-y,z
1/2+x,1/2+y,z
1/2-x,1/2+y,-z
1/2-x,1/2-y,-z
1/2+x,1/2-y,z
loop_
_atom_site_type_symbol
_atom_site_label
_atom_site_fract_x
_atom_site_fract_y
_atom_site_fract_z
Si Si1 0.165934 0.659826 0.497929
Si Si2 0.356433 0.338356 0.652107
Si Si3 0.477342 0.840097 0.564051
Si Si4 0.994628 0.837788 0.711574
Si Si5 0.381161 0.337357 0.134405
Si Si6 0.697267 0.837702 0.007526
Si Si7 0.276697 0.341455 0.188589
Si Si8 0.247085 0.337771 0.683325
O O1 0.183455 0.500000 0.489073
O O2 0.177608 0.752632 0.432836
O O3 0.095636 0.674548 0.479685
O O4 0.206683 0.715526 0.590113
O O5 0.351569 0.500000 0.625794
O O6 0.428168 0.293999 0.706229
O O7 0.319273 0.311926 0.705761
O O8 0.500000 0.779940 0.500000
O O9 0.508710 0.749761 0.646981
O O10 0.499242 0.000000 0.588164
O O11 0.047954 0.805446 0.802582
O O12 0.995379 0.000000 0.689434
O O13 0.371089 0.500000 0.106779
O O14 0.335802 0.297588 0.174724
O O15 0.366539 0.238970 0.054581
O O16 0.712514 0.828762 0.103592
O O17 0.696919 0.000000 0.981382
O O18 0.750000 0.750000 0.000000
O O19 0.285662 0.500000 0.221673
O O20 0.272376 0.243828 0.256168
O O21 0.233575 0.500000 0.691207
#
# Coordination Sequence:
#
# PCOD8095011 Si02
#       8
#     8   8   8   8   8   8   8   8
#     4   9  18  31  45  65  91 122 161 199 234 274
#     4   9  18  33  49  67  91 122 161 200 236 274
#     4   9  18  30  43  62  94 128 156 191 233 279
#     4   9  18  32  49  68  92 122 157 196 234 275
#     4   9  18  32  50  73  98 123 155 193 231 282
#     4   9  17  31  50  72  99 127 154 188 230 281
#     4   9  19  32  46  70  99 121 147 185 232 280
#     4  10  20  31  47  70  94 121 158 199 235 278
#
# _framework density 17.069721000000001
#
# number of rings (size 3 to 8) (size 9 to 14) (size 15 to 20)
#    0.000    2.875    0.000    1.500    1.750    4.250 
#    0.000    0.000    0.000    0.750    0.000    5.250 
#    0.000    0.000    0.000    0.000    0.000    0.000 
#
# Total GULP energy -396673.570707 kJ/mol
# GULP energy per Si atom -12396.049085 kJ/mol
# Density = 1.703087 g / cm^3
# Si number density = 17.069721 Si / 1000 Ang^3
#
#
#
# Elastic Constant Matrix: (Units=GPa)
#
#
# Indices 1 2 3 4 5 6 
#
# 1 41.7540 21.1961 31.7553 0.0000 3.2380 0.0000
# 2 21.1961 63.8675 44.1247 0.0000 3.8372 0.0000
# 3 31.7553 44.1247 88.5655 0.0000 16.3986 0.0000
# 4 0.0000 0.0000 0.0000 36.0613 0.0000 -3.1522
# 5 3.2380 3.8372 16.3986 0.0000 20.8779 0.0000
# 6 0.0000 0.0000 0.0000 -3.1522 0.0000 18.6871
#
#
#
# Elastic Compliance Matrix: (Units=1/GPa)
#
#
# Indices 1 2 3 4 5 6 
#
# 1 0.033981 -0.003939 -0.010976 0.000000 0.004075 0.000000
# 2 -0.003939 0.024947 -0.012031 0.000000 0.005475 0.000000
# 3 -0.010976 -0.012031 0.023984 0.000000 -0.014925 0.000000
# 4 0.000000 0.000000 0.000000 0.028146 0.000000 0.004748
# 5 0.004075 0.005475 -0.014925 0.000000 0.057982 0.000000
# 6 0.000000 0.000000 0.000000 0.004748 0.000000 0.054314
#
#
# Mechanical properties :
#
#
# Convention : Reuss Voigt Hill
#
# Bulk Modulus (GPa) = 34.45800 43.14879 38.80339
# Shear Modulus (GPa) = 17.42657 21.59934 19.51296
#
# Velocity S-wave (km/s) = 3.19863 3.56105 3.38469
# Velocity P-wave (km/s) = 5.81997 6.49930 6.16900
#
# Compressibility (1/GPa) = 0.02902084
#
# Stress axis : x y z
#
# Youngs Moduli (GPa) = 29.42817 40.08421 41.69506
#
# Poissons Ratio (x) = 0.15791 0.45763
# Poissons Ratio (y) = 0.11593 0.50161
# Poissons Ratio (z) = 0.32300 0.48223
#
# Static dielectric constant tensor:
#      x y z
#    x 3.145950 0.000000 0.232430 
#    y 0.000000 3.317300 0.000000 
#    z 0.232430 0.000000 3.363220 
# 
# 
# High freq. dielectric constant tensor:
#      x y z
#    x 1.641460 0.000000 0.015300 
#    y 0.000000 1.660690 0.000000 
#    z 0.015300 0.000000 1.649530 
# 
# From -- ./inp_files/323786.got.cif
#   From: 2010.06.25/outbox.cif.g09.slc.cpg/sg12_162_cif.got.tgz:323786.got - 2010.06.28 00:19:55.
