data_PCOD8095963
_publ_section_title
;
Structure prediction by ZEFSAII (Michael W. Deem and Ramdas Pophale) SiO2 
 PCOD8095963
Probable space group: C 2/M
;
_chemical_formula_sum "Si O2"
_cell_formula_units_Z 56
_cell_length_a 19.051665
_cell_length_b 9.234112
_cell_length_c 22.621571
_cell_angle_alpha 90.000000
_cell_angle_beta 127.819402
_cell_angle_gamma 90.000000
_cell_volume 3143.757372
_symmetry_space_group_name_H-M "C 2/M"
_symmetry_group_IT_number 12
_symmetry_cell_setting 'monoclinic'
loop_
_space_group_symop_operation_xyz
x,y,z
-x,y,-z
-x,-y,-z
x,-y,z
1/2+x,1/2+y,z
1/2-x,1/2+y,-z
1/2-x,1/2-y,-z
1/2+x,1/2-y,z
loop_
_atom_site_type_symbol
_atom_site_label
_atom_site_fract_x
_atom_site_fract_y
_atom_site_fract_z
Si Si1 0.363617 0.332040 0.713125
Si Si2 0.173361 0.333137 0.993903
Si Si3 0.942566 0.167971 0.145505
Si Si4 0.795012 0.332085 0.281993
Si Si5 0.288884 0.663949 0.159375
Si Si6 0.244365 0.668985 0.435643
Si Si7 0.903590 0.832282 0.430347
O O1 0.361373 0.500000 0.692893
O O2 0.461024 0.282381 0.783045
O O3 0.297783 0.301298 0.733397
O O4 0.337044 0.235545 0.643321
O O5 0.172921 0.500000 0.974009
O O6 0.080852 0.258649 0.926212
O O7 0.250000 0.250000 0.000000
O O8 0.195740 0.319633 0.075240
O O9 0.872446 0.202172 0.160965
O O10 0.941208 0.000000 0.127324
O O11 0.818041 0.500000 0.291369
O O12 0.786967 0.274108 0.211935
O O13 0.875401 0.254664 0.357580
O O14 0.298310 0.500000 0.188063
O O15 0.226283 0.500000 0.436680
O O16 0.250000 0.750000 0.500000
O O17 0.336311 0.696972 0.449140
O O18 0.000000 0.776373 0.500000
O O19 0.906309 0.000000 0.413999
#
# Coordination Sequence:
#
# PCOD8095963 Si02
#       7
#     8   8   8   8   8   8   8
#     4   9  19  36  53  71  99 132 165 201 244 292
#     4   9  17  30  49  73 100 130 164 204 248 289
#     4   9  18  33  53  74  97 129 167 206 245 287
#     4  10  20  33  51  74 100 130 161 200 247 289
#     4   9  18  32  50  72  98 129 163 199 241 290
#     4  10  20  34  53  75  99 129 163 201 245 292
#     4   9  19  36  55  72  94 129 167 199 238 290
#
# _framework density 17.813078999999998
#
# number of rings (size 3 to 8) (size 9 to 14) (size 15 to 20)
#    0.000    2.714    0.000    2.143    0.000    6.000 
#    0.000    6.429    0.000    4.286    0.000    0.000 
#    0.000    0.000    0.000    0.000    0.000    0.000 
#
# Total GULP energy -347183.315673 kJ/mol
# GULP energy per Si atom -12399.404131 kJ/mol
# Density = 1.777254 g / cm^3
# Si number density = 17.813079 Si / 1000 Ang^3
#
#
#
# Elastic Constant Matrix: (Units=GPa)
#
#
# Indices 1 2 3 4 5 6 
#
# 1 48.8737 38.2496 64.2870 0.0000 3.2137 0.0000
# 2 38.2496 99.9579 86.1619 0.0000 -3.1989 0.0000
# 3 64.2870 86.1619 174.2783 0.0000 10.0857 0.0000
# 4 0.0000 0.0000 0.0000 41.3024 0.0000 -3.9470
# 5 3.2137 -3.1989 10.0857 0.0000 30.4675 0.0000
# 6 0.0000 0.0000 0.0000 -3.9470 0.0000 25.9508
#
#
#
# Elastic Compliance Matrix: (Units=1/GPa)
#
#
# Indices 1 2 3 4 5 6 
#
# 1 0.040942 -0.004700 -0.012744 0.000000 -0.000593 0.000000
# 2 -0.004700 0.018682 -0.007794 0.000000 0.005037 0.000000
# 3 -0.012744 -0.007794 0.014541 0.000000 -0.004287 0.000000
# 4 0.000000 0.000000 0.000000 0.024569 0.000000 0.003737
# 5 -0.000593 0.005037 -0.004287 0.000000 0.034833 0.000000
# 6 0.000000 0.000000 0.000000 0.003737 0.000000 0.039103
#
#
# Mechanical properties :
#
#
# Convention : Reuss Voigt Hill
#
# Bulk Modulus (GPa) = 42.21662 77.83408 60.02535
# Shear Modulus (GPa) = 21.64101 28.50490 25.07295
#
# Velocity S-wave (km/s) = 3.48931 4.00462 3.75581
# Velocity P-wave (km/s) = 6.32337 8.07294 7.25112
#
# Compressibility (1/GPa) = 0.02368735
#
# Stress axis : x y z
#
# Youngs Moduli (GPa) = 24.42471 53.52620 68.77327
#
# Poissons Ratio (x) = 0.25159 0.87648
# Poissons Ratio (y) = 0.11480 0.53603
# Poissons Ratio (z) = 0.31128 0.41719
#
# Static dielectric constant tensor:
#      x y z
#    x 3.095340 0.000000 0.137280 
#    y 0.000000 3.414430 0.000000 
#    z 0.137280 0.000000 3.690880 
# 
# 
# High freq. dielectric constant tensor:
#      x y z
#    x 1.661950 0.000000 0.002380 
#    y 0.000000 1.696200 0.000000 
#    z 0.002380 0.000000 1.702520 
# 
# From -- ./inp_files/314389.got.cif
#   From: 2010.06.25/outbox.cif.g09.slc.cpg/sg12_158_cif.got.tgz:314389.got - 2010.06.28 00:19:55.
