data_PCOD8095131
_publ_section_title
;
Structure prediction by ZEFSAII (Michael W. Deem and Ramdas Pophale) SiO2 
 PCOD8095131
Probable space group: C 2/M
;
_chemical_formula_sum "Si O2"
_cell_formula_units_Z 64
_cell_length_a 23.130394
_cell_length_b 9.357844
_cell_length_c 17.681516
_cell_angle_alpha 90.000000
_cell_angle_beta 80.965842
_cell_angle_gamma 90.000000
_cell_volume 3779.698602
_symmetry_space_group_name_H-M "C 2/M"
_symmetry_group_IT_number 12
_symmetry_cell_setting 'monoclinic'
loop_
_space_group_symop_operation_xyz
x,y,z
-x,y,-z
-x,-y,-z
x,-y,z
1/2+x,1/2+y,z
1/2-x,1/2+y,-z
1/2-x,1/2-y,-z
1/2+x,1/2-y,z
loop_
_atom_site_type_symbol
_atom_site_label
_atom_site_fract_x
_atom_site_fract_y
_atom_site_fract_z
Si Si1 0.460121 0.656578 0.699841
Si Si2 0.484414 0.164599 0.916100
Si Si3 0.191909 0.830482 0.731165
Si Si4 0.560395 0.670510 0.783653
Si Si5 0.763540 0.329946 0.573812
Si Si6 0.627401 0.842905 0.356702
Si Si7 0.885125 0.839491 0.866590
Si Si8 0.704602 0.840288 0.191291
O O1 0.466936 0.500000 0.662973
O O2 0.523347 0.712240 0.715932
O O3 0.431869 0.751069 0.639209
O O4 0.418378 0.652516 0.780764
O O5 0.535667 0.245128 0.860504
O O6 0.422499 0.244148 0.917065
O O7 0.479296 0.000000 0.889536
O O8 0.500000 0.172493 0.000000
O O9 0.126253 0.775367 0.756891
O O10 0.216480 0.775929 0.645684
O O11 0.232966 0.778044 0.792367
O O12 0.194832 0.000000 0.729796
O O13 0.555760 0.500000 0.799781
O O14 0.759940 0.500000 0.563251
O O15 0.750000 0.250000 0.500000
O O16 0.828645 0.283748 0.587974
O O17 0.661610 0.848360 0.271163
O O18 0.606155 0.000000 0.384056
O O19 0.821887 0.764881 0.866956
O O20 0.876000 0.000000 0.900933
O O21 0.711510 0.000000 0.155493
#
# Coordination Sequence:
#
# PCOD8095131 Si02
#       8
#     8   8   8   8   8   8   8   8
#     4   8  14  23  38  62  86 107 138 181 221 255
#     4  10  20  32  46  66  92 120 149 183 223 267
#     4   8  15  29  48  68  92 122 151 181 223 271
#     4   9  17  30  48  69  92 118 149 185 224 267
#     4   9  17  29  45  66  90 117 149 183 221 265
#     4   8  14  24  39  59  83 111 143 178 215 257
#     4   9  16  26  42  65  90 114 144 185 225 259
#     4   8  13  24  43  64  86 114 146 180 220 264
#
# _framework density 16.932566999999999
#
# number of rings (size 3 to 8) (size 9 to 14) (size 15 to 20)
#    0.000    3.375    0.000    3.000    0.000    4.500 
#    0.000    3.125    0.000    1.500    0.000    5.250 
#    0.000    0.000    0.000    0.000    0.000    0.000 
#
# Total GULP energy -396538.003033 kJ/mol
# GULP energy per Si atom -12391.812595 kJ/mol
# Density = 1.689403 g / cm^3
# Si number density = 16.932567 Si / 1000 Ang^3
#
#
#
# Elastic Constant Matrix: (Units=GPa)
#
#
# Indices 1 2 3 4 5 6 
#
# 1 155.0850 59.9748 47.4932 0.0000 20.8058 0.0000
# 2 59.9748 83.9035 37.1194 0.0000 15.4787 0.0000
# 3 47.4932 37.1194 51.6606 0.0000 16.3751 0.0000
# 4 0.0000 0.0000 0.0000 20.9382 0.0000 8.3172
# 5 20.8058 15.4787 16.3751 0.0000 21.3272 0.0000
# 6 0.0000 0.0000 0.0000 8.3172 0.0000 25.4442
#
#
#
# Elastic Compliance Matrix: (Units=1/GPa)
#
#
# Indices 1 2 3 4 5 6 
#
# 1 0.010131 -0.004408 -0.005324 0.000000 -0.002597 0.000000
# 2 -0.004408 0.019655 -0.009135 0.000000 -0.002951 0.000000
# 3 -0.005324 -0.009135 0.035774 0.000000 -0.015644 0.000000
# 4 0.000000 0.000000 0.000000 0.054886 0.000000 -0.017941
# 5 -0.002597 -0.002951 -0.015644 0.000000 0.063575 0.000000
# 6 0.000000 0.000000 0.000000 -0.017941 0.000000 0.045166
#
#
# Mechanical properties :
#
#
# Convention : Reuss Voigt Hill
#
# Bulk Modulus (GPa) = 35.93614 64.42488 50.18051
# Shear Modulus (GPa) = 18.10303 23.27938 20.69121
#
# Velocity S-wave (km/s) = 3.27330 3.71189 3.49947
# Velocity P-wave (km/s) = 5.96281 7.51674 6.78441
#
# Compressibility (1/GPa) = 0.02782714
#
# Stress axis : x y z
#
# Youngs Moduli (GPa) = 98.70315 50.87812 27.95329
#
# Poissons Ratio (x) = 0.22425 0.14882
# Poissons Ratio (y) = 0.43504 0.25535
# Poissons Ratio (z) = 0.52549 0.46477
#
# Static dielectric constant tensor:
#      x y z
#    x 3.558150 0.000000 0.240350 
#    y 0.000000 3.302950 0.000000 
#    z 0.240350 0.000000 2.727430 
# 
# 
# High freq. dielectric constant tensor:
#      x y z
#    x 1.659240 0.000000 0.030230 
#    y 0.000000 1.644250 0.000000 
#    z 0.030230 0.000000 1.601220 
# 
# From -- ./inp_files/287533.got.cif
#   From: 2010.06.25/outbox.cif.g09.slc.cpg/sg12_144_cif.got.tgz:287533.got - 2010.06.28 00:19:55.
