data_PCOD8095531
_publ_section_title
;
Structure prediction by ZEFSAII (Michael W. Deem and Ramdas Pophale) SiO2 
 PCOD8095531
Probable space group: C 2/M
;
_chemical_formula_sum "Si O2"
_cell_formula_units_Z 64
_cell_length_a 11.848076
_cell_length_b 14.210919
_cell_length_c 22.274733
_cell_angle_alpha 90.000000
_cell_angle_beta 117.790653
_cell_angle_gamma 90.000000
_cell_volume 3317.855321
_symmetry_space_group_name_H-M "C 2/M"
_symmetry_group_IT_number 12
_symmetry_cell_setting 'monoclinic'
loop_
_space_group_symop_operation_xyz
x,y,z
-x,y,-z
-x,-y,-z
x,-y,z
1/2+x,1/2+y,z
1/2-x,1/2+y,-z
1/2-x,1/2-y,-z
1/2+x,1/2-y,z
loop_
_atom_site_type_symbol
_atom_site_label
_atom_site_fract_x
_atom_site_fract_y
_atom_site_fract_z
Si Si1 0.155000 0.394619 0.323422
Si Si2 0.578721 0.391807 0.573616
Si Si3 0.024113 0.110328 0.693199
Si Si4 0.982661 0.605855 0.063851
Si Si5 0.646470 0.711076 0.257529
Si Si6 0.371593 0.108250 0.248628
Si Si7 0.233712 0.104711 0.841525
Si Si8 0.599523 0.764734 0.860555
O O1 0.170547 0.500000 0.298721
O O2 0.268394 0.380696 0.400600
O O3 0.181825 0.319657 0.277852
O O4 0.012072 0.383502 0.314876
O O5 0.500000 0.341367 0.500000
O O6 0.537726 0.500000 0.564995
O O7 0.542087 0.350035 0.630050
O O8 0.153667 0.133165 0.762479
O O9 0.905662 0.164517 0.693831
O O10 0.994458 0.000000 0.686920
O O11 0.925315 0.500000 0.050538
O O12 0.115647 0.608178 0.133670
O O13 0.889193 0.678474 0.074311
O O14 0.000000 0.639586 0.000000
O O15 0.769477 0.653984 0.267329
O O16 0.536744 0.711078 0.179594
O O17 0.376052 0.161348 0.186699
O O18 0.334640 0.000000 0.227871
O O19 0.204223 0.181527 0.886099
O O20 0.195149 0.000000 0.854400
#
# Coordination Sequence:
#
# PCOD8095531 Si02
#       8
#     8   8   8   8   8   8   8   8
#     4   9  20  33  51  76 103 136 174 217 265 312
#     4   9  18  33  54  78 104 138 182 225 264 310
#     4   9  18  32  55  80 104 140 179 220 265 312
#     4  10  21  36  54  77 106 138 174 219 266 312
#     4  10  20  32  54  78 111 137 176 217 267 318
#     4  10  20  33  51  79 111 139 171 219 271 316
#     4   9  19  34  53  78 106 135 175 219 262 311
#     4  10  20  33  53  79 104 141 178 215 261 312
#
# _framework density 19.289569
#
# number of rings (size 3 to 8) (size 9 to 14) (size 15 to 20)
#    0.000    2.500    0.000    1.500    8.750    1.500 
#    0.000    0.625    0.000    0.375    0.000    4.375 
#    0.000    0.000    0.000    0.000    0.000    0.000 
#
# Total GULP energy -396532.924582 kJ/mol
# GULP energy per Si atom -12391.653893 kJ/mol
# Density = 1.924566 g / cm^3
# Si number density = 19.289569 Si / 1000 Ang^3
#
#
#
# Elastic Constant Matrix: (Units=GPa)
#
#
# Indices 1 2 3 4 5 6 
#
# 1 86.9895 34.5574 24.9603 0.0000 -11.5665 0.0000
# 2 34.5574 92.7935 15.5430 0.0000 -10.5815 0.0000
# 3 24.9603 15.5430 69.3320 0.0000 -17.5896 0.0000
# 4 0.0000 0.0000 0.0000 18.3399 0.0000 -5.7310
# 5 -11.5665 -10.5815 -17.5896 0.0000 22.2467 0.0000
# 6 0.0000 0.0000 0.0000 -5.7310 0.0000 32.9232
#
#
#
# Elastic Compliance Matrix: (Units=1/GPa)
#
#
# Indices 1 2 3 4 5 6 
#
# 1 0.014692 -0.004570 -0.003601 0.000000 0.002618 0.000000
# 2 -0.004570 0.012938 -0.000371 0.000000 0.003484 0.000000
# 3 -0.003601 -0.000371 0.019118 0.000000 0.013067 0.000000
# 4 0.000000 0.000000 0.000000 0.057662 0.000000 0.010037
# 5 0.002618 0.003484 0.013067 0.000000 0.058301 0.000000
# 6 0.000000 0.000000 0.000000 0.010037 0.000000 0.032121
#
#
# Mechanical properties :
#
#
# Convention : Reuss Voigt Hill
#
# Bulk Modulus (GPa) = 33.71004 44.35959 39.03482
# Shear Modulus (GPa) = 22.54236 26.30558 24.42397
#
# Velocity S-wave (km/s) = 3.42223 3.69686 3.56220
# Velocity P-wave (km/s) = 5.75580 6.42410 6.09911
#
# Compressibility (1/GPa) = 0.02966475
#
# Stress axis : x y z
#
# Youngs Moduli (GPa) = 68.06244 77.29151 52.30658
#
# Poissons Ratio (x) = 0.35322 0.18834
# Poissons Ratio (y) = 0.31104 0.01942
# Poissons Ratio (z) = 0.24507 0.02870
#
# Static dielectric constant tensor:
#      x y z
#    x 3.559250 0.000000 0.135870 
#    y 0.000000 3.755490 0.000000 
#    z 0.135870 0.000000 3.360170 
# 
# 
# High freq. dielectric constant tensor:
#      x y z
#    x 1.745540 0.000000 0.007850 
#    y 0.000000 1.757250 0.000000 
#    z 0.007850 0.000000 1.711610 
# 
# From -- ./inp_files/305454.got.cif
#   From: 2010.06.25/outbox.cif.g09.slc.cpg/sg12_153_cif.got.tgz:305454.got - 2010.06.28 00:19:55.
