data_PCOD8095823
_publ_section_title
;
Structure prediction by ZEFSAII (Michael W. Deem and Ramdas Pophale) SiO2 
 PCOD8095823
Probable space group: C 2/M
;
_chemical_formula_sum "Si O2"
_cell_formula_units_Z 48
_cell_length_a 20.122816
_cell_length_b 8.753442
_cell_length_c 15.880688
_cell_angle_alpha 90.000000
_cell_angle_beta 71.720368
_cell_angle_gamma 90.000000
_cell_volume 2656.127008
_symmetry_space_group_name_H-M "C 2/M"
_symmetry_group_IT_number 12
_symmetry_cell_setting 'monoclinic'
loop_
_space_group_symop_operation_xyz
x,y,z
-x,y,-z
-x,-y,-z
x,-y,z
1/2+x,1/2+y,z
1/2-x,1/2+y,-z
1/2-x,1/2-y,-z
1/2+x,1/2-y,z
loop_
_atom_site_type_symbol
_atom_site_label
_atom_site_fract_x
_atom_site_fract_y
_atom_site_fract_z
Si Si1 0.573439 0.820841 0.429722
Si Si2 0.099107 0.319198 0.903662
Si Si3 0.262793 0.180119 0.235728
Si Si4 0.950726 0.319511 0.896698
Si Si5 0.787345 0.180818 0.565230
Si Si6 0.111858 0.820502 0.243552
O O1 0.500000 0.776559 0.500000
O O2 0.633168 0.737988 0.460268
O O3 0.571482 0.765566 0.334129
O O4 0.587797 0.000000 0.426917
O O5 0.103755 0.500000 0.902405
O O6 0.168711 0.244418 0.834806
O O7 0.031750 0.271541 0.875595
O O8 0.091391 0.265887 0.003396
O O9 0.255195 0.236116 0.335093
O O10 0.193612 0.227952 0.211439
O O11 0.272102 0.000000 0.231038
O O12 0.942849 0.500000 0.883655
O O13 0.920585 0.225204 0.831777
O O14 0.750000 0.250000 0.500000
O O15 0.788182 0.000000 0.557746
O O16 0.104015 0.000000 0.262561
#
# Coordination Sequence:
#
# PCOD8095823 Si02
#       6
#     8   8   8   8   8   8
#     4  10  21  37  56  76  99 131 172 215 259 308
#     4   8  15  30  50  71  96 128 169 209 244 288
#     4   8  16  31  49  69  96 131 167 203 244 291
#     4   9  17  30  51  75  97 127 167 209 247 289
#     4  10  20  34  53  77 106 138 172 212 257 305
#     4  10  20  33  50  73 102 133 162 200 253 307
#
# _framework density 18.071425999999999
#
# number of rings (size 3 to 8) (size 9 to 14) (size 15 to 20)
#    0.000    2.833    0.000    3.500    0.000    3.333 
#    0.000    5.000    0.000   10.000    0.000    0.000 
#    0.000    0.000    0.000    0.000    0.000    0.000 
#
# Total GULP energy -297541.046284 kJ/mol
# GULP energy per Si atom -12397.543595 kJ/mol
# Density = 1.803029 g / cm^3
# Si number density = 18.071426 Si / 1000 Ang^3
#
#
#
# Elastic Constant Matrix: (Units=GPa)
#
#
# Indices 1 2 3 4 5 6 
#
# 1 136.6851 33.5898 102.6751 0.0000 -3.2889 0.0000
# 2 33.5898 41.5524 26.9163 0.0000 -4.0536 0.0000
# 3 102.6751 26.9163 123.9208 0.0000 -4.4577 0.0000
# 4 0.0000 0.0000 0.0000 25.3490 0.0000 7.2736
# 5 -3.2889 -4.0536 -4.4577 0.0000 43.5975 0.0000
# 6 0.0000 0.0000 0.0000 7.2736 0.0000 27.8824
#
#
#
# Elastic Compliance Matrix: (Units=1/GPa)
#
#
# Indices 1 2 3 4 5 6 
#
# 1 0.020833 -0.006644 -0.015842 0.000000 -0.000666 0.000000
# 2 -0.006644 0.030298 -0.000997 0.000000 0.002214 0.000000
# 3 -0.015842 -0.000997 0.021445 0.000000 0.000905 0.000000
# 4 0.000000 0.000000 0.000000 0.042641 0.000000 -0.011124
# 5 -0.000666 0.002214 0.000905 0.000000 0.023185 0.000000
# 6 0.000000 0.000000 0.000000 -0.011124 0.000000 0.038767
#
#
# Mechanical properties :
#
#
# Convention : Reuss Voigt Hill
#
# Bulk Modulus (GPa) = 39.04581 69.83563 54.44072
# Shear Modulus (GPa) = 21.48949 28.63089 25.06019
#
# Velocity S-wave (km/s) = 3.45213 3.98467 3.72792
# Velocity P-wave (km/s) = 6.12723 7.73939 6.98001
#
# Compressibility (1/GPa) = 0.02561095
#
# Stress axis : x y z
#
# Youngs Moduli (GPa) = 48.00030 33.00528 46.63112
#
# Poissons Ratio (x) = 0.21928 0.73875
# Poissons Ratio (y) = 0.31891 0.04647
# Poissons Ratio (z) = 0.76044 0.03289
#
# Static dielectric constant tensor:
#      x y z
#    x 3.631630 0.000000 -0.190520 
#    y 0.000000 3.077400 0.000000 
#    z -0.190520 0.000000 3.692040 
# 
# 
# High freq. dielectric constant tensor:
#      x y z
#    x 1.705590 0.000000 -0.001310 
#    y 0.000000 1.676510 0.000000 
#    z -0.001310 0.000000 1.705370 
# 
# From -- ./inp_files/229958.got.cif
#   From: 2010.06.25/outbox.cif.g09.slc.cpg/sg12_115_cif.got.tgz:229958.got - 2010.06.28 00:19:55.
