data_PCOD8095994
_publ_section_title
;
Structure prediction by ZEFSAII (Michael W. Deem and Ramdas Pophale) SiO2 
 PCOD8095994
Probable space group: C 2/M
;
_chemical_formula_sum "Si O2"
_cell_formula_units_Z 64
_cell_length_a 21.747244
_cell_length_b 9.516933
_cell_length_c 22.990799
_cell_angle_alpha 90.000000
_cell_angle_beta 48.795025
_cell_angle_gamma 90.000000
_cell_volume 3579.972418
_symmetry_space_group_name_H-M "C 2/M"
_symmetry_group_IT_number 12
_symmetry_cell_setting 'monoclinic'
loop_
_space_group_symop_operation_xyz
x,y,z
-x,y,-z
-x,-y,-z
x,-y,z
1/2+x,1/2+y,z
1/2-x,1/2+y,-z
1/2-x,1/2-y,-z
1/2+x,1/2-y,z
loop_
_atom_site_type_symbol
_atom_site_label
_atom_site_fract_x
_atom_site_fract_y
_atom_site_fract_z
Si Si1 0.743421 0.652304 0.796432
Si Si2 0.469891 0.164177 0.303431
Si Si3 0.917542 0.158842 0.574995
Si Si4 0.311815 0.659789 0.423010
Si Si5 0.440623 0.662429 0.086466
Si Si6 0.921692 0.652697 0.205071
Si Si7 0.108950 0.838429 0.274085
Si Si8 0.255658 0.723573 0.333132
O O1 0.771155 0.500000 0.804093
O O2 0.652556 0.688006 0.875225
O O3 0.799210 0.777774 0.785608
O O4 0.745168 0.632061 0.725140
O O5 0.396547 0.256154 0.375751
O O6 0.470942 0.175198 0.233527
O O7 0.553761 0.236045 0.270429
O O8 0.463921 0.000000 0.327285
O O9 0.921633 0.170313 0.641318
O O10 0.835578 0.221610 0.598504
O O11 0.000000 0.235495 0.500000
O O12 0.918171 0.000000 0.552530
O O13 0.321742 0.500000 0.441240
O O14 0.250000 0.750000 0.500000
O O15 0.281953 0.641871 0.374922
O O16 0.460377 0.500000 0.084349
O O17 0.456572 0.735390 0.138159
O O18 0.500000 0.725502 0.000000
O O19 0.939335 0.500000 0.167585
O O20 0.824116 0.657411 0.278861
O O21 0.108400 0.000000 0.251915
#
# Coordination Sequence:
#
# PCOD8095994 Si02
#       8
#     8   8   8   8   8   8   8   8
#     4   9  17  32  54  75 101 135 166 204 252 302
#     4  10  21  37  54  74 101 134 175 217 258 307
#     4   9  18  30  46  69  97 128 163 210 263 305
#     4  11  23  36  51  72  99 132 172 218 268 314
#     4   9  18  32  53  83 113 138 167 205 252 305
#     4   9  18  32  52  77 102 134 170 208 256 305
#     4  10  20  33  51  75 101 133 174 214 253 307
#     4   9  18  32  51  70  97 130 171 211 253 306
#
# _framework density 17.877233
#
# number of rings (size 3 to 8) (size 9 to 14) (size 15 to 20)
#    0.000    2.500    0.000    1.875    1.750    8.250 
#    0.000    0.000    0.000    3.000    0.000    0.000 
#    0.000    0.000    0.000    0.000    0.000    0.000 
#
# Total GULP energy -396571.343085 kJ/mol
# GULP energy per Si atom -12392.854471 kJ/mol
# Density = 1.783654 g / cm^3
# Si number density = 17.877233 Si / 1000 Ang^3
#
#
#
# Elastic Constant Matrix: (Units=GPa)
#
#
# Indices 1 2 3 4 5 6 
#
# 1 83.5198 45.2785 29.6230 0.0000 -13.3754 0.0001
# 2 45.2785 124.6791 42.1305 -0.0001 -6.1884 0.0003
# 3 29.6230 42.1305 99.8626 -0.0001 -17.7201 0.0001
# 4 0.0000 -0.0001 -0.0001 21.3280 0.0000 -0.8791
# 5 -13.3754 -6.1884 -17.7201 0.0000 18.0604 0.0000
# 6 0.0001 0.0003 0.0001 -0.8791 0.0000 20.0982
#
#
#
# Elastic Compliance Matrix: (Units=1/GPa)
#
#
# Indices 1 2 3 4 5 6 
#
# 1 0.016718 -0.005241 -0.001053 0.000000 0.009552 0.000000
# 2 -0.005241 0.011007 -0.003764 0.000000 -0.003803 0.000000
# 3 -0.001053 -0.003764 0.013981 0.000000 0.011648 0.000000
# 4 0.000000 0.000000 0.000000 0.046971 0.000000 0.002054
# 5 0.009552 -0.003803 0.011648 0.000000 0.072569 0.000000
# 6 0.000000 0.000000 0.000000 0.002054 0.000000 0.049845
#
#
# Mechanical properties :
#
#
# Convention : Reuss Voigt Hill
#
# Bulk Modulus (GPa) = 46.31826 60.23617 53.27721
# Shear Modulus (GPa) = 20.97273 24.63264 22.80269
#
# Velocity S-wave (km/s) = 3.42885 3.71600 3.57531
# Velocity P-wave (km/s) = 6.45301 7.22351 6.84910
#
# Compressibility (1/GPa) = 0.02158976
#
# Stress axis : x y z
#
# Youngs Moduli (GPa) = 59.81609 90.85046 71.52642
#
# Poissons Ratio (x) = 0.47618 0.07531
# Poissons Ratio (y) = 0.31352 0.26921
# Poissons Ratio (z) = 0.06298 0.34194
#
# Static dielectric constant tensor:
#      x y z
#    x 3.261720 0.000000 -0.113870 
#    y 0.000000 3.353000 0.000000 
#    z -0.113870 0.000000 3.235420 
# 
# 
# High freq. dielectric constant tensor:
#      x y z
#    x 1.685380 0.000000 -0.009540 
#    y 0.000000 1.695200 0.000000 
#    z -0.009540 0.000000 1.670250 
# 
# From -- ./inp_files/346050.got.cif
#   From: 2010.06.25/outbox.cif.g09.slc.cpg/sg12_174_cif.got.tgz:346050.got - 2010.06.28 00:19:55.
