data_PCOD8095522
_publ_section_title
;
Structure prediction by ZEFSAII (Michael W. Deem and Ramdas Pophale) SiO2 
 PCOD8095522
Probable space group: C 2/M
;
_chemical_formula_sum "Si O2"
_cell_formula_units_Z 48
_cell_length_a 9.223005
_cell_length_b 27.151740
_cell_length_c 10.175991
_cell_angle_alpha 90.000000
_cell_angle_beta 95.223670
_cell_angle_gamma 90.000000
_cell_volume 2537.694789
_symmetry_space_group_name_H-M "C 2/M"
_symmetry_group_IT_number 12
_symmetry_cell_setting 'monoclinic'
loop_
_space_group_symop_operation_xyz
x,y,z
-x,y,-z
-x,-y,-z
x,-y,z
1/2+x,1/2+y,z
1/2-x,1/2+y,-z
1/2-x,1/2-y,-z
1/2+x,1/2-y,z
loop_
_atom_site_type_symbol
_atom_site_label
_atom_site_fract_x
_atom_site_fract_y
_atom_site_fract_z
Si Si1 0.839757 0.558014 0.527204
Si Si2 0.434878 0.554275 0.640262
Si Si3 0.446156 0.281440 0.354060
Si Si4 0.317638 0.619978 0.273733
Si Si5 0.709215 0.274582 0.189991
Si Si6 0.162945 0.325649 0.037427
O O1 0.830934 0.500000 0.559070
O O2 0.733216 0.570883 0.394865
O O3 0.796431 0.587129 0.655083
O O4 0.000000 0.574918 0.500000
O O5 0.500000 0.553522 0.500000
O O6 0.442787 0.500000 0.705230
O O7 0.529491 0.591198 0.737370
O O8 0.500000 0.263755 0.500000
O O9 0.348933 0.330505 0.359553
O O10 0.580442 0.294453 0.270425
O O11 0.351521 0.236909 0.288295
O O12 0.249772 0.633336 0.127187
O O13 0.652138 0.226035 0.112081
O O14 0.749591 0.317578 0.090876
O O15 0.000000 0.345289 0.000000
#
# Coordination Sequence:
#
# PCOD8095522 Si02
#       6
#     8   8   8   8   8   8
#     4   9  17  33  58  87 121 152 179 223 288 351
#     4   8  14  29  52  78 111 143 174 219 279 344
#     4  11  21  36  55  83 110 142 184 248 294 334
#     4  10  20  32  53  83 113 142 191 235 276 330
#     4  10  21  37  59  73 106 151 198 234 284 346
#     4  10  20  38  56  76 106 154 205 238 271 330
#
# _framework density 18.914804
#
# number of rings (size 3 to 8) (size 9 to 14) (size 15 to 20)
#    0.000    2.333    1.667    3.500    0.000    0.000 
#    6.000    1.667    0.000    2.000    0.000    9.333 
#    0.000    0.000    0.000    0.000    0.000    0.000 
#
# Total GULP energy -297576.790473 kJ/mol
# GULP energy per Si atom -12399.032936 kJ/mol
# Density = 1.887175 g / cm^3
# Si number density = 18.914804 Si / 1000 Ang^3
#
#
#
# Elastic Constant Matrix: (Units=GPa)
#
#
# Indices 1 2 3 4 5 6 
#
# 1 148.2697 44.5643 54.4862 0.0000 13.4472 0.0000
# 2 44.5643 70.6116 43.3540 0.0000 10.9828 0.0000
# 3 54.4862 43.3540 95.0906 0.0000 15.4202 0.0000
# 4 0.0000 0.0000 0.0000 31.6647 0.0000 7.7307
# 5 13.4472 10.9828 15.4202 0.0000 41.0697 0.0000
# 6 0.0000 0.0000 0.0000 7.7307 0.0000 21.8931
#
#
#
# Elastic Compliance Matrix: (Units=1/GPa)
#
#
# Indices 1 2 3 4 5 6 
#
# 1 0.009162 -0.003496 -0.003536 0.000000 -0.000737 0.000000
# 2 -0.003496 0.021160 -0.007360 0.000000 -0.001750 0.000000
# 3 -0.003536 -0.007360 0.016389 0.000000 -0.003027 0.000000
# 4 0.000000 0.000000 0.000000 0.034560 0.000000 -0.012204
# 5 -0.000737 -0.001750 -0.003027 0.000000 0.026195 0.000000
# 6 0.000000 0.000000 0.000000 -0.012204 0.000000 0.049986
#
#
# Mechanical properties :
#
#
# Convention : Reuss Voigt Hill
#
# Bulk Modulus (GPa) = 55.78608 66.53122 61.15865
# Shear Modulus (GPa) = 26.01308 30.36331 28.18819
#
# Velocity S-wave (km/s) = 3.71249 4.01093 3.86459
# Velocity P-wave (km/s) = 6.92345 7.52998 7.23307
#
# Compressibility (1/GPa) = 0.01792562
#
# Stress axis : x y z
#
# Youngs Moduli (GPa) = 109.15143 47.25956 61.01709
#
# Poissons Ratio (x) = 0.16524 0.21575
# Poissons Ratio (y) = 0.38164 0.44908
# Poissons Ratio (z) = 0.38595 0.34783
#
# Static dielectric constant tensor:
#      x y z
#    x 3.858770 0.000000 0.233520 
#    y 0.000000 3.312440 0.000000 
#    z 0.233520 0.000000 3.250380 
# 
# 
# High freq. dielectric constant tensor:
#      x y z
#    x 1.751680 0.000000 0.015080 
#    y 0.000000 1.715580 0.000000 
#    z 0.015080 0.000000 1.704900 
# 
# From -- ./inp_files/42220.got.cif
#   From: 2010.06.25/outbox.cif.g09.slc.cpg/sg12_22_cif.got.tgz:42220.got - 2010.06.28 00:19:55.
