data_PCOD8095694
_publ_section_title
;
Structure prediction by ZEFSAII (Michael W. Deem and Ramdas Pophale) SiO2 
 PCOD8095694
Probable space group: C 2/M
;
_chemical_formula_sum "Si O2"
_cell_formula_units_Z 52
_cell_length_a 23.597516
_cell_length_b 19.127134
_cell_length_c 6.514768
_cell_angle_alpha 90.000000
_cell_angle_beta 88.722809
_cell_angle_gamma 90.000000
_cell_volume 2939.728585
_symmetry_space_group_name_H-M "C 2/M"
_symmetry_group_IT_number 12
_symmetry_cell_setting 'monoclinic'
loop_
_space_group_symop_operation_xyz
x,y,z
-x,y,-z
-x,-y,-z
x,-y,z
1/2+x,1/2+y,z
1/2-x,1/2+y,-z
1/2-x,1/2-y,-z
1/2+x,1/2-y,z
loop_
_atom_site_type_symbol
_atom_site_label
_atom_site_fract_x
_atom_site_fract_y
_atom_site_fract_z
Si Si1 0.759274 0.580334 0.412602
Si Si2 0.262922 0.324132 0.202969
Si Si3 0.054048 0.730163 0.875264
Si Si4 0.821259 0.313593 0.145101
Si Si5 0.948200 0.130820 0.879521
Si Si6 0.000000 0.796232 0.500000
Si Si7 0.329372 0.423899 0.911280
O O1 0.776346 0.500000 0.461015
O O2 0.757304 0.627076 0.613330
O O3 0.805458 0.613509 0.254700
O O4 0.698077 0.584789 0.310694
O O5 0.294617 0.252713 0.273866
O O6 0.205942 0.307754 0.079457
O O7 0.309137 0.364260 0.064476
O O8 0.110589 0.683667 0.875960
O O9 0.038763 0.746246 0.639297
O O10 0.069461 0.801068 0.990961
O O11 0.000000 0.694754 0.000000
O O12 0.962816 0.153053 0.646290
O O13 0.896571 0.077708 0.874722
O O14 0.000000 0.094507 0.000000
O O15 0.312963 0.500000 0.003930
#
# Coordination Sequence:
#
# PCOD8095694 Si02
#       7
#     8   8   8   8   8   4   8
#     4  10  22  35  51  78 109 141 172 211 265 314
#     4  10  20  35  53  78 105 139 172 219 262 299
#     4   9  18  33  52  79 104 131 170 215 265 307
#     4  10  20  34  56  82 102 131 178 220 253 314
#     4   9  18  31  46  69 100 138 182 218 257 297
#     4   8  18  30  49  70 101 136 162 222 268 300
#     4  10  20  33  49  71 105 144 183 216 252 309
#
# _framework density 17.688707000000001
#
# number of rings (size 3 to 8) (size 9 to 14) (size 15 to 20)
#    0.000    2.769    1.538    0.923    2.154    3.385 
#    0.000    0.385    0.000    0.462    0.000    1.615 
#    0.000    0.000    0.000    0.000    0.000    0.000 
#
# Total GULP energy -322254.405745 kJ/mol
# GULP energy per Si atom -12394.400221 kJ/mol
# Density = 1.764845 g / cm^3
# Si number density = 17.688707 Si / 1000 Ang^3
#
#
#
# Elastic Constant Matrix: (Units=GPa)
#
#
# Indices 1 2 3 4 5 6 
#
# 1 130.7342 33.4591 31.2908 0.0000 3.1302 0.0000
# 2 33.4591 80.0350 22.5952 0.0000 0.7113 0.0000
# 3 31.2908 22.5952 82.9972 0.0000 2.9090 0.0000
# 4 0.0000 0.0000 0.0000 20.9866 0.0000 1.4991
# 5 3.1302 0.7113 2.9090 0.0000 11.3367 0.0000
# 6 0.0000 0.0000 0.0000 1.4991 0.0000 17.0510
#
#
#
# Elastic Compliance Matrix: (Units=1/GPa)
#
#
# Indices 1 2 3 4 5 6 
#
# 1 0.009079 -0.003067 -0.002530 0.000000 -0.001665 0.000000
# 2 -0.003067 0.014571 -0.002834 0.000000 0.000660 0.000000
# 3 -0.002530 -0.002834 0.013868 0.000000 -0.002682 0.000000
# 4 0.000000 0.000000 0.000000 0.047950 0.000000 -0.004216
# 5 -0.001665 0.000660 -0.002682 0.000000 0.089316 0.000000
# 6 0.000000 0.000000 0.000000 -0.004216 0.000000 0.059018
#
#
# Mechanical properties :
#
#
# Convention : Reuss Voigt Hill
#
# Bulk Modulus (GPa) = 48.40834 52.05073 50.22953
# Shear Modulus (GPa) = 19.41384 23.63629 21.52507
#
# Velocity S-wave (km/s) = 3.31649 3.65942 3.49217
# Velocity P-wave (km/s) = 6.48781 6.88077 6.68718
#
# Compressibility (1/GPa) = 0.02065760
#
# Stress axis : x y z
#
# Youngs Moduli (GPa) = 110.14030 68.63082 72.10956
#
# Poissons Ratio (x) = 0.21047 0.18242
# Poissons Ratio (y) = 0.33776 0.20434
# Poissons Ratio (z) = 0.27863 0.19448
#
# Static dielectric constant tensor:
#      x y z
#    x 3.287040 0.000000 0.106090 
#    y 0.000000 3.169620 0.000000 
#    z 0.106090 0.000000 3.293710 
# 
# 
# High freq. dielectric constant tensor:
#      x y z
#    x 1.679650 0.000000 0.004990 
#    y 0.000000 1.661600 0.000000 
#    z 0.004990 0.000000 1.683670 
# 
# From -- ./inp_files/21217.got.cif
#   From: 2010.06.25/outbox.cif.g09.slc.cpg/sg12_11_cif.got.tgz:21217.got - 2010.06.28 00:19:55.
