data_PCOD8095086
_publ_section_title
;
Structure prediction by ZEFSAII (Michael W. Deem and Ramdas Pophale) SiO2 
 PCOD8095086
Probable space group: C 2/M
;
_chemical_formula_sum "Si O2"
_cell_formula_units_Z 28
_cell_length_a 8.806832
_cell_length_b 28.175631
_cell_length_c 5.345544
_cell_angle_alpha 90.000000
_cell_angle_beta 83.841955
_cell_angle_gamma 90.000000
_cell_volume 1318.779048
_symmetry_space_group_name_H-M "C 2/M"
_symmetry_group_IT_number 12
_symmetry_cell_setting 'monoclinic'
loop_
_space_group_symop_operation_xyz
x,y,z
-x,y,-z
-x,-y,-z
x,-y,z
1/2+x,1/2+y,z
1/2-x,1/2+y,-z
1/2-x,1/2-y,-z
1/2+x,1/2-y,z
loop_
_atom_site_type_symbol
_atom_site_label
_atom_site_fract_x
_atom_site_fract_y
_atom_site_fract_z
Si Si1 0.317955 0.553927 0.035394
Si Si2 0.000000 0.747606 0.000000
Si Si3 0.222589 0.208743 0.313287
Si Si4 0.319911 0.396056 0.534976
O O1 0.259301 0.500000 0.055042
O O2 0.252756 0.580967 0.292462
O O3 0.500000 0.555998 0.000000
O O4 0.252976 0.578242 0.794375
O O5 0.861816 0.712379 0.092992
O O6 0.058501 0.783251 0.208078
O O7 0.250000 0.250000 0.500000
O O8 0.227270 0.158818 0.452232
O O9 0.500000 0.402452 0.500000
#
# Coordination Sequence:
#
# PCOD8095086 Si02
#       4
#     8   4   8   8
#     4   9  18  32  50  80 115 149 192 243 297 351
#     4  10  24  38  60  80 124 156 200 244 296 340
#     4  11  23  39  58  87 120 159 199 245 291 359
#     4  10  20  31  56  81 115 156 191 240 298 351
#
# _framework density 21.231760000000001
#
# number of rings (size 3 to 8) (size 9 to 14) (size 15 to 20)
#    0.000    2.000    0.000    3.429   14.000    3.429 
#    0.000    0.000    0.000    0.000    0.000    6.000 
#    0.000    0.000    0.000    0.000    0.000    0.000 
#
# Total GULP energy -173596.719680 kJ/mol
# GULP energy per Si atom -12399.765691 kJ/mol
# Density = 2.118344 g / cm^3
# Si number density = 21.231760 Si / 1000 Ang^3
#
#
#
# Elastic Constant Matrix: (Units=GPa)
#
#
# Indices 1 2 3 4 5 6 
#
# 1 47.6862 16.0576 18.5040 0.0000 13.2520 0.0000
# 2 16.0576 195.9548 102.6349 0.0000 20.4146 0.0000
# 3 18.5040 102.6349 179.5280 0.0000 26.6230 0.0000
# 4 0.0000 0.0000 0.0000 47.6983 0.0000 0.9368
# 5 13.2520 20.4146 26.6230 0.0000 17.0595 0.0000
# 6 0.0000 0.0000 0.0000 0.9368 0.0000 19.7124
#
#
#
# Elastic Compliance Matrix: (Units=1/GPa)
#
#
# Indices 1 2 3 4 5 6 
#
# 1 0.026778 -0.000261 0.000556 0.000000 -0.021357 0.000000
# 2 -0.000261 0.007398 -0.003799 0.000000 -0.002722 0.000000
# 3 0.000556 -0.003799 0.009205 0.000000 -0.010251 0.000000
# 4 0.000000 0.000000 0.000000 0.020985 0.000000 -0.000997
# 5 -0.021357 -0.002722 -0.010251 0.000000 0.094464 0.000000
# 6 0.000000 0.000000 0.000000 -0.000997 0.000000 0.050777
#
#
# Mechanical properties :
#
#
# Convention : Reuss Voigt Hill
#
# Bulk Modulus (GPa) = 27.49241 77.50689 52.49965
# Shear Modulus (GPa) = 21.85922 35.95888 28.90905
#
# Velocity S-wave (km/s) = 3.21215 4.11985 3.69398
# Velocity P-wave (km/s) = 5.17049 7.69515 6.55550
#
# Compressibility (1/GPa) = 0.03637368
#
# Stress axis : x y z
#
# Youngs Moduli (GPa) = 37.34475 135.17492 108.63979
#
# Poissons Ratio (x) = 0.03523 -0.06042
# Poissons Ratio (y) = 0.00973 0.41270
# Poissons Ratio (z) = -0.02077 0.51350
#
# Static dielectric constant tensor:
#      x y z
#    x 4.513540 0.000000 -0.177850 
#    y 0.000000 3.846610 0.000000 
#    z -0.177850 0.000000 4.401010 
# 
# 
# High freq. dielectric constant tensor:
#      x y z
#    x 1.777610 0.000000 0.003470 
#    y 0.000000 1.833100 0.000000 
#    z 0.003470 0.000000 1.855120 
# 
# From -- ./inp_files/3072.got.cif
#   From: 2010.06.25/outbox.cif.g09.slc.cpg/sg12_2_cif.got.tgz:3072.got - 2010.06.28 00:19:55.
