data_PCOD8095201
_publ_section_title
;
Structure prediction by ZEFSAII (Michael W. Deem and Ramdas Pophale) SiO2 
 PCOD8095201
Probable space group: C 2/M
;
_chemical_formula_sum "Si O2"
_cell_formula_units_Z 56
_cell_length_a 19.239741
_cell_length_b 9.493881
_cell_length_c 16.790432
_cell_angle_alpha 90.000000
_cell_angle_beta 95.275787
_cell_angle_gamma 90.000000
_cell_volume 3053.944509
_symmetry_space_group_name_H-M "C 2/M"
_symmetry_group_IT_number 12
_symmetry_cell_setting 'monoclinic'
loop_
_space_group_symop_operation_xyz
x,y,z
-x,y,-z
-x,-y,-z
x,-y,z
1/2+x,1/2+y,z
1/2-x,1/2+y,-z
1/2-x,1/2-y,-z
1/2+x,1/2-y,z
loop_
_atom_site_type_symbol
_atom_site_label
_atom_site_fract_x
_atom_site_fract_y
_atom_site_fract_z
Si Si1 0.315765 0.342850 0.492964
Si Si2 0.039144 0.165508 0.423876
Si Si3 0.183328 0.336057 0.208930
Si Si4 0.819557 0.155819 0.312099
Si Si5 0.238686 0.331713 0.917643
Si Si6 0.463222 0.163263 0.734200
Si Si7 0.109365 0.659865 0.804136
O O1 0.291148 0.500000 0.508595
O O2 0.250000 0.250000 0.500000
O O3 0.379095 0.301027 0.556721
O O4 0.340685 0.327180 0.405317
O O5 0.016617 0.250021 0.342906
O O6 0.000000 0.217081 0.500000
O O7 0.024341 0.000000 0.408743
O O8 0.180596 0.500000 0.180347
O O9 0.237364 0.315248 0.287625
O O10 0.207089 0.234374 0.139739
O O11 0.107753 0.283997 0.231433
O O12 0.869182 0.260449 0.272363
O O13 0.837483 0.000000 0.282933
O O14 0.251610 0.500000 0.927717
O O15 0.158143 0.296574 0.884013
O O16 0.250000 0.250000 0.000000
O O17 0.525986 0.184001 0.806022
O O18 0.455595 0.000000 0.708845
O O19 0.126182 0.500000 0.786281
#
# Coordination Sequence:
#
# PCOD8095201 Si02
#       7
#     8   8   8   8   8   8   8
#     4  10  20  32  47  69  97 130 170 216 262 303
#     4  10  21  35  50  71 102 140 179 219 263 307
#     4   9  18  33  54  78 103 133 169 209 254 302
#     4   9  17  31  50  70  94 129 171 210 250 299
#     4  10  20  36  58  82 107 133 164 202 246 301
#     4  10  20  35  54  76 103 135 173 215 258 304
#     4   9  19  34  53  77 101 128 164 205 248 296
#
# _framework density 18.336940999999999
#
# number of rings (size 3 to 8) (size 9 to 14) (size 15 to 20)
#    0.000    2.429    0.000    2.143    0.000    5.429 
#    0.000    3.571    0.000    4.286    0.000    0.000 
#    0.000    0.000    0.000    0.000    0.000    0.000 
#
# Total GULP energy -347038.741543 kJ/mol
# GULP energy per Si atom -12394.240769 kJ/mol
# Density = 1.829521 g / cm^3
# Si number density = 18.336941 Si / 1000 Ang^3
#
#
#
# Elastic Constant Matrix: (Units=GPa)
#
#
# Indices 1 2 3 4 5 6 
#
# 1 88.2231 36.7360 44.5399 0.0000 8.6852 0.0000
# 2 36.7360 63.1387 40.5790 0.0000 5.2823 0.0000
# 3 44.5399 40.5790 82.9482 0.0000 11.1266 0.0000
# 4 0.0000 0.0000 0.0000 30.7224 0.0000 -3.6408
# 5 8.6852 5.2823 11.1266 0.0000 21.8686 0.0000
# 6 0.0000 0.0000 0.0000 -3.6408 0.0000 27.8234
#
#
#
# Elastic Compliance Matrix: (Units=1/GPa)
#
#
# Indices 1 2 3 4 5 6 
#
# 1 0.017015 -0.005884 -0.005948 0.000000 -0.002310 0.000000
# 2 -0.005884 0.025137 -0.009269 0.000000 0.000981 0.000000
# 3 -0.005948 -0.009269 0.020571 0.000000 -0.005865 0.000000
# 4 0.000000 0.000000 0.000000 0.033062 0.000000 0.004326
# 5 -0.002310 0.000981 -0.005865 0.000000 0.049392 0.000000
# 6 0.000000 0.000000 0.000000 0.004326 0.000000 0.036507
#
#
# Mechanical properties :
#
#
# Convention : Reuss Voigt Hill
#
# Bulk Modulus (GPa) = 48.73230 53.11331 50.92281
# Shear Modulus (GPa) = 21.67054 23.57990 22.62522
#
# Velocity S-wave (km/s) = 3.44146 3.58987 3.51645
# Velocity P-wave (km/s) = 6.51346 6.79786 6.65718
#
# Compressibility (1/GPa) = 0.02052027
#
# Stress axis : x y z
#
# Youngs Moduli (GPa) = 58.77052 39.78221 48.61186
#
# Poissons Ratio (x) = 0.23407 0.28916
# Poissons Ratio (y) = 0.34580 0.45060
# Poissons Ratio (z) = 0.34958 0.36876
#
# Static dielectric constant tensor:
#      x y z
#    x 3.560680 0.000000 0.241450 
#    y 0.000000 3.404810 0.000000 
#    z 0.241450 0.000000 3.223970 
# 
# 
# High freq. dielectric constant tensor:
#      x y z
#    x 1.718670 0.000000 0.018920 
#    y 0.000000 1.711390 0.000000 
#    z 0.018920 0.000000 1.692950 
# 
# From -- ./inp_files/280383.got.cif
#   From: 2010.06.25/outbox.cif.g09.slc.cpg/sg12_141_cif.got.tgz:280383.got - 2010.06.28 00:19:55.
