data_PCOD8095666
_publ_section_title
;
Structure prediction by ZEFSAII (Michael W. Deem and Ramdas Pophale) SiO2 
 PCOD8095666
Probable space group: C 2/M
;
_chemical_formula_sum "Si O2"
_cell_formula_units_Z 64
_cell_length_a 31.491021
_cell_length_b 9.283815
_cell_length_c 26.645648
_cell_angle_alpha 90.000000
_cell_angle_beta 26.993417
_cell_angle_gamma 90.000000
_cell_volume 3535.805163
_symmetry_space_group_name_H-M "C 2/M"
_symmetry_group_IT_number 12
_symmetry_cell_setting 'monoclinic'
loop_
_space_group_symop_operation_xyz
x,y,z
-x,y,-z
-x,-y,-z
x,-y,z
1/2+x,1/2+y,z
1/2-x,1/2+y,-z
1/2-x,1/2-y,-z
1/2+x,1/2-y,z
loop_
_atom_site_type_symbol
_atom_site_label
_atom_site_fract_x
_atom_site_fract_y
_atom_site_fract_z
Si Si1 0.788272 0.828436 0.221340
Si Si2 0.579748 0.171613 0.453018
Si Si3 0.320532 0.332106 0.990703
Si Si4 0.256074 0.170600 0.546262
Si Si5 0.117307 0.668334 0.167856
Si Si6 0.383763 0.329056 0.221286
Si Si7 0.437191 0.170960 0.416576
Si Si8 0.093933 0.828626 0.995900
O O1 0.681312 0.777451 0.326258
O O2 0.826988 0.767770 0.233330
O O3 0.792547 0.000000 0.216875
O O4 0.852364 0.765722 0.109102
O O5 0.500000 0.234508 0.500000
O O6 0.565122 0.233623 0.524545
O O7 0.573929 0.000000 0.460157
O O8 0.341172 0.500000 0.961772
O O9 0.383588 0.249075 0.884112
O O10 0.349770 0.277113 0.014588
O O11 0.211396 0.295957 0.099277
O O12 0.250000 0.250000 0.500000
O O13 0.166915 0.216965 0.673801
O O14 0.348382 0.224304 0.478268
O O15 0.258540 0.000000 0.534333
O O16 0.107344 0.500000 0.167258
O O17 0.031242 0.727398 0.291103
O O18 0.385941 0.500000 0.215435
O O19 0.488794 0.266001 0.109265
O O20 0.435840 0.000000 0.421017
O O21 0.090976 0.000000 0.996033
#
# Coordination Sequence:
#
# PCOD8095666 Si02
#       8
#     8   8   8   8   8   8   8   8
#     4   9  15  25  39  59  88 118 146 179 227 279
#     4   9  16  24  39  62  89 121 152 183 226 281
#     4   9  18  31  45  67  93 117 151 194 227 260
#     4  10  20  33  49  69  95 126 159 193 231 275
#     4   9  18  31  47  63  90 126 153 181 226 275
#     4   9  16  28  42  60  88 120 149 183 228 274
#     4   9  17  30  45  65  94 125 154 189 235 281
#     4   9  17  25  40  63  88 116 147 185 228 270
#
# _framework density 18.100545
#
# number of rings (size 3 to 8) (size 9 to 14) (size 15 to 20)
#    0.000    2.875    1.250    0.375    3.500    1.500 
#    0.000    0.000    0.000    0.000    0.000    0.875 
#    0.000    4.000    0.000    0.000    0.000    0.000 
#
# Total GULP energy -396726.245668 kJ/mol
# GULP energy per Si atom -12397.695177 kJ/mol
# Density = 1.805935 g / cm^3
# Si number density = 18.100545 Si / 1000 Ang^3
#
#
#
# Elastic Constant Matrix: (Units=GPa)
#
#
# Indices 1 2 3 4 5 6 
#
# 1 169.0214 20.3770 91.9315 -0.0006 12.1035 -0.0001
# 2 20.3770 11.2052 19.0022 0.0078 3.3626 0.0013
# 3 91.9315 19.0022 185.2168 0.0030 11.5025 0.0002
# 4 -0.0006 0.0078 0.0030 13.2881 -0.0011 5.1027
# 5 12.1035 3.3626 11.5025 -0.0011 30.4665 -0.0001
# 6 -0.0001 0.0013 0.0002 5.1027 -0.0001 17.1196
#
#
#
# Elastic Compliance Matrix: (Units=1/GPa)
#
#
# Indices 1 2 3 4 5 6 
#
# 1 0.009095 -0.010476 -0.003366 0.000008 -0.001186 -0.000001
# 2 -0.010476 0.122009 -0.006902 -0.000076 -0.006699 0.000013
# 3 -0.003366 -0.006902 0.007831 0.000002 -0.000858 0.000000
# 4 0.000008 -0.000076 0.000002 0.084982 0.000007 -0.025330
# 5 -0.001186 -0.006699 -0.000858 0.000007 0.034357 -0.000001
# 6 -0.000001 0.000013 0.000000 -0.025330 -0.000001 0.065962
#
#
# Mechanical properties :
#
#
# Convention : Reuss Voigt Hill
#
# Bulk Modulus (GPa) = 10.26186 69.78498 40.02342
# Shear Modulus (GPa) = 12.55630 27.78369 20.17000
#
# Velocity S-wave (km/s) = 2.63667 3.92211 3.34178
# Velocity P-wave (km/s) = 3.86666 7.69080 6.08685
#
# Compressibility (1/GPa) = 0.09744825
#
# Stress axis : x y z
#
# Youngs Moduli (GPa) = 109.95097 8.19613 127.69653
#
# Poissons Ratio (x) = 0.08586 0.42981
# Poissons Ratio (y) = 1.15179 0.88136
# Poissons Ratio (z) = 0.37008 0.05657
#
# Static dielectric constant tensor:
#      x y z
#    x 3.535130 -0.000010 -0.002620 
#    y -0.000010 2.636210 0.000010 
#    z -0.002620 0.000010 3.669310 
# 
# 
# High freq. dielectric constant tensor:
#      x y z
#    x 1.713940 0.000000 -0.000120 
#    y 0.000000 1.618150 0.000000 
#    z -0.000120 0.000000 1.719860 
# 
# From -- ./inp_files/351744.got.cif
#   From: 2010.06.25/outbox.cif.g09.slc.cpg/sg12_176_cif.got.tgz:351744.got - 2010.06.28 00:19:55.
