data_PCOD8095754
_publ_section_title
;
Structure prediction by ZEFSAII (Michael W. Deem and Ramdas Pophale) SiO2 
 PCOD8095754
Probable space group: C 2/M
;
_chemical_formula_sum "Si O2"
_cell_formula_units_Z 56
_cell_length_a 14.375956
_cell_length_b 9.397982
_cell_length_c 29.789792
_cell_angle_alpha 90.000000
_cell_angle_beta 126.716177
_cell_angle_gamma 90.000000
_cell_volume 3226.266579
_symmetry_space_group_name_H-M "C 2/M"
_symmetry_group_IT_number 12
_symmetry_cell_setting 'monoclinic'
loop_
_space_group_symop_operation_xyz
x,y,z
-x,y,-z
-x,-y,-z
x,-y,z
1/2+x,1/2+y,z
1/2-x,1/2+y,-z
1/2-x,1/2-y,-z
1/2+x,1/2-y,z
loop_
_atom_site_type_symbol
_atom_site_label
_atom_site_fract_x
_atom_site_fract_y
_atom_site_fract_z
Si Si1 0.662295 0.831300 0.350787
Si Si2 0.791637 0.331685 0.735405
Si Si3 0.801751 0.660007 0.054782
Si Si4 0.598457 0.661541 0.062411
Si Si5 0.030978 0.831570 0.648871
Si Si6 0.423029 0.668486 0.437748
Si Si7 0.561399 0.168494 0.139047
O O1 0.655236 0.780659 0.296796
O O2 0.565575 0.750657 0.351122
O O3 0.789280 0.784816 0.405428
O O4 0.642941 0.000000 0.349918
O O5 0.796361 0.500000 0.736627
O O6 0.657989 0.284849 0.703465
O O7 0.868644 0.269225 0.798171
O O8 0.809773 0.500000 0.038680
O O9 0.723294 0.669552 0.075844
O O10 0.927867 0.715002 0.105887
O O11 0.750000 0.750000 0.000000
O O12 0.566365 0.500000 0.067294
O O13 0.610831 0.761038 0.108695
O O14 0.500000 0.719892 0.000000
O O15 0.024055 0.783231 0.594781
O O16 0.011332 0.000000 0.648519
O O17 0.500000 0.736231 0.500000
O O18 0.427797 0.500000 0.440821
O O19 0.577339 0.000000 0.139776
#
# Coordination Sequence:
#
# PCOD8095754 Si02
#       7
#     8   8   8   8   8   8   8
#     4   9  17  31  52  73  96 130 167 203 241 284
#     4   8  17  34  50  67  95 128 161 198 241 290
#     4  10  20  33  50  70  93 122 152 186 231 283
#     4  10  20  34  50  71 101 127 147 186 246 295
#     4   9  17  31  51  71  96 130 164 202 246 285
#     4   8  15  29  48  71 101 137 170 196 235 293
#     4  10  20  34  53  73  92 122 166 202 229 281
#
# _framework density 17.357524999999999
#
# number of rings (size 3 to 8) (size 9 to 14) (size 15 to 20)
#    0.000    2.857    1.429    1.714    0.000    2.571 
#    0.000    5.714    0.000    0.857    0.000    0.000 
#    0.000    0.000    0.000    0.000    0.000    0.000 
#
# Total GULP energy -347097.716144 kJ/mol
# GULP energy per Si atom -12396.347005 kJ/mol
# Density = 1.731802 g / cm^3
# Si number density = 17.357525 Si / 1000 Ang^3
#
#
#
# Elastic Constant Matrix: (Units=GPa)
#
#
# Indices 1 2 3 4 5 6 
#
# 1 144.3360 41.6917 78.3025 0.0000 2.1961 0.0000
# 2 41.6917 34.8965 38.1125 0.0000 -0.6465 0.0000
# 3 78.3025 38.1125 177.5809 0.0000 -0.6562 0.0000
# 4 0.0000 0.0000 0.0000 16.4422 0.0000 -2.4098
# 5 2.1961 -0.6465 -0.6562 0.0000 20.6411 0.0000
# 6 0.0000 0.0000 0.0000 -2.4098 0.0000 34.1162
#
#
#
# Elastic Compliance Matrix: (Units=1/GPa)
#
#
# Indices 1 2 3 4 5 6 
#
# 1 0.011600 -0.010837 -0.002795 0.000000 -0.001663 0.000000
# 2 -0.010837 0.047571 -0.005422 0.000000 0.002471 0.000000
# 3 -0.002795 -0.005422 0.008029 0.000000 0.000383 0.000000
# 4 0.000000 0.000000 0.000000 0.061455 0.000000 0.004341
# 5 -0.001663 0.002471 0.000383 0.000000 0.048713 0.000000
# 6 0.000000 0.000000 0.000000 0.004341 0.000000 0.029618
#
#
# Mechanical properties :
#
#
# Convention : Reuss Voigt Hill
#
# Bulk Modulus (GPa) = 34.37458 74.78077 54.57767
# Shear Modulus (GPa) = 19.62376 27.48702 23.55539
#
# Velocity S-wave (km/s) = 3.36603 3.98374 3.68784
# Velocity P-wave (km/s) = 5.91217 8.02100 7.04592
#
# Compressibility (1/GPa) = 0.02909127
#
# Stress axis : x y z
#
# Youngs Moduli (GPa) = 86.20431 21.02121 124.54970
#
# Poissons Ratio (x) = 0.22781 0.34816
# Poissons Ratio (y) = 0.93420 0.67532
# Poissons Ratio (z) = 0.24097 0.11398
#
# Static dielectric constant tensor:
#      x y z
#    x 3.226220 0.000000 0.056460 
#    y 0.000000 2.926560 0.000000 
#    z 0.056460 0.000000 3.745110 
# 
# 
# High freq. dielectric constant tensor:
#      x y z
#    x 1.677200 0.000000 0.003730 
#    y 0.000000 1.636300 0.000000 
#    z 0.003730 0.000000 1.676130 
# 
# From -- ./inp_files/335329.got.cif
#   From: 2010.06.25/outbox.cif.g09.slc.cpg/sg12_168_cif.got.tgz:335329.got - 2010.06.28 00:19:55.
