data_PCOD8095879
_publ_section_title
;
Structure prediction by ZEFSAII (Michael W. Deem and Ramdas Pophale) SiO2 
 PCOD8095879
Probable space group: C 2/M
;
_chemical_formula_sum "Si O2"
_cell_formula_units_Z 64
_cell_length_a 31.192444
_cell_length_b 8.922892
_cell_length_c 15.456239
_cell_angle_alpha 90.000000
_cell_angle_beta 55.097215
_cell_angle_gamma 90.000000
_cell_volume 3528.079969
_symmetry_space_group_name_H-M "C 2/M"
_symmetry_group_IT_number 12
_symmetry_cell_setting 'monoclinic'
loop_
_space_group_symop_operation_xyz
x,y,z
-x,y,-z
-x,-y,-z
x,-y,z
1/2+x,1/2+y,z
1/2-x,1/2+y,-z
1/2-x,1/2-y,-z
1/2+x,1/2-y,z
loop_
_atom_site_type_symbol
_atom_site_label
_atom_site_fract_x
_atom_site_fract_y
_atom_site_fract_z
Si Si1 0.040091 0.175524 0.764383
Si Si2 0.939373 0.666562 0.087829
Si Si3 0.288630 0.172286 0.655181
Si Si4 0.708550 0.326910 0.608210
Si Si5 0.670269 0.825615 0.055409
Si Si6 0.778905 0.826012 0.845180
Si Si7 0.077796 0.176655 0.065143
Si Si8 0.369270 0.824152 0.412239
O O1 0.067582 0.229385 0.820984
O O2 0.071953 0.255859 0.649014
O O3 0.979172 0.221069 0.831310
O O4 0.047393 0.000000 0.747274
O O5 0.915475 0.500000 0.130329
O O6 0.910873 0.743601 0.039356
O O7 0.000000 0.651477 0.000000
O O8 0.230643 0.191184 0.680261
O O9 0.292261 0.280847 0.732299
O O10 0.334401 0.220916 0.535431
O O11 0.296850 0.000000 0.674028
O O12 0.702907 0.500000 0.589717
O O13 0.750000 0.250000 0.500000
O O14 0.654345 0.243329 0.650507
O O15 0.684887 0.772602 0.134476
O O16 0.620373 0.730851 0.084186
O O17 0.655607 0.000000 0.074457
O O18 0.718169 0.792809 0.935087
O O19 0.791928 0.000000 0.844736
O O20 0.081703 0.000000 0.045773
O O21 0.372470 0.000000 0.398707
#
# Coordination Sequence:
#
# PCOD8095879 Si02
#       8
#     8   8   8   8   8   8   8   8
#     4  10  20  33  50  74 105 141 177 214 256 299
#     4   9  17  30  48  70  98 133 172 211 250 294
#     4   9  19  34  52  75 103 136 171 209 255 305
#     4   9  17  30  47  69  99 134 172 211 251 295
#     4  10  21  37  56  78 104 132 164 205 256 311
#     4  10  21  36  56  80 102 128 164 207 256 309
#     4  10  20  34  53  77 105 136 173 214 256 305
#     4  10  20  33  50  74 105 141 179 215 253 302
#
# _framework density 18.140177999999999
#
# number of rings (size 3 to 8) (size 9 to 14) (size 15 to 20)
#    0.000    2.375    0.000    3.375    0.000    8.500 
#    0.000    2.500    0.000    0.750    0.000    5.250 
#    0.000    0.000    0.000    0.000    0.000    0.000 
#
# Total GULP energy -396686.189879 kJ/mol
# GULP energy per Si atom -12396.443434 kJ/mol
# Density = 1.809889 g / cm^3
# Si number density = 18.140178 Si / 1000 Ang^3
#
#
#
# Elastic Constant Matrix: (Units=GPa)
#
#
# Indices 1 2 3 4 5 6 
#
# 1 87.3777 37.4495 40.7460 0.0000 -2.7179 0.0000
# 2 37.4495 81.6042 34.4722 0.0000 -2.4021 0.0001
# 3 40.7460 34.4722 81.7143 0.0000 -1.5253 0.0000
# 4 0.0000 0.0000 0.0000 30.9837 0.0000 1.5384
# 5 -2.7179 -2.4021 -1.5253 0.0000 20.7260 0.0000
# 6 0.0000 0.0001 0.0000 1.5384 0.0000 33.1452
#
#
#
# Elastic Compliance Matrix: (Units=1/GPa)
#
#
# Indices 1 2 3 4 5 6 
#
# 1 0.016436 -0.004936 -0.006092 0.000000 0.001135 0.000000
# 2 -0.004936 0.016427 -0.004451 0.000000 0.000929 0.000000
# 3 -0.006092 -0.004451 0.017153 0.000000 -0.000053 0.000000
# 4 0.000000 0.000000 0.000000 0.032350 0.000000 -0.001501
# 5 0.001135 0.000929 -0.000053 0.000000 0.048501 0.000000
# 6 0.000000 0.000000 0.000000 -0.001501 0.000000 0.030240
#
#
# Mechanical properties :
#
#
# Convention : Reuss Voigt Hill
#
# Bulk Modulus (GPa) = 52.47491 52.89239 52.68365
# Shear Modulus (GPa) = 25.19926 26.17288 25.68607
#
# Velocity S-wave (km/s) = 3.73116 3.80256 3.76703
# Velocity P-wave (km/s) = 6.89582 6.96421 6.93010
#
# Compressibility (1/GPa) = 0.01905673
#
# Stress axis : x y z
#
# Youngs Moduli (GPa) = 60.84070 60.87456 58.30033
#
# Poissons Ratio (x) = 0.30047 0.35519
# Poissons Ratio (y) = 0.30030 0.25952
# Poissons Ratio (z) = 0.37066 0.27098
#
# Static dielectric constant tensor:
#      x y z
#    x 3.376720 0.000000 -0.162460 
#    y 0.000000 3.511810 0.000000 
#    z -0.162460 0.000000 3.294040 
# 
# 
# High freq. dielectric constant tensor:
#      x y z
#    x 1.685040 0.000000 -0.011430 
#    y 0.000000 1.719010 0.000000 
#    z -0.011430 0.000000 1.689140 
# 
# From -- ./inp_files/249050.got.cif
#   From: 2010.06.25/outbox.cif.g09.slc.cpg/sg12_125_cif.got.tgz:249050.got - 2010.06.28 00:19:55.
