data_PCOD8095116
_publ_section_title
;
Structure prediction by ZEFSAII (Michael W. Deem and Ramdas Pophale) SiO2 
 PCOD8095116
Probable space group: C 2/M
;
_chemical_formula_sum "Si O2"
_cell_formula_units_Z 56
_cell_length_a 28.710503
_cell_length_b 9.462527
_cell_length_c 11.485586
_cell_angle_alpha 90.000000
_cell_angle_beta 81.093431
_cell_angle_gamma 90.000000
_cell_volume 3082.709447
_symmetry_space_group_name_H-M "C 2/M"
_symmetry_group_IT_number 12
_symmetry_cell_setting 'monoclinic'
loop_
_space_group_symop_operation_xyz
x,y,z
-x,y,-z
-x,-y,-z
x,-y,z
1/2+x,1/2+y,z
1/2-x,1/2+y,-z
1/2-x,1/2-y,-z
1/2+x,1/2-y,z
loop_
_atom_site_type_symbol
_atom_site_label
_atom_site_fract_x
_atom_site_fract_y
_atom_site_fract_z
Si Si1 0.798948 0.331585 0.493287
Si Si2 0.113491 0.332648 0.692028
Si Si3 0.064602 0.331542 0.197053
Si Si4 0.846032 0.340382 0.706192
Si Si5 0.519473 0.167999 0.614274
Si Si6 0.888207 0.668200 0.048424
Si Si7 0.205021 0.658988 0.039303
O O1 0.789207 0.500000 0.502835
O O2 0.750000 0.250000 0.500000
O O3 0.834494 0.291851 0.373936
O O4 0.824501 0.270008 0.598980
O O5 0.108727 0.500000 0.699638
O O6 0.072073 0.275156 0.622387
O O7 0.104750 0.268465 0.824869
O O8 0.070405 0.500000 0.195318
O O9 0.105702 0.268312 0.265605
O O10 0.014320 0.282717 0.266228
O O11 0.071874 0.279340 0.060043
O O12 0.858650 0.500000 0.665699
O O13 0.806433 0.334407 0.820153
O O14 0.500000 0.231639 0.500000
O O15 0.519321 0.000000 0.605388
O O16 0.888982 0.500000 0.053333
O O17 0.837899 0.720447 0.020070
O O18 0.216089 0.500000 0.995619
O O19 0.250000 0.750000 0.000000
#
# Coordination Sequence:
#
# PCOD8095116 Si02
#       7
#     8   8   8   8   8   8   8
#     4  10  20  32  46  63  88 121 152 185 226 268
#     4   9  17  27  39  59  87 114 143 185 228 263
#     4   8  13  23  39  57  82 115 145 175 217 271
#     4   8  15  28  42  59  84 115 147 179 220 266
#     4   9  15  22  36  58  83 114 149 180 215 267
#     4   8  15  26  38  56  83 113 143 177 224 272
#     4   9  17  28  44  62  83 114 150 185 219 260
#
# _framework density 18.165838000000001
#
# number of rings (size 3 to 8) (size 9 to 14) (size 15 to 20)
#    0.000    3.286    0.000    2.571    2.000    4.000 
#    0.000    2.857    0.000    0.000    0.000    0.000 
#    0.000    9.714    0.000    6.429    0.000    7.143 
#
# Total GULP energy -346891.750720 kJ/mol
# GULP energy per Si atom -12388.991097 kJ/mol
# Density = 1.812449 g / cm^3
# Si number density = 18.165838 Si / 1000 Ang^3
#
#
#
# Elastic Constant Matrix: (Units=GPa)
#
#
# Indices 1 2 3 4 5 6 
#
# 1 116.6040 15.7833 71.3129 0.0000 -10.2386 0.0000
# 2 15.7833 13.4391 11.2468 0.0000 -5.5015 0.0000
# 3 71.3129 11.2468 134.8328 0.0000 7.8119 0.0000
# 4 0.0000 0.0000 0.0000 8.8398 0.0000 -3.0153
# 5 -10.2386 -5.5015 7.8119 0.0000 33.4971 0.0000
# 6 0.0000 0.0000 0.0000 -3.0153 0.0000 16.4412
#
#
#
# Elastic Compliance Matrix: (Units=1/GPa)
#
#
# Indices 1 2 3 4 5 6 
#
# 1 0.014679 -0.009255 -0.007262 0.000000 0.004660 0.000000
# 2 -0.009255 0.093900 -0.003718 0.000000 0.013460 0.000000
# 3 -0.007262 -0.003718 0.011892 0.000000 -0.005604 0.000000
# 4 0.000000 0.000000 0.000000 0.120674 0.000000 0.022132
# 5 0.004660 0.013460 -0.005604 0.000000 0.034795 0.000000
# 6 0.000000 0.000000 0.000000 0.022132 0.000000 0.064882
#
#
# Mechanical properties :
#
#
# Convention : Reuss Voigt Hill
#
# Bulk Modulus (GPa) = 12.49951 51.28468 31.89209
# Shear Modulus (GPa) = 12.25616 22.85781 17.55699
#
# Velocity S-wave (km/s) = 2.60028 3.55108 3.11220
# Velocity P-wave (km/s) = 3.98886 6.71612 5.52346
#
# Compressibility (1/GPa) = 0.08000313
#
# Stress axis : x y z
#
# Youngs Moduli (GPa) = 68.12386 10.64963 84.08932
#
# Poissons Ratio (x) = 0.09856 0.61064
# Poissons Ratio (y) = 0.63046 0.31261
# Poissons Ratio (z) = 0.49470 0.03959
#
# Static dielectric constant tensor:
#      x y z
#    x 3.493180 0.000000 0.177130 
#    y 0.000000 2.545280 0.000000 
#    z 0.177130 0.000000 3.973200 
# 
# 
# High freq. dielectric constant tensor:
#      x y z
#    x 1.709630 0.000000 -0.000670 
#    y 0.000000 1.602520 0.000000 
#    z -0.000670 0.000000 1.723830 
# 
# From -- ./inp_files/181548.got.cif
#   From: 2010.06.25/outbox.cif.g09.slc.cpg/sg12_91_cif.got.tgz:181548.got - 2010.06.28 00:19:55.
