data_PCOD8095208
_publ_section_title
;
Structure prediction by ZEFSAII (Michael W. Deem and Ramdas Pophale) SiO2 
 PCOD8095208
Probable space group: C 2/M
;
_chemical_formula_sum "Si O2"
_cell_formula_units_Z 56
_cell_length_a 19.096006
_cell_length_b 9.604761
_cell_length_c 26.619732
_cell_angle_alpha 90.000000
_cell_angle_beta 139.180486
_cell_angle_gamma 90.000000
_cell_volume 3191.515141
_symmetry_space_group_name_H-M "C 2/M"
_symmetry_group_IT_number 12
_symmetry_cell_setting 'monoclinic'
loop_
_space_group_symop_operation_xyz
x,y,z
-x,y,-z
-x,-y,-z
x,-y,z
1/2+x,1/2+y,z
1/2-x,1/2+y,-z
1/2-x,1/2-y,-z
1/2+x,1/2-y,z
loop_
_atom_site_type_symbol
_atom_site_label
_atom_site_fract_x
_atom_site_fract_y
_atom_site_fract_z
Si Si1 0.940599 0.160207 0.787809
Si Si2 0.198159 0.337435 0.831868
Si Si3 0.242825 0.335678 0.745093
Si Si4 0.454215 0.148528 0.709334
Si Si5 0.348732 0.152433 0.546692
Si Si6 0.967986 0.665867 0.427084
Si Si7 0.690592 0.666235 0.924650
O O1 0.859927 0.207930 0.788013
O O2 0.902013 0.236800 0.716662
O O3 0.064486 0.195258 0.866421
O O4 0.924130 0.000000 0.767375
O O5 0.229030 0.500000 0.859855
O O6 0.244188 0.282688 0.803551
O O7 0.234679 0.234954 0.896840
O O8 0.073222 0.313889 0.758134
O O9 0.226554 0.500000 0.738170
O O10 0.146062 0.276015 0.656952
O O11 0.390412 0.134926 0.624579
O O12 0.452428 0.000000 0.737275
O O13 0.250000 0.250000 0.500000
O O14 0.438058 0.218856 0.558786
O O15 0.314507 0.000000 0.507196
O O16 0.962660 0.500000 0.425000
O O17 0.000000 0.722907 0.500000
O O18 0.715039 0.500000 0.938537
O O19 0.750000 0.750000 0.000000
#
# Coordination Sequence:
#
# PCOD8095208 Si02
#       7
#     8   8   8   8   8   8   8
#     4   9  19  32  52  80 102 124 165 212 249 290
#     4   9  16  31  55  76  97 130 167 205 251 298
#     4   9  16  30  51  75 102 131 168 214 256 296
#     4   9  17  31  48  68  97 131 167 204 249 305
#     4  10  20  32  47  70  98 130 170 213 255 302
#     4   9  17  29  47  73 101 132 172 215 256 298
#     4  10  20  35  54  79 107 133 164 200 245 300
#
# _framework density 17.546524000000002
#
# number of rings (size 3 to 8) (size 9 to 14) (size 15 to 20)
#    0.000    2.714    1.429    0.429    2.000    1.143 
#    0.000    1.429    0.000    5.571    0.000    0.000 
#    0.000    0.000    0.000    0.000    0.000    0.000 
#
# Total GULP energy -346883.782467 kJ/mol
# GULP energy per Si atom -12388.706517 kJ/mol
# Density = 1.750659 g / cm^3
# Si number density = 17.546524 Si / 1000 Ang^3
#
#
#
# Elastic Constant Matrix: (Units=GPa)
#
#
# Indices 1 2 3 4 5 6 
#
# 1 142.8537 50.2394 55.7442 0.0000 -15.9975 0.0000
# 2 50.2394 56.6171 35.2765 0.0000 -7.1993 0.0000
# 3 55.7442 35.2765 87.5874 0.0000 -19.7318 0.0000
# 4 0.0000 0.0000 0.0000 10.6936 0.0000 -2.3458
# 5 -15.9975 -7.1993 -19.7318 0.0000 22.2927 0.0000
# 6 0.0000 0.0000 0.0000 -2.3458 0.0000 23.6466
#
#
#
# Elastic Compliance Matrix: (Units=1/GPa)
#
#
# Indices 1 2 3 4 5 6 
#
# 1 0.011325 -0.007464 -0.003639 0.000000 0.002495 0.000000
# 2 -0.007464 0.028517 -0.007328 0.000000 -0.002633 0.000000
# 3 -0.003639 -0.007328 0.019440 0.000000 0.012228 0.000000
# 4 0.000000 0.000000 0.000000 0.095594 0.000000 0.009483
# 5 0.002495 -0.002633 0.012228 0.000000 0.056622 0.000000
# 6 0.000000 0.000000 0.000000 0.009483 0.000000 0.043230
#
#
# Mechanical properties :
#
#
# Convention : Reuss Voigt Hill
#
# Bulk Modulus (GPa) = 44.60647 63.28646 53.94646
# Shear Modulus (GPa) = 16.71890 21.04647 18.88268
#
# Velocity S-wave (km/s) = 3.09015 3.46709 3.28403
# Velocity P-wave (km/s) = 6.18134 7.22314 6.72245
#
# Compressibility (1/GPa) = 0.02241827
#
# Stress axis : x y z
#
# Youngs Moduli (GPa) = 88.30247 35.06670 51.44159
#
# Poissons Ratio (x) = 0.26175 0.18720
# Poissons Ratio (y) = 0.65912 0.37697
# Poissons Ratio (z) = 0.32134 0.25697
#
# Static dielectric constant tensor:
#      x y z
#    x 3.511730 0.000000 -0.124810 
#    y 0.000000 3.174350 0.000000 
#    z -0.124810 0.000000 3.142910 
# 
# 
# High freq. dielectric constant tensor:
#      x y z
#    x 1.681650 0.000000 -0.008470 
#    y 0.000000 1.648170 0.000000 
#    z -0.008470 0.000000 1.671880 
# 
# From -- ./inp_files/342490.got.cif
#   From: 2010.06.25/outbox.cif.g09.slc.cpg/sg12_172_cif.got.tgz:342490.got - 2010.06.28 00:19:55.
