data_PCOD8095944
_publ_section_title
;
Structure prediction by ZEFSAII (Michael W. Deem and Ramdas Pophale) SiO2 
 PCOD8095944
Probable space group: C 2/M
;
_chemical_formula_sum "Si O2"
_cell_formula_units_Z 56
_cell_length_a 27.778289
_cell_length_b 8.640070
_cell_length_c 21.244723
_cell_angle_alpha 90.000000
_cell_angle_beta 32.409407
_cell_angle_gamma 90.000000
_cell_volume 2732.817247
_symmetry_space_group_name_H-M "C 2/M"
_symmetry_group_IT_number 12
_symmetry_cell_setting 'monoclinic'
loop_
_space_group_symop_operation_xyz
x,y,z
-x,y,-z
-x,-y,-z
x,-y,z
1/2+x,1/2+y,z
1/2-x,1/2+y,-z
1/2-x,1/2-y,-z
1/2+x,1/2-y,z
loop_
_atom_site_type_symbol
_atom_site_label
_atom_site_fract_x
_atom_site_fract_y
_atom_site_fract_z
Si Si1 0.240132 0.317220 0.326923
Si Si2 0.426829 0.326882 0.436436
Si Si3 0.240739 0.821538 0.830293
Si Si4 0.017813 0.679513 0.744943
Si Si5 0.819932 0.182789 0.372051
Si Si6 0.676274 0.684065 0.033126
Si Si7 0.073532 0.173975 0.370108
O O1 0.222768 0.500000 0.343976
O O2 0.144580 0.229733 0.432726
O O3 0.289423 0.263979 0.206778
O O4 0.294655 0.268311 0.328739
O O5 0.401430 0.500000 0.441306
O O6 0.422745 0.207473 0.383157
O O7 0.526981 0.327706 0.353383
O O8 0.346378 0.794450 0.720872
O O9 0.218909 0.000000 0.859297
O O10 0.192128 0.745723 0.944730
O O11 0.000246 0.500000 0.776173
O O12 0.079304 0.749531 0.732483
O O13 0.924159 0.767136 0.838552
O O14 0.750000 0.250000 0.500000
O O15 0.821520 0.000000 0.378661
O O16 0.684963 0.500000 0.025775
O O17 0.750000 0.750000 0.000000
O O18 0.000000 0.234562 0.500000
O O19 0.106790 0.000000 0.351155
#
# Coordination Sequence:
#
# PCOD8095944 Si02
#       7
#     8   8   8   8   8   8   8
#     4  10  21  37  58  87 121 156 196 245 304 367
#     4  11  21  34  56  85 120 158 198 247 304 364
#     4  10  22  39  60  86 118 159 203 251 305 364
#     4  12  25  41  62  89 122 162 209 258 309 366
#     4  11  22  38  62  92 126 162 204 254 311 371
#     4  11  24  44  67  92 123 163 210 257 306 366
#     4  10  20  33  50  81 119 155 193 238 297 362
#
# _framework density 20.491672999999999
#
# number of rings (size 3 to 8) (size 9 to 14) (size 15 to 20)
#    0.000    1.286    2.857    3.429    0.000    5.429 
#    0.000    0.714    0.000    4.286    0.000    0.000 
#    0.000    0.000    0.000    0.000    0.000    0.000 
#
# Total GULP energy -347061.280894 kJ/mol
# GULP energy per Si atom -12395.045746 kJ/mol
# Density = 2.044503 g / cm^3
# Si number density = 20.491673 Si / 1000 Ang^3
#
#
#
# Elastic Constant Matrix: (Units=GPa)
#
#
# Indices 1 2 3 4 5 6 
#
# 1 133.5514 38.8415 45.9705 -0.0181 11.6457 0.0035
# 2 38.8415 60.8666 24.0694 -0.0555 5.9263 0.0200
# 3 45.9705 24.0694 85.1750 -0.0408 14.7384 0.0234
# 4 -0.0181 -0.0555 -0.0408 27.2418 0.0218 -3.3973
# 5 11.6457 5.9263 14.7384 0.0218 41.1808 -0.0079
# 6 0.0035 0.0200 0.0234 -3.3973 -0.0079 30.0467
#
#
#
# Elastic Compliance Matrix: (Units=1/GPa)
#
#
# Indices 1 2 3 4 5 6 
#
# 1 0.010398 -0.004947 -0.004081 -0.000008 -0.000768 0.000004
# 2 -0.004947 0.020877 -0.003147 0.000034 -0.000479 -0.000007
# 3 -0.004081 -0.003147 0.015515 0.000016 -0.003946 -0.000009
# 4 -0.000008 0.000034 0.000016 0.037233 -0.000027 0.004210
# 5 -0.000768 -0.000479 -0.003946 -0.000027 0.025982 0.000007
# 6 0.000004 -0.000007 -0.000009 0.004210 0.000007 0.033758
#
#
# Mechanical properties :
#
#
# Convention : Reuss Voigt Hill
#
# Bulk Modulus (GPa) = 44.56148 55.26176 49.91162
# Shear Modulus (GPa) = 28.47482 31.07463 29.77473
#
# Velocity S-wave (km/s) = 3.73175 3.89839 3.81598
# Velocity P-wave (km/s) = 6.35306 6.87675 6.62008
#
# Compressibility (1/GPa) = 0.02244090
#
# Stress axis : x y z
#
# Youngs Moduli (GPa) = 96.16935 47.89900 64.45228
#
# Poissons Ratio (x) = 0.23695 0.26305
# Poissons Ratio (y) = 0.47574 0.20282
# Poissons Ratio (z) = 0.39250 0.15073
#
# Static dielectric constant tensor:
#      x y z
#    x 4.060200 -0.000030 0.290850 
#    y -0.000030 3.593520 0.000040 
#    z 0.290850 0.000040 3.726230 
# 
# 
# High freq. dielectric constant tensor:
#      x y z
#    x 1.814340 0.000000 0.016140 
#    y 0.000000 1.794950 0.000000 
#    z 0.016140 0.000000 1.783700 
# 
# From -- ./inp_files/329567.got.cif
#   From: 2010.06.25/outbox.cif.g09.slc.cpg/sg12_165_cif.got.tgz:329567.got - 2010.06.28 00:19:55.
