data_PCOD8095174
_publ_section_title
;
Structure prediction by ZEFSAII (Michael W. Deem and Ramdas Pophale) SiO2 
 PCOD8095174
Probable space group: C 2/M
;
_chemical_formula_sum "Si O2"
_cell_formula_units_Z 60
_cell_length_a 27.121011
_cell_length_b 9.194905
_cell_length_c 16.942589
_cell_angle_alpha 90.000000
_cell_angle_beta 127.162523
_cell_angle_gamma 90.000000
_cell_volume 3367.056972
_symmetry_space_group_name_H-M "C 2/M"
_symmetry_group_IT_number 12
_symmetry_cell_setting 'monoclinic'
loop_
_space_group_symop_operation_xyz
x,y,z
-x,y,-z
-x,-y,-z
x,-y,z
1/2+x,1/2+y,z
1/2-x,1/2+y,-z
1/2-x,1/2-y,-z
1/2+x,1/2-y,z
loop_
_atom_site_type_symbol
_atom_site_label
_atom_site_fract_x
_atom_site_fract_y
_atom_site_fract_z
Si Si1 0.370342 0.163058 0.429922
Si Si2 0.287578 0.330714 0.604209
Si Si3 0.743324 0.330618 0.714683
Si Si4 0.398697 0.331629 0.609130
Si Si5 0.156236 0.827722 0.887043
Si Si6 0.280260 0.166863 0.922198
Si Si7 0.000000 0.748601 0.500000
Si Si8 0.969973 0.162364 0.300360
O O1 0.324053 0.259967 0.331959
O O2 0.364772 0.235287 0.510541
O O3 0.439932 0.153743 0.463626
O O4 0.344474 0.000000 0.410486
O O5 0.268009 0.500000 0.589248
O O6 0.250000 0.250000 0.500000
O O7 0.277682 0.253761 0.678009
O O8 0.360783 0.316906 0.653747
O O9 0.734635 0.500000 0.684608
O O10 0.785067 0.311729 0.832914
O O11 0.400179 0.500000 0.581504
O O12 0.469388 0.272036 0.685356
O O13 0.212646 0.779694 0.885436
O O14 0.093298 0.758347 0.788123
O O15 0.152740 0.000000 0.891017
O O16 0.166400 0.760911 0.984026
O O17 0.290412 0.000000 0.955840
O O18 0.019090 0.841851 0.594672
O O19 0.961662 0.000000 0.262385
#
# Coordination Sequence:
#
# PCOD8095174 Si02
#       8
#     8   8   8   8   8   8   4   8
#     4  11  21  32  47  70 103 137 170 208 252 304
#     4  11  21  34  53  77 105 137 173 215 263 312
#     4  11  22  35  53  75 102 135 175 218 260 309
#     4   9  19  34  51  71  99 134 172 206 248 309
#     4   9  17  32  54  77 102 131 169 213 256 304
#     4   9  19  34  51  75 103 133 169 211 260 311
#     4  10  20  32  46  72 109 140 169 204 249 308
#     4   9  17  31  52  76 100 135 174 209 250 306
#
# _framework density 17.819714999999999
#
# number of rings (size 3 to 8) (size 9 to 14) (size 15 to 20)
#    0.000    2.133    1.333    2.400    0.000    4.267 
#    0.000    6.000    0.000    0.800    0.000    5.600 
#    0.000    0.000    0.000    0.000    0.000    0.000 
#
# Total GULP energy -371788.984324 kJ/mol
# GULP energy per Si atom -12392.966144 kJ/mol
# Density = 1.777916 g / cm^3
# Si number density = 17.819715 Si / 1000 Ang^3
#
#
#
# Elastic Constant Matrix: (Units=GPa)
#
#
# Indices 1 2 3 4 5 6 
#
# 1 102.5409 31.4707 48.5850 0.0000 -1.2270 0.0000
# 2 31.4707 79.4409 35.1066 0.0000 -3.6311 0.0000
# 3 48.5850 35.1066 116.2197 0.0000 5.6339 0.0000
# 4 0.0000 0.0000 0.0000 22.3741 0.0000 -4.2667
# 5 -1.2270 -3.6311 5.6339 0.0000 25.0171 0.0000
# 6 0.0000 0.0000 0.0000 -4.2667 0.0000 21.1073
#
#
#
# Elastic Compliance Matrix: (Units=1/GPa)
#
#
# Indices 1 2 3 4 5 6 
#
# 1 0.012834 -0.003038 -0.004506 0.000000 0.001203 0.000000
# 2 -0.003038 0.015493 -0.003551 0.000000 0.002899 0.000000
# 3 -0.004506 -0.003551 0.011724 0.000000 -0.003377 0.000000
# 4 0.000000 0.000000 0.000000 0.046486 0.000000 0.009397
# 5 0.001203 0.002899 -0.003377 0.000000 0.041213 0.000000
# 6 0.000000 0.000000 0.000000 0.009397 0.000000 0.049276
#
#
# Mechanical properties :
#
#
# Convention : Reuss Voigt Hill
#
# Bulk Modulus (GPa) = 55.98304 58.72513 57.35408
# Shear Modulus (GPa) = 24.37006 25.90231 25.13619
#
# Velocity S-wave (km/s) = 3.70211 3.81672 3.75985
# Velocity P-wave (km/s) = 7.05398 7.24222 7.14872
#
# Compressibility (1/GPa) = 0.01786255
#
# Stress axis : x y z
#
# Youngs Moduli (GPa) = 77.91881 64.54506 85.29365
#
# Poissons Ratio (x) = 0.19609 0.38431
# Poissons Ratio (y) = 0.23672 0.30284
# Poissons Ratio (z) = 0.35108 0.22917
#
# Static dielectric constant tensor:
#      x y z
#    x 3.464100 0.000000 0.196280 
#    y 0.000000 3.186190 0.000000 
#    z 0.196280 0.000000 3.323670 
# 
# 
# High freq. dielectric constant tensor:
#      x y z
#    x 1.686450 0.000000 0.008020 
#    y 0.000000 1.682000 0.000000 
#    z 0.008020 0.000000 1.670500 
# 
# From -- ./inp_files/292249.got.cif
#   From: 2010.06.25/outbox.cif.g09.slc.cpg/sg12_147_cif.got.tgz:292249.got - 2010.06.28 00:19:55.
