data_PCOD8095236
_publ_section_title
;
Structure prediction by ZEFSAII (Michael W. Deem and Ramdas Pophale) SiO2 
 PCOD8095236
Probable space group: C 2/M
;
_chemical_formula_sum "Si O2"
_cell_formula_units_Z 56
_cell_length_a 30.440542
_cell_length_b 8.829507
_cell_length_c 19.351516
_cell_angle_alpha 90.000000
_cell_angle_beta 142.820577
_cell_angle_gamma 90.000000
_cell_volume 3143.154838
_symmetry_space_group_name_H-M "C 2/M"
_symmetry_group_IT_number 12
_symmetry_cell_setting 'monoclinic'
loop_
_space_group_symop_operation_xyz
x,y,z
-x,y,-z
-x,-y,-z
x,-y,z
1/2+x,1/2+y,z
1/2-x,1/2+y,-z
1/2-x,1/2-y,-z
1/2+x,1/2-y,z
loop_
_atom_site_type_symbol
_atom_site_label
_atom_site_fract_x
_atom_site_fract_y
_atom_site_fract_z
Si Si1 0.941798 0.324803 0.478543
Si Si2 0.934563 0.678064 0.625881
Si Si3 0.285124 0.171860 0.295235
Si Si4 0.872211 0.678025 0.763195
Si Si5 0.497064 0.321635 0.830245
Si Si6 0.126976 0.825746 0.087447
Si Si7 0.789176 0.173953 0.441059
O O1 0.962443 0.500000 0.509468
O O2 0.946296 0.259296 0.562449
O O3 0.859565 0.301531 0.344792
O O4 0.000000 0.244389 0.500000
O O5 0.941334 0.500000 0.638431
O O6 0.995425 0.750009 0.751713
O O7 0.854314 0.725038 0.553991
O O8 0.209168 0.189455 0.158477
O O9 0.284471 0.296533 0.353647
O O10 0.289564 0.000000 0.332440
O O11 0.888429 0.500000 0.779490
O O12 0.928103 0.769040 0.787190
O O13 0.881310 0.729094 0.853696
O O14 0.791389 0.714843 0.631391
O O15 0.495683 0.500000 0.820927
O O16 0.570845 0.265316 0.959888
O O17 0.109628 0.000000 0.084460
O O18 0.808619 0.000000 0.479315
#
# Coordination Sequence:
#
# PCOD8095236 Si02
#       7
#     8   8   8   8   8   8   8
#     4   8  14  27  51  79  97 111 141 187 234 279
#     4  10  20  33  49  69  94 123 154 189 232 282
#     4   8  14  27  48  71  94 120 152 189 225 268
#     4  10  20  32  48  70  93 121 160 202 238 270
#     4  11  22  33  46  64  92 129 163 197 233 271
#     4   9  18  32  48  67  92 126 165 197 228 266
#     4   9  17  30  47  67  93 122 152 190 234 278
#
# _framework density 17.816496000000001
#
# number of rings (size 3 to 8) (size 9 to 14) (size 15 to 20)
#    0.000    2.714    0.000    3.000    0.000    5.143 
#    0.000    0.000    0.000   11.571    0.000    0.000 
#    0.000    0.000    0.000    0.000    0.000    0.714 
#
# Total GULP energy -346904.081136 kJ/mol
# GULP energy per Si atom -12389.431469 kJ/mol
# Density = 1.777594 g / cm^3
# Si number density = 17.816496 Si / 1000 Ang^3
#
#
#
# Elastic Constant Matrix: (Units=GPa)
#
#
# Indices 1 2 3 4 5 6 
#
# 1 94.6686 10.0519 42.4218 0.0000 12.5669 0.0000
# 2 10.0519 37.3591 10.9662 0.0000 -2.3268 0.0000
# 3 42.4218 10.9662 91.2382 0.0000 -0.5199 0.0000
# 4 0.0000 0.0000 0.0000 25.9600 0.0000 -1.5238
# 5 12.5669 -2.3268 -0.5199 0.0000 17.9038 0.0000
# 6 0.0000 0.0000 0.0000 -1.5238 0.0000 12.4773
#
#
#
# Elastic Compliance Matrix: (Units=1/GPa)
#
#
# Indices 1 2 3 4 5 6 
#
# 1 0.015487 -0.002847 -0.006924 0.000000 -0.011442 0.000000
# 2 -0.002847 0.028492 -0.002069 0.000000 0.005641 0.000000
# 3 -0.006924 -0.002069 0.014457 0.000000 0.005011 0.000000
# 4 0.000000 0.000000 0.000000 0.038799 0.000000 0.004738
# 5 -0.011442 0.005641 0.005011 0.000000 0.064764 0.000000
# 6 0.000000 0.000000 0.000000 0.004738 0.000000 0.080724
#
#
# Mechanical properties :
#
#
# Convention : Reuss Voigt Hill
#
# Bulk Modulus (GPa) = 28.77154 38.90508 33.83831
# Shear Modulus (GPa) = 17.98644 21.92327 19.95486
#
# Velocity S-wave (km/s) = 3.18077 3.51166 3.35030
# Velocity P-wave (km/s) = 5.44735 6.19082 5.83095
#
# Compressibility (1/GPa) = 0.03475657
#
# Stress axis : x y z
#
# Youngs Moduli (GPa) = 64.57070 35.09771 69.17192
#
# Poissons Ratio (x) = 0.09993 0.47893
# Poissons Ratio (y) = 0.18384 0.14309
# Poissons Ratio (z) = 0.44707 0.07260
#
# Static dielectric constant tensor:
#      x y z
#    x 3.334990 0.000000 0.277510 
#    y 0.000000 3.187120 0.000000 
#    z 0.277510 0.000000 3.588050 
# 
# 
# High freq. dielectric constant tensor:
#      x y z
#    x 1.656350 0.000000 0.023240 
#    y 0.000000 1.680790 0.000000 
#    z 0.023240 0.000000 1.689580 
# 
# From -- ./inp_files/280971.got.cif
#   From: 2010.06.25/outbox.cif.g09.slc.cpg/sg12_141_cif.got.tgz:280971.got - 2010.06.28 00:19:55.
