data_PCOD8095614
_publ_section_title
;
Structure prediction by ZEFSAII (Michael W. Deem and Ramdas Pophale) SiO2 
 PCOD8095614
Probable space group: C 2/M
;
_chemical_formula_sum "Si O2"
_cell_formula_units_Z 64
_cell_length_a 24.719002
_cell_length_b 8.913578
_cell_length_c 23.651375
_cell_angle_alpha 90.000000
_cell_angle_beta 138.725736
_cell_angle_gamma 90.000000
_cell_volume 3437.654917
_symmetry_space_group_name_H-M "C 2/M"
_symmetry_group_IT_number 12
_symmetry_cell_setting 'monoclinic'
loop_
_space_group_symop_operation_xyz
x,y,z
-x,y,-z
-x,-y,-z
x,-y,z
1/2+x,1/2+y,z
1/2-x,1/2+y,-z
1/2-x,1/2-y,-z
1/2+x,1/2-y,z
loop_
_atom_site_type_symbol
_atom_site_label
_atom_site_fract_x
_atom_site_fract_y
_atom_site_fract_z
Si Si1 0.947881 0.324740 0.905213
Si Si2 0.522092 0.334821 0.456396
Si Si3 0.955150 0.823335 0.795840
Si Si4 0.128668 0.327565 0.459509
Si Si5 0.010715 0.321367 0.730545
Si Si6 0.732244 0.677854 0.354899
Si Si7 0.240639 0.323621 0.244107
Si Si8 0.129457 0.834290 0.742296
O O1 0.959058 0.500000 0.901145
O O2 0.982294 0.233063 0.878763
O O3 0.853571 0.283281 0.842792
O O4 0.000000 0.273203 0.000000
O O5 0.500000 0.276212 0.500000
O O6 0.565824 0.500000 0.491444
O O7 0.578350 0.202974 0.476842
O O8 0.438987 0.352038 0.357868
O O9 0.012874 0.743377 0.795271
O O10 0.861537 0.773257 0.710523
O O11 0.967188 0.000000 0.800960
O O12 0.135753 0.500000 0.450435
O O13 0.073607 0.254504 0.365685
O O14 0.219499 0.266615 0.549382
O O15 0.009415 0.500000 0.729902
O O16 0.094544 0.270122 0.765258
O O17 0.741871 0.500000 0.356176
O O18 0.768073 0.749856 0.325287
O O19 0.255501 0.500000 0.262228
O O20 0.292371 0.264125 0.230214
O O21 0.151345 0.000000 0.784296
#
# Coordination Sequence:
#
# PCOD8095614 Si02
#       8
#     8   8   8   8   8   8   8   8
#     4   9  18  34  57  83 106 125 148 185 236 292
#     4   9  16  25  38  58  85 119 160 203 242 278
#     4  10  20  34  52  73  98 128 161 198 240 287
#     4   9  18  30  42  60  89 125 165 205 242 280
#     4  10  20  33  48  67  94 131 172 207 240 280
#     4   9  18  31  46  67  96 128 163 205 249 287
#     4   9  17  30  50  75 100 127 159 195 239 289
#     4   9  17  29  45  66  94 127 162 199 237 281
#
# _framework density 18.617342000000001
#
# number of rings (size 3 to 8) (size 9 to 14) (size 15 to 20)
#    0.000    2.750    0.000    1.500    0.000    4.000 
#    0.000    2.500    0.000    0.750    0.000    0.000 
#    0.000    0.000    0.000    0.000    0.000    0.000 
#
# Total GULP energy -396432.860899 kJ/mol
# GULP energy per Si atom -12388.526903 kJ/mol
# Density = 1.857497 g / cm^3
# Si number density = 18.617342 Si / 1000 Ang^3
#
#
#
# Elastic Constant Matrix: (Units=GPa)
#
#
# Indices 1 2 3 4 5 6 
#
# 1 97.6385 30.6062 21.2801 0.0000 -24.8747 0.0000
# 2 30.6062 41.0548 17.5176 0.0000 -10.6262 0.0000
# 3 21.2801 17.5176 57.9898 0.0000 -12.8385 0.0000
# 4 0.0000 0.0000 0.0000 20.3377 0.0000 -4.1811
# 5 -24.8747 -10.6262 -12.8385 0.0000 22.3733 0.0000
# 6 0.0000 0.0000 0.0000 -4.1811 0.0000 28.3618
#
#
#
# Elastic Compliance Matrix: (Units=1/GPa)
#
#
# Indices 1 2 3 4 5 6 
#
# 1 0.016624 -0.008559 -0.000370 0.000000 0.014206 0.000000
# 2 -0.008559 0.034318 -0.006557 0.000000 0.003021 0.000000
# 3 -0.000370 -0.006557 0.021284 0.000000 0.008688 0.000000
# 4 0.000000 0.000000 0.000000 0.050706 0.000000 0.007475
# 5 0.014206 0.003021 0.008688 0.000000 0.066911 0.000000
# 6 0.000000 0.000000 0.000000 0.007475 0.000000 0.036361
#
#
# Mechanical properties :
#
#
# Convention : Reuss Voigt Hill
#
# Bulk Modulus (GPa) = 24.23956 37.27678 30.75817
# Shear Modulus (GPa) = 18.45507 22.69983 20.57745
#
# Velocity S-wave (km/s) = 3.15188 3.49561 3.32819
# Velocity P-wave (km/s) = 5.12776 6.02980 5.59698
#
# Compressibility (1/GPa) = 0.04125487
#
# Stress axis : x y z
#
# Youngs Moduli (GPa) = 60.15221 29.13926 46.98270
#
# Poissons Ratio (x) = 0.24939 0.01739
# Poissons Ratio (y) = 0.51482 0.30808
# Poissons Ratio (z) = 0.02226 0.19107
#
# Static dielectric constant tensor:
#      x y z
#    x 3.353730 0.000000 0.007880 
#    y 0.000000 3.309010 0.000000 
#    z 0.007880 0.000000 3.346520 
# 
# 
# High freq. dielectric constant tensor:
#      x y z
#    x 1.717270 0.000000 -0.007610 
#    y 0.000000 1.710280 0.000000 
#    z -0.007610 0.000000 1.696180 
# 
# From -- ./inp_files/323618.got.cif
#   From: 2010.06.25/outbox.cif.g09.slc.cpg/sg12_162_cif.got.tgz:323618.got - 2010.06.28 00:19:55.
