data_PCOD8095836
_publ_section_title
;
Structure prediction by ZEFSAII (Michael W. Deem and Ramdas Pophale) SiO2 
 PCOD8095836
Probable space group: C 2/M
;
_chemical_formula_sum "Si O2"
_cell_formula_units_Z 48
_cell_length_a 9.906586
_cell_length_b 20.654777
_cell_length_c 20.608595
_cell_angle_alpha 90.000000
_cell_angle_beta 141.742019
_cell_angle_gamma 90.000000
_cell_volume 2611.116175
_symmetry_space_group_name_H-M "C 2/M"
_symmetry_group_IT_number 12
_symmetry_cell_setting 'monoclinic'
loop_
_space_group_symop_operation_xyz
x,y,z
-x,y,-z
-x,-y,-z
x,-y,z
1/2+x,1/2+y,z
1/2-x,1/2+y,-z
1/2-x,1/2-y,-z
1/2+x,1/2-y,z
loop_
_atom_site_type_symbol
_atom_site_label
_atom_site_fract_x
_atom_site_fract_y
_atom_site_fract_z
Si Si1 0.603338 0.426585 0.766553
Si Si2 0.639374 0.131053 0.614500
Si Si3 0.226605 0.572360 0.443198
Si Si4 0.831067 0.748429 0.759640
Si Si5 0.271045 0.201890 0.880420
Si Si6 0.327887 0.384099 0.346903
O O1 0.634600 0.500000 0.804479
O O2 0.348672 0.408113 0.668371
O O3 0.729298 0.375588 0.860259
O O4 0.704009 0.422091 0.732560
O O5 0.500000 0.153791 0.500000
O O6 0.502231 0.083851 0.608605
O O7 0.697689 0.192558 0.679551
O O8 0.306111 0.500000 0.489681
O O9 0.413951 0.621052 0.539173
O O10 0.198211 0.579008 0.354860
O O11 0.757449 0.735286 0.805149
O O12 0.773803 0.686957 0.694462
O O13 0.088177 0.763830 0.855282
O O14 0.500000 0.215324 0.000000
#
# Coordination Sequence:
#
# PCOD8095836 Si02
#       6
#     8   8   8   8   8   8
#     4  10  20  36  54  79 109 138 179 216 257 315
#     4  11  22  33  52  77 112 150 175 210 254 307
#     4  11  21  32  49  73 106 151 184 204 245 301
#     4  10  22  37  54  82 105 136 178 219 266 318
#     4  10  21  39  60  79 102 135 174 228 280 314
#     4  10  20  33  50  73 105 142 178 216 250 298
#
# _framework density 18.382942
#
# number of rings (size 3 to 8) (size 9 to 14) (size 15 to 20)
#    0.000    1.667    1.667    4.000    2.333    1.667 
#    0.000    0.000    0.000    0.000    0.000    0.000 
#    0.000   27.333    0.000    0.000    0.000    0.000 
#
# Total GULP energy -297621.290412 kJ/mol
# GULP energy per Si atom -12400.887101 kJ/mol
# Density = 1.834110 g / cm^3
# Si number density = 18.382942 Si / 1000 Ang^3
#
#
#
# Elastic Constant Matrix: (Units=GPa)
#
#
# Indices 1 2 3 4 5 6 
#
# 1 73.4249 19.6848 13.3702 0.0004 2.7186 0.0008
# 2 19.6848 115.6823 29.3313 0.0002 1.1416 0.0004
# 3 13.3702 29.3313 66.0627 0.0006 6.7300 0.0006
# 4 0.0004 0.0002 0.0006 14.4661 0.0003 -0.7906
# 5 2.7186 1.1416 6.7300 0.0003 18.0275 0.0005
# 6 0.0008 0.0004 0.0006 -0.7906 0.0005 14.4909
#
#
#
# Elastic Compliance Matrix: (Units=1/GPa)
#
#
# Indices 1 2 3 4 5 6 
#
# 1 0.014550 -0.001973 -0.001931 0.000000 -0.001348 -0.000001
# 2 -0.001973 0.010027 -0.004177 0.000000 0.001222 0.000000
# 3 -0.001931 -0.004177 0.018011 0.000000 -0.006168 0.000000
# 4 0.000000 0.000000 0.000000 0.069334 -0.000001 0.003783
# 5 -0.001348 0.001222 -0.006168 -0.000001 0.057899 -0.000002
# 6 -0.000001 0.000000 0.000000 0.003783 -0.000002 0.069215
#
#
# Mechanical properties :
#
#
# Convention : Reuss Voigt Hill
#
# Bulk Modulus (GPa) = 37.84276 42.21585 40.02931
# Shear Modulus (GPa) = 18.93885 22.24914 20.59400
#
# Velocity S-wave (km/s) = 3.21322 3.48273 3.35069
# Velocity P-wave (km/s) = 5.86488 6.25996 6.06564
#
# Compressibility (1/GPa) = 0.02642514
#
# Stress axis : x y z
#
# Youngs Moduli (GPa) = 68.72911 99.72934 55.52155
#
# Poissons Ratio (x) = 0.19675 0.10724
# Poissons Ratio (y) = 0.13559 0.23192
# Poissons Ratio (z) = 0.13275 0.41659
#
# Static dielectric constant tensor:
#      x y z
#    x 3.563780 0.000000 0.036410 
#    y 0.000000 3.402620 0.000000 
#    z 0.036410 0.000000 3.118730 
# 
# 
# High freq. dielectric constant tensor:
#      x y z
#    x 1.729110 0.000000 0.001060 
#    y 0.000000 1.713920 0.000000 
#    z 0.001060 0.000000 1.686490 
# 
# From -- ./inp_files/196895.got.cif
#   From: 2010.06.25/outbox.cif.g09.slc.cpg/sg12_99_cif.got.tgz:196895.got - 2010.06.28 00:19:55.
