data_PCOD8095052
_publ_section_title
;
Structure prediction by ZEFSAII (Michael W. Deem and Ramdas Pophale) SiO2 
 PCOD8095052
Probable space group: C 2/M
;
_chemical_formula_sum "Si O2"
_cell_formula_units_Z 64
_cell_length_a 24.938413
_cell_length_b 9.222935
_cell_length_c 15.818962
_cell_angle_alpha 90.000000
_cell_angle_beta 70.477989
_cell_angle_gamma 90.000000
_cell_volume 3429.283405
_symmetry_space_group_name_H-M "C 2/M"
_symmetry_group_IT_number 12
_symmetry_cell_setting 'monoclinic'
loop_
_space_group_symop_operation_xyz
x,y,z
-x,y,-z
-x,-y,-z
x,-y,z
1/2+x,1/2+y,z
1/2-x,1/2+y,-z
1/2-x,1/2-y,-z
1/2+x,1/2-y,z
loop_
_atom_site_type_symbol
_atom_site_label
_atom_site_fract_x
_atom_site_fract_y
_atom_site_fract_z
Si Si1 0.019894 0.164873 0.178351
Si Si2 0.479732 0.328117 0.634940
Si Si3 0.789186 0.669936 0.241449
Si Si4 0.280901 0.163501 0.056618
Si Si5 0.283360 0.670818 0.556887
Si Si6 0.901135 0.835240 0.167234
Si Si7 0.912846 0.334608 0.994901
Si Si8 0.410120 0.672307 0.515376
O O1 0.036252 0.222054 0.262805
O O2 0.049112 0.274695 0.099971
O O3 0.951536 0.169639 0.208736
O O4 0.041401 0.000000 0.150959
O O5 0.483898 0.500000 0.627899
O O6 0.542393 0.269409 0.575333
O O7 0.430244 0.273406 0.597780
O O8 0.804116 0.500000 0.229088
O O9 0.767496 0.720452 0.159424
O O10 0.743217 0.706187 0.337229
O O11 0.847023 0.753198 0.234660
O O12 0.259028 0.000000 0.060592
O O13 0.250000 0.250000 0.000000
O O14 0.347456 0.177239 0.003187
O O15 0.281078 0.500000 0.539777
O O16 0.250000 0.750000 0.500000
O O17 0.347733 0.733312 0.525089
O O18 0.883648 0.000000 0.155043
O O19 0.925386 0.759624 0.070749
O O20 0.930233 0.500000 0.004344
O O21 0.405848 0.500000 0.517382
#
# Coordination Sequence:
#
# PCOD8095052 Si02
#       8
#     8   8   8   8   8   8   8   8
#     4  10  20  31  50  80 106 129 172 224 262 304
#     4   8  15  29  50  77 103 133 172 218 267 311
#     4   9  20  37  52  75 109 144 180 215 263 328
#     4   9  19  35  54  75 102 136 175 216 261 314
#     4  10  21  35  55  81 109 142 182 224 268 319
#     4  10  20  33  52  77 106 137 172 217 263 306
#     4  10  21  36  51  72 105 141 174 208 256 319
#     4   8  15  30  52  75 104 137 172 215 265 316
#
# _framework density 18.662790999999999
#
# number of rings (size 3 to 8) (size 9 to 14) (size 15 to 20)
#    0.000    2.750    0.000    2.625    1.750    6.500 
#    0.000    2.500    0.000    0.750    0.000    1.750 
#    0.000    0.000    0.000    0.000    0.000    0.000 
#
# Total GULP energy -396680.856030 kJ/mol
# GULP energy per Si atom -12396.276751 kJ/mol
# Density = 1.862031 g / cm^3
# Si number density = 18.662791 Si / 1000 Ang^3
#
#
#
# Elastic Constant Matrix: (Units=GPa)
#
#
# Indices 1 2 3 4 5 6 
#
# 1 110.7416 28.5665 50.9617 0.0000 4.1686 0.0000
# 2 28.5665 55.5528 26.2743 0.0000 1.5007 0.0000
# 3 50.9617 26.2743 77.8132 0.0000 -1.5088 0.0000
# 4 0.0000 0.0000 0.0000 23.2785 0.0000 -1.1613
# 5 4.1686 1.5007 -1.5088 0.0000 26.7549 0.0000
# 6 0.0000 0.0000 0.0000 -1.1613 0.0000 26.9747
#
#
#
# Elastic Compliance Matrix: (Units=1/GPa)
#
#
# Indices 1 2 3 4 5 6 
#
# 1 0.013553 -0.003196 -0.007843 0.000000 -0.002375 0.000000
# 2 -0.003196 0.022245 -0.005439 0.000000 -0.001057 0.000000
# 3 -0.007843 -0.005439 0.019876 0.000000 0.002648 0.000000
# 4 0.000000 0.000000 0.000000 0.043051 0.000000 0.001853
# 5 -0.002375 -0.001057 0.002648 0.000000 0.037955 0.000000
# 6 0.000000 0.000000 0.000000 0.001853 0.000000 0.037152
#
#
# Mechanical properties :
#
#
# Convention : Reuss Voigt Hill
#
# Bulk Modulus (GPa) = 44.01687 50.63473 47.32580
# Shear Modulus (GPa) = 23.32534 24.62198 23.97366
#
# Velocity S-wave (km/s) = 3.53913 3.63617 3.58798
# Velocity P-wave (km/s) = 6.35115 6.69472 6.52520
#
# Compressibility (1/GPa) = 0.02271856
#
# Stress axis : x y z
#
# Youngs Moduli (GPa) = 73.78388 44.95390 50.31239
#
# Poissons Ratio (x) = 0.14365 0.39461
# Poissons Ratio (y) = 0.23578 0.27364
# Poissons Ratio (z) = 0.57871 0.24450
#
# Static dielectric constant tensor:
#      x y z
#    x 3.540450 0.000000 0.050340 
#    y 0.000000 3.219470 0.000000 
#    z 0.050340 0.000000 3.609570 
# 
# 
# High freq. dielectric constant tensor:
#      x y z
#    x 1.726250 0.000000 0.002680 
#    y 0.000000 1.694320 0.000000 
#    z 0.002680 0.000000 1.729260 
# 
# From -- ./inp_files/243762.got.cif
#   From: 2010.06.25/outbox.cif.g09.slc.cpg/sg12_122_cif.got.tgz:243762.got - 2010.06.28 00:19:55.
