data_PCOD8095301
_publ_section_title
;
Structure prediction by ZEFSAII (Michael W. Deem and Ramdas Pophale) SiO2 
 PCOD8095301
Probable space group: C 2/M
;
_chemical_formula_sum "Si O2"
_cell_formula_units_Z 56
_cell_length_a 27.810922
_cell_length_b 9.165080
_cell_length_c 16.076832
_cell_angle_alpha 90.000000
_cell_angle_beta 48.607276
_cell_angle_gamma 90.000000
_cell_volume 3074.158895
_symmetry_space_group_name_H-M "C 2/M"
_symmetry_group_IT_number 12
_symmetry_cell_setting 'monoclinic'
loop_
_space_group_symop_operation_xyz
x,y,z
-x,y,-z
-x,-y,-z
x,-y,z
1/2+x,1/2+y,z
1/2-x,1/2+y,-z
1/2-x,1/2-y,-z
1/2+x,1/2-y,z
loop_
_atom_site_type_symbol
_atom_site_label
_atom_site_fract_x
_atom_site_fract_y
_atom_site_fract_z
Si Si1 0.152193 0.828128 0.121548
Si Si2 0.245431 0.670644 0.133042
Si Si3 0.342051 0.168618 0.318934
Si Si4 0.124235 0.829138 0.556797
Si Si5 0.461135 0.329559 0.124179
Si Si6 0.767131 0.166039 0.685673
Si Si7 0.986830 0.829795 0.758636
O O1 0.184211 0.748792 0.162860
O O2 0.080296 0.761150 0.195734
O O3 0.152896 0.000000 0.138818
O O4 0.190662 0.793122 0.992556
O O5 0.231728 0.500000 0.151311
O O6 0.254406 0.727576 0.216289
O O7 0.338836 0.247044 0.411566
O O8 0.396222 0.238463 0.198792
O O9 0.275668 0.191285 0.346889
O O10 0.357680 0.000000 0.316147
O O11 0.160035 0.800209 0.428356
O O12 0.049859 0.775023 0.635581
O O13 0.125307 0.000000 0.579231
O O14 0.443636 0.500000 0.140812
O O15 0.503910 0.291340 0.155373
O O16 0.500000 0.277940 0.000000
O O17 0.761215 0.000000 0.724626
O O18 0.978553 0.000000 0.755430
#
# Coordination Sequence:
#
# PCOD8095301 Si02
#       7
#     8   8   8   8   8   8   8
#     4   9  18  35  56  75 101 130 164 211 261 310
#     4  10  21  34  53  79 102 129 168 212 259 311
#     4  10  20  32  48  74 108 140 170 207 259 307
#     4   9  18  35  55  75 101 136 179 215 246 298
#     4   9  18  31  50  74 103 136 175 214 244 293
#     4  10  21  35  52  75 105 139 173 212 256 303
#     4   8  15  30  53  76  95 127 171 211 251 295
#
# _framework density 18.216365
#
# number of rings (size 3 to 8) (size 9 to 14) (size 15 to 20)
#    0.000    2.714    0.000    2.143    2.000    2.571 
#    0.000    3.571    0.000    4.286    0.000    0.000 
#    0.000    0.000    0.000    0.000    0.000    0.000 
#
# Total GULP energy -347124.708815 kJ/mol
# GULP energy per Si atom -12397.311029 kJ/mol
# Density = 1.817490 g / cm^3
# Si number density = 18.216365 Si / 1000 Ang^3
#
#
#
# Elastic Constant Matrix: (Units=GPa)
#
#
# Indices 1 2 3 4 5 6 
#
# 1 84.2573 30.5919 29.4240 0.0000 -20.5548 0.0000
# 2 30.5919 58.4245 33.1031 -0.0004 -1.3630 0.0001
# 3 29.4240 33.1031 77.9234 -0.0001 -5.7428 0.0000
# 4 0.0000 -0.0004 -0.0001 23.0090 0.0001 5.2720
# 5 -20.5548 -1.3630 -5.7428 0.0001 20.8633 0.0000
# 6 0.0000 0.0001 0.0000 5.2720 0.0000 26.8071
#
#
#
# Elastic Compliance Matrix: (Units=1/GPa)
#
#
# Indices 1 2 3 4 5 6 
#
# 1 0.020658 -0.008887 -0.002621 0.000000 0.019050 0.000000
# 2 -0.008887 0.026394 -0.008548 0.000001 -0.009385 0.000000
# 3 -0.002621 -0.008548 0.017579 0.000000 0.001698 0.000000
# 4 0.000000 0.000001 0.000000 0.045512 0.000000 -0.008951
# 5 0.019050 -0.009385 0.001698 0.000000 0.066554 0.000000
# 6 0.000000 0.000000 0.000000 -0.008951 0.000000 0.039064
#
#
# Mechanical properties :
#
#
# Convention : Reuss Voigt Hill
#
# Bulk Modulus (GPa) = 40.78624 45.20480 42.99552
# Shear Modulus (GPa) = 18.93599 22.63496 20.78547
#
# Velocity S-wave (km/s) = 3.22763 3.52882 3.38158
# Velocity P-wave (km/s) = 6.02732 6.43994 6.23705
#
# Compressibility (1/GPa) = 0.02451807
#
# Stress axis : x y z
#
# Youngs Moduli (GPa) = 48.40781 37.88714 56.88444
#
# Poissons Ratio (x) = 0.33671 0.14910
# Poissons Ratio (y) = 0.43021 0.48627
# Poissons Ratio (z) = 0.12688 0.32388
#
# Static dielectric constant tensor:
#      x y z
#    x 3.420180 0.000000 -0.346860 
#    y 0.000000 3.212790 0.000000 
#    z -0.346860 0.000000 3.630120 
# 
# 
# High freq. dielectric constant tensor:
#      x y z
#    x 1.697310 0.000000 -0.013180 
#    y 0.000000 1.688720 0.000000 
#    z -0.013180 0.000000 1.708650 
# 
# From -- ./inp_files/248883.got.cif
#   From: 2010.06.25/outbox.cif.g09.slc.cpg/sg12_125_cif.got.tgz:248883.got - 2010.06.28 00:19:55.
