data_PCOD8095929
_publ_section_title
;
Structure prediction by ZEFSAII (Michael W. Deem and Ramdas Pophale) SiO2 
 PCOD8095929
Probable space group: C 2/M
;
_chemical_formula_sum "Si O2"
_cell_formula_units_Z 64
_cell_length_a 31.647309
_cell_length_b 9.441170
_cell_length_c 24.183520
_cell_angle_alpha 90.000000
_cell_angle_beta 27.482197
_cell_angle_gamma 90.000000
_cell_volume 3334.482136
_symmetry_space_group_name_H-M "C 2/M"
_symmetry_group_IT_number 12
_symmetry_cell_setting 'monoclinic'
loop_
_space_group_symop_operation_xyz
x,y,z
-x,y,-z
-x,-y,-z
x,-y,z
1/2+x,1/2+y,z
1/2-x,1/2+y,-z
1/2-x,1/2-y,-z
1/2+x,1/2-y,z
loop_
_atom_site_type_symbol
_atom_site_label
_atom_site_fract_x
_atom_site_fract_y
_atom_site_fract_z
Si Si1 0.185640 0.836187 0.149920
Si Si2 0.340301 0.341275 0.518311
Si Si3 0.058005 0.838463 0.706209
Si Si4 0.899292 0.165252 0.636820
Si Si5 0.788204 0.334018 0.679765
Si Si6 0.907611 0.837661 0.139260
Si Si7 0.646513 0.663437 0.071891
Si Si8 0.857190 0.661770 0.299469
O O1 0.113595 0.803009 0.282813
O O2 0.142624 0.790873 0.141040
O O3 0.212269 0.000000 0.119867
O O4 0.280040 0.751085 0.048725
O O5 0.344736 0.500000 0.538887
O O6 0.424899 0.314688 0.379048
O O7 0.344488 0.227806 0.562401
O O8 0.250337 0.323409 0.585482
O O9 0.120547 0.732565 0.668039
O O10 0.951784 0.806657 0.841113
O O11 0.083148 0.000000 0.692996
O O12 0.821816 0.255437 0.695605
O O13 0.000000 0.214175 0.500000
O O14 0.884537 0.000000 0.640527
O O15 0.808840 0.500000 0.660678
O O16 0.680166 0.302365 0.797204
O O17 0.912349 0.740287 0.187349
O O18 0.902631 0.000000 0.164730
O O19 0.000000 0.804452 0.000000
O O20 0.673751 0.500000 0.035375
O O21 0.889574 0.500000 0.263174
#
# Coordination Sequence:
#
# PCOD8095929 Si02
#       8
#     8   8   8   8   8   8   8   8
#     4   9  19  37  57  79 107 138 178 224 271 320
#     4   9  19  35  55  76 106 146 181 216 262 320
#     4  10  20  33  54  79 104 141 184 219 258 320
#     4  10  22  38  60  83 108 147 188 228 273 330
#     4  10  21  36  55  82 112 141 178 228 278 324
#     4   9  19  37  58  77 104 146 186 219 264 326
#     4   9  19  35  56  80 105 140 181 221 269 322
#     4  10  20  33  50  78 111 139 173 221 270 313
#
# _framework density 19.193386
#
# number of rings (size 3 to 8) (size 9 to 14) (size 15 to 20)
#    0.000    2.500    0.000    1.125    1.750    4.000 
#    0.000    3.750    0.000    0.000    0.000    0.000 
#    0.000    0.000    0.000    0.000    0.000    0.000 
#
# Total GULP energy -396839.235558 kJ/mol
# GULP energy per Si atom -12401.226111 kJ/mol
# Density = 1.914970 g / cm^3
# Si number density = 19.193386 Si / 1000 Ang^3
#
#
#
# Elastic Constant Matrix: (Units=GPa)
#
#
# Indices 1 2 3 4 5 6 
#
# 1 59.6060 31.6735 17.3883 -0.0016 7.9536 0.0040
# 2 31.6735 75.6730 34.0557 0.0001 5.1856 0.0010
# 3 17.3883 34.0557 97.7449 -0.0017 11.1712 -0.0005
# 4 -0.0016 0.0001 -0.0017 25.4784 -0.0010 4.6458
# 5 7.9536 5.1856 11.1712 -0.0010 19.7013 0.0004
# 6 0.0040 0.0010 -0.0005 4.6458 0.0004 34.2055
#
#
#
# Elastic Compliance Matrix: (Units=1/GPa)
#
#
# Indices 1 2 3 4 5 6 
#
# 1 0.022413 -0.008863 -0.000141 0.000002 -0.006636 -0.000002
# 2 -0.008863 0.019199 -0.005287 -0.000001 0.001522 0.000001
# 3 -0.000141 -0.005287 0.012759 0.000001 -0.005786 0.000000
# 4 0.000002 -0.000001 0.000001 0.040246 0.000001 -0.005466
# 5 -0.006636 0.001522 -0.005786 0.000001 0.056317 0.000000
# 6 -0.000002 0.000001 0.000000 -0.005466 0.000000 0.029977
#
#
# Mechanical properties :
#
#
# Convention : Reuss Voigt Hill
#
# Bulk Modulus (GPa) = 38.77397 44.36209 41.56803
# Shear Modulus (GPa) = 22.92638 25.87080 24.39859
#
# Velocity S-wave (km/s) = 3.45989 3.67536 3.56925
# Velocity P-wave (km/s) = 6.01720 6.41673 6.22018
#
# Compressibility (1/GPa) = 0.02579050
#
# Stress axis : x y z
#
# Youngs Moduli (GPa) = 44.61697 52.08522 78.37611
#
# Poissons Ratio (x) = 0.46163 0.01103
# Poissons Ratio (y) = 0.39544 0.41434
# Poissons Ratio (z) = 0.00628 0.27535
#
# Static dielectric constant tensor:
#      x y z
#    x 3.381050 -0.000010 0.011510 
#    y -0.000010 3.512420 0.000030 
#    z 0.011510 0.000030 3.506730 
# 
# 
# High freq. dielectric constant tensor:
#      x y z
#    x 1.738590 0.000000 0.001220 
#    y 0.000000 1.743790 0.000000 
#    z 0.001220 0.000000 1.746030 
# 
# From -- ./inp_files/353339.got.cif
#   From: 2010.06.25/outbox.cif.g09.slc.cpg/sg12_177_cif.got.tgz:353339.got - 2010.06.28 00:19:55.
