data_PCOD8095865
_publ_section_title
;
Structure prediction by ZEFSAII (Michael W. Deem and Ramdas Pophale) SiO2 
 PCOD8095865
Probable space group: C 2/M
;
_chemical_formula_sum "Si O2"
_cell_formula_units_Z 56
_cell_length_a 20.301976
_cell_length_b 9.457825
_cell_length_c 19.437165
_cell_angle_alpha 90.000000
_cell_angle_beta 58.163061
_cell_angle_gamma 90.000000
_cell_volume 3170.683356
_symmetry_space_group_name_H-M "C 2/M"
_symmetry_group_IT_number 12
_symmetry_cell_setting 'monoclinic'
loop_
_space_group_symop_operation_xyz
x,y,z
-x,y,-z
-x,-y,-z
x,-y,z
1/2+x,1/2+y,z
1/2-x,1/2+y,-z
1/2-x,1/2-y,-z
1/2+x,1/2-y,z
loop_
_atom_site_type_symbol
_atom_site_label
_atom_site_fract_x
_atom_site_fract_y
_atom_site_fract_z
Si Si1 0.909805 0.160214 0.829802
Si Si2 0.249772 0.336296 0.844783
Si Si3 0.198901 0.335890 0.581792
Si Si4 0.286556 0.661764 0.671876
Si Si5 0.022652 0.334276 0.685291
Si Si6 0.940167 0.665682 0.590354
Si Si7 0.812268 0.836215 0.008630
O O1 0.834960 0.205445 0.825895
O O2 0.892344 0.174921 0.921371
O O3 0.983075 0.258013 0.771999
O O4 0.932172 0.000000 0.798976
O O5 0.232093 0.500000 0.871042
O O6 0.244430 0.302190 0.766939
O O7 0.184519 0.238795 0.918263
O O8 0.205094 0.500000 0.558023
O O9 0.250000 0.250000 0.500000
O O10 0.226295 0.308441 0.644378
O O11 0.110518 0.282201 0.626306
O O12 0.315066 0.500000 0.656778
O O13 0.360154 0.758641 0.619407
O O14 0.021141 0.500000 0.700968
O O15 0.973919 0.291030 0.645320
O O16 0.924804 0.500000 0.593332
O O17 0.000000 0.717217 0.500000
O O18 0.787433 0.000000 0.030212
O O19 0.750000 0.750000 0.000000
#
# Coordination Sequence:
#
# PCOD8095865 Si02
#       7
#     8   8   8   8   8   8   8
#     4   9  17  30  48  73 104 133 166 207 252 301
#     4   9  17  30  48  74 104 132 167 211 254 300
#     4  10  22  39  56  75 101 136 176 215 257 308
#     4  10  20  35  54  75 102 134 171 214 257 304
#     4  10  20  33  51  75 102 133 170 211 255 305
#     4  10  20  33  50  74 103 131 163 211 263 307
#     4   9  17  28  45  72 105 137 167 204 250 302
#
# _framework density 17.661808000000001
#
# number of rings (size 3 to 8) (size 9 to 14) (size 15 to 20)
#    0.000    2.429    1.429    2.143    0.000    6.000 
#    0.000    0.000    0.000    0.857    0.000    6.000 
#    0.000    0.000    0.000    0.000    0.000    0.000 
#
# Total GULP energy -347164.946602 kJ/mol
# GULP energy per Si atom -12398.748093 kJ/mol
# Density = 1.762161 g / cm^3
# Si number density = 17.661808 Si / 1000 Ang^3
#
#
#
# Elastic Constant Matrix: (Units=GPa)
#
#
# Indices 1 2 3 4 5 6 
#
# 1 34.7372 19.7735 20.4348 -0.0001 -2.4023 0.0004
# 2 19.7735 66.6696 58.2387 -0.0001 -2.9145 0.0011
# 3 20.4348 58.2387 127.2124 0.0000 3.3440 -0.0001
# 4 -0.0001 -0.0001 0.0000 38.4712 0.0000 -2.3039
# 5 -2.4023 -2.9145 3.3440 0.0000 25.9355 -0.0001
# 6 0.0004 0.0011 -0.0001 -2.3039 -0.0001 20.4157
#
#
#
# Elastic Compliance Matrix: (Units=1/GPa)
#
#
# Indices 1 2 3 4 5 6 
#
# 1 0.034945 -0.008827 -0.001637 0.000000 0.002456 0.000000
# 2 -0.008827 0.027712 -0.011368 0.000000 0.003762 -0.000001
# 3 -0.001637 -0.011368 0.013411 0.000000 -0.003158 0.000001
# 4 0.000000 0.000000 0.000000 0.026170 0.000000 0.002953
# 5 0.002456 0.003762 -0.003158 0.000000 0.039615 0.000000
# 6 0.000000 -0.000001 0.000001 0.002953 0.000000 0.049315
#
#
# Mechanical properties :
#
#
# Convention : Reuss Voigt Hill
#
# Bulk Modulus (GPa) = 30.85970 47.27927 39.06948
# Shear Modulus (GPa) = 20.35557 25.64263 22.99910
#
# Velocity S-wave (km/s) = 3.39856 3.81447 3.61251
# Velocity P-wave (km/s) = 5.73679 6.79909 6.29040
#
# Compressibility (1/GPa) = 0.03240472
#
# Stress axis : x y z
#
# Youngs Moduli (GPa) = 28.61641 36.08549 74.56548
#
# Poissons Ratio (x) = 0.31853 0.12205
# Poissons Ratio (y) = 0.25260 0.84764
# Poissons Ratio (z) = 0.04684 0.41021
#
# Static dielectric constant tensor:
#      x y z
#    x 3.059840 0.000000 0.183230 
#    y 0.000000 3.321870 0.000000 
#    z 0.183230 0.000000 3.645130 
# 
# 
# High freq. dielectric constant tensor:
#      x y z
#    x 1.645670 0.000000 0.010590 
#    y 0.000000 1.683740 0.000000 
#    z 0.010590 0.000000 1.697480 
# 
# From -- ./inp_files/319687.got.cif
#   From: 2010.06.25/outbox.cif.g09.slc.cpg/sg12_160_cif.got.tgz:319687.got - 2010.06.28 00:19:55.
