data_PCOD8095872
_publ_section_title
;
Structure prediction by ZEFSAII (Michael W. Deem and Ramdas Pophale) SiO2 
 PCOD8095872
Probable space group: C 2/M
;
_chemical_formula_sum "Si O2"
_cell_formula_units_Z 64
_cell_length_a 15.056644
_cell_length_b 9.027143
_cell_length_c 25.346607
_cell_angle_alpha 90.000000
_cell_angle_beta 74.045955
_cell_angle_gamma 90.000000
_cell_volume 3312.376571
_symmetry_space_group_name_H-M "C 2/M"
_symmetry_group_IT_number 12
_symmetry_cell_setting 'monoclinic'
loop_
_space_group_symop_operation_xyz
x,y,z
-x,y,-z
-x,-y,-z
x,-y,z
1/2+x,1/2+y,z
1/2-x,1/2+y,-z
1/2-x,1/2-y,-z
1/2+x,1/2-y,z
loop_
_atom_site_type_symbol
_atom_site_label
_atom_site_fract_x
_atom_site_fract_y
_atom_site_fract_z
Si Si1 0.862673 0.669825 0.950953
Si Si2 0.451477 0.829515 0.833150
Si Si3 0.200767 0.326290 0.631948
Si Si4 0.917099 0.324416 0.445664
Si Si5 0.878728 0.675189 0.568184
Si Si6 0.641258 0.174274 0.757549
Si Si7 0.246125 0.675139 0.175447
Si Si8 0.193206 0.330705 0.931457
O O1 0.825637 0.500000 0.948422
O O2 0.950454 0.692213 0.897390
O O3 0.787914 0.790301 0.945599
O O4 0.885777 0.692407 0.009782
O O5 0.543750 0.756348 0.793850
O O6 0.356763 0.766178 0.822804
O O7 0.455945 0.000000 0.816589
O O8 0.214827 0.500000 0.622243
O O9 0.139662 0.258228 0.594264
O O10 0.300716 0.251664 0.615822
O O11 0.149097 0.288978 0.694634
O O12 0.918609 0.500000 0.442847
O O13 0.870121 0.274457 0.508331
O O14 0.022827 0.268940 0.425534
O O15 0.868747 0.500000 0.575146
O O16 0.725227 0.254487 0.773726
O O17 0.648735 0.000000 0.767683
O O18 0.250440 0.500000 0.178644
O O19 0.318709 0.728945 0.118295
O O20 0.194942 0.500000 0.911742
#
# Coordination Sequence:
#
# PCOD8095872 Si02
#       8
#     8   8   8   8   8   8   8   8
#     4   8  14  26  46  72  99 128 165 206 247 300
#     4   8  16  33  54  72  94 129 169 204 243 297
#     4  10  20  33  50  74 104 134 165 207 255 295
#     4   8  16  32  53  77 105 137 170 203 243 295
#     4   9  17  32  55  79 103 134 171 205 241 294
#     4  10  21  36  52  71  97 132 173 210 246 295
#     4  10  20  35  54  74  98 129 167 212 256 300
#     4   9  15  25  46  74 100 127 160 202 256 310
#
# _framework density 19.321476000000001
#
# number of rings (size 3 to 8) (size 9 to 14) (size 15 to 20)
#    0.000    3.000    0.000    2.625    0.000    2.000 
#    0.000    8.125    0.000    3.750    0.000    0.000 
#    0.000    0.000    0.000    0.000    0.000    0.000 
#
# Total GULP energy -396517.730740 kJ/mol
# GULP energy per Si atom -12391.179086 kJ/mol
# Density = 1.927750 g / cm^3
# Si number density = 19.321476 Si / 1000 Ang^3
#
#
#
# Elastic Constant Matrix: (Units=GPa)
#
#
# Indices 1 2 3 4 5 6 
#
# 1 67.5456 19.5758 42.7855 0.0000 -11.3898 0.0000
# 2 19.5758 38.7215 32.8248 0.0000 -1.6914 0.0000
# 3 42.7855 32.8248 108.3854 0.0000 -15.1288 0.0000
# 4 0.0000 0.0000 0.0000 25.6645 0.0000 0.5949
# 5 -11.3898 -1.6914 -15.1288 0.0000 31.3541 0.0000
# 6 0.0000 0.0000 0.0000 0.5949 0.0000 21.5495
#
#
#
# Elastic Compliance Matrix: (Units=1/GPa)
#
#
# Indices 1 2 3 4 5 6 
#
# 1 0.020896 -0.005246 -0.006047 0.000000 0.004390 0.000000
# 2 -0.005246 0.036411 -0.009594 0.000000 -0.004571 0.000000
# 3 -0.006047 -0.009594 0.015161 0.000000 0.004601 0.000000
# 4 0.000000 0.000000 0.000000 0.038989 0.000000 -0.001076
# 5 0.004390 -0.004571 0.004601 0.000000 0.035462 0.000000
# 6 0.000000 0.000000 0.000000 -0.001076 0.000000 0.046435
#
#
# Mechanical properties :
#
#
# Convention : Reuss Voigt Hill
#
# Bulk Modulus (GPa) = 32.58021 45.00274 38.79147
# Shear Modulus (GPa) = 20.37818 23.67806 22.02812
#
# Velocity S-wave (km/s) = 3.25112 3.50448 3.38018
# Velocity P-wave (km/s) = 5.56703 6.30217 5.94597
#
# Compressibility (1/GPa) = 0.03069348
#
# Stress axis : x y z
#
# Youngs Moduli (GPa) = 47.85626 27.46410 65.95677
#
# Poissons Ratio (x) = 0.14407 0.39886
# Poissons Ratio (y) = 0.25105 0.63281
# Poissons Ratio (z) = 0.28940 0.26350
#
# Static dielectric constant tensor:
#      x y z
#    x 3.480410 0.000000 0.015740 
#    y 0.000000 3.195500 0.000000 
#    z 0.015740 0.000000 3.800270 
# 
# 
# High freq. dielectric constant tensor:
#      x y z
#    x 1.730720 0.000000 -0.000220 
#    y 0.000000 1.719370 0.000000 
#    z -0.000220 0.000000 1.761770 
# 
# From -- ./inp_files/359742.got.cif
#   From: 2010.06.25/outbox.cif.g09.slc.cpg/sg12_180_cif.got.tgz:359742.got - 2010.06.28 00:19:55.
