data_PCOD8095682
_publ_section_title
;
Structure prediction by ZEFSAII (Michael W. Deem and Ramdas Pophale) SiO2 
 PCOD8095682
Probable space group: C 2/M
;
_chemical_formula_sum "Si O2"
_cell_formula_units_Z 40
_cell_length_a 19.190098
_cell_length_b 9.076883
_cell_length_c 13.611353
_cell_angle_alpha 90.000000
_cell_angle_beta 71.359316
_cell_angle_gamma 90.000000
_cell_volume 2246.536885
_symmetry_space_group_name_H-M "C 2/M"
_symmetry_group_IT_number 12
_symmetry_cell_setting 'monoclinic'
loop_
_space_group_symop_operation_xyz
x,y,z
-x,y,-z
-x,-y,-z
x,-y,z
1/2+x,1/2+y,z
1/2-x,1/2+y,-z
1/2-x,1/2-y,-z
1/2+x,1/2-y,z
loop_
_atom_site_type_symbol
_atom_site_label
_atom_site_fract_x
_atom_site_fract_y
_atom_site_fract_z
Si Si1 0.968814 0.165102 0.795109
Si Si2 0.581908 0.165020 0.005479
Si Si3 0.180166 0.824897 0.579161
Si Si4 0.868936 0.837293 0.190922
Si Si5 0.032278 0.330704 0.593199
O O1 0.048445 0.159387 0.807343
O O2 0.972389 0.261029 0.694319
O O3 0.912634 0.239637 0.897481
O O4 0.941128 0.000000 0.783361
O O5 0.606807 0.000000 0.019096
O O6 0.500000 0.168340 0.000000
O O7 0.638201 0.228369 0.898379
O O8 0.250000 0.750000 0.500000
O O9 0.182079 0.786980 0.694947
O O10 0.107967 0.758811 0.561204
O O11 0.180375 0.000000 0.562220
O O12 0.846229 0.000000 0.164978
O O13 0.046748 0.500000 0.617183
O O14 0.000000 0.318727 0.500000
#
# Coordination Sequence:
#
# PCOD8095682 Si02
#       5
#     8   8   8   8   8
#     4   9  16  26  41  61  88 120 152 189 232 279
#     4   9  15  22  36  59  86 116 148 185 230 277
#     4  10  20  33  50  71  97 128 161 198 237 281
#     4   8  15  26  39  59  87 118 150 186 230 275
#     4  10  20  33  49  70  97 127 160 199 239 280
#
# _framework density 17.805183
#
# number of rings (size 3 to 8) (size 9 to 14) (size 15 to 20)
#    0.000    2.800    0.000    3.600    0.000    9.600 
#    0.000    0.000    0.000    0.000    0.000    1.400 
#    0.000    0.000    0.000    0.000    0.000    0.000 
#
# Total GULP energy -247925.090357 kJ/mol
# GULP energy per Si atom -12396.254518 kJ/mol
# Density = 1.776466 g / cm^3
# Si number density = 17.805183 Si / 1000 Ang^3
#
#
#
# Elastic Constant Matrix: (Units=GPa)
#
#
# Indices 1 2 3 4 5 6 
#
# 1 27.9668 31.2162 33.9729 0.0000 -9.8818 0.0000
# 2 31.2162 159.0979 91.8552 0.0000 -13.5010 0.0000
# 3 33.9729 91.8552 153.0598 0.0000 -24.3738 0.0000
# 4 0.0000 0.0000 0.0000 39.5650 0.0000 -4.4406
# 5 -9.8818 -13.5010 -24.3738 0.0000 21.2770 0.0000
# 6 0.0000 0.0000 0.0000 -4.4406 0.0000 15.8737
#
#
#
# Elastic Compliance Matrix: (Units=1/GPa)
#
#
# Indices 1 2 3 4 5 6 
#
# 1 0.055288 -0.005916 -0.006397 0.000000 0.014596 0.000000
# 2 -0.005916 0.010258 -0.005191 0.000000 -0.002185 0.000000
# 3 -0.006397 -0.005191 0.012318 0.000000 0.007846 0.000000
# 4 0.000000 0.000000 0.000000 0.026094 0.000000 0.007300
# 5 0.014596 -0.002185 0.007846 0.000000 0.061379 0.000000
# 6 0.000000 0.000000 0.000000 0.007300 0.000000 0.065040
#
#
# Mechanical properties :
#
#
# Convention : Reuss Voigt Hill
#
# Bulk Modulus (GPa) = 23.33388 72.69032 48.01210
# Shear Modulus (GPa) = 17.87824 27.54849 22.71336
#
# Velocity S-wave (km/s) = 3.17220 3.93774 3.57551
# Velocity P-wave (km/s) = 5.15273 7.84782 6.63849
#
# Compressibility (1/GPa) = 0.04285613
#
# Stress axis : x y z
#
# Youngs Moduli (GPa) = 18.08701 97.48815 81.18362
#
# Poissons Ratio (x) = 0.57674 0.51933
# Poissons Ratio (y) = 0.10700 0.42140
# Poissons Ratio (z) = 0.11570 0.50603
#
# Static dielectric constant tensor:
#      x y z
#    x 2.616480 0.000000 -0.227760 
#    y 0.000000 3.613940 0.000000 
#    z -0.227760 0.000000 3.630200 
# 
# 
# High freq. dielectric constant tensor:
#      x y z
#    x 1.607320 0.000000 -0.016880 
#    y 0.000000 1.708450 0.000000 
#    z -0.016880 0.000000 1.706380 
# 
# From -- ./inp_files/162478.got.cif
#   From: 2010.06.25/outbox.cif.g09.slc.cpg/sg12_82_cif.got.tgz:162478.got - 2010.06.28 00:19:55.
