data_PCOD8095428
_publ_section_title
;
Structure prediction by ZEFSAII (Michael W. Deem and Ramdas Pophale) SiO2 
 PCOD8095428
Probable space group: C 2/M
;
_chemical_formula_sum "Si O2"
_cell_formula_units_Z 64
_cell_length_a 27.385860
_cell_length_b 8.996466
_cell_length_c 15.746312
_cell_angle_alpha 90.000000
_cell_angle_beta 61.349010
_cell_angle_gamma 90.000000
_cell_volume 3404.492058
_symmetry_space_group_name_H-M "C 2/M"
_symmetry_group_IT_number 12
_symmetry_cell_setting 'monoclinic'
loop_
_space_group_symop_operation_xyz
x,y,z
-x,y,-z
-x,-y,-z
x,-y,z
1/2+x,1/2+y,z
1/2-x,1/2+y,-z
1/2-x,1/2-y,-z
1/2+x,1/2-y,z
loop_
_atom_site_type_symbol
_atom_site_label
_atom_site_fract_x
_atom_site_fract_y
_atom_site_fract_z
Si Si1 0.638140 0.169703 0.411785
Si Si2 0.063430 0.827340 0.137623
Si Si3 0.572557 0.827687 0.308362
Si Si4 0.249179 0.823521 0.593879
Si Si5 0.466263 0.336395 0.436242
Si Si6 0.937413 0.674834 0.028171
Si Si7 0.856946 0.328215 0.250073
Si Si8 0.943232 0.160661 0.264500
O O1 0.629187 0.188646 0.317070
O O2 0.697541 0.227614 0.395228
O O3 0.591261 0.257095 0.500054
O O4 0.631254 0.000000 0.444192
O O5 0.082468 0.746762 0.208787
O O6 0.998672 0.802980 0.165388
O O7 0.080086 0.000000 0.131585
O O8 0.090233 0.752010 0.032003
O O9 0.524108 0.751777 0.409351
O O10 0.556233 0.000000 0.308377
O O11 0.250000 0.750000 0.500000
O O12 0.198455 0.767879 0.694248
O O13 0.245876 0.000000 0.584561
O O14 0.466749 0.500000 0.478376
O O15 0.470637 0.351084 0.332787
O O16 0.938040 0.500000 0.011595
O O17 0.893257 0.718139 0.138360
O O18 0.000000 0.728695 0.000000
O O19 0.840739 0.500000 0.266076
O O20 0.896931 0.288559 0.296439
O O21 0.917159 0.000000 0.260052
#
# Coordination Sequence:
#
# PCOD8095428 Si02
#       8
#     8   8   8   8   8   8   8   8
#     4  10  22  38  55  76 103 143 188 230 276 332
#     4  10  20  33  52  81 113 144 179 221 275 329
#     4  10  20  35  55  77 107 145 184 225 276 335
#     4  11  24  42  61  82 111 146 190 235 279 327
#     4  10  20  32  50  80 112 142 179 227 278 328
#     4  10  20  35  55  83 117 152 186 223 275 336
#     4  11  22  35  55  82 112 147 190 230 273 328
#     4   9  18  31  47  73 110 147 180 217 268 326
#
# _framework density 18.798693
#
# number of rings (size 3 to 8) (size 9 to 14) (size 15 to 20)
#    0.000    1.875    1.250    3.750    0.000    9.250 
#    0.000    0.000    0.000    0.750    0.000    0.000 
#    0.000    0.000    0.000    0.000    0.000    0.000 
#
# Total GULP energy -396512.518205 kJ/mol
# GULP energy per Si atom -12391.016194 kJ/mol
# Density = 1.875591 g / cm^3
# Si number density = 18.798693 Si / 1000 Ang^3
#
#
#
# Elastic Constant Matrix: (Units=GPa)
#
#
# Indices 1 2 3 4 5 6 
#
# 1 124.7328 55.0865 57.8919 0.0000 4.2771 0.0000
# 2 55.0865 81.3579 36.6465 0.0004 -1.4141 0.0008
# 3 57.8919 36.6465 84.9429 0.0000 -5.1825 0.0000
# 4 0.0000 0.0004 0.0000 25.4453 0.0000 -8.2831
# 5 4.2771 -1.4141 -5.1825 0.0000 20.3608 0.0000
# 6 0.0000 0.0008 0.0000 -8.2831 0.0000 15.3740
#
#
#
# Elastic Compliance Matrix: (Units=1/GPa)
#
#
# Indices 1 2 3 4 5 6 
#
# 1 0.014558 -0.006620 -0.007396 0.000000 -0.005400 0.000001
# 2 -0.006620 0.018274 -0.003261 -0.000001 0.001830 -0.000001
# 3 -0.007396 -0.003261 0.018589 0.000000 0.006059 0.000000
# 4 0.000000 -0.000001 0.000000 0.047659 0.000000 0.025677
# 5 -0.005400 0.001830 0.006059 0.000000 0.051918 0.000000
# 6 0.000001 -0.000001 0.000000 0.025677 0.000000 0.078879
#
#
# Mechanical properties :
#
#
# Convention : Reuss Voigt Hill
#
# Bulk Modulus (GPa) = 59.27782 65.58706 62.43244
# Shear Modulus (GPa) = 18.51490 21.66327 20.08909
#
# Velocity S-wave (km/s) = 3.14172 3.39836 3.27256
# Velocity P-wave (km/s) = 6.69044 7.09671 6.89657
#
# Compressibility (1/GPa) = 0.01686971
#
# Stress axis : x y z
#
# Youngs Moduli (GPa) = 68.68858 54.72216 53.79425
#
# Poissons Ratio (x) = 0.36226 0.39784
# Poissons Ratio (y) = 0.45472 0.17540
# Poissons Ratio (z) = 0.50800 0.17842
#
# Static dielectric constant tensor:
#      x y z
#    x 3.423010 0.000000 0.155310 
#    y 0.000000 3.619430 0.000000 
#    z 0.155310 0.000000 3.450540 
# 
# 
# High freq. dielectric constant tensor:
#      x y z
#    x 1.714180 0.000000 0.021470 
#    y 0.000000 1.740650 0.000000 
#    z 0.021470 0.000000 1.726500 
# 
# From -- ./inp_files/249059.got.cif
#   From: 2010.06.25/outbox.cif.g09.slc.cpg/sg12_125_cif.got.tgz:249059.got - 2010.06.28 00:19:55.
