data_PCOD8095152
_publ_section_title
;
Structure prediction by ZEFSAII (Michael W. Deem and Ramdas Pophale) SiO2 
 PCOD8095152
Probable space group: C 2/M
;
_chemical_formula_sum "Si O2"
_cell_formula_units_Z 48
_cell_length_a 14.287549
_cell_length_b 9.433423
_cell_length_c 24.296543
_cell_angle_alpha 90.000000
_cell_angle_beta 52.771604
_cell_angle_gamma 90.000000
_cell_volume 2607.415008
_symmetry_space_group_name_H-M "C 2/M"
_symmetry_group_IT_number 12
_symmetry_cell_setting 'monoclinic'
loop_
_space_group_symop_operation_xyz
x,y,z
-x,y,-z
-x,-y,-z
x,-y,z
1/2+x,1/2+y,z
1/2-x,1/2+y,-z
1/2-x,1/2-y,-z
1/2+x,1/2-y,z
loop_
_atom_site_type_symbol
_atom_site_label
_atom_site_fract_x
_atom_site_fract_y
_atom_site_fract_z
Si Si1 0.001765 0.668374 0.133138
Si Si2 0.403506 0.334377 0.490669
Si Si3 0.119244 0.667060 0.987017
Si Si4 0.039228 0.333760 0.241923
Si Si5 0.238528 0.332144 0.839328
Si Si6 0.363318 0.163547 0.399301
O O1 0.007794 0.500000 0.132620
O O2 0.014270 0.729062 0.189987
O O3 0.875200 0.714369 0.154892
O O4 0.107524 0.725862 0.054378
O O5 0.500000 0.279944 0.500000
O O6 0.420395 0.500000 0.473021
O O7 0.422798 0.254072 0.426467
O O8 0.273891 0.299292 0.560186
O O9 0.128224 0.500000 0.986931
O O10 0.223808 0.719074 0.909182
O O11 0.000000 0.712628 0.000000
O O12 0.067189 0.500000 0.231112
O O13 0.151727 0.250883 0.225647
O O14 0.927168 0.299478 0.319524
O O15 0.259870 0.500000 0.827644
O O16 0.379563 0.000000 0.409639
#
# Coordination Sequence:
#
# PCOD8095152 Si02
#       6
#     8   8   8   8   8   8
#     4   8  15  29  48  67  91 127 164 197 240 289
#     4   9  18  34  57  79  95 118 156 196 229 268
#     4   7  11  23  44  67  88 115 159 208 242 273
#     4  10  20  32  46  68 100 132 156 185 235 292
#     4   9  17  30  49  70  91 122 167 209 238 273
#     4   9  19  34  49  71 103 129 151 186 233 284
#
# _framework density 18.409036
#
# number of rings (size 3 to 8) (size 9 to 14) (size 15 to 20)
#    0.000    3.333    0.000    2.000    0.000    3.000 
#    0.000    4.167    0.000    4.500    0.000    0.000 
#    0.000    0.000    0.000    0.000    0.000    0.000 
#
# Total GULP energy -297325.781258 kJ/mol
# GULP energy per Si atom -12388.574219 kJ/mol
# Density = 1.836714 g / cm^3
# Si number density = 18.409036 Si / 1000 Ang^3
#
#
#
# Elastic Constant Matrix: (Units=GPa)
#
#
# Indices 1 2 3 4 5 6 
#
# 1 81.2116 24.4594 37.0257 0.0000 5.6139 0.0000
# 2 24.4594 28.6536 30.8304 0.0000 0.2162 0.0000
# 3 37.0257 30.8304 109.5489 0.0000 3.6351 0.0000
# 4 0.0000 0.0000 0.0000 21.1093 0.0000 -0.0867
# 5 5.6139 0.2162 3.6351 0.0000 24.1544 0.0000
# 6 0.0000 0.0000 0.0000 -0.0867 0.0000 22.1635
#
#
#
# Elastic Compliance Matrix: (Units=1/GPa)
#
#
# Indices 1 2 3 4 5 6 
#
# 1 0.017298 -0.012301 -0.002266 0.000000 -0.003569 0.000000
# 2 -0.012301 0.058873 -0.012551 0.000000 0.004221 0.000000
# 3 -0.002266 -0.012551 0.013473 0.000000 -0.001388 0.000000
# 4 0.000000 0.000000 0.000000 0.047373 0.000000 0.000185
# 5 -0.003569 0.004221 -0.001388 0.000000 0.042401 0.000000
# 6 0.000000 0.000000 0.000000 0.000185 0.000000 0.045120
#
#
# Mechanical properties :
#
#
# Convention : Reuss Voigt Hill
#
# Bulk Modulus (GPa) = 28.24294 44.89391 36.56842
# Shear Modulus (GPa) = 17.20716 21.95868 19.58292
#
# Velocity S-wave (km/s) = 3.06062 3.45747 3.26508
# Velocity P-wave (km/s) = 5.27874 6.35442 5.84139
#
# Compressibility (1/GPa) = 0.03540708
#
# Stress axis : x y z
#
# Youngs Moduli (GPa) = 57.80940 16.98582 74.22445
#
# Poissons Ratio (x) = 0.20894 0.16821
# Poissons Ratio (y) = 0.71110 0.93160
# Poissons Ratio (z) = 0.13101 0.21319
#
# Static dielectric constant tensor:
#      x y z
#    x 3.370080 0.000000 0.163140 
#    y 0.000000 2.972520 0.000000 
#    z 0.163140 0.000000 3.685320 
# 
# 
# High freq. dielectric constant tensor:
#      x y z
#    x 1.705240 0.000000 0.002220 
#    y 0.000000 1.673510 0.000000 
#    z 0.002220 0.000000 1.724110 
# 
# From -- ./inp_files/267710.got.cif
#   From: 2010.06.25/outbox.cif.g09.slc.cpg/sg12_134_cif.got.tgz:267710.got - 2010.06.28 00:19:55.
