data_PCOD8095195
_publ_section_title
;
Structure prediction by ZEFSAII (Michael W. Deem and Ramdas Pophale) SiO2 
 PCOD8095195
Probable space group: C 2/M
;
_chemical_formula_sum "Si O2"
_cell_formula_units_Z 56
_cell_length_a 25.301061
_cell_length_b 9.246793
_cell_length_c 13.980509
_cell_angle_alpha 90.000000
_cell_angle_beta 104.858590
_cell_angle_gamma 90.000000
_cell_volume 3161.421629
_symmetry_space_group_name_H-M "C 2/M"
_symmetry_group_IT_number 12
_symmetry_cell_setting 'monoclinic'
loop_
_space_group_symop_operation_xyz
x,y,z
-x,y,-z
-x,-y,-z
x,-y,z
1/2+x,1/2+y,z
1/2-x,1/2+y,-z
1/2-x,1/2-y,-z
1/2+x,1/2-y,z
loop_
_atom_site_type_symbol
_atom_site_label
_atom_site_fract_x
_atom_site_fract_y
_atom_site_fract_z
Si Si1 0.433144 0.329040 0.870134
Si Si2 0.342069 0.831992 0.499164
Si Si3 0.379586 0.333956 0.235812
Si Si4 0.938547 0.833430 0.457606
Si Si5 0.781057 0.829739 0.310824
Si Si6 0.839583 0.335374 0.719679
Si Si7 0.055665 0.827801 0.911022
O O1 0.429168 0.500000 0.859804
O O2 0.387226 0.264359 0.780933
O O3 0.493240 0.274272 0.865496
O O4 0.422876 0.278852 0.974933
O O5 0.401601 0.765823 0.507514
O O6 0.296174 0.751404 0.415695
O O7 0.328590 0.806849 0.603401
O O8 0.342135 0.000000 0.471524
O O9 0.370853 0.500000 0.206312
O O10 0.423465 0.312189 0.339945
O O11 0.320553 0.271840 0.243125
O O12 0.404225 0.258963 0.151428
O O13 0.000000 0.780057 0.500000
O O14 0.931196 0.000000 0.485782
O O15 0.718042 0.800036 0.254216
O O16 0.792007 0.000000 0.333952
O O17 0.857168 0.500000 0.746468
O O18 0.054823 0.000000 0.904327
#
# Coordination Sequence:
#
# PCOD8095195 Si02
#       7
#     8   8   8   8   8   8   8
#     4   9  18  31  51  75  96 122 159 204 246 290
#     4  10  20  32  47  69 100 133 160 198 248 289
#     4   8  14  27  49  70  92 123 158 199 242 279
#     4   9  18  30  47  73  99 127 166 200 229 285
#     4   9  18  34  52  70  94 130 170 203 235 286
#     4  10  21  34  48  70 101 131 163 200 246 294
#     4   8  15  30  50  74  98 120 156 203 250 290
#
# _framework density 17.713550000000001
#
# number of rings (size 3 to 8) (size 9 to 14) (size 15 to 20)
#    0.000    3.000    0.000    2.571    2.000    2.000 
#    0.000    2.143    0.000    3.429    0.000    0.000 
#    0.000    0.000    0.000    0.000    0.000    0.000 
#
# Total GULP energy -347042.854353 kJ/mol
# GULP energy per Si atom -12394.387655 kJ/mol
# Density = 1.767323 g / cm^3
# Si number density = 17.713550 Si / 1000 Ang^3
#
#
#
# Elastic Constant Matrix: (Units=GPa)
#
#
# Indices 1 2 3 4 5 6 
#
# 1 99.7019 30.7657 44.5404 0.0000 -7.5666 0.0000
# 2 30.7657 44.0002 25.9074 0.0000 1.2307 0.0000
# 3 44.5404 25.9074 59.1915 0.0000 -11.0869 0.0000
# 4 0.0000 0.0000 0.0000 17.4141 0.0000 1.9996
# 5 -7.5666 1.2307 -11.0869 0.0000 30.8262 0.0000
# 6 0.0000 0.0000 0.0000 1.9996 0.0000 21.6087
#
#
#
# Elastic Compliance Matrix: (Units=1/GPa)
#
#
# Indices 1 2 3 4 5 6 
#
# 1 0.016069 -0.005688 -0.009457 0.000000 0.000770 0.000000
# 2 -0.005688 0.033888 -0.011866 0.000000 -0.007017 0.000000
# 3 -0.009457 -0.011866 0.030943 0.000000 0.009281 0.000000
# 4 0.000000 0.000000 0.000000 0.058042 0.000000 -0.005371
# 5 0.000770 -0.007017 0.009281 0.000000 0.036247 0.000000
# 6 0.000000 0.000000 0.000000 -0.005371 0.000000 0.046775
#
#
# Mechanical properties :
#
#
# Convention : Reuss Voigt Hill
#
# Bulk Modulus (GPa) = 37.20882 45.03563 41.12223
# Shear Modulus (GPa) = 17.54726 20.74847 19.14786
#
# Velocity S-wave (km/s) = 3.15081 3.42619 3.29138
# Velocity P-wave (km/s) = 5.85562 6.41337 6.14083
#
# Compressibility (1/GPa) = 0.02687535
#
# Stress axis : x y z
#
# Youngs Moduli (GPa) = 62.23334 29.50918 32.31764
#
# Poissons Ratio (x) = 0.16786 0.30564
# Poissons Ratio (y) = 0.35401 0.38349
# Poissons Ratio (z) = 0.58856 0.35016
#
# Static dielectric constant tensor:
#      x y z
#    x 3.628650 0.000000 -0.240320 
#    y 0.000000 2.979250 0.000000 
#    z -0.240320 0.000000 3.246440 
# 
# 
# High freq. dielectric constant tensor:
#      x y z
#    x 1.698790 0.000000 -0.007810 
#    y 0.000000 1.649710 0.000000 
#    z -0.007810 0.000000 1.670800 
# 
# From -- ./inp_files/181107.got.cif
#   From: 2010.06.25/outbox.cif.g09.slc.cpg/sg12_91_cif.got.tgz:181107.got - 2010.06.28 00:19:55.
