data_PCOD8095257
_publ_section_title
;
Structure prediction by ZEFSAII (Michael W. Deem and Ramdas Pophale) SiO2 
 PCOD8095257
Probable space group: C 2/M
;
_chemical_formula_sum "Si O2"
_cell_formula_units_Z 48
_cell_length_a 19.738104
_cell_length_b 8.984008
_cell_length_c 24.033966
_cell_angle_alpha 90.000000
_cell_angle_beta 38.854605
_cell_angle_gamma 90.000000
_cell_volume 2673.673194
_symmetry_space_group_name_H-M "C 2/M"
_symmetry_group_IT_number 12
_symmetry_cell_setting 'monoclinic'
loop_
_space_group_symop_operation_xyz
x,y,z
-x,y,-z
-x,-y,-z
x,-y,z
1/2+x,1/2+y,z
1/2-x,1/2+y,-z
1/2-x,1/2-y,-z
1/2+x,1/2-y,z
loop_
_atom_site_type_symbol
_atom_site_label
_atom_site_fract_x
_atom_site_fract_y
_atom_site_fract_z
Si Si1 0.240329 0.671812 0.706974
Si Si2 0.247949 0.826169 0.587769
Si Si3 0.654039 0.826423 0.255878
Si Si4 0.142528 0.827737 0.937919
Si Si5 0.463327 0.171859 0.098519
Si Si6 0.587623 0.826383 0.613339
O O1 0.270050 0.500000 0.680364
O O2 0.275705 0.758344 0.629622
O O3 0.307461 0.732051 0.716155
O O4 0.110368 0.691869 0.799462
O O5 0.347974 0.786075 0.483934
O O6 0.137707 0.759030 0.633734
O O7 0.231488 0.000000 0.605247
O O8 0.729523 0.798593 0.152970
O O9 0.534913 0.772973 0.315618
O O10 0.656151 0.000000 0.271521
O O11 0.088700 0.775423 0.915044
O O12 0.118906 0.000000 0.964149
O O13 0.087787 0.732694 0.023992
O O14 0.464233 0.000000 0.079406
O O15 0.595118 0.000000 0.622118
#
# Coordination Sequence:
#
# PCOD8095257 Si02
#       6
#     8   8   8   8   8   8
#     4  10  20  32  48  72 101 130 160 198 240 280
#     4  10  20  34  53  73  94 125 163 200 238 285
#     4   9  18  32  50  73 100 128 158 195 240 286
#     4   9  15  24  42  67  93 122 155 191 230 275
#     4   9  16  26  41  63  93 127 157 188 231 278
#     4   9  19  36  54  71  95 127 160 195 240 292
#
# _framework density 17.952829999999999
#
# number of rings (size 3 to 8) (size 9 to 14) (size 15 to 20)
#    0.000    2.667    0.000    3.000    0.000    4.667 
#    0.000    3.333    0.000    1.000    0.000    0.000 
#    0.000    0.000    0.000    0.000    0.000    0.000 
#
# Total GULP energy -297422.529982 kJ/mol
# GULP energy per Si atom -12392.605416 kJ/mol
# Density = 1.791197 g / cm^3
# Si number density = 17.952830 Si / 1000 Ang^3
#
#
#
# Elastic Constant Matrix: (Units=GPa)
#
#
# Indices 1 2 3 4 5 6 
#
# 1 51.0431 21.8548 28.3316 0.0000 -23.5291 0.0001
# 2 21.8548 57.0286 25.4180 0.0000 -10.3062 0.0000
# 3 28.3316 25.4180 67.9352 0.0000 -31.2796 0.0002
# 4 0.0000 0.0000 0.0000 30.4217 0.0000 2.3401
# 5 -23.5291 -10.3062 -31.2796 0.0000 23.0755 0.0002
# 6 0.0001 0.0000 0.0002 2.3401 0.0002 24.3749
#
#
#
# Elastic Compliance Matrix: (Units=1/GPa)
#
#
# Indices 1 2 3 4 5 6 
#
# 1 0.043456 -0.011893 0.011395 0.000000 0.054445 -0.000001
# 2 -0.011893 0.024400 -0.012598 0.000000 -0.018307 0.000000
# 3 0.011395 -0.012598 0.046400 0.000000 0.068890 -0.000001
# 4 0.000000 0.000000 0.000000 0.033116 0.000000 -0.003179
# 5 0.054445 -0.018307 0.068890 0.000000 0.184057 -0.000002
# 6 -0.000001 0.000000 -0.000001 -0.003179 -0.000002 0.041331
#
#
# Mechanical properties :
#
#
# Convention : Reuss Voigt Hill
#
# Bulk Modulus (GPa) = 11.35541 36.35730 23.85636
# Shear Modulus (GPa) = 11.67389 22.26793 16.97091
#
# Velocity S-wave (km/s) = 2.55277 3.52569 3.07792
# Velocity P-wave (km/s) = 3.87656 6.07203 5.09398
#
# Compressibility (1/GPa) = 0.08806372
#
# Stress axis : x y z
#
# Youngs Moduli (GPa) = 23.01200 40.98438 21.55149
#
# Poissons Ratio (x) = 0.48743 -0.24559
# Poissons Ratio (y) = 0.27368 0.27151
# Poissons Ratio (z) = -0.26223 0.51633
#
# Static dielectric constant tensor:
#      x y z
#    x 2.936660 0.000000 -0.323550 
#    y 0.000000 3.375090 0.000000 
#    z -0.323550 0.000000 4.058510 
# 
# 
# High freq. dielectric constant tensor:
#      x y z
#    x 1.642570 0.000000 -0.015740 
#    y 0.000000 1.706090 0.000000 
#    z -0.015740 0.000000 1.711730 
# 
# From -- ./inp_files/229264.got.cif
#   From: 2010.06.25/outbox.cif.g09.slc.cpg/sg12_115_cif.got.tgz:229264.got - 2010.06.28 00:19:55.
