data_PCOD8095194
_publ_section_title
;
Structure prediction by ZEFSAII (Michael W. Deem and Ramdas Pophale) SiO2 
 PCOD8095194
Probable space group: C 2/M
;
_chemical_formula_sum "Si O2"
_cell_formula_units_Z 56
_cell_length_a 10.428912
_cell_length_b 27.394991
_cell_length_c 17.901236
_cell_angle_alpha 90.000000
_cell_angle_beta 142.451974
_cell_angle_gamma 90.000000
_cell_volume 3116.838600
_symmetry_space_group_name_H-M "C 2/M"
_symmetry_group_IT_number 12
_symmetry_cell_setting 'monoclinic'
loop_
_space_group_symop_operation_xyz
x,y,z
-x,y,-z
-x,-y,-z
x,-y,z
1/2+x,1/2+y,z
1/2-x,1/2+y,-z
1/2-x,1/2-y,-z
1/2+x,1/2-y,z
loop_
_atom_site_type_symbol
_atom_site_label
_atom_site_fract_x
_atom_site_fract_y
_atom_site_fract_z
Si Si1 0.045171 0.367967 0.362917
Si Si2 0.115959 0.741363 0.715984
Si Si3 0.786116 0.055470 0.802428
Si Si4 0.423681 0.129203 0.792185
Si Si5 0.437614 0.236757 0.139407
Si Si6 0.482402 0.337106 0.581330
Si Si7 0.248104 0.554770 0.962225
O O1 0.971587 0.312551 0.336136
O O2 0.872013 0.406841 0.313969
O O3 0.088433 0.386114 0.299423
O O4 0.273913 0.367641 0.509571
O O5 0.350658 0.739224 0.793003
O O6 0.111791 0.756277 0.800786
O O7 0.975644 0.781315 0.607534
O O8 0.768923 0.060343 0.883183
O O9 0.732895 0.000000 0.752646
O O10 0.029667 0.068668 0.895542
O O11 0.551120 0.178838 0.856777
O O12 0.556251 0.089422 0.900945
O O13 0.184015 0.135262 0.710753
O O14 0.250000 0.250000 0.000000
O O15 0.500000 0.333045 0.500000
O O16 0.185928 0.500000 0.955657
#
# Coordination Sequence:
#
# PCOD8095194 Si02
#       7
#     8   8   8   8   8   8   8
#     4   9  16  26  43  62  87 124 157 191 237 282
#     4  10  20  32  47  70  96 130 167 195 238 289
#     4   8  14  23  37  60  88 117 151 192 240 288
#     4   8  16  27  41  62  89 121 153 191 239 285
#     4  10  20  32  47  69 100 129 158 198 242 289
#     4   9  17  31  46  64  94 127 162 201 232 274
#     4   8  13  23  39  59  87 119 150 189 238 296
#
# _framework density 17.966923000000001
#
# number of rings (size 3 to 8) (size 9 to 14) (size 15 to 20)
#    0.000    3.143    0.000    2.571    2.000    0.000 
#    0.000    0.714    0.000    4.286    0.000    0.000 
#    0.000   20.000    0.000    0.000    0.000    0.000 
#
# Total GULP energy -346880.707735 kJ/mol
# GULP energy per Si atom -12388.596705 kJ/mol
# Density = 1.792603 g / cm^3
# Si number density = 17.966923 Si / 1000 Ang^3
#
#
#
# Elastic Constant Matrix: (Units=GPa)
#
#
# Indices 1 2 3 4 5 6 
#
# 1 26.0649 22.8760 -1.6992 0.0003 -13.0273 0.0001
# 2 22.8760 98.2818 72.1902 0.0001 26.7206 0.0000
# 3 -1.6992 72.1902 85.2057 0.0001 5.2455 -0.0003
# 4 0.0003 0.0001 0.0001 33.4312 0.0002 9.1243
# 5 -13.0273 26.7206 5.2455 0.0002 3.3986 -0.0001
# 6 0.0001 0.0000 -0.0003 9.1243 -0.0001 17.1615
#
#
#
# Elastic Compliance Matrix: (Units=1/GPa)
#
#
# Indices 1 2 3 4 5 6 
#
# 1 0.011954 0.011346 -0.007408 0.000000 -0.031954 0.000000
# 2 0.011346 0.002720 -0.003800 0.000000 0.027974 0.000000
# 3 -0.007408 -0.003800 0.016262 0.000000 -0.023615 0.000000
# 4 0.000000 0.000000 0.000000 0.034990 0.000000 -0.018603
# 5 -0.031954 0.027974 -0.023615 0.000000 -0.011732 -0.000001
# 6 0.000000 0.000000 0.000000 -0.018603 -0.000001 0.068161
#
#
# Mechanical properties :
#
#
# Convention : Reuss Voigt Hill
#
# Bulk Modulus (GPa) = 32.03802 44.03182 38.03492
# Shear Modulus (GPa) = 37.74121 18.54393 28.14257
#
# Velocity S-wave (km/s) = 4.58820 3.21614 3.96201
# Velocity P-wave (km/s) = 6.77784 6.19288 6.49195
#
# Compressibility (1/GPa) = 0.03121292
#
# Stress axis : x y z
#
# Youngs Moduli (GPa) = 83.65556 367.66313 61.49230
#
# Poissons Ratio (x) = -4.17164 0.45551
# Poissons Ratio (y) = -0.94919 0.23369
# Poissons Ratio (z) = 0.61968 1.39722
#
# Static dielectric constant tensor:
#      x y z
#    x 3.066890 0.000030 0.388590 
#    y 0.000030 2.166880 0.000090 
#    z 0.388590 0.000090 3.587120 
# 
# 
# High freq. dielectric constant tensor:
#      x y z
#    x 1.650650 0.000000 0.034420 
#    y 0.000000 1.686320 0.000000 
#    z 0.034420 0.000000 1.697290 
# 
# From -- ./inp_files/136739.got.cif
#   From: 2010.06.25/outbox.cif.g09.slc.cpg/sg12_69_cif.got.tgz:136739.got - 2010.06.28 00:19:55.
