data_PCOD8095773
_publ_section_title
;
Structure prediction by ZEFSAII (Michael W. Deem and Ramdas Pophale) SiO2 
 PCOD8095773
Probable space group: C 2/M
;
_chemical_formula_sum "Si O2"
_cell_formula_units_Z 56
_cell_length_a 27.822727
_cell_length_b 8.549871
_cell_length_c 12.839109
_cell_angle_alpha 90.000000
_cell_angle_beta 112.838772
_cell_angle_gamma 90.000000
_cell_volume 2814.731301
_symmetry_space_group_name_H-M "C 2/M"
_symmetry_group_IT_number 12
_symmetry_cell_setting 'monoclinic'
loop_
_space_group_symop_operation_xyz
x,y,z
-x,y,-z
-x,-y,-z
x,-y,z
1/2+x,1/2+y,z
1/2-x,1/2+y,-z
1/2-x,1/2-y,-z
1/2+x,1/2-y,z
loop_
_atom_site_type_symbol
_atom_site_label
_atom_site_fract_x
_atom_site_fract_y
_atom_site_fract_z
Si Si1 0.345559 0.314189 0.834651
Si Si2 0.806693 0.186163 0.023804
Si Si3 0.005915 0.186163 0.311541
Si Si4 0.459465 0.686634 0.882867
Si Si5 0.695497 0.685493 0.418317
Si Si6 0.609211 0.686083 0.737625
Si Si7 0.391001 0.685723 0.494742
O O1 0.347184 0.500000 0.840930
O O2 0.322101 0.248672 0.922627
O O3 0.403445 0.246844 0.868437
O O4 0.312360 0.257239 0.707123
O O5 0.805783 0.000000 0.025173
O O6 0.750000 0.250000 0.000000
O O7 0.848462 0.250450 0.143860
O O8 0.024060 0.251175 0.215393
O O9 0.049846 0.242919 0.431020
O O10 0.948578 0.254589 0.288029
O O11 0.002639 0.000000 0.308495
O O12 0.458589 0.500000 0.880533
O O13 0.500000 0.752742 0.000000
O O14 0.695119 0.500000 0.424074
O O15 0.750000 0.750000 0.500000
O O16 0.649973 0.753340 0.455288
O O17 0.607580 0.500000 0.743158
O O18 0.625186 0.741780 0.634753
O O19 0.390125 0.500000 0.500778
#
# Coordination Sequence:
#
# PCOD8095773 Si02
#       7
#     8   8   8   8   8   8   8
#     4   9  17  31  46  66  97 127 156 195 241 283
#     4  10  21  35  50  69  96 129 164 200 237 280
#     4   9  14  23  39  64  95 123 150 186 238 290
#     4   9  14  21  38  62  91 124 152 182 230 289
#     4  10  20  33  50  71  97 129 163 198 237 280
#     4   9  17  27  42  66  96 126 155 191 237 286
#     4   9  16  27  43  66  95 124 153 191 241 288
#
# _framework density 19.895326000000001
#
# number of rings (size 3 to 8) (size 9 to 14) (size 15 to 20)
#    0.000    2.714    1.429    1.286    2.000    5.143 
#    0.000    0.000    0.000    0.000    0.000    1.000 
#    0.000    4.571    0.000    0.000    0.000    0.000 
#
# Total GULP energy -347055.336619 kJ/mol
# GULP energy per Si atom -12394.833451 kJ/mol
# Density = 1.985004 g / cm^3
# Si number density = 19.895326 Si / 1000 Ang^3
#
#
#
# Elastic Constant Matrix: (Units=GPa)
#
#
# Indices 1 2 3 4 5 6 
#
# 1 167.2244 8.1797 108.0604 0.0000 2.5150 0.0000
# 2 8.1797 2.9009 9.6728 0.0000 -0.2653 0.0000
# 3 108.0604 9.6728 214.5439 0.0000 0.1495 0.0000
# 4 0.0000 0.0000 0.0000 9.8431 0.0000 5.9028
# 5 2.5150 -0.2653 0.1495 0.0000 46.2484 0.0000
# 6 0.0000 0.0000 0.0000 5.9028 0.0000 17.1136
#
#
#
# Elastic Compliance Matrix: (Units=1/GPa)
#
#
# Indices 1 2 3 4 5 6 
#
# 1 0.009243 -0.012466 -0.004093 0.000000 -0.000561 0.000000
# 2 -0.012466 0.422783 -0.012785 0.000000 0.003145 0.000000
# 3 -0.004093 -0.012785 0.007299 0.000000 0.000126 0.000000
# 4 0.000000 0.000000 0.000000 0.128088 0.000000 -0.044180
# 5 -0.000561 0.003145 0.000126 0.000000 0.021670 0.000000
# 6 0.000000 0.000000 0.000000 -0.044180 0.000000 0.073672
#
#
# Mechanical properties :
#
#
# Convention : Reuss Voigt Hill
#
# Bulk Modulus (GPa) = 2.62717 70.72168 36.67443
# Shear Modulus (GPa) = 5.89398 31.89145 18.89272
#
# Velocity S-wave (km/s) = 1.72306 4.00804 3.08491
# Velocity P-wave (km/s) = 2.29825 7.55270 5.58235
#
# Compressibility (1/GPa) = 0.38063733
#
# Stress axis : x y z
#
# Youngs Moduli (GPa) = 108.18801 2.36528 137.00548
#
# Poissons Ratio (x) = 0.02949 0.56078
# Poissons Ratio (y) = 1.34867 1.75158
# Poissons Ratio (z) = 0.44283 0.03024
#
# Static dielectric constant tensor:
#      x y z
#    x 3.809500 0.000000 -0.129090 
#    y 0.000000 2.767340 0.000000 
#    z -0.129090 0.000000 3.977640 
# 
# 
# High freq. dielectric constant tensor:
#      x y z
#    x 1.789490 0.000000 -0.001810 
#    y 0.000000 1.685340 0.000000 
#    z -0.001810 0.000000 1.797830 
# 
# From -- ./inp_files/174473.got.cif
#   From: 2010.06.25/outbox.cif.g09.slc.cpg/sg12_88_cif.got.tgz:174473.got - 2010.06.28 00:19:55.
