data_PCOD8095570
_publ_section_title
;
Structure prediction by ZEFSAII (Michael W. Deem and Ramdas Pophale) SiO2 
 PCOD8095570
Probable space group: C 2/M
;
_chemical_formula_sum "Si O2"
_cell_formula_units_Z 36
_cell_length_a 23.081000
_cell_length_b 9.084030
_cell_length_c 14.835652
_cell_angle_alpha 90.000000
_cell_angle_beta 142.682034
_cell_angle_gamma 90.000000
_cell_volume 1885.744427
_symmetry_space_group_name_H-M "C 2/M"
_symmetry_group_IT_number 12
_symmetry_cell_setting 'monoclinic'
loop_
_space_group_symop_operation_xyz
x,y,z
-x,y,-z
-x,-y,-z
x,-y,z
1/2+x,1/2+y,z
1/2-x,1/2+y,-z
1/2-x,1/2-y,-z
1/2+x,1/2-y,z
loop_
_atom_site_type_symbol
_atom_site_label
_atom_site_fract_x
_atom_site_fract_y
_atom_site_fract_z
Si Si1 0.000000 0.745962 0.000000
Si Si2 0.517454 0.660145 0.221639
Si Si3 0.291252 0.165636 0.785166
Si Si4 0.310480 0.826288 0.498574
Si Si5 0.198922 0.169761 0.018265
O O1 0.902438 0.653445 0.891982
O O2 0.986601 0.840038 0.892547
O O3 0.560105 0.500000 0.300232
O O4 0.579520 0.788416 0.344003
O O5 0.414006 0.678634 0.137333
O O6 0.225120 0.263371 0.639464
O O7 0.275461 0.241364 0.860895
O O8 0.251206 0.000000 0.738824
O O9 0.250000 0.750000 0.500000
O O10 0.295886 0.000000 0.482291
O O11 0.232756 0.000000 0.068275
O O12 0.250000 0.250000 0.000000
#
# Coordination Sequence:
#
# PCOD8095570 Si02
#       5
#     4   8   8   8   8
#     4  10  20  32  58  86 120 150 196 234 294 348
#     4  10  21  37  59  86 119 155 194 240 293 348
#     4  11  22  37  59  87 120 155 196 242 292 349
#     4  12  24  37  56  85 123 160 195 237 291 353
#     4  10  22  41  64  89 117 153 198 246 294 344
#
# _framework density 19.090603000000002
#
# number of rings (size 3 to 8) (size 9 to 14) (size 15 to 20)
#    0.000    1.333    2.222    4.000    0.000    6.222 
#    0.000    1.111    0.000    6.667    0.000    0.000 
#    0.000    0.000    0.000    0.000    0.000    0.000 
#
# Total GULP energy -223141.688243 kJ/mol
# GULP energy per Si atom -12396.760458 kJ/mol
# Density = 1.904715 g / cm^3
# Si number density = 19.090603 Si / 1000 Ang^3
#
#
#
# Elastic Constant Matrix: (Units=GPa)
#
#
# Indices 1 2 3 4 5 6 
#
# 1 131.3619 61.7378 43.6267 0.0000 -6.9257 0.0000
# 2 61.7378 192.8884 62.2084 0.0000 -7.5897 0.0000
# 3 43.6267 62.2084 109.6107 0.0000 -10.9401 0.0000
# 4 0.0000 0.0000 0.0000 31.9502 0.0000 -4.0031
# 5 -6.9257 -7.5897 -10.9401 0.0000 18.4028 0.0000
# 6 0.0000 0.0000 0.0000 -4.0031 0.0000 26.1114
#
#
#
# Elastic Compliance Matrix: (Units=1/GPa)
#
#
# Indices 1 2 3 4 5 6 
#
# 1 0.009521 -0.002223 -0.002404 0.000000 0.001237 0.000000
# 2 -0.002223 0.006870 -0.002992 0.000000 0.000218 0.000000
# 3 -0.002404 -0.002992 0.012294 0.000000 0.005170 0.000000
# 4 0.000000 0.000000 0.000000 0.031912 0.000000 0.004892
# 5 0.001237 0.000218 0.005170 0.000000 0.057968 0.000000
# 6 0.000000 0.000000 0.000000 0.004892 0.000000 0.039047
#
#
# Mechanical properties :
#
#
# Convention : Reuss Voigt Hill
#
# Bulk Modulus (GPa) = 74.37405 85.44519 79.90962
# Shear Modulus (GPa) = 28.19544 33.04543 30.62044
#
# Velocity S-wave (km/s) = 3.84725 4.16502 4.00928
# Velocity P-wave (km/s) = 7.66669 8.24528 7.96125
#
# Compressibility (1/GPa) = 0.01344555
#
# Stress axis : x y z
#
# Youngs Moduli (GPa) = 105.02878 145.57062 81.33891
#
# Poissons Ratio (x) = 0.32366 0.19556
# Poissons Ratio (y) = 0.23352 0.24337
# Poissons Ratio (z) = 0.25252 0.43556
#
# Static dielectric constant tensor:
#      x y z
#    x 3.343410 0.000000 0.043940 
#    y 0.000000 3.661310 0.000000 
#    z 0.043940 0.000000 3.389210 
# 
# 
# High freq. dielectric constant tensor:
#      x y z
#    x 1.728580 0.000000 -0.004660 
#    y 0.000000 1.755990 0.000000 
#    z -0.004660 0.000000 1.744550 
# 
# From -- ./inp_files/221304.got.cif
#   From: 2010.06.25/outbox.cif.g09.slc.cpg/sg12_111_cif.got.tgz:221304.got - 2010.06.28 00:19:55.
