data_PCOD8095915
_publ_section_title
;
Structure prediction by ZEFSAII (Michael W. Deem and Ramdas Pophale) SiO2 
 PCOD8095915
Probable space group: C 2/M
;
_chemical_formula_sum "Si O2"
_cell_formula_units_Z 48
_cell_length_a 24.968134
_cell_length_b 25.271403
_cell_length_c 11.842944
_cell_angle_alpha 90.000000
_cell_angle_beta 20.635738
_cell_angle_gamma 90.000000
_cell_volume 2633.554862
_symmetry_space_group_name_H-M "C 2/M"
_symmetry_group_IT_number 12
_symmetry_cell_setting 'monoclinic'
loop_
_space_group_symop_operation_xyz
x,y,z
-x,y,-z
-x,-y,-z
x,-y,z
1/2+x,1/2+y,z
1/2-x,1/2+y,-z
1/2-x,1/2-y,-z
1/2+x,1/2-y,z
loop_
_atom_site_type_symbol
_atom_site_label
_atom_site_fract_x
_atom_site_fract_y
_atom_site_fract_z
Si Si1 0.166329 0.693036 0.537124
Si Si2 0.298298 0.590773 0.180186
Si Si3 0.342568 0.597175 0.523934
Si Si4 0.666479 0.058498 0.667157
Si Si5 0.686828 0.804965 0.757349
Si Si6 0.308580 0.500000 0.995526
Si Si7 0.169609 0.000000 0.300966
O O1 0.221783 0.648545 0.338670
O O2 0.243615 0.748056 0.354898
O O3 0.210605 0.676935 0.578869
O O4 0.988959 0.699537 0.868558
O O5 0.239705 0.556457 0.400038
O O6 0.477502 0.600066 0.826053
O O7 0.248725 0.554782 0.170489
O O8 0.292554 0.583659 0.496877
O O9 0.267158 0.655156 0.688602
O O10 0.276698 0.553554 0.741228
O O11 0.635594 0.000000 0.773608
O O12 0.500000 0.088446 0.000000
O O13 0.489199 0.500000 0.650037
O O14 0.254898 0.500000 0.971714
#
# Coordination Sequence:
#
# PCOD8095915 Si02
#       7
#     8   8   8   8   8   4   4
#     4  10  20  33  50  76 111 147 175 212 259 314
#     4  11  20  32  54  79 106 141 178 218 261 317
#     4  11  20  32  54  79 106 141 178 218 261 317
#     4  11  21  31  46  73 110 143 171 212 264 318
#     4  10  20  33  50  76 111 147 175 212 259 314
#     4   9  20  37  55  78 106 139 180 223 268 313
#     4   9  20  37  55  78 106 139 180 223 268 313
#
# _framework density 18.226313999999999
#
# number of rings (size 3 to 8) (size 9 to 14) (size 15 to 20)
#    0.000    1.667    3.333    2.500    0.000    2.000 
#    0.000    0.000    0.000    9.000    0.000    0.000 
#    0.000    0.000    0.000    0.000    0.000    0.000 
#
# Total GULP energy -297418.479776 kJ/mol
# GULP energy per Si atom -12392.436657 kJ/mol
# Density = 1.818483 g / cm^3
# Si number density = 18.226314 Si / 1000 Ang^3
#
#
#
# Elastic Constant Matrix: (Units=GPa)
#
#
# Indices 1 2 3 4 5 6 
#
# 1 75.0698 59.3736 37.6706 -0.0049 16.7334 0.0078
# 2 59.3736 159.3584 61.2305 0.0057 5.2058 -0.0055
# 3 37.6706 61.2305 87.9270 0.0243 -3.1760 -0.0142
# 4 -0.0049 0.0057 0.0243 36.0245 -0.0015 -5.7431
# 5 16.7334 5.2058 -3.1760 -0.0015 20.7078 0.0016
# 6 0.0078 -0.0055 -0.0142 -5.7431 0.0016 19.2684
#
#
#
# Elastic Compliance Matrix: (Units=1/GPa)
#
#
# Indices 1 2 3 4 5 6 
#
# 1 0.027161 -0.006341 -0.008001 0.000007 -0.021581 -0.000015
# 2 -0.006341 0.010248 -0.004352 0.000001 0.001880 0.000002
# 3 -0.008001 -0.004352 0.018206 -0.000010 0.010352 0.000011
# 4 0.000007 0.000001 -0.000010 0.029144 -0.000006 0.008686
# 5 -0.021581 0.001880 0.010352 -0.000006 0.066846 0.000010
# 6 -0.000015 0.000002 0.000011 0.008686 0.000010 0.054488
#
#
# Mechanical properties :
#
#
# Convention : Reuss Voigt Hill
#
# Bulk Modulus (GPa) = 54.86117 70.98938 62.92527
# Shear Modulus (GPa) = 20.03559 26.13883 23.08721
#
# Velocity S-wave (km/s) = 3.31912 3.79109 3.56293
# Velocity P-wave (km/s) = 6.69732 7.62867 7.17811
#
# Compressibility (1/GPa) = 0.01822783
#
# Stress axis : x y z
#
# Youngs Moduli (GPa) = 36.81716 97.57577 54.92775
#
# Poissons Ratio (x) = 0.61868 0.43947
# Poissons Ratio (y) = 0.23344 0.23907
# Poissons Ratio (z) = 0.29457 0.42469
#
# Static dielectric constant tensor:
#      x y z
#    x 3.144460 -0.000030 -0.019130 
#    y -0.000030 3.673960 0.000070 
#    z -0.019130 0.000070 3.306200 
# 
# 
# High freq. dielectric constant tensor:
#      x y z
#    x 1.654920 0.000000 -0.010970 
#    y 0.000000 1.730000 0.000010 
#    z -0.010970 0.000010 1.705440 
# 
# From -- ./inp_files/178658.got.cif
#   From: 2010.06.25/outbox.cif.g09.slc.cpg/sg12_90_cif.got.tgz:178658.got - 2010.06.28 00:19:55.
