data_PCOD8095581
_publ_section_title
;
Structure prediction by ZEFSAII (Michael W. Deem and Ramdas Pophale) SiO2 
 PCOD8095581
Probable space group: C 2/M
;
_chemical_formula_sum "Si O2"
_cell_formula_units_Z 64
_cell_length_a 17.542803
_cell_length_b 13.658030
_cell_length_c 27.725413
_cell_angle_alpha 90.000000
_cell_angle_beta 35.385636
_cell_angle_gamma 90.000000
_cell_volume 3846.814465
_symmetry_space_group_name_H-M "C 2/M"
_symmetry_group_IT_number 12
_symmetry_cell_setting 'monoclinic'
loop_
_space_group_symop_operation_xyz
x,y,z
-x,y,-z
-x,-y,-z
x,-y,z
1/2+x,1/2+y,z
1/2-x,1/2+y,-z
1/2-x,1/2-y,-z
1/2+x,1/2-y,z
loop_
_atom_site_type_symbol
_atom_site_label
_atom_site_fract_x
_atom_site_fract_y
_atom_site_fract_z
Si Si1 0.802156 0.383973 0.310987
Si Si2 0.315331 0.385621 0.988879
Si Si3 0.595309 0.114913 0.180557
Si Si4 0.198326 0.384684 0.948404
Si Si5 0.399722 0.382654 0.664896
Si Si6 0.107495 0.893566 0.485673
Si Si7 0.482012 0.732553 0.061884
Si Si8 0.307149 0.724767 0.802963
O O1 0.785389 0.500000 0.323764
O O2 0.728480 0.349816 0.300226
O O3 0.731778 0.338317 0.395972
O O4 0.954766 0.353748 0.230452
O O5 0.340392 0.500000 0.974857
O O6 0.205705 0.356807 0.084746
O O7 0.270364 0.348339 0.959808
O O8 0.453198 0.335321 0.930933
O O9 0.621372 0.176563 0.215625
O O10 0.598264 0.000000 0.192118
O O11 0.179330 0.500000 0.956837
O O12 0.284602 0.349091 0.858948
O O13 0.053188 0.338220 0.022733
O O14 0.401945 0.500000 0.670298
O O15 0.533608 0.342997 0.569314
O O16 0.397636 0.329874 0.717510
O O17 0.000000 0.908037 0.500000
O O18 0.155079 0.000000 0.479446
O O19 0.329454 0.746757 0.152547
O O20 0.500000 0.681454 0.000000
#
# Coordination Sequence:
#
# PCOD8095581 Si02
#       8
#     8   8   8   8   8   8   8   8
#     4   8  15  28  49  72  92 117 147 185 228 267
#     4  10  20  34  51  65  84 120 160 195 226 263
#     4  10  20  33  47  66  89 118 157 195 226 259
#     4  10  21  34  47  64  89 120 151 187 231 275
#     4   9  17  29  48  73  97 119 146 180 224 278
#     4   7  11  24  45  69  95 118 141 175 222 272
#     4  10  20  33  46  65  87 118 152 192 230 262
#     4  11  22  31  45  67  95 123 150 188 227 269
#
# _framework density 16.637142999999998
#
# number of rings (size 3 to 8) (size 9 to 14) (size 15 to 20)
#    0.000    2.625    2.500    2.250    1.750    3.500 
#    0.000    0.625    0.000    0.000    0.000    0.000 
#    0.000    4.500    0.000    0.000    0.000    1.750 
#
# Total GULP energy -396545.977823 kJ/mol
# GULP energy per Si atom -12392.061807 kJ/mol
# Density = 1.659928 g / cm^3
# Si number density = 16.637143 Si / 1000 Ang^3
#
#
#
# Elastic Constant Matrix: (Units=GPa)
#
#
# Indices 1 2 3 4 5 6 
#
# 1 87.8610 31.2512 31.1697 0.0000 7.6049 0.0000
# 2 31.2512 36.2858 17.1771 0.0000 6.0164 0.0000
# 3 31.1697 17.1771 61.5168 0.0000 16.6294 0.0000
# 4 0.0000 0.0000 0.0000 11.0856 0.0000 3.2477
# 5 7.6049 6.0164 16.6294 0.0000 24.0089 0.0000
# 6 0.0000 0.0000 0.0000 3.2477 0.0000 27.0170
#
#
#
# Elastic Compliance Matrix: (Units=1/GPa)
#
#
# Indices 1 2 3 4 5 6 
#
# 1 0.017936 -0.012915 -0.005931 0.000000 0.001663 0.000000
# 2 -0.012915 0.041154 -0.004018 0.000000 -0.003439 0.000000
# 3 -0.005931 -0.004018 0.024119 0.000000 -0.013820 0.000000
# 4 0.000000 0.000000 0.000000 0.093499 0.000000 -0.011239
# 5 0.001663 -0.003439 -0.013820 0.000000 0.051558 0.000000
# 6 0.000000 0.000000 0.000000 -0.011239 0.000000 0.038365
#
#
# Mechanical properties :
#
#
# Convention : Reuss Voigt Hill
#
# Bulk Modulus (GPa) = 26.68060 38.31775 32.49917
# Shear Modulus (GPa) = 15.39162 19.49335 17.44248
#
# Velocity S-wave (km/s) = 3.04490 3.42669 3.24142
# Velocity P-wave (km/s) = 5.33231 6.22396 5.79531
#
# Compressibility (1/GPa) = 0.03748042
#
# Stress axis : x y z
#
# Youngs Moduli (GPa) = 55.75535 24.29883 41.46181
#
# Poissons Ratio (x) = 0.31382 0.24591
# Poissons Ratio (y) = 0.72008 0.16659
# Poissons Ratio (z) = 0.33069 0.09763
#
# Static dielectric constant tensor:
#      x y z
#    x 3.160320 0.000000 0.017000 
#    y 0.000000 2.835650 0.000000 
#    z 0.017000 0.000000 3.269710 
# 
# 
# High freq. dielectric constant tensor:
#      x y z
#    x 1.634860 0.000000 0.003960 
#    y 0.000000 1.609060 0.000000 
#    z 0.003960 0.000000 1.634400 
# 
# From -- ./inp_files/361237.got.cif
#   From: 2010.06.25/outbox.cif.g09.slc.cpg/sg12_181_cif.got.tgz:361237.got - 2010.06.28 00:19:55.
