data_PCOD8095437
_publ_section_title
;
Structure prediction by ZEFSAII (Michael W. Deem and Ramdas Pophale) SiO2 
 PCOD8095437
Probable space group: C 2/M
;
_chemical_formula_sum "Si O2"
_cell_formula_units_Z 64
_cell_length_a 21.986725
_cell_length_b 9.436071
_cell_length_c 24.130853
_cell_angle_alpha 90.000000
_cell_angle_beta 45.475310
_cell_angle_gamma 90.000000
_cell_volume 3569.295334
_symmetry_space_group_name_H-M "C 2/M"
_symmetry_group_IT_number 12
_symmetry_cell_setting 'monoclinic'
loop_
_space_group_symop_operation_xyz
x,y,z
-x,y,-z
-x,-y,-z
x,-y,z
1/2+x,1/2+y,z
1/2-x,1/2+y,-z
1/2-x,1/2-y,-z
1/2+x,1/2-y,z
loop_
_atom_site_type_symbol
_atom_site_label
_atom_site_fract_x
_atom_site_fract_y
_atom_site_fract_z
Si Si1 0.089517 0.836439 0.792375
Si Si2 0.983421 0.666382 0.946101
Si Si3 0.065367 0.833008 0.410539
Si Si4 0.516847 0.839233 0.219150
Si Si5 0.000966 0.657409 0.644257
Si Si6 0.165668 0.338401 0.039489
Si Si7 0.196142 0.342401 0.494124
Si Si8 0.284577 0.837408 0.641971
O O1 0.190640 0.821187 0.726164
O O2 0.055097 0.753522 0.867776
O O3 0.053196 0.768800 0.759365
O O4 0.061233 0.000000 0.814007
O O5 0.997991 0.500000 0.925566
O O6 0.888868 0.707370 0.981450
O O7 0.000000 0.703397 0.000000
O O8 0.156432 0.760124 0.358275
O O9 0.000000 0.782791 0.500000
O O10 0.031316 0.782561 0.373540
O O11 0.077079 0.000000 0.403070
O O12 0.532387 0.805411 0.273333
O O13 0.605484 0.817967 0.130884
O O14 0.483066 0.000000 0.232834
O O15 0.968047 0.500000 0.647293
O O16 0.102075 0.657759 0.578179
O O17 0.195357 0.500000 0.013315
O O18 0.250000 0.250000 0.000000
O O19 0.234982 0.500000 0.468494
O O20 0.250000 0.250000 0.500000
O O21 0.204655 0.278656 0.427189
O O22 0.315943 0.000000 0.624612
#
# Coordination Sequence:
#
# PCOD8095437 Si02
#       8
#     8   8   8   8   8   8   8   8
#     4  10  20  34  56  85 113 141 177 225 274 318
#     4   9  19  38  61  82 111 150 188 227 275 334
#     4  11  23  37  54  77 104 140 185 232 274 313
#     4   9  19  36  57  81 109 143 181 219 268 326
#     4  10  20  36  57  76 102 143 182 217 269 326
#     4   9  18  34  56  82 111 144 180 221 271 327
#     4  10  20  32  51  77 102 135 174 215 263 317
#     4  10  21  37  54  75 107 144 179 216 268 327
#
# _framework density 17.930710999999999
#
# number of rings (size 3 to 8) (size 9 to 14) (size 15 to 20)
#    0.000    2.250    1.250    2.250    0.000    5.250 
#    2.250    0.000    0.000    0.000    0.000    0.000 
#    0.000    0.000    0.000    0.000    0.000    0.000 
#
# Total GULP energy -396725.658959 kJ/mol
# GULP energy per Si atom -12397.676842 kJ/mol
# Density = 1.788990 g / cm^3
# Si number density = 17.930711 Si / 1000 Ang^3
#
#
#
# Elastic Constant Matrix: (Units=GPa)
#
#
# Indices 1 2 3 4 5 6 
#
# 1 117.7252 58.8653 54.2131 -0.0001 6.6322 0.0002
# 2 58.8653 84.2266 42.1002 -0.0003 -2.3343 0.0006
# 3 54.2131 42.1002 84.9157 0.0000 10.9817 0.0001
# 4 -0.0001 -0.0003 0.0000 18.3024 0.0001 -17.5783
# 5 6.6322 -2.3343 10.9817 0.0001 29.2735 0.0000
# 6 0.0002 0.0006 0.0001 -17.5783 0.0000 9.8762
#
#
#
# Elastic Compliance Matrix: (Units=1/GPa)
#
#
# Indices 1 2 3 4 5 6 
#
# 1 0.015039 -0.007837 -0.005459 0.000000 -0.001984 0.000000
# 2 -0.007837 0.020428 -0.005849 0.000001 0.005599 0.000001
# 3 -0.005459 -0.005849 0.018983 0.000000 -0.006351 0.000000
# 4 0.000000 0.000001 0.000000 -0.077014 0.000000 -0.137074
# 5 -0.001984 0.005599 -0.006351 0.000000 0.037439 0.000001
# 6 0.000000 0.000001 0.000000 -0.137074 0.000001 -0.142720
#
#
# Mechanical properties :
#
#
# Convention : Reuss Voigt Hill
#
# Bulk Modulus (GPa) = 61.88056 66.35829 64.11943
# Shear Modulus (GPa) = -59.40467 20.26968 -19.56749
#
# Velocity S-wave (km/s) = -5.76212 3.36586 -3.30704
# Velocity P-wave (km/s) = 3.11184 7.22453 4.61033
#
# Compressibility (1/GPa) = 0.01616016
#
# Stress axis : x y z
#
# Youngs Moduli (GPa) = 66.49539 48.95131 52.67859
#
# Poissons Ratio (x) = 0.38361 0.28759
# Poissons Ratio (y) = 0.52110 0.30812
# Poissons Ratio (z) = 0.36302 0.28632
#
# Static dielectric constant tensor:
#      x y z
#    x 3.354350 0.000000 0.048190 
#    y 0.000000 3.398460 0.000000 
#    z 0.048190 0.000000 3.154340 
# 
# 
# High freq. dielectric constant tensor:
#      x y z
#    x 1.691860 0.000000 0.005190 
#    y 0.000000 1.696610 0.000000 
#    z 0.005190 0.000000 1.691400 
# 
# From -- ./inp_files/345978.got.cif
#   From: 2010.06.25/outbox.cif.g09.slc.cpg/sg12_173_cif.got.tgz:345978.got - 2010.06.28 00:19:55.
