data_PCOD8095928
_publ_section_title
;
Structure prediction by ZEFSAII (Michael W. Deem and Ramdas Pophale) SiO2 
 PCOD8095928
Probable space group: C 2/M
;
_chemical_formula_sum "Si O2"
_cell_formula_units_Z 56
_cell_length_a 27.134487
_cell_length_b 9.328425
_cell_length_c 13.893096
_cell_angle_alpha 90.000000
_cell_angle_beta 126.479694
_cell_angle_gamma 90.000000
_cell_volume 2827.623283
_symmetry_space_group_name_H-M "C 2/M"
_symmetry_group_IT_number 12
_symmetry_cell_setting 'monoclinic'
loop_
_space_group_symop_operation_xyz
x,y,z
-x,y,-z
-x,-y,-z
x,-y,z
1/2+x,1/2+y,z
1/2-x,1/2+y,-z
1/2-x,1/2-y,-z
1/2+x,1/2-y,z
loop_
_atom_site_type_symbol
_atom_site_label
_atom_site_fract_x
_atom_site_fract_y
_atom_site_fract_z
Si Si1 0.339539 0.840841 0.826589
Si Si2 0.204816 0.838865 0.385000
Si Si3 0.067167 0.829942 0.547998
Si Si4 0.680861 0.666653 0.810717
Si Si5 0.575578 0.660268 0.340813
Si Si6 0.465731 0.158582 0.870648
Si Si7 0.306057 0.666527 0.952892
O O1 0.292571 0.738997 0.715160
O O2 0.396264 0.856815 0.821952
O O3 0.353998 0.756262 0.942653
O O4 0.312608 0.000000 0.816268
O O5 0.250000 0.750000 0.500000
O O6 0.140147 0.839955 0.363262
O O7 0.228829 0.000000 0.398354
O O8 0.121302 0.775851 0.682623
O O9 0.081055 0.776385 0.455184
O O10 0.000000 0.769544 0.500000
O O11 0.066604 0.000000 0.552571
O O12 0.694452 0.500000 0.801803
O O13 0.739783 0.762610 0.854261
O O14 0.668968 0.685155 0.910457
O O15 0.548327 0.500000 0.314828
O O16 0.528248 0.752683 0.221249
O O17 0.494413 0.000000 0.885962
O O18 0.500000 0.235599 0.000000
O O19 0.303535 0.500000 0.920700
#
# Coordination Sequence:
#
# PCOD8095928 Si02
#       7
#     8   8   8   8   8   8   8
#     4  10  20  34  53  76 104 140 177 218 270 326
#     4  10  20  33  50  78 110 140 176 218 265 321
#     4   9  18  34  56  81 108 142 184 225 270 327
#     4   9  19  35  55  77 107 145 181 224 277 331
#     4   9  19  34  53  79 108 138 178 222 262 314
#     4   9  19  36  55  76 105 142 180 217 266 325
#     4  10  20  34  53  81 110 139 180 230 277 329
#
# _framework density 19.804617
#
# number of rings (size 3 to 8) (size 9 to 14) (size 15 to 20)
#    0.000    2.571    0.000    1.286    2.000    3.143 
#    0.000    2.143    0.000    1.714    0.000    0.000 
#    0.000    0.000    0.000    0.000    0.000    0.000 
#
# Total GULP energy -346978.054054 kJ/mol
# GULP energy per Si atom -12392.073359 kJ/mol
# Density = 1.975954 g / cm^3
# Si number density = 19.804617 Si / 1000 Ang^3
#
#
#
# Elastic Constant Matrix: (Units=GPa)
#
#
# Indices 1 2 3 4 5 6 
#
# 1 28.0861 19.4002 28.0007 0.0000 -10.7585 0.0000
# 2 19.4002 118.4453 63.8487 0.0000 -10.5701 0.0000
# 3 28.0007 63.8487 167.1375 0.0000 -3.5814 0.0000
# 4 0.0000 0.0000 0.0000 33.3210 0.0000 -1.9336
# 5 -10.7585 -10.5701 -3.5814 0.0000 32.8341 0.0000
# 6 0.0000 0.0000 0.0000 -1.9336 0.0000 16.6853
#
#
#
# Elastic Compliance Matrix: (Units=1/GPa)
#
#
# Indices 1 2 3 4 5 6 
#
# 1 0.050325 -0.003219 -0.006886 0.000000 0.014702 0.000000
# 2 -0.003219 0.011138 -0.003670 0.000000 0.002131 0.000000
# 3 -0.006886 -0.003670 0.008485 0.000000 -0.002512 0.000000
# 4 0.000000 0.000000 0.000000 0.030214 0.000000 0.003501
# 5 0.014702 0.002131 -0.002512 0.000000 0.035686 0.000000
# 6 0.000000 0.000000 0.000000 0.003501 0.000000 0.060339
#
#
# Mechanical properties :
#
#
# Convention : Reuss Voigt Hill
#
# Bulk Modulus (GPa) = 23.58577 59.57423 41.58000
# Shear Modulus (GPa) = 21.01983 30.06271 25.54127
#
# Velocity S-wave (km/s) = 3.26139 3.90033 3.59508
# Velocity P-wave (km/s) = 5.11051 7.10139 6.18656
#
# Compressibility (1/GPa) = 0.04239845
#
# Stress axis : x y z
#
# Youngs Moduli (GPa) = 19.87069 89.77893 117.85486
#
# Poissons Ratio (x) = 0.28896 0.81160
# Poissons Ratio (y) = 0.06395 0.43255
# Poissons Ratio (z) = 0.13684 0.32950
#
# Static dielectric constant tensor:
#      x y z
#    x 3.283060 0.000000 -0.101820 
#    y 0.000000 3.697430 0.000000 
#    z -0.101820 0.000000 3.758090 
# 
# 
# High freq. dielectric constant tensor:
#      x y z
#    x 1.749880 0.000000 -0.012890 
#    y 0.000000 1.759810 0.000000 
#    z -0.012890 0.000000 1.783910 
# 
# From -- ./inp_files/187202.got.cif
#   From: 2010.06.25/outbox.cif.g09.slc.cpg/sg12_94_cif.got.tgz:187202.got - 2010.06.28 00:19:55.
