data_PCOD8095514
_publ_section_title
;
Structure prediction by ZEFSAII (Michael W. Deem and Ramdas Pophale) SiO2 
 PCOD8095514
Probable space group: C 2/M
;
_chemical_formula_sum "Si O2"
_cell_formula_units_Z 48
_cell_length_a 10.821410
_cell_length_b 14.179588
_cell_length_c 20.348517
_cell_angle_alpha 90.000000
_cell_angle_beta 121.671165
_cell_angle_gamma 90.000000
_cell_volume 2657.347143
_symmetry_space_group_name_H-M "C 2/M"
_symmetry_group_IT_number 12
_symmetry_cell_setting 'monoclinic'
loop_
_space_group_symop_operation_xyz
x,y,z
-x,y,-z
-x,-y,-z
x,-y,z
1/2+x,1/2+y,z
1/2-x,1/2+y,-z
1/2-x,1/2-y,-z
1/2+x,1/2-y,z
loop_
_atom_site_type_symbol
_atom_site_label
_atom_site_fract_x
_atom_site_fract_y
_atom_site_fract_z
Si Si1 0.962605 0.288632 0.064497
Si Si2 0.561675 0.692063 0.664448
Si Si3 0.811478 0.893453 0.045396
Si Si4 0.307950 0.606673 0.526621
Si Si5 0.230119 0.394679 0.174294
Si Si6 0.237130 0.265233 0.394488
O O1 0.947767 0.177057 0.075316
O O2 0.089373 0.329058 0.146459
O O3 0.815882 0.349210 0.036093
O O4 0.000000 0.305338 0.000000
O O5 0.477404 0.615679 0.595367
O O6 0.634604 0.642580 0.746761
O O7 0.686263 0.741900 0.655125
O O8 0.440281 0.765018 0.659626
O O9 0.771121 0.895161 0.109923
O O10 0.848158 0.000000 0.031528
O O11 0.254042 0.500000 0.518569
O O12 0.287609 0.639934 0.445755
O O13 0.211796 0.674171 0.547874
O O14 0.190924 0.500000 0.186777
#
# Coordination Sequence:
#
# PCOD8095514 Si02
#       6
#     8   8   8   8   8   8
#     4   9  18  32  52  78 102 135 172 216 261 306
#     4  10  20  35  54  79 109 141 174 224 267 318
#     4   9  18  33  52  76 104 135 174 214 261 317
#     4   9  19  35  59  80 105 142 184 219 265 324
#     4  10  20  32  53  76 101 137 178 219 261 312
#     4   9  21  35  55  80 110 137 178 226 268 310
#
# _framework density 18.063127999999999
#
# number of rings (size 3 to 8) (size 9 to 14) (size 15 to 20)
#    1.000    1.667    0.000    1.500    2.333    4.333 
#    0.000    1.667    0.000    1.000    0.000    0.000 
#    0.000    0.000    0.000    0.000    0.000    0.000 
#
# Total GULP energy -297354.556838 kJ/mol
# GULP energy per Si atom -12389.773202 kJ/mol
# Density = 1.802202 g / cm^3
# Si number density = 18.063128 Si / 1000 Ang^3
#
#
#
# Elastic Constant Matrix: (Units=GPa)
#
#
# Indices 1 2 3 4 5 6 
#
# 1 67.0660 19.3625 22.7116 0.0000 9.2526 0.0000
# 2 19.3625 118.3560 39.8171 0.0000 18.3240 0.0000
# 3 22.7116 39.8171 76.2506 0.0000 25.8904 0.0000
# 4 0.0000 0.0000 0.0000 15.7223 0.0000 1.6115
# 5 9.2526 18.3240 25.8904 0.0000 26.5099 0.0000
# 6 0.0000 0.0000 0.0000 1.6115 0.0000 25.5388
#
#
#
# Elastic Compliance Matrix: (Units=1/GPa)
#
#
# Indices 1 2 3 4 5 6 
#
# 1 0.016766 -0.001234 -0.003968 0.000000 -0.001124 0.000000
# 2 -0.001234 0.010479 -0.004176 0.000000 -0.002734 0.000000
# 3 -0.003968 -0.004176 0.022482 0.000000 -0.017685 0.000000
# 4 0.000000 0.000000 0.000000 0.064018 0.000000 -0.004040
# 5 -0.001124 -0.002734 -0.017685 0.000000 0.057276 0.000000
# 6 0.000000 0.000000 0.000000 -0.004040 0.000000 0.039411
#
#
# Mechanical properties :
#
#
# Convention : Reuss Voigt Hill
#
# Bulk Modulus (GPa) = 32.28836 47.27277 39.78056
# Shear Modulus (GPa) = 20.87582 25.53963 23.20772
#
# Velocity S-wave (km/s) = 3.40327 3.76428 3.58832
# Velocity P-wave (km/s) = 5.77556 6.71720 6.26410
#
# Compressibility (1/GPa) = 0.03097092
#
# Stress axis : x y z
#
# Youngs Moduli (GPa) = 59.64576 95.42711 44.47962
#
# Poissons Ratio (x) = 0.11775 0.17649
# Poissons Ratio (y) = 0.07360 0.18576
# Poissons Ratio (z) = 0.23667 0.39853
#
# Static dielectric constant tensor:
#      x y z
#    x 3.168380 0.000000 0.173150 
#    y 0.000000 3.314110 0.000000 
#    z 0.173150 0.000000 3.194030 
# 
# 
# High freq. dielectric constant tensor:
#      x y z
#    x 1.680280 0.000000 0.007790 
#    y 0.000000 1.689680 0.000000 
#    z 0.007790 0.000000 1.688680 
# 
# From -- ./inp_files/305023.got.cif
#   From: 2010.06.25/outbox.cif.g09.slc.cpg/sg12_153_cif.got.tgz:305023.got - 2010.06.28 00:19:55.
