data_PCOD8095109
_publ_section_title
;
Structure prediction by ZEFSAII (Michael W. Deem and Ramdas Pophale) SiO2 
 PCOD8095109
Probable space group: C 2/M
;
_chemical_formula_sum "Si O2"
_cell_formula_units_Z 56
_cell_length_a 28.568394
_cell_length_b 9.312253
_cell_length_c 18.703179
_cell_angle_alpha 90.000000
_cell_angle_beta 40.985330
_cell_angle_gamma 90.000000
_cell_volume 3263.405118
_symmetry_space_group_name_H-M "C 2/M"
_symmetry_group_IT_number 12
_symmetry_cell_setting 'monoclinic'
loop_
_space_group_symop_operation_xyz
x,y,z
-x,y,-z
-x,-y,-z
x,-y,z
1/2+x,1/2+y,z
1/2-x,1/2+y,-z
1/2-x,1/2-y,-z
1/2+x,1/2-y,z
loop_
_atom_site_type_symbol
_atom_site_label
_atom_site_fract_x
_atom_site_fract_y
_atom_site_fract_z
Si Si1 0.064273 0.842051 0.371596
Si Si2 0.150160 0.665087 0.377989
Si Si3 0.528008 0.836300 0.620884
Si Si4 0.055384 0.335366 0.151326
Si Si5 0.440681 0.167755 0.014614
Si Si6 0.196733 0.830194 0.007306
Si Si7 0.802135 0.836346 0.158355
O O1 0.128397 0.758678 0.334986
O O2 0.000000 0.856243 0.500000
O O3 0.037102 0.755140 0.335087
O O4 0.091040 0.000000 0.316945
O O5 0.133913 0.500000 0.377962
O O6 0.106192 0.711663 0.500702
O O7 0.234728 0.689214 0.289012
O O8 0.517979 0.816734 0.717839
O O9 0.515200 0.000000 0.612333
O O10 0.082950 0.500000 0.123997
O O11 0.117226 0.232164 0.110150
O O12 0.034488 0.295531 0.094503
O O13 0.364670 0.239267 0.117908
O O14 0.430699 0.000000 0.039417
O O15 0.500000 0.231004 0.000000
O O16 0.197362 0.000000 0.023333
O O17 0.250000 0.750000 0.000000
O O18 0.218927 0.798070 0.899361
O O19 0.828437 0.000000 0.131038
#
# Coordination Sequence:
#
# PCOD8095109 Si02
#       7
#     8   8   8   8   8   8   8
#     4   9  17  27  39  60  90 125 163 196 225 260
#     4   9  17  30  46  65  91 125 161 194 227 269
#     4   9  17  29  46  65  90 125 161 194 228 270
#     4   9  18  32  49  70  93 120 157 195 234 281
#     4   9  18  34  55  75  93 115 149 195 244 290
#     4  10  20  32  45  65  94 127 159 194 234 275
#     4   9  19  33  49  70  94 121 157 194 231 279
#
# _framework density 17.159990000000001
#
# number of rings (size 3 to 8) (size 9 to 14) (size 15 to 20)
#    0.000    2.857    0.000    0.857    2.000    3.714 
#    0.000    0.000    0.000    0.857    0.000    0.000 
#    0.000    0.000    0.000    0.000    0.000    0.000 
#
# Total GULP energy -346991.898727 kJ/mol
# GULP energy per Si atom -12392.567812 kJ/mol
# Density = 1.712093 g / cm^3
# Si number density = 17.159990 Si / 1000 Ang^3
#
#
#
# Elastic Constant Matrix: (Units=GPa)
#
#
# Indices 1 2 3 4 5 6 
#
# 1 111.8676 46.8912 51.9468 -0.0003 -6.3419 -0.0007
# 2 46.8912 69.9264 37.0503 0.0071 -6.2100 -0.0084
# 3 51.9468 37.0503 118.2725 0.0010 -6.0443 0.0013
# 4 -0.0003 0.0071 0.0010 20.0337 -0.0002 -3.4822
# 5 -6.3419 -6.2100 -6.0443 -0.0002 14.8886 0.0011
# 6 -0.0007 -0.0084 0.0013 -3.4822 0.0011 24.7475
#
#
#
# Elastic Compliance Matrix: (Units=1/GPa)
#
#
# Indices 1 2 3 4 5 6 
#
# 1 0.013730 -0.007107 -0.003734 0.000003 0.001368 -0.000002
# 2 -0.007107 0.021210 -0.003294 -0.000006 0.004482 0.000006
# 3 -0.003734 -0.003294 0.011208 0.000000 0.001586 -0.000002
# 4 0.000003 -0.000006 0.000000 0.051167 -0.000001 0.007200
# 5 0.001368 0.004482 0.001586 -0.000001 0.070261 -0.000002
# 6 -0.000002 0.000006 -0.000002 0.007200 -0.000002 0.041421
#
#
# Mechanical properties :
#
#
# Convention : Reuss Voigt Hill
#
# Bulk Modulus (GPa) = 55.93448 63.53813 59.73630
# Shear Modulus (GPa) = 20.55705 22.87916 21.71811
#
# Velocity S-wave (km/s) = 3.46492 3.65538 3.56142
# Velocity P-wave (km/s) = 6.97669 7.41101 7.19712
#
# Compressibility (1/GPa) = 0.01787806
#
# Stress axis : x y z
#
# Youngs Moduli (GPa) = 72.83563 47.14839 89.22279
#
# Poissons Ratio (x) = 0.33507 0.33316
# Poissons Ratio (y) = 0.51763 0.29387
# Poissons Ratio (z) = 0.27197 0.15529
#
# Static dielectric constant tensor:
#      x y z
#    x 2.932570 -0.000020 0.052540 
#    y -0.000020 3.398180 0.000020 
#    z 0.052540 0.000020 3.347650 
# 
# 
# High freq. dielectric constant tensor:
#      x y z
#    x 1.618360 0.000000 0.000560 
#    y 0.000000 1.666550 0.000000 
#    z 0.000560 0.000000 1.667330 
# 
# From -- ./inp_files/291793.got.cif
#   From: 2010.06.25/outbox.cif.g09.slc.cpg/sg12_146_cif.got.tgz:291793.got - 2010.06.28 00:19:55.
