data_PCOD8095063
_publ_section_title
;
Structure prediction by ZEFSAII (Michael W. Deem and Ramdas Pophale) SiO2 
 PCOD8095063
Probable space group: C 2/M
;
_chemical_formula_sum "Si O2"
_cell_formula_units_Z 32
_cell_length_a 22.719776
_cell_length_b 7.583445
_cell_length_c 10.667619
_cell_angle_alpha 90.000000
_cell_angle_beta 109.405388
_cell_angle_gamma 90.000000
_cell_volume 1733.556191
_symmetry_space_group_name_H-M "C 2/M"
_symmetry_group_IT_number 12
_symmetry_cell_setting 'monoclinic'
loop_
_space_group_symop_operation_xyz
x,y,z
-x,y,-z
-x,-y,-z
x,-y,z
1/2+x,1/2+y,z
1/2-x,1/2+y,-z
1/2-x,1/2-y,-z
1/2+x,1/2-y,z
loop_
_atom_site_type_symbol
_atom_site_label
_atom_site_fract_x
_atom_site_fract_y
_atom_site_fract_z
Si Si1 0.531392 0.500000 0.826050
Si Si2 0.678790 0.291063 0.570619
Si Si3 0.942681 0.804699 0.389770
Si Si4 0.683092 0.199429 0.293974
Si Si5 0.598834 0.500000 0.132961
O O1 0.545335 0.324313 0.751533
O O2 0.459744 0.500000 0.815343
O O3 0.577717 0.500000 0.974759
O O4 0.680581 0.500000 0.553035
O O5 0.624830 0.219868 0.627349
O O6 0.665274 0.203063 0.427536
O O7 0.745708 0.231860 0.672966
O O8 0.000000 0.702344 0.500000
O O9 0.939667 0.000000 0.450730
O O10 0.638594 0.324397 0.182151
O O11 0.674586 0.000000 0.237816
#
# Coordination Sequence:
#
# PCOD8095063 Si02
#       5
#     4   8   8   8   4
#     4   9  19  32  56  80  97 145 181 209 258 320
#     4   9  16  30  52  78 105 132 172 216 261 305
#     4   8  14  27  53  80  96 131 175 214 259 304
#     4  10  20  31  52  81 107 138 170 219 263 304
#     4  11  20  36  54  78 105 140 183 208 260 317
#
# _framework density 18.459164000000001
#
# number of rings (size 3 to 8) (size 9 to 14) (size 15 to 20)
#    0.750    2.000    1.250    1.500    1.750    0.000 
#    0.000    3.750    0.000    8.250    0.000    0.000 
#    0.000    0.000    0.000    0.000    0.000    0.000 
#
# Total GULP energy -198232.286680 kJ/mol
# GULP energy per Si atom -12389.517917 kJ/mol
# Density = 1.841715 g / cm^3
# Si number density = 18.459164 Si / 1000 Ang^3
#
#
#
# Elastic Constant Matrix: (Units=GPa)
#
#
# Indices 1 2 3 4 5 6 
#
# 1 163.3549 18.2154 80.1865 0.0000 7.2502 0.0000
# 2 18.2154 52.5714 35.9760 0.0000 10.9943 0.0000
# 3 80.1865 35.9760 122.8661 0.0000 11.9282 0.0000
# 4 0.0000 0.0000 0.0000 6.6999 0.0000 1.7653
# 5 7.2502 10.9943 11.9282 0.0000 28.4078 0.0000
# 6 0.0000 0.0000 0.0000 1.7653 0.0000 15.9547
#
#
#
# Elastic Compliance Matrix: (Units=1/GPa)
#
#
# Indices 1 2 3 4 5 6 
#
# 1 0.009061 0.001160 -0.006240 0.000000 -0.000142 0.000000
# 2 0.001160 0.025166 -0.007455 0.000000 -0.006905 0.000000
# 3 -0.006240 -0.007455 0.014553 0.000000 -0.001633 0.000000
# 4 0.000000 0.000000 0.000000 0.153738 0.000000 -0.017010
# 5 -0.000142 -0.006905 -0.001633 0.000000 0.038596 0.000000
# 6 0.000000 0.000000 0.000000 -0.017010 0.000000 0.064559
#
#
# Mechanical properties :
#
#
# Convention : Reuss Voigt Hill
#
# Bulk Modulus (GPa) = 42.17688 67.50535 54.84111
# Shear Modulus (GPa) = 14.76463 23.84010 19.30237
#
# Velocity S-wave (km/s) = 2.83124 3.59765 3.23720
# Velocity P-wave (km/s) = 5.79536 7.34213 6.61412
#
# Compressibility (1/GPa) = 0.02370967
#
# Stress axis : x y z
#
# Youngs Moduli (GPa) = 110.35709 39.73649 68.71599
#
# Poissons Ratio (x) = -0.04609 0.42877
# Poissons Ratio (y) = -0.12800 0.51230
# Poissons Ratio (z) = 0.68860 0.29625
#
# Static dielectric constant tensor:
#      x y z
#    x 3.759840 0.000000 0.204840 
#    y 0.000000 3.046690 0.000000 
#    z 0.204840 0.000000 3.079340 
# 
# 
# High freq. dielectric constant tensor:
#      x y z
#    x 1.734020 0.000000 0.018430 
#    y 0.000000 1.680380 0.000000 
#    z 0.018430 0.000000 1.685470 
# 
# From -- ./inp_files/162099.got.cif
#   From: 2010.06.25/outbox.cif.g09.slc.cpg/sg12_82_cif.got.tgz:162099.got - 2010.06.28 00:19:55.
