data_PCOD8095311
_publ_section_title
;
Structure prediction by ZEFSAII (Michael W. Deem and Ramdas Pophale) SiO2 
 PCOD8095311
Probable space group: C 2/M
;
_chemical_formula_sum "Si O2"
_cell_formula_units_Z 64
_cell_length_a 14.885467
_cell_length_b 23.494774
_cell_length_c 18.212194
_cell_angle_alpha 90.000000
_cell_angle_beta 149.555552
_cell_angle_gamma 90.000000
_cell_volume 3227.373573
_symmetry_space_group_name_H-M "C 2/M"
_symmetry_group_IT_number 12
_symmetry_cell_setting 'monoclinic'
loop_
_space_group_symop_operation_xyz
x,y,z
-x,y,-z
-x,-y,-z
x,-y,z
1/2+x,1/2+y,z
1/2-x,1/2+y,-z
1/2-x,1/2-y,-z
1/2+x,1/2-y,z
loop_
_atom_site_type_symbol
_atom_site_label
_atom_site_fract_x
_atom_site_fract_y
_atom_site_fract_z
Si Si1 0.824287 0.240420 0.828317
Si Si2 0.172383 0.436277 0.451321
Si Si3 0.476572 0.814136 0.641832
Si Si4 0.878951 0.565213 0.982166
Si Si5 0.400533 0.659698 0.363160
Si Si6 0.304781 0.062418 0.702569
Si Si7 0.142673 0.229783 0.321397
Si Si8 0.003674 0.122438 0.716487
O O1 0.675704 0.197202 0.754231
O O2 0.750818 0.304298 0.784343
O O3 0.862459 0.234999 0.769256
O O4 0.000000 0.231961 0.000000
O O5 0.097920 0.500000 0.420696
O O6 0.038680 0.383237 0.370004
O O7 0.226167 0.436609 0.404865
O O8 0.351588 0.424675 0.625260
O O9 0.340454 0.784271 0.489439
O O10 0.435774 0.786652 0.693748
O O11 0.825275 0.500000 0.932904
O O12 0.989143 0.576280 0.134375
O O13 0.700172 0.600032 0.862960
O O14 0.000000 0.586854 0.000000
O O15 0.500000 0.693787 0.500000
O O16 0.326479 0.603193 0.347573
O O17 0.538520 0.643297 0.396747
O O18 0.262064 0.000000 0.705116
O O19 0.012959 0.176757 0.243414
#
# Coordination Sequence:
#
# PCOD8095311 Si02
#       8
#     8   8   8   8   8   8   8   8
#     4  12  27  41  64  92 123 159 206 257 313 370
#     4  10  21  37  60  91 120 156 208 256 300 359
#     4  10  21  42  66  91 121 165 203 252 314 359
#     4  10  20  32  48  75 120 166 200 242 298 356
#     4  12  22  36  56  85 121 165 200 249 292 363
#     4  10  21  33  50  81 121 168 204 239 293 355
#     4  10  22  41  64  89 121 163 207 252 305 371
#     4  11  21  35  59  88 119 162 206 252 302 353
#
# _framework density 19.830366000000001
#
# number of rings (size 3 to 8) (size 9 to 14) (size 15 to 20)
#    0.000    1.375    3.750    2.250    3.500    2.250 
#    0.000    0.000    0.000    7.125    0.000    0.000 
#    0.000    0.000    0.000    0.000    0.000    0.000 
#
# Total GULP energy -396547.306042 kJ/mol
# GULP energy per Si atom -12392.103314 kJ/mol
# Density = 1.978523 g / cm^3
# Si number density = 19.830366 Si / 1000 Ang^3
#
#
#
# Elastic Constant Matrix: (Units=GPa)
#
#
# Indices 1 2 3 4 5 6 
#
# 1 77.1091 34.7996 40.8001 -0.0016 -1.0937 0.0001
# 2 34.7996 127.3550 47.9671 -0.0023 11.0067 -0.0008
# 3 40.8001 47.9671 106.9881 -0.0211 13.1066 0.0031
# 4 -0.0016 -0.0023 -0.0211 25.9463 -0.0033 3.0220
# 5 -1.0937 11.0067 13.1066 -0.0033 30.8401 0.0012
# 6 0.0001 -0.0008 0.0031 3.0220 0.0012 22.5963
#
#
#
# Elastic Compliance Matrix: (Units=1/GPa)
#
#
# Indices 1 2 3 4 5 6 
#
# 1 0.017441 -0.002921 -0.005850 -0.000004 0.004147 0.000001
# 2 -0.002921 0.010018 -0.003087 -0.000002 -0.002367 0.000001
# 3 -0.005850 -0.003087 0.013558 0.000010 -0.004868 -0.000003
# 4 -0.000004 -0.000002 0.000010 0.039151 0.000001 -0.005236
# 5 0.004147 -0.002367 -0.004868 0.000001 0.035486 -0.000001
# 6 0.000001 0.000001 -0.000003 -0.005236 -0.000001 0.044955
#
#
# Mechanical properties :
#
#
# Convention : Reuss Voigt Hill
#
# Bulk Modulus (GPa) = 57.80122 62.06508 59.93315
# Shear Modulus (GPa) = 26.30316 28.40223 27.35270
#
# Velocity S-wave (km/s) = 3.64594 3.78863 3.71797
# Velocity P-wave (km/s) = 6.85091 7.10663 6.97994
#
# Compressibility (1/GPa) = 0.01730067
#
# Stress axis : x y z
#
# Youngs Moduli (GPa) = 57.33680 99.82423 73.75657
#
# Poissons Ratio (x) = 0.29158 0.43144
# Poissons Ratio (y) = 0.16748 0.22772
# Poissons Ratio (z) = 0.33539 0.30821
#
# Static dielectric constant tensor:
#      x y z
#    x 3.497050 0.000000 -0.011950 
#    y 0.000000 4.019110 0.000000 
#    z -0.011950 0.000000 3.902020 
# 
# 
# High freq. dielectric constant tensor:
#      x y z
#    x 1.745040 0.000000 -0.001340 
#    y 0.000000 1.779340 0.000000 
#    z -0.001340 0.000000 1.773440 
# 
# From -- ./inp_files/272870.got.cif
#   From: 2010.06.25/outbox.cif.g09.slc.cpg/sg12_137_cif.got.tgz:272870.got - 2010.06.28 00:19:55.
