data_PCOD8095021
_publ_section_title
;
Structure prediction by ZEFSAII (Michael W. Deem and Ramdas Pophale) SiO2 
 PCOD8095021
Probable space group: C 2/M
;
_chemical_formula_sum "Si O2"
_cell_formula_units_Z 64
_cell_length_a 9.595929
_cell_length_b 23.843769
_cell_length_c 19.926181
_cell_angle_alpha 90.000000
_cell_angle_beta 128.028158
_cell_angle_gamma 90.000000
_cell_volume 3591.296890
_symmetry_space_group_name_H-M "C 2/M"
_symmetry_group_IT_number 12
_symmetry_cell_setting 'monoclinic'
loop_
_space_group_symop_operation_xyz
x,y,z
-x,y,-z
-x,-y,-z
x,-y,z
1/2+x,1/2+y,z
1/2-x,1/2+y,-z
1/2-x,1/2-y,-z
1/2+x,1/2-y,z
loop_
_atom_site_type_symbol
_atom_site_label
_atom_site_fract_x
_atom_site_fract_y
_atom_site_fract_z
Si Si1 0.648543 0.804151 0.992363
Si Si2 0.585560 0.671790 0.458614
Si Si3 0.846472 0.845163 0.268523
Si Si4 0.036812 0.140952 0.843553
Si Si5 0.964889 0.303942 0.563938
Si Si6 0.956738 0.642864 0.175280
Si Si7 0.297671 0.787750 0.246018
Si Si8 0.629921 0.566154 0.098933
O O1 0.778554 0.848031 0.065698
O O2 0.500000 0.784192 0.000000
O O3 0.750000 0.750000 0.000000
O O4 0.558283 0.833773 0.903515
O O5 0.500000 0.647272 0.500000
O O6 0.499626 0.642327 0.368380
O O7 0.792098 0.660571 0.531902
O O8 0.561231 0.737775 0.442365
O O9 0.920502 0.871704 0.221611
O O10 0.664835 0.873860 0.241946
O O11 0.809125 0.779036 0.248399
O O12 0.907461 0.194462 0.815708
O O13 0.946229 0.087488 0.852390
O O14 0.000000 0.325554 0.500000
O O15 0.120781 0.316704 0.662810
O O16 0.906416 0.690678 0.214062
O O17 0.827513 0.589863 0.146291
O O18 0.644932 0.500000 0.106367
O O19 0.500000 0.585918 0.000000
#
# Coordination Sequence:
#
# PCOD8095021 Si02
#       8
#     8   8   8   8   8   8   8   8
#     4  12  24  34  50  75 114 150 174 204 242 302
#     4   9  17  27  44  65  99 144 177 203 241 290
#     4  11  19  32  48  76 113 140 169 216 253 298
#     4  11  22  34  51  76 102 136 179 212 259 307
#     4   9  16  28  43  64  97 143 187 207 232 287
#     4  11  22  34  51  75 103 137 180 213 259 313
#     4  10  20  31  47  74 111 149 175 207 250 300
#     4  10  22  42  60  72  93 130 178 228 277 318
#
# _framework density 17.820861000000001
#
# number of rings (size 3 to 8) (size 9 to 14) (size 15 to 20)
#    0.000    1.625    2.500    3.750    3.500    4.000 
#    0.000    0.625    0.000    2.250    0.000    0.000 
#    0.000   63.000    0.000    0.000    0.000    0.000 
#
# Total GULP energy -396722.340931 kJ/mol
# GULP energy per Si atom -12397.573154 kJ/mol
# Density = 1.778030 g / cm^3
# Si number density = 17.820861 Si / 1000 Ang^3
#
#
#
# Elastic Constant Matrix: (Units=GPa)
#
#
# Indices 1 2 3 4 5 6 
#
# 1 133.1326 22.8820 34.9731 0.0000 -7.9764 0.0000
# 2 22.8820 46.7540 14.4881 0.0000 -0.1928 0.0000
# 3 34.9731 14.4881 99.1974 0.0000 -10.4746 0.0000
# 4 0.0000 0.0000 0.0000 10.8287 0.0000 1.0635
# 5 -7.9764 -0.1928 -10.4746 0.0000 35.7098 0.0000
# 6 0.0000 0.0000 0.0000 1.0635 0.0000 12.0143
#
#
#
# Elastic Compliance Matrix: (Units=1/GPa)
#
#
# Indices 1 2 3 4 5 6 
#
# 1 0.008845 -0.003559 -0.002469 0.000000 0.001232 0.000000
# 2 -0.003559 0.023860 -0.002374 0.000000 -0.001362 0.000000
# 3 -0.002469 -0.002374 0.011598 0.000000 0.002838 0.000000
# 4 0.000000 0.000000 0.000000 0.093157 0.000000 -0.008246
# 5 0.001232 -0.001362 0.002838 0.000000 0.029104 0.000000
# 6 0.000000 0.000000 0.000000 -0.008246 0.000000 0.083964
#
#
# Mechanical properties :
#
#
# Convention : Reuss Voigt Hill
#
# Bulk Modulus (GPa) = 36.36334 47.08561 41.72448
# Shear Modulus (GPa) = 18.08331 25.49327 21.78829
#
# Velocity S-wave (km/s) = 3.18893 3.78634 3.50040
# Velocity P-wave (km/s) = 5.83166 6.75234 6.30882
#
# Compressibility (1/GPa) = 0.02750022
#
# Stress axis : x y z
#
# Youngs Moduli (GPa) = 113.05413 41.91045 86.22471
#
# Poissons Ratio (x) = 0.14916 0.21285
# Poissons Ratio (y) = 0.40236 0.20470
# Poissons Ratio (z) = 0.27908 0.09950
#
# Static dielectric constant tensor:
#      x y z
#    x 3.450870 0.000000 0.016480 
#    y 0.000000 2.715620 0.000000 
#    z 0.016480 0.000000 3.679860 
# 
# 
# High freq. dielectric constant tensor:
#      x y z
#    x 1.712280 0.000000 -0.000070 
#    y 0.000000 1.609350 0.000000 
#    z -0.000070 0.000000 1.709450 
# 
# From -- ./inp_files/302678.got.cif
#   From: 2010.06.25/outbox.cif.g09.slc.cpg/sg12_152_cif.got.tgz:302678.got - 2010.06.28 00:19:55.
