data_PCOD8095410
_publ_section_title
;
Structure prediction by ZEFSAII (Michael W. Deem and Ramdas Pophale) SiO2 
 PCOD8095410
Probable space group: C 2/M
;
_chemical_formula_sum "Si O2"
_cell_formula_units_Z 40
_cell_length_a 23.142241
_cell_length_b 9.371013
_cell_length_c 18.289964
_cell_angle_alpha 90.000000
_cell_angle_beta 35.266088
_cell_angle_gamma 90.000000
_cell_volume 2290.141835
_symmetry_space_group_name_H-M "C 2/M"
_symmetry_group_IT_number 12
_symmetry_cell_setting 'monoclinic'
loop_
_space_group_symop_operation_xyz
x,y,z
-x,y,-z
-x,-y,-z
x,-y,z
1/2+x,1/2+y,z
1/2-x,1/2+y,-z
1/2-x,1/2-y,-z
1/2+x,1/2-y,z
loop_
_atom_site_type_symbol
_atom_site_label
_atom_site_fract_x
_atom_site_fract_y
_atom_site_fract_z
Si Si1 0.616154 0.166930 0.880056
Si Si2 0.718958 0.834363 0.924283
Si Si3 0.810089 0.166030 0.332752
Si Si4 0.893141 0.663849 0.377664
Si Si5 0.386221 0.835313 0.817742
O O1 0.661457 0.212236 0.910931
O O2 0.674687 0.258036 0.759884
O O3 0.631210 0.000000 0.847782
O O4 0.500000 0.208181 0.000000
O O5 0.824636 0.752838 0.821136
O O6 0.744558 0.000000 0.896859
O O7 0.647898 0.792868 0.065334
O O8 0.881859 0.236124 0.318958
O O9 0.694698 0.190236 0.473666
O O10 0.837313 0.000000 0.298543
O O11 0.894397 0.500000 0.348515
O O12 0.996702 0.702053 0.310986
O O13 0.365080 0.000000 0.823775
#
# Coordination Sequence:
#
# PCOD8095410 Si02
#       5
#     8   8   8   8   8
#     4  10  20  35  53  71  98 135 165 194 243 302
#     4   9  18  31  49  74  98 123 161 203 241 285
#     4  10  20  32  50  77 102 125 162 209 246 282
#     4   9  18  34  53  72  98 133 166 196 242 299
#     4   9  17  32  53  72  94 127 163 199 240 289
#
# _framework density 17.466166999999999
#
# number of rings (size 3 to 8) (size 9 to 14) (size 15 to 20)
#    0.000    2.600    0.000    1.800    0.000    6.000 
#    0.000    5.000    0.000    6.000    0.000    0.000 
#    0.000    0.000    0.000    0.000    0.000    0.000 
#
# Total GULP energy -248054.115355 kJ/mol
# GULP energy per Si atom -12402.705768 kJ/mol
# Density = 1.742641 g / cm^3
# Si number density = 17.466167 Si / 1000 Ang^3
#
#
#
# Elastic Constant Matrix: (Units=GPa)
#
#
# Indices 1 2 3 4 5 6 
#
# 1 153.5570 66.0115 66.6425 0.0001 -12.6348 -0.0001
# 2 66.0115 70.9035 47.0961 -0.0007 -1.8857 0.0005
# 3 66.6425 47.0961 78.6319 -0.0001 -10.6178 0.0001
# 4 0.0001 -0.0007 -0.0001 29.9357 0.0000 1.0095
# 5 -12.6348 -1.8857 -10.6178 0.0000 31.1594 0.0000
# 6 -0.0001 0.0005 0.0001 1.0095 0.0000 34.2107
#
#
#
# Elastic Compliance Matrix: (Units=1/GPa)
#
#
# Indices 1 2 3 4 5 6 
#
# 1 0.012541 -0.007951 -0.005498 0.000000 0.002731 0.000000
# 2 -0.007951 0.028838 -0.011251 0.000001 -0.005313 0.000000
# 3 -0.005498 -0.011251 0.024867 0.000000 0.005563 0.000000
# 4 0.000000 0.000001 0.000000 0.033438 0.000000 -0.000987
# 5 0.002731 -0.005313 0.005563 0.000000 0.034775 0.000000
# 6 0.000000 0.000000 0.000000 -0.000987 0.000000 0.029260
#
#
# Mechanical properties :
#
#
# Convention : Reuss Voigt Hill
#
# Bulk Modulus (GPa) = 59.36059 73.62137 66.49098
# Shear Modulus (GPa) = 22.85879 27.28399 25.07139
#
# Velocity S-wave (km/s) = 3.62158 3.95664 3.79281
# Velocity P-wave (km/s) = 7.17967 7.94453 7.57177
#
# Compressibility (1/GPa) = 0.01684619
#
# Stress axis : x y z
#
# Youngs Moduli (GPa) = 79.73805 34.67594 40.21430
#
# Poissons Ratio (x) = 0.27573 0.22108
# Poissons Ratio (y) = 0.63404 0.45245
# Poissons Ratio (z) = 0.43837 0.39014
#
# Static dielectric constant tensor:
#      x y z
#    x 3.238450 0.000000 -0.121460 
#    y 0.000000 3.261880 0.000000 
#    z -0.121460 0.000000 3.237990 
# 
# 
# High freq. dielectric constant tensor:
#      x y z
#    x 1.671600 0.000000 -0.010910 
#    y 0.000000 1.675060 0.000000 
#    z -0.010910 0.000000 1.669200 
# 
# From -- ./inp_files/229488.got.cif
#   From: 2010.06.25/outbox.cif.g09.slc.cpg/sg12_115_cif.got.tgz:229488.got - 2010.06.28 00:19:55.
