data_PCOD8095690
_publ_section_title
;
Structure prediction by ZEFSAII (Michael W. Deem and Ramdas Pophale) SiO2 
 PCOD8095690
Probable space group: C 2/M
;
_chemical_formula_sum "Si O2"
_cell_formula_units_Z 64
_cell_length_a 30.137658
_cell_length_b 8.886218
_cell_length_c 14.852577
_cell_angle_alpha 90.000000
_cell_angle_beta 79.311696
_cell_angle_gamma 90.000000
_cell_volume 3908.655854
_symmetry_space_group_name_H-M "C 2/M"
_symmetry_group_IT_number 12
_symmetry_cell_setting 'monoclinic'
loop_
_space_group_symop_operation_xyz
x,y,z
-x,y,-z
-x,-y,-z
x,-y,z
1/2+x,1/2+y,z
1/2-x,1/2+y,-z
1/2-x,1/2-y,-z
1/2+x,1/2-y,z
loop_
_atom_site_type_symbol
_atom_site_label
_atom_site_fract_x
_atom_site_fract_y
_atom_site_fract_z
Si Si1 0.627887 0.177486 0.240944
Si Si2 0.813673 0.825624 0.629284
Si Si3 0.789597 0.675568 0.297287
Si Si4 0.557618 0.178338 0.568888
Si Si5 0.352255 0.323561 0.420476
Si Si6 0.223149 0.823912 0.880283
Si Si7 0.812472 0.824544 0.915202
Si Si8 0.041838 0.322584 0.374062
O O1 0.662387 0.222706 0.306220
O O2 0.641320 0.255063 0.141441
O O3 0.577397 0.234378 0.285761
O O4 0.629494 0.000000 0.227376
O O5 0.760741 0.788692 0.650211
O O6 0.832402 0.780204 0.524961
O O7 0.823166 0.000000 0.648072
O O8 0.797814 0.500000 0.280841
O O9 0.823894 0.737534 0.357033
O O10 0.800395 0.756662 0.198766
O O11 0.596286 0.267531 0.607044
O O12 0.509369 0.223620 0.632055
O O13 0.556546 0.238541 0.466470
O O14 0.566566 0.000000 0.571655
O O15 0.349593 0.500000 0.402772
O O16 0.271335 0.747091 0.875878
O O17 0.231430 0.000000 0.865613
O O18 0.190753 0.789022 0.977573
O O19 0.811157 0.000000 0.895500
O O20 0.044026 0.500000 0.382155
#
# Coordination Sequence:
#
# PCOD8095690 Si02
#       8
#     8   8   8   8   8   8   8   8
#     4  11  19  29  50  76  99 130 167 200 242 290
#     4  10  21  34  46  67 100 134 167 204 239 282
#     4  11  22  35  51  69  95 133 172 206 245 287
#     4   9  16  32  51  68  95 129 166 203 244 287
#     4  11  22  34  48  70 100 132 170 207 243 287
#     4  10  20  34  51  71  95 128 166 204 242 285
#     4  10  20  33  49  71 101 130 159 198 247 295
#     4   8  16  29  49  73  96 126 163 204 243 290
#
# _framework density 16.373915
#
# number of rings (size 3 to 8) (size 9 to 14) (size 15 to 20)
#    0.000    2.000    2.500    3.000    0.000    2.500 
#    0.000    2.500    0.000    0.000    0.000    0.875 
#    0.000    7.000    0.000    0.000    0.000    0.000 
#
# Total GULP energy -396804.900622 kJ/mol
# GULP energy per Si atom -12400.153144 kJ/mol
# Density = 1.633665 g / cm^3
# Si number density = 16.373915 Si / 1000 Ang^3
#
#
#
# Elastic Constant Matrix: (Units=GPa)
#
#
# Indices 1 2 3 4 5 6 
#
# 1 102.5189 32.2519 48.4135 0.0000 -19.4014 0.0000
# 2 32.2519 54.2677 34.1020 0.0000 -13.5392 0.0000
# 3 48.4135 34.1020 90.9108 0.0000 -21.7155 0.0000
# 4 0.0000 0.0000 0.0000 27.1819 0.0000 0.6208
# 5 -19.4014 -13.5392 -21.7155 0.0000 23.3600 0.0000
# 6 0.0000 0.0000 0.0000 0.6208 0.0000 23.6963
#
#
#
# Elastic Compliance Matrix: (Units=1/GPa)
#
#
# Indices 1 2 3 4 5 6 
#
# 1 0.014309 -0.004222 -0.004862 0.000000 0.004918 0.000000
# 2 -0.004222 0.026324 -0.006195 0.000000 0.005992 0.000000
# 3 -0.004862 -0.006195 0.018112 0.000000 0.009209 0.000000
# 4 0.000000 0.000000 0.000000 0.036811 0.000000 -0.000964
# 5 0.004918 0.005992 0.009209 0.000000 0.058926 0.000000
# 6 0.000000 0.000000 0.000000 -0.000964 0.000000 0.042226
#
#
# Mechanical properties :
#
#
# Convention : Reuss Voigt Hill
#
# Bulk Modulus (GPa) = 35.47580 53.02581 44.25081
# Shear Modulus (GPa) = 21.12715 23.70963 22.41839
#
# Velocity S-wave (km/s) = 3.59596 3.80940 3.70422
# Velocity P-wave (km/s) = 6.24134 7.19746 6.73638
#
# Compressibility (1/GPa) = 0.02818823
#
# Stress axis : x y z
#
# Youngs Moduli (GPa) = 69.88565 37.98787 55.21093
#
# Poissons Ratio (x) = 0.16038 0.26842
# Poissons Ratio (y) = 0.29506 0.34203
# Poissons Ratio (z) = 0.33976 0.23533
#
# Static dielectric constant tensor:
#      x y z
#    x 3.166740 0.000000 -0.339810 
#    y 0.000000 3.060810 0.000000 
#    z -0.339810 0.000000 3.260520 
# 
# 
# High freq. dielectric constant tensor:
#      x y z
#    x 1.613560 0.000000 -0.016670 
#    y 0.000000 1.632760 0.000000 
#    z -0.016670 0.000000 1.619560 
# 
# From -- ./inp_files/248328.got.cif
#   From: 2010.06.25/outbox.cif.g09.slc.cpg/sg12_125_cif.got.tgz:248328.got - 2010.06.28 00:19:55.
