data_PCOD8095735
_publ_section_title
;
Structure prediction by ZEFSAII (Michael W. Deem and Ramdas Pophale) SiO2 
 PCOD8095735
Probable space group: C 2/M
;
_chemical_formula_sum "Si O2"
_cell_formula_units_Z 56
_cell_length_a 26.475919
_cell_length_b 9.181527
_cell_length_c 13.770967
_cell_angle_alpha 90.000000
_cell_angle_beta 59.734715
_cell_angle_gamma 90.000000
_cell_volume 2891.304686
_symmetry_space_group_name_H-M "C 2/M"
_symmetry_group_IT_number 12
_symmetry_cell_setting 'monoclinic'
loop_
_space_group_symop_operation_xyz
x,y,z
-x,y,-z
-x,-y,-z
x,-y,z
1/2+x,1/2+y,z
1/2-x,1/2+y,-z
1/2-x,1/2-y,-z
1/2+x,1/2-y,z
loop_
_atom_site_type_symbol
_atom_site_label
_atom_site_fract_x
_atom_site_fract_y
_atom_site_fract_z
Si Si1 0.070111 0.329124 0.028601
Si Si2 0.759698 0.830188 0.227634
Si Si3 0.463670 0.172234 0.249340
Si Si4 0.361532 0.172720 0.224501
Si Si5 0.165263 0.837418 0.030531
Si Si6 0.844687 0.166938 0.743855
Si Si7 0.532935 0.830538 0.367908
O O1 0.073258 0.500000 0.025976
O O2 0.111485 0.272787 0.074471
O O3 0.004547 0.277183 0.118675
O O4 0.094213 0.272573 0.902746
O O5 0.800744 0.758900 0.271359
O O6 0.696221 0.753765 0.292670
O O7 0.752448 0.000000 0.258055
O O8 0.784697 0.799340 0.095794
O O9 0.396273 0.218116 0.290133
O O10 0.489084 0.231813 0.326524
O O11 0.464920 0.000000 0.253664
O O12 0.348797 0.000000 0.231860
O O13 0.187229 0.824832 0.119880
O O14 0.142100 0.000000 0.031413
O O15 0.908313 0.237647 0.686588
O O16 0.850604 0.000000 0.703695
O O17 0.500000 0.807980 0.500000
O O18 0.548641 0.000000 0.334599
#
# Coordination Sequence:
#
# PCOD8095735 Si02
#       7
#     8   8   8   8   8   8   8
#     4   9  15  25  45  71 100 135 173 205 242 297
#     4  10  20  33  49  73 107 141 173 207 249 303
#     4   9  16  29  50  74 101 133 169 210 254 300
#     4   9  17  29  47  73 104 137 172 206 243 298
#     4   9  18  30  45  71 105 138 171 207 249 300
#     4  11  21  34  53  75 102 136 174 214 258 303
#     4  10  21  37  57  80 103 131 170 215 263 308
#
# _framework density 19.368417999999998
#
# number of rings (size 3 to 8) (size 9 to 14) (size 15 to 20)
#    0.000    2.429    1.429    1.714    0.000    3.143 
#    0.000    1.429    0.000    4.286    0.000    0.000 
#    0.000    0.000    0.000    0.000    0.000    0.000 
#
# Total GULP energy -346924.338213 kJ/mol
# GULP energy per Si atom -12390.154936 kJ/mol
# Density = 1.932433 g / cm^3
# Si number density = 19.368418 Si / 1000 Ang^3
#
#
#
# Elastic Constant Matrix: (Units=GPa)
#
#
# Indices 1 2 3 4 5 6 
#
# 1 174.0182 52.5869 37.1533 0.0000 6.4307 0.0000
# 2 52.5869 45.9481 23.4030 0.0000 0.6937 0.0000
# 3 37.1533 23.4030 28.8770 0.0000 0.3327 0.0000
# 4 0.0000 0.0000 0.0000 14.2426 0.0000 -4.1553
# 5 6.4307 0.6937 0.3327 0.0000 10.9843 0.0000
# 6 0.0000 0.0000 0.0000 -4.1553 0.0000 29.3091
#
#
#
# Elastic Compliance Matrix: (Units=1/GPa)
#
#
# Indices 1 2 3 4 5 6 
#
# 1 0.009562 -0.007888 -0.005853 0.000000 -0.004922 0.000000
# 2 -0.007888 0.043592 -0.025210 0.000000 0.002629 0.000000
# 3 -0.005853 -0.025210 0.062555 0.000000 0.003124 0.000000
# 4 0.000000 0.000000 0.000000 0.073242 0.000000 0.010384
# 5 -0.004922 0.002629 0.003124 0.000000 0.093660 0.000000
# 6 0.000000 0.000000 0.000000 0.010384 0.000000 0.035591
#
#
# Mechanical properties :
#
#
# Convention : Reuss Voigt Hill
#
# Bulk Modulus (GPa) = 26.45011 52.79219 39.62115
# Shear Modulus (GPa) = 12.23375 19.95387 16.09381
#
# Velocity S-wave (km/s) = 2.51596 3.21320 2.88571
# Velocity P-wave (km/s) = 4.70383 6.40954 5.62175
#
# Compressibility (1/GPa) = 0.03780703
#
# Stress axis : x y z
#
# Youngs Moduli (GPa) = 104.58440 22.94003 15.98591
#
# Poissons Ratio (x) = 0.18095 0.09356
# Poissons Ratio (y) = 0.82494 0.40301
# Poissons Ratio (z) = 0.61211 0.57832
#
# Static dielectric constant tensor:
#      x y z
#    x 3.827410 0.000000 0.019900 
#    y 0.000000 3.367760 0.000000 
#    z 0.019900 0.000000 3.375460 
# 
# 
# High freq. dielectric constant tensor:
#      x y z
#    x 1.766540 0.000000 0.002330 
#    y 0.000000 1.733390 0.000000 
#    z 0.002330 0.000000 1.707270 
# 
# From -- ./inp_files/243607.got.cif
#   From: 2010.06.25/outbox.cif.g09.slc.cpg/sg12_122_cif.got.tgz:243607.got - 2010.06.28 00:19:55.
