data_PCOD8095503
_publ_section_title
;
Structure prediction by ZEFSAII (Michael W. Deem and Ramdas Pophale) SiO2 
 PCOD8095503
Probable space group: C 2/M
;
_chemical_formula_sum "Si O2"
_cell_formula_units_Z 64
_cell_length_a 24.407525
_cell_length_b 8.965965
_cell_length_c 28.034116
_cell_angle_alpha 90.000000
_cell_angle_beta 147.229819
_cell_angle_gamma 90.000000
_cell_volume 3320.642673
_symmetry_space_group_name_H-M "C 2/M"
_symmetry_group_IT_number 12
_symmetry_cell_setting 'monoclinic'
loop_
_space_group_symop_operation_xyz
x,y,z
-x,y,-z
-x,-y,-z
x,-y,z
1/2+x,1/2+y,z
1/2-x,1/2+y,-z
1/2-x,1/2-y,-z
1/2+x,1/2-y,z
loop_
_atom_site_type_symbol
_atom_site_label
_atom_site_fract_x
_atom_site_fract_y
_atom_site_fract_z
Si Si1 0.110776 0.823504 0.633874
Si Si2 0.690498 0.324550 0.913292
Si Si3 0.775447 0.677719 0.569012
Si Si4 0.957875 0.175584 0.860196
Si Si5 0.669636 0.326921 0.053409
Si Si6 0.792296 0.172484 0.810453
Si Si7 0.457894 0.674578 0.751954
Si Si8 0.616337 0.323366 0.531013
O O1 0.185391 0.754510 0.727375
O O2 0.141893 0.767449 0.603388
O O3 0.997557 0.769959 0.564728
O O4 0.117223 0.000000 0.641096
O O5 0.702231 0.500000 0.927456
O O6 0.736172 0.267577 0.897059
O O7 0.573272 0.278581 0.827299
O O8 0.750000 0.250000 0.000000
O O9 0.771415 0.500000 0.561606
O O10 0.750000 0.750000 0.500000
O O11 0.887498 0.728859 0.665885
O O12 0.695562 0.739418 0.550104
O O13 0.871844 0.243999 0.831357
O O14 0.930202 0.216648 0.785971
O O15 0.963570 0.000000 0.872893
O O16 0.067858 0.239028 0.954978
O O17 0.686015 0.500000 0.052136
O O18 0.661881 0.302550 0.103989
O O19 0.773587 0.000000 0.785711
O O20 0.440388 0.500000 0.728992
O O21 0.620761 0.500000 0.533587
#
# Coordination Sequence:
#
# PCOD8095503 Si02
#       8
#     8   8   8   8   8   8   8   8
#     4   9  17  34  58  79 104 139 180 225 276 331
#     4  11  22  38  60  84 112 147 190 237 283 333
#     4  11  23  39  58  83 114 147 186 230 281 337
#     4   9  17  34  57  79 108 148 188 227 276 332
#     4  10  20  36  55  79 112 151 189 228 276 331
#     4  10  20  32  52  82 114 145 182 225 277 334
#     4  10  21  38  60  84 110 145 190 234 282 335
#     4   8  17  35  58  79 102 140 182 222 273 334
#
# _framework density 19.273378000000001
#
# number of rings (size 3 to 8) (size 9 to 14) (size 15 to 20)
#    0.000    2.250    1.250    2.625    0.000    4.000 
#    0.000    7.500    0.000    1.500    0.000    0.000 
#    0.000    0.000    0.000    0.000    0.000    0.000 
#
# Total GULP energy -396815.035193 kJ/mol
# GULP energy per Si atom -12400.469850 kJ/mol
# Density = 1.922951 g / cm^3
# Si number density = 19.273378 Si / 1000 Ang^3
#
#
#
# Elastic Constant Matrix: (Units=GPa)
#
#
# Indices 1 2 3 4 5 6 
#
# 1 100.5983 32.3226 53.0717 0.0000 11.0265 -0.0004
# 2 32.3226 45.9677 43.0787 -0.0001 2.3105 -0.0009
# 3 53.0717 43.0787 134.8093 0.0000 1.5458 0.0000
# 4 0.0000 -0.0001 0.0000 33.1708 0.0000 -1.3869
# 5 11.0265 2.3105 1.5458 0.0000 29.8954 0.0000
# 6 -0.0004 -0.0009 0.0000 -1.3869 0.0000 26.0604
#
#
#
# Elastic Compliance Matrix: (Units=1/GPa)
#
#
# Indices 1 2 3 4 5 6 
#
# 1 0.014428 -0.006622 -0.003511 0.000000 -0.004628 0.000000
# 2 -0.006622 0.034201 -0.008324 0.000000 0.000230 0.000001
# 3 -0.003511 -0.008324 0.011445 0.000000 0.001346 0.000000
# 4 0.000000 0.000000 0.000000 0.030214 0.000000 0.001608
# 5 -0.004628 0.000230 0.001346 0.000000 0.035070 0.000000
# 6 0.000000 0.000001 0.000000 0.001608 0.000000 0.038458
#
#
# Mechanical properties :
#
#
# Convention : Reuss Voigt Hill
#
# Bulk Modulus (GPa) = 43.18146 59.81348 51.49747
# Shear Modulus (GPa) = 23.98669 28.01882 26.00275
#
# Velocity S-wave (km/s) = 3.53165 3.81695 3.67707
# Velocity P-wave (km/s) = 6.25167 7.10824 6.69367
#
# Compressibility (1/GPa) = 0.02315809
#
# Stress axis : x y z
#
# Youngs Moduli (GPa) = 69.31132 29.23920 87.37735
#
# Poissons Ratio (x) = 0.19363 0.30675
# Poissons Ratio (y) = 0.45900 0.72737
# Poissons Ratio (z) = 0.24333 0.24340
#
# Static dielectric constant tensor:
#      x y z
#    x 3.780140 0.000000 0.164800 
#    y 0.000000 3.227170 0.000000 
#    z 0.164800 0.000000 3.557940 
# 
# 
# High freq. dielectric constant tensor:
#      x y z
#    x 1.757650 0.000000 0.005000 
#    y 0.000000 1.718410 0.000000 
#    z 0.005000 0.000000 1.758550 
# 
# From -- ./inp_files/382553.got.cif
#   From: 2010.06.25/outbox.cif.g09.slc.cpg/sg12_192_cif.got.tgz:382553.got - 2010.06.28 00:19:55.
