data_PCOD8095582
_publ_section_title
;
Structure prediction by ZEFSAII (Michael W. Deem and Ramdas Pophale) SiO2 
 PCOD8095582
Probable space group: C 2/M
;
_chemical_formula_sum "Si O2"
_cell_formula_units_Z 64
_cell_length_a 29.759565
_cell_length_b 9.023713
_cell_length_c 14.903011
_cell_angle_alpha 90.000000
_cell_angle_beta 78.684538
_cell_angle_gamma 90.000000
_cell_volume 3924.287531
_symmetry_space_group_name_H-M "C 2/M"
_symmetry_group_IT_number 12
_symmetry_cell_setting 'monoclinic'
loop_
_space_group_symop_operation_xyz
x,y,z
-x,y,-z
-x,-y,-z
x,-y,z
1/2+x,1/2+y,z
1/2-x,1/2+y,-z
1/2-x,1/2-y,-z
1/2+x,1/2-y,z
loop_
_atom_site_type_symbol
_atom_site_label
_atom_site_fract_x
_atom_site_fract_y
_atom_site_fract_z
Si Si1 0.877403 0.328043 0.758446
Si Si2 0.693031 0.827659 0.373104
Si Si3 0.188213 0.827732 0.091718
Si Si4 0.287193 0.175433 0.289464
Si Si5 0.647952 0.825661 0.575331
Si Si6 0.956085 0.172880 0.633707
Si Si7 0.720358 0.328005 0.884855
Si Si8 0.441409 0.327859 0.436400
O O1 0.880472 0.500000 0.781651
O O2 0.844965 0.296721 0.686714
O O3 0.858845 0.239757 0.852353
O O4 0.927904 0.267810 0.716714
O O5 0.736966 0.730295 0.334614
O O6 0.673224 0.770980 0.475432
O O7 0.706980 0.000000 0.371141
O O8 0.229744 0.741517 0.121472
O O9 0.192612 0.000000 0.114938
O O10 0.188748 0.803843 0.984333
O O11 0.322684 0.227861 0.351315
O O12 0.303837 0.248389 0.189588
O O13 0.286380 0.000000 0.279351
O O14 0.597441 0.757773 0.603082
O O15 0.642254 0.000000 0.575408
O O16 0.942632 0.225597 0.539045
O O17 0.009769 0.204458 0.629334
O O18 0.944941 0.000000 0.650426
O O19 0.727848 0.500000 0.860122
O O20 0.429892 0.500000 0.437508
#
# Coordination Sequence:
#
# PCOD8095582 Si02
#       8
#     8   8   8   8   8   8   8   8
#     4  11  20  30  49  75 100 130 163 197 240 288
#     4  10  20  33  46  66  99 133 168 204 233 276
#     4  10  20  33  51  71  95 126 159 199 246 290
#     4  11  22  33  49  70  95 132 170 203 242 283
#     4  10  21  35  48  68  98 131 169 206 239 282
#     4   9  18  32  49  71  99 126 161 202 242 290
#     4  10  20  34  50  70  95 125 161 202 244 288
#     4   9  18  32  50  71  94 127 165 203 243 283
#
# _framework density 16.308692000000001
#
# number of rings (size 3 to 8) (size 9 to 14) (size 15 to 20)
#    0.000    2.000    2.500    2.625    0.000    4.000 
#    0.000    1.250    0.000    0.000    0.000    0.875 
#    0.000    7.000    0.000    0.000    0.000    0.000 
#
# Total GULP energy -396886.961916 kJ/mol
# GULP energy per Si atom -12402.717560 kJ/mol
# Density = 1.627157 g / cm^3
# Si number density = 16.308692 Si / 1000 Ang^3
#
#
#
# Elastic Constant Matrix: (Units=GPa)
#
#
# Indices 1 2 3 4 5 6 
#
# 1 68.3066 35.0431 44.5626 0.0000 -7.9220 0.0000
# 2 35.0431 69.3049 44.6659 0.0000 -5.0146 0.0000
# 3 44.5626 44.6659 102.0617 0.0000 -8.3541 0.0000
# 4 0.0000 0.0000 0.0000 27.5626 0.0000 -3.1012
# 5 -7.9220 -5.0146 -8.3541 0.0000 24.0799 0.0000
# 6 0.0000 0.0000 0.0000 -3.1012 0.0000 28.4029
#
#
#
# Elastic Compliance Matrix: (Units=1/GPa)
#
#
# Indices 1 2 3 4 5 6 
#
# 1 0.023062 -0.007099 -0.006651 0.000000 0.003801 0.000000
# 2 -0.007099 0.022315 -0.006666 0.000000 -0.000001 0.000000
# 3 -0.006651 -0.006666 0.015775 0.000000 0.001896 0.000000
# 4 0.000000 0.000000 0.000000 0.036732 0.000000 0.004011
# 5 0.003801 -0.000001 0.001896 0.000000 0.043437 0.000000
# 6 0.000000 0.000000 0.000000 0.004011 0.000000 0.035646
#
#
# Mechanical properties :
#
#
# Convention : Reuss Voigt Hill
#
# Bulk Modulus (GPa) = 49.21763 54.24628 51.73196
# Shear Modulus (GPa) = 22.26450 23.70251 22.98351
#
# Velocity S-wave (km/s) = 3.69886 3.81644 3.75811
# Velocity P-wave (km/s) = 6.96322 7.26324 7.11481
#
# Compressibility (1/GPa) = 0.02031792
#
# Stress axis : x y z
#
# Youngs Moduli (GPa) = 43.36100 44.81327 63.39244
#
# Poissons Ratio (x) = 0.31814 0.42165
# Poissons Ratio (y) = 0.30783 0.42258
# Poissons Ratio (z) = 0.28841 0.29873
#
# Static dielectric constant tensor:
#      x y z
#    x 2.936940 0.000000 -0.037870 
#    y 0.000000 3.085760 0.000000 
#    z -0.037870 0.000000 3.184770 
# 
# 
# High freq. dielectric constant tensor:
#      x y z
#    x 1.605150 0.000000 -0.012680 
#    y 0.000000 1.636310 0.000000 
#    z -0.012680 0.000000 1.618910 
# 
# From -- ./inp_files/243925.got.cif
#   From: 2010.06.25/outbox.cif.g09.slc.cpg/sg12_122_cif.got.tgz:243925.got - 2010.06.28 00:19:55.
