data_PCOD8095649
_publ_section_title
;
Structure prediction by ZEFSAII (Michael W. Deem and Ramdas Pophale) SiO2 
 PCOD8095649
Probable space group: C 2/M
;
_chemical_formula_sum "Si O2"
_cell_formula_units_Z 48
_cell_length_a 23.892746
_cell_length_b 8.876960
_cell_length_c 20.895645
_cell_angle_alpha 90.000000
_cell_angle_beta 38.723390
_cell_angle_gamma 90.000000
_cell_volume 2772.400161
_symmetry_space_group_name_H-M "C 2/M"
_symmetry_group_IT_number 12
_symmetry_cell_setting 'monoclinic'
loop_
_space_group_symop_operation_xyz
x,y,z
-x,y,-z
-x,-y,-z
x,-y,z
1/2+x,1/2+y,z
1/2-x,1/2+y,-z
1/2-x,1/2-y,-z
1/2+x,1/2-y,z
loop_
_atom_site_type_symbol
_atom_site_label
_atom_site_fract_x
_atom_site_fract_y
_atom_site_fract_z
Si Si1 0.312562 0.327715 0.120478
Si Si2 0.346610 0.672721 0.227302
Si Si3 0.178858 0.175375 0.608993
Si Si4 0.472066 0.176098 0.919859
Si Si5 0.306067 0.177118 0.892215
Si Si6 0.523989 0.677544 0.216356
O O1 0.341865 0.500000 0.081422
O O2 0.281854 0.310127 0.222847
O O3 0.234977 0.281021 0.140456
O O4 0.397194 0.217936 0.038288
O O5 0.380158 0.500000 0.205031
O O6 0.299083 0.719247 0.336588
O O7 0.431656 0.778279 0.139203
O O8 0.250000 0.250000 0.500000
O O9 0.078458 0.229358 0.679851
O O10 0.187386 0.000000 0.590207
O O11 0.446622 0.272257 0.880273
O O12 0.470024 0.000000 0.905858
O O13 0.407066 0.241104 0.797305
O O14 0.308348 0.000000 0.902458
O O15 0.250000 0.250000 0.000000
O O16 0.534981 0.500000 0.213541
#
# Coordination Sequence:
#
# PCOD8095649 Si02
#       6
#     8   8   8   8   8   8
#     4  10  20  33  49  68 100 142 174 201 245 301
#     4   9  19  35  51  70  99 135 169 204 253 310
#     4   9  19  35  57  79  98 124 163 214 267 311
#     4  11  20  29  46  73 103 134 170 211 251 295
#     4  11  21  32  50  75 104 141 178 212 245 293
#     4  10  20  35  52  73 103 138 174 210 252 303
#
# _framework density 17.313517999999998
#
# number of rings (size 3 to 8) (size 9 to 14) (size 15 to 20)
#    0.000    2.000    1.667    4.000    0.000    6.667 
#    0.000    0.000    0.000    1.000    0.000    7.000 
#    0.000    0.000    0.000    0.000    0.000    0.000 
#
# Total GULP energy -297473.373026 kJ/mol
# GULP energy per Si atom -12394.723876 kJ/mol
# Density = 1.727411 g / cm^3
# Si number density = 17.313518 Si / 1000 Ang^3
#
#
#
# Elastic Constant Matrix: (Units=GPa)
#
#
# Indices 1 2 3 4 5 6 
#
# 1 141.7908 41.4137 68.3239 -0.0012 14.2645 0.0016
# 2 41.4137 63.4883 37.2011 -0.0029 0.5545 0.0032
# 3 68.3239 37.2011 110.1393 -0.0007 6.5172 0.0013
# 4 -0.0012 -0.0029 -0.0007 27.2427 0.0000 -3.7031
# 5 14.2645 0.5545 6.5172 0.0000 16.4479 -0.0002
# 6 0.0016 0.0032 0.0013 -3.7031 -0.0002 24.7280
#
#
#
# Elastic Compliance Matrix: (Units=1/GPa)
#
#
# Indices 1 2 3 4 5 6 
#
# 1 0.011696 -0.004467 -0.005279 0.000000 -0.007901 0.000000
# 2 -0.004467 0.021409 -0.004758 0.000002 0.005038 -0.000002
# 3 -0.005279 -0.004758 0.014010 0.000000 -0.000812 0.000000
# 4 0.000000 0.000002 0.000000 0.037470 0.000000 0.005611
# 5 -0.007901 0.005038 -0.000812 0.000000 0.067802 0.000001
# 6 0.000000 -0.000002 0.000000 0.005611 0.000001 0.041280
#
#
# Mechanical properties :
#
#
# Convention : Reuss Voigt Hill
#
# Bulk Modulus (GPa) = 55.23141 67.69954 61.46547
# Shear Modulus (GPa) = 21.86167 24.91571 23.38869
#
# Velocity S-wave (km/s) = 3.55729 3.79765 3.67944
# Velocity P-wave (km/s) = 6.98874 7.64307 7.32322
#
# Compressibility (1/GPa) = 0.01810564
#
# Stress axis : x y z
#
# Youngs Moduli (GPa) = 85.49856 46.70961 71.38000
#
# Poissons Ratio (x) = 0.20865 0.37683
# Poissons Ratio (y) = 0.38193 0.33964
# Poissons Ratio (z) = 0.45137 0.22225
#
# Static dielectric constant tensor:
#      x y z
#    x 3.485300 0.000000 0.034260 
#    y 0.000000 3.231370 0.000000 
#    z 0.034260 0.000000 3.023470 
# 
# 
# High freq. dielectric constant tensor:
#      x y z
#    x 1.674840 0.000000 0.008530 
#    y 0.000000 1.672670 0.000000 
#    z 0.008530 0.000000 1.628340 
# 
# From -- ./inp_files/236616.got.cif
#   From: 2010.06.25/outbox.cif.g09.slc.cpg/sg12_119_cif.got.tgz:236616.got - 2010.06.28 00:19:55.
