data_PCOD8095989
_publ_section_title
;
Structure prediction by ZEFSAII (Michael W. Deem and Ramdas Pophale) SiO2 
 PCOD8095989
Probable space group: C 2/M
;
_chemical_formula_sum "Si O2"
_cell_formula_units_Z 64
_cell_length_a 14.133382
_cell_length_b 8.799238
_cell_length_c 28.624697
_cell_angle_alpha 90.000000
_cell_angle_beta 77.783359
_cell_angle_gamma 90.000000
_cell_volume 3479.238227
_symmetry_space_group_name_H-M "C 2/M"
_symmetry_group_IT_number 12
_symmetry_cell_setting 'monoclinic'
loop_
_space_group_symop_operation_xyz
x,y,z
-x,y,-z
-x,-y,-z
x,-y,z
1/2+x,1/2+y,z
1/2-x,1/2+y,-z
1/2-x,1/2-y,-z
1/2+x,1/2-y,z
loop_
_atom_site_type_symbol
_atom_site_label
_atom_site_fract_x
_atom_site_fract_y
_atom_site_fract_z
Si Si1 0.928058 0.679381 0.867594
Si Si2 0.045954 0.322525 0.621086
Si Si3 0.660969 0.827773 0.701672
Si Si4 0.597547 0.677149 0.800808
Si Si5 0.842262 0.822013 0.620967
Si Si6 0.211909 0.179581 0.879415
Si Si7 0.458571 0.820337 0.053168
Si Si8 0.775057 0.180886 0.447837
O O1 0.927731 0.500000 0.863202
O O2 0.820113 0.744926 0.873238
O O3 0.994139 0.742654 0.818808
O O4 0.969107 0.733188 0.913347
O O5 0.035968 0.500000 0.609793
O O6 0.081180 0.298978 0.670271
O O7 0.121534 0.247499 0.577823
O O8 0.945010 0.237528 0.626904
O O9 0.641860 0.715668 0.746189
O O10 0.767188 0.791830 0.670660
O O11 0.654842 0.000000 0.720603
O O12 0.579411 0.500000 0.806033
O O13 0.671867 0.731729 0.833161
O O14 0.809210 0.730493 0.578815
O O15 0.846015 0.000000 0.607955
O O16 0.147061 0.249674 0.927441
O O17 0.210480 0.000000 0.885323
O O18 0.447535 0.000000 0.053201
O O19 0.500000 0.758009 0.000000
O O20 0.750000 0.250000 0.500000
O O21 0.780835 0.000000 0.449676
#
# Coordination Sequence:
#
# PCOD8095989 Si02
#       8
#     8   8   8   8   8   8   8   8
#     4   9  18  34  52  69  98 135 166 203 256 309
#     4  10  21  38  58  82 110 142 180 222 267 319
#     4   9  20  37  55  76 107 141 173 211 261 316
#     4  10  20  33  51  75 101 129 170 215 252 299
#     4  10  21  38  58  83 112 143 180 222 268 320
#     4   9  19  34  50  71  98 131 168 206 250 302
#     4   9  18  32  50  73  99 128 164 206 252 304
#     4  11  22  38  59  83 112 146 183 225 270 318
#
# _framework density 18.394832000000001
#
# number of rings (size 3 to 8) (size 9 to 14) (size 15 to 20)
#    0.000    2.375    0.000    3.000    0.000    6.250 
#    0.000    6.250    0.000    0.000    0.000    0.000 
#    0.000    0.000    0.000    0.000    0.000    0.000 
#
# Total GULP energy -396884.159203 kJ/mol
# GULP energy per Si atom -12402.629975 kJ/mol
# Density = 1.835296 g / cm^3
# Si number density = 18.394832 Si / 1000 Ang^3
#
#
#
# Elastic Constant Matrix: (Units=GPa)
#
#
# Indices 1 2 3 4 5 6 
#
# 1 139.6475 22.8548 49.8650 0.0000 -14.3021 0.0000
# 2 22.8548 44.9601 34.8141 0.0000 -9.2223 0.0000
# 3 49.8650 34.8141 119.0699 0.0000 -14.1708 0.0000
# 4 0.0000 0.0000 0.0000 30.8667 0.0000 -4.0070
# 5 -14.3021 -9.2223 -14.1708 0.0000 14.3332 0.0000
# 6 0.0000 0.0000 0.0000 -4.0070 0.0000 31.8560
#
#
#
# Elastic Compliance Matrix: (Units=1/GPa)
#
#
# Indices 1 2 3 4 5 6 
#
# 1 0.008890 -0.001334 -0.002696 0.000000 0.005346 0.000000
# 2 -0.001334 0.030743 -0.007066 0.000000 0.011464 0.000000
# 3 -0.002696 -0.007066 0.012163 0.000000 0.004789 0.000000
# 4 0.000000 0.000000 0.000000 0.032935 0.000000 0.004143
# 5 0.005346 0.011464 0.004789 0.000000 0.087213 0.000000
# 6 0.000000 0.000000 0.000000 0.004143 0.000000 0.031912
#
#
# Mechanical properties :
#
#
# Convention : Reuss Voigt Hill
#
# Bulk Modulus (GPa) = 33.78028 57.63834 45.70931
# Shear Modulus (GPa) = 21.19392 28.48742 24.84067
#
# Velocity S-wave (km/s) = 3.39804 3.93958 3.67879
# Velocity P-wave (km/s) = 5.81373 7.21773 6.55344
#
# Compressibility (1/GPa) = 0.02960307
#
# Stress axis : x y z
#
# Youngs Moduli (GPa) = 112.49071 32.52790 82.21331
#
# Poissons Ratio (x) = 0.04340 0.22169
# Poissons Ratio (y) = 0.15011 0.58088
# Poissons Ratio (z) = 0.30333 0.22983
#
# Static dielectric constant tensor:
#      x y z
#    x 3.552340 0.000000 0.005190 
#    y 0.000000 3.359020 0.000000 
#    z 0.005190 0.000000 3.378670 
# 
# 
# High freq. dielectric constant tensor:
#      x y z
#    x 1.718430 0.000000 -0.004990 
#    y 0.000000 1.716200 0.000000 
#    z -0.004990 0.000000 1.713060 
# 
# From -- ./inp_files/359809.got.cif
#   From: 2010.06.25/outbox.cif.g09.slc.cpg/sg12_180_cif.got.tgz:359809.got - 2010.06.28 00:19:55.
