data_PCOD8095763
_publ_section_title
;
Structure prediction by ZEFSAII (Michael W. Deem and Ramdas Pophale) SiO2 
 PCOD8095763
Probable space group: C 2/M
;
_chemical_formula_sum "Si O2"
_cell_formula_units_Z 48
_cell_length_a 17.953335
_cell_length_b 9.424222
_cell_length_c 23.239017
_cell_angle_alpha 90.000000
_cell_angle_beta 138.324133
_cell_angle_gamma 90.000000
_cell_volume 2614.418191
_symmetry_space_group_name_H-M "C 2/M"
_symmetry_group_IT_number 12
_symmetry_cell_setting 'monoclinic'
loop_
_space_group_symop_operation_xyz
x,y,z
-x,y,-z
-x,-y,-z
x,-y,z
1/2+x,1/2+y,z
1/2-x,1/2+y,-z
1/2-x,1/2-y,-z
1/2+x,1/2-y,z
loop_
_atom_site_type_symbol
_atom_site_label
_atom_site_fract_x
_atom_site_fract_y
_atom_site_fract_z
Si Si1 0.296257 0.167110 0.136437
Si Si2 0.370020 0.831257 0.302736
Si Si3 0.574797 0.835539 0.989557
Si Si4 0.429019 0.832808 0.513636
Si Si5 0.274817 0.331588 0.671322
Si Si6 0.508415 0.836945 0.183237
O O1 0.329401 0.229165 0.218262
O O2 0.186126 0.243662 0.050526
O O3 0.393705 0.205378 0.148192
O O4 0.272468 0.000000 0.125046
O O5 0.498627 0.775360 0.389849
O O6 0.284561 0.782794 0.303441
O O7 0.373294 0.000000 0.302318
O O8 0.608868 0.000000 0.014408
O O9 0.500000 0.785581 0.000000
O O10 0.502938 0.806581 0.890990
O O11 0.500000 0.785406 0.500000
O O12 0.301498 0.780287 0.427937
O O13 0.423287 0.000000 0.514452
O O14 0.292241 0.500000 0.681011
O O15 0.393643 0.257222 0.733508
O O16 0.538212 0.000000 0.212599
#
# Coordination Sequence:
#
# PCOD8095763 Si02
#       6
#     8   8   8   8   8   8
#     4  10  20  33  50  71  94 122 154 188 228 273
#     4   8  14  27  48  72  94 117 152 196 233 264
#     4  10  21  36  52  69  91 121 154 189 232 277
#     4   7  11  22  43  70  94 115 147 192 231 261
#     4   9  16  28  50  74  91 117 159 196 223 261
#     4  10  21  34  46  66  98 128 150 182 234 282
#
# _framework density 18.359724
#
# number of rings (size 3 to 8) (size 9 to 14) (size 15 to 20)
#    0.000    3.000    0.000    3.500    0.000    1.667 
#    0.000    0.833    0.000    5.500    0.000    0.000 
#    0.000    0.000    0.000    0.000    0.000    0.000 
#
# Total GULP energy -297362.253140 kJ/mol
# GULP energy per Si atom -12390.093881 kJ/mol
# Density = 1.831794 g / cm^3
# Si number density = 18.359724 Si / 1000 Ang^3
#
#
#
# Elastic Constant Matrix: (Units=GPa)
#
#
# Indices 1 2 3 4 5 6 
#
# 1 52.6750 20.6086 19.2594 0.0000 17.7986 0.0000
# 2 20.6086 35.5143 38.4038 0.0000 16.8126 0.0000
# 3 19.2594 38.4038 107.0148 0.0000 29.1563 0.0000
# 4 0.0000 0.0000 0.0000 12.5472 0.0000 -0.8401
# 5 17.7986 16.8126 29.1563 0.0000 26.7245 0.0000
# 6 0.0000 0.0000 0.0000 -0.8401 0.0000 11.8185
#
#
#
# Elastic Compliance Matrix: (Units=1/GPa)
#
#
# Indices 1 2 3 4 5 6 
#
# 1 0.027580 -0.013313 0.003609 0.000000 -0.013931 0.000000
# 2 -0.013313 0.057483 -0.015362 0.000000 -0.010537 0.000000
# 3 0.003609 -0.015362 0.017402 0.000000 -0.011725 0.000000
# 4 0.000000 0.000000 0.000000 0.080080 0.000000 0.005692
# 5 -0.013931 -0.010537 -0.011725 0.000000 0.066119 0.000000
# 6 0.000000 0.000000 0.000000 0.005692 0.000000 0.085018
#
#
# Mechanical properties :
#
#
# Convention : Reuss Voigt Hill
#
# Bulk Modulus (GPa) = 19.10745 39.08307 29.09526
# Shear Modulus (GPa) = 12.46084 18.01352 15.23718
#
# Velocity S-wave (km/s) = 2.60802 3.13572 2.88397
# Velocity P-wave (km/s) = 4.41576 5.86889 5.19340
#
# Compressibility (1/GPa) = 0.05233561
#
# Stress axis : x y z
#
# Youngs Moduli (GPa) = 36.25763 17.39651 57.46347
#
# Poissons Ratio (x) = 0.23159 -0.20741
# Poissons Ratio (y) = 0.48268 0.88275
# Poissons Ratio (z) = -0.13087 0.26724
#
# Static dielectric constant tensor:
#      x y z
#    x 3.301350 0.000000 -0.189210 
#    y 0.000000 2.941030 0.000000 
#    z -0.189210 0.000000 3.809380 
# 
# 
# High freq. dielectric constant tensor:
#      x y z
#    x 1.693100 0.000000 -0.002330 
#    y 0.000000 1.666860 0.000000 
#    z -0.002330 0.000000 1.736090 
# 
# From -- ./inp_files/250747.got.cif
#   From: 2010.06.25/outbox.cif.g09.slc.cpg/sg12_126_cif.got.tgz:250747.got - 2010.06.28 00:19:55.
