data_PCOD8095305
_publ_section_title
;
Structure prediction by ZEFSAII (Michael W. Deem and Ramdas Pophale) SiO2 
 PCOD8095305
Probable space group: C 2/M
;
_chemical_formula_sum "Si O2"
_cell_formula_units_Z 60
_cell_length_a 9.921895
_cell_length_b 22.379537
_cell_length_c 17.899961
_cell_angle_alpha 90.000000
_cell_angle_beta 125.052409
_cell_angle_gamma 90.000000
_cell_volume 3253.747876
_symmetry_space_group_name_H-M "C 2/M"
_symmetry_group_IT_number 12
_symmetry_cell_setting 'monoclinic'
loop_
_space_group_symop_operation_xyz
x,y,z
-x,y,-z
-x,-y,-z
x,-y,z
1/2+x,1/2+y,z
1/2-x,1/2+y,-z
1/2-x,1/2-y,-z
1/2+x,1/2-y,z
loop_
_atom_site_type_symbol
_atom_site_label
_atom_site_fract_x
_atom_site_fract_y
_atom_site_fract_z
Si Si1 0.305881 0.567981 0.287803
Si Si2 0.061610 0.568552 0.824300
Si Si3 0.987803 0.069912 0.791297
Si Si4 0.646374 0.431926 0.988636
Si Si5 0.500000 0.869027 0.500000
Si Si6 0.119515 0.570792 0.678466
Si Si7 0.708992 0.277935 0.408924
Si Si8 0.401698 0.315324 0.391768
O O1 0.336600 0.500000 0.327726
O O2 0.420735 0.583936 0.255642
O O3 0.339213 0.616625 0.362632
O O4 0.119571 0.574332 0.198945
O O5 0.118682 0.500000 0.833578
O O6 0.061314 0.596068 0.740520
O O7 0.192394 0.599645 0.922675
O O8 0.088289 0.099510 0.892756
O O9 0.804355 0.096331 0.725159
O O10 0.972193 0.000000 0.802984
O O11 0.693100 0.500000 0.984660
O O12 0.500000 0.427331 0.000000
O O13 0.505835 0.907770 0.425972
O O14 0.331283 0.833204 0.438536
O O15 0.114324 0.500000 0.673763
O O16 0.750000 0.250000 0.500000
O O17 0.515879 0.297184 0.355898
O O18 0.746493 0.230740 0.352887
O O19 0.500000 0.311910 0.500000
#
# Coordination Sequence:
#
# PCOD8095305 Si02
#       8
#     8   8   8   8   4   8   8   8
#     4  10  21  34  48  77 117 145 168 209 268 335
#     4   9  18  30  46  72 105 141 179 211 251 312
#     4   9  17  31  48  70 105 142 179 215 252 310
#     4   9  14  26  49  69  96 142 183 217 252 296
#     4  12  21  32  56  72 105 138 178 220 270 306
#     4  10  20  32  48  75 108 144 178 211 254 319
#     4  10  20  37  53  75  91 133 179 236 267 289
#     4  10  21  37  57  73 103 141 180 229 265 302
#
# _framework density 18.440272
#
# number of rings (size 3 to 8) (size 9 to 14) (size 15 to 20)
#    0.000    2.267    3.333    1.000    3.733    0.800 
#    0.000    3.333    0.000    0.000    0.000    0.000 
#    0.000   19.200    0.000    0.000    0.000    0.000 
#
# Total GULP energy -371664.039840 kJ/mol
# GULP energy per Si atom -12388.801328 kJ/mol
# Density = 1.839830 g / cm^3
# Si number density = 18.440272 Si / 1000 Ang^3
#
#
#
# Elastic Constant Matrix: (Units=GPa)
#
#
# Indices 1 2 3 4 5 6 
#
# 1 91.6533 31.4405 7.8440 0.0000 5.1191 0.0000
# 2 31.4405 61.5891 30.4366 0.0000 1.1530 0.0000
# 3 7.8440 30.4366 68.4913 0.0000 -4.4699 0.0000
# 4 0.0000 0.0000 0.0000 5.8486 0.0000 0.8917
# 5 5.1191 1.1530 -4.4699 0.0000 16.6628 0.0000
# 6 0.0000 0.0000 0.0000 0.8917 0.0000 3.9703
#
#
#
# Elastic Compliance Matrix: (Units=1/GPa)
#
#
# Indices 1 2 3 4 5 6 
#
# 1 0.013587 -0.007694 0.001654 0.000000 -0.003198 0.000000
# 2 -0.007694 0.025426 -0.010563 0.000000 -0.002230 0.000000
# 3 0.001654 -0.010563 0.019460 0.000000 0.005443 0.000000
# 4 0.000000 0.000000 0.000000 0.177045 0.000000 -0.039765
# 5 -0.003198 -0.002230 0.005443 0.000000 0.062611 0.000000
# 6 0.000000 0.000000 0.000000 -0.039765 0.000000 0.260800
#
#
# Mechanical properties :
#
#
# Convention : Reuss Voigt Hill
#
# Bulk Modulus (GPa) = 39.57599 40.13065 39.85332
# Shear Modulus (GPa) = 8.32559 15.43050 11.87805
#
# Velocity S-wave (km/s) = 2.12713 2.89586 2.54074
# Velocity P-wave (km/s) = 5.24798 5.74379 5.50147
#
# Compressibility (1/GPa) = 0.02526784
#
# Stress axis : x y z
#
# Youngs Moduli (GPa) = 73.60028 39.32960 51.38630
#
# Poissons Ratio (x) = 0.30258 -0.08500
# Poissons Ratio (y) = 0.56625 0.54282
# Poissons Ratio (z) = -0.12174 0.41546
#
# Static dielectric constant tensor:
#      x y z
#    x 3.761500 0.000000 0.039110 
#    y 0.000000 3.111220 0.000000 
#    z 0.039110 0.000000 3.488430 
# 
# 
# High freq. dielectric constant tensor:
#      x y z
#    x 1.731020 0.000000 0.001290 
#    y 0.000000 1.663080 0.000000 
#    z 0.001290 0.000000 1.698350 
# 
# From -- ./inp_files/259212.got.cif
#   From: 2010.06.25/outbox.cif.g09.slc.cpg/sg12_130_cif.got.tgz:259212.got - 2010.06.28 00:19:55.
