data_PCOD8095959
_publ_section_title
;
Structure prediction by ZEFSAII (Michael W. Deem and Ramdas Pophale) SiO2 
 PCOD8095959
Probable space group: C 2/M
;
_chemical_formula_sum "Si O2"
_cell_formula_units_Z 40
_cell_length_a 23.831926
_cell_length_b 18.464558
_cell_length_c 13.936300
_cell_angle_alpha 90.000000
_cell_angle_beta 159.818399
_cell_angle_gamma 90.000000
_cell_volume 2115.731846
_symmetry_space_group_name_H-M "C 2/M"
_symmetry_group_IT_number 12
_symmetry_cell_setting 'monoclinic'
loop_
_space_group_symop_operation_xyz
x,y,z
-x,y,-z
-x,-y,-z
x,-y,z
1/2+x,1/2+y,z
1/2-x,1/2+y,-z
1/2-x,1/2-y,-z
1/2+x,1/2-y,z
loop_
_atom_site_type_symbol
_atom_site_label
_atom_site_fract_x
_atom_site_fract_y
_atom_site_fract_z
Si Si1 0.934819 0.286498 0.600179
Si Si2 0.091999 0.281013 0.054171
Si Si3 0.739502 0.420970 0.711595
Si Si4 0.934998 0.848030 0.288170
Si Si5 0.124995 0.418948 0.858052
O O1 0.747089 0.268800 0.277653
O O2 0.060540 0.232697 0.748541
O O3 0.966972 0.367306 0.610848
O O4 0.967516 0.280787 0.766214
O O5 0.154820 0.362540 0.177333
O O6 0.000000 0.250940 0.000000
O O7 0.759640 0.500000 0.695354
O O8 0.550421 0.398596 0.407884
O O9 0.795211 0.423344 0.910273
O O10 0.000000 0.843333 0.500000
O O11 0.755449 0.882619 0.995166
O O12 0.076498 0.500000 0.744870
#
# Coordination Sequence:
#
# PCOD8095959 Si02
#       5
#     8   8   8   8   8
#     4  10  20  33  51  73  98 126 163 202 235 285
#     4  10  20  34  52  71  94 128 165 205 245 277
#     4   8  15  27  45  73 101 122 153 197 242 287
#     4   9  16  28  49  74 101 130 156 189 236 289
#     4   9  16  27  46  71  99 129 156 188 235 288
#
# _framework density 18.905988000000001
#
# number of rings (size 3 to 8) (size 9 to 14) (size 15 to 20)
#    0.000    2.800    0.000    3.000    0.000    2.800 
#    0.000    0.000    0.000   10.800    0.000    0.000 
#    0.000    0.000    0.000    0.000    0.000    0.000 
#
# Total GULP energy -247909.302477 kJ/mol
# GULP energy per Si atom -12395.465124 kJ/mol
# Density = 1.886296 g / cm^3
# Si number density = 18.905988 Si / 1000 Ang^3
#
#
#
# Elastic Constant Matrix: (Units=GPa)
#
#
# Indices 1 2 3 4 5 6 
#
# 1 42.3909 13.3359 7.1748 0.0000 13.9340 0.0000
# 2 13.3359 132.6141 19.5206 0.0000 15.5506 0.0000
# 3 7.1748 19.5206 40.3610 0.0000 11.3556 0.0000
# 4 0.0000 0.0000 0.0000 17.3947 0.0000 -2.6185
# 5 13.9340 15.5506 11.3556 0.0000 21.7230 0.0000
# 6 0.0000 0.0000 0.0000 -2.6185 0.0000 14.4549
#
#
#
# Elastic Compliance Matrix: (Units=1/GPa)
#
#
# Indices 1 2 3 4 5 6 
#
# 1 0.029981 -0.000865 0.000381 0.000000 -0.018811 0.000000
# 2 -0.000865 0.008520 -0.002822 0.000000 -0.004069 0.000000
# 3 0.000381 -0.002822 0.029984 0.000000 -0.013898 0.000000
# 4 0.000000 0.000000 0.000000 0.059100 0.000000 0.010706
# 5 -0.018811 -0.004069 -0.013898 0.000000 0.068278 0.000000
# 6 0.000000 0.000000 0.000000 0.010706 0.000000 0.071120
#
#
# Mechanical properties :
#
#
# Convention : Reuss Voigt Hill
#
# Bulk Modulus (GPa) = 16.16222 32.82538 24.49380
# Shear Modulus (GPa) = 16.99410 22.40350 19.69880
#
# Velocity S-wave (km/s) = 3.00137 3.44611 3.23140
# Velocity P-wave (km/s) = 4.53633 5.76492 5.18713
#
# Compressibility (1/GPa) = 0.06187268
#
# Stress axis : x y z
#
# Youngs Moduli (GPa) = 33.35473 117.36740 33.35135
#
# Poissons Ratio (x) = 0.10155 -0.01272
# Poissons Ratio (y) = 0.02886 0.09412
# Poissons Ratio (z) = -0.01272 0.33123
#
# Static dielectric constant tensor:
#      x y z
#    x 3.137590 0.000000 0.169060 
#    y 0.000000 3.845480 0.000000 
#    z 0.169060 0.000000 3.189240 
# 
# 
# High freq. dielectric constant tensor:
#      x y z
#    x 1.706760 0.000000 0.017560 
#    y 0.000000 1.738420 0.000000 
#    z 0.017560 0.000000 1.711720 
# 
# From -- ./inp_files/118931.got.cif
#   From: 2010.06.25/outbox.cif.g09.slc.cpg/sg12_60_cif.got.tgz:118931.got - 2010.06.28 00:19:55.
