data_PCOD8095645
_publ_section_title
;
Structure prediction by ZEFSAII (Michael W. Deem and Ramdas Pophale) SiO2 
 PCOD8095645
Probable space group: C 2/M
;
_chemical_formula_sum "Si O2"
_cell_formula_units_Z 56
_cell_length_a 18.309439
_cell_length_b 16.664264
_cell_length_c 9.995885
_cell_angle_alpha 90.000000
_cell_angle_beta 111.188019
_cell_angle_gamma 90.000000
_cell_volume 2843.704146
_symmetry_space_group_name_H-M "C 2/M"
_symmetry_group_IT_number 12
_symmetry_cell_setting 'monoclinic'
loop_
_space_group_symop_operation_xyz
x,y,z
-x,y,-z
-x,-y,-z
x,-y,z
1/2+x,1/2+y,z
1/2-x,1/2+y,-z
1/2-x,1/2-y,-z
1/2+x,1/2-y,z
loop_
_atom_site_type_symbol
_atom_site_label
_atom_site_fract_x
_atom_site_fract_y
_atom_site_fract_z
Si Si1 0.683581 0.154903 0.919933
Si Si2 0.054412 0.405493 0.420949
Si Si3 0.291804 0.092444 0.342807
Si Si4 0.642517 0.664431 0.937551
Si Si5 0.986587 0.904704 0.335720
Si Si6 0.116228 0.907080 0.207795
Si Si7 0.972838 0.591064 0.115405
O O1 0.686572 0.152579 0.761756
O O2 0.651684 0.240158 0.948582
O O3 0.620731 0.091033 0.930385
O O4 0.769725 0.130012 0.029916
O O5 0.038954 0.500000 0.406213
O O6 0.146970 0.386698 0.498340
O O7 0.000000 0.367663 0.500000
O O8 0.020951 0.364558 0.264858
O O9 0.202531 0.106815 0.328618
O O10 0.303742 0.000000 0.303767
O O11 0.591009 0.635664 0.777786
O O12 0.606742 0.636881 0.057583
O O13 0.000000 0.876970 0.500000
O O14 0.057442 0.876644 0.284719
O O15 0.976272 0.000000 0.325390
O O16 0.100841 0.000000 0.166041
O O17 0.002080 0.500000 0.128405
O O18 0.000000 0.636951 0.000000
#
# Coordination Sequence:
#
# PCOD8095645 Si02
#       7
#     8   8   8   8   8   8   8
#     4  10  20  35  54  77 110 141 183 225 267 314
#     4   9  15  27  49  73 101 137 174 214 257 306
#     4   9  16  30  55  83 109 140 182 226 266 314
#     4  10  21  36  57  79 107 141 182 225 267 323
#     4  10  21  39  59  84 114 139 176 231 285 334
#     4   9  18  34  60  86 105 136 182 225 271 329
#     4  10  20  33  48  75 110 141 178 220 261 312
#
# _framework density 19.692625
#
# number of rings (size 3 to 8) (size 9 to 14) (size 15 to 20)
#    0.000    2.429    1.429    1.286    0.000    4.000 
#    5.143    0.000    0.000    2.571    0.000    0.000 
#    0.000    0.000    0.000    0.000    0.000    0.000 
#
# Total GULP energy -346930.753903 kJ/mol
# GULP energy per Si atom -12390.384068 kJ/mol
# Density = 1.964780 g / cm^3
# Si number density = 19.692625 Si / 1000 Ang^3
#
#
#
# Elastic Constant Matrix: (Units=GPa)
#
#
# Indices 1 2 3 4 5 6 
#
# 1 130.4174 22.4608 94.7105 0.0000 8.3496 0.0000
# 2 22.4608 29.4324 27.4226 0.0000 -3.8608 0.0000
# 3 94.7105 27.4226 176.5209 0.0000 5.3098 0.0000
# 4 0.0000 0.0000 0.0000 14.1698 0.0000 4.9870
# 5 8.3496 -3.8608 5.3098 0.0000 34.6612 0.0000
# 6 0.0000 0.0000 0.0000 4.9870 0.0000 19.5628
#
#
#
# Elastic Compliance Matrix: (Units=1/GPa)
#
#
# Indices 1 2 3 4 5 6 
#
# 1 0.013195 -0.004568 -0.006288 0.000000 -0.002724 0.000000
# 2 -0.004568 0.042338 -0.004321 0.000000 0.006478 0.000000
# 3 -0.006288 -0.004321 0.009724 0.000000 -0.000456 0.000000
# 4 0.000000 0.000000 0.000000 0.077528 0.000000 -0.019764
# 5 -0.002724 0.006478 -0.000456 0.000000 0.030298 0.000000
# 6 0.000000 0.000000 0.000000 -0.019764 0.000000 0.056156
#
#
# Mechanical properties :
#
#
# Convention : Reuss Voigt Hill
#
# Bulk Modulus (GPa) = 28.65144 69.50652 49.07898
# Shear Modulus (GPa) = 18.43458 26.46389 22.44923
#
# Velocity S-wave (km/s) = 3.06292 3.66983 3.38002
# Velocity P-wave (km/s) = 5.20476 7.30268 6.34109
#
# Compressibility (1/GPa) = 0.03490226
#
# Stress axis : x y z
#
# Youngs Moduli (GPa) = 75.78355 23.61937 102.83900
#
# Poissons Ratio (x) = 0.10790 0.64668
# Poissons Ratio (y) = 0.34621 0.44437
# Poissons Ratio (z) = 0.47655 0.10206
#
# Static dielectric constant tensor:
#      x y z
#    x 3.764250 0.000000 0.084620 
#    y 0.000000 3.217260 0.000000 
#    z 0.084620 0.000000 3.915920 
# 
# 
# High freq. dielectric constant tensor:
#      x y z
#    x 1.775160 0.000000 0.013550 
#    y 0.000000 1.731040 0.000000 
#    z 0.013550 0.000000 1.765850 
# 
# From -- ./inp_files/76016.got.cif
#   From: 2010.06.25/outbox.cif.g09.slc.cpg/sg12_39_cif.got.tgz:76016.got - 2010.06.28 00:19:55.
