data_PCOD8095300
_publ_section_title
;
Structure prediction by ZEFSAII (Michael W. Deem and Ramdas Pophale) SiO2 
 PCOD8095300
Probable space group: C 2/M
;
_chemical_formula_sum "Si O2"
_cell_formula_units_Z 64
_cell_length_a 30.846014
_cell_length_b 8.989903
_cell_length_c 25.654642
_cell_angle_alpha 90.000000
_cell_angle_beta 150.276123
_cell_angle_gamma 90.000000
_cell_volume 3527.317825
_symmetry_space_group_name_H-M "C 2/M"
_symmetry_group_IT_number 12
_symmetry_cell_setting 'monoclinic'
loop_
_space_group_symop_operation_xyz
x,y,z
-x,y,-z
-x,-y,-z
x,-y,z
1/2+x,1/2+y,z
1/2-x,1/2+y,-z
1/2-x,1/2-y,-z
1/2+x,1/2-y,z
loop_
_atom_site_type_symbol
_atom_site_label
_atom_site_fract_x
_atom_site_fract_y
_atom_site_fract_z
Si Si1 0.182865 0.326986 0.717090
Si Si2 0.464705 0.327920 0.373576
Si Si3 0.617987 0.172418 0.804867
Si Si4 0.382741 0.672216 0.652200
Si Si5 0.831987 0.827592 0.402670
Si Si6 0.708566 0.172329 0.534195
Si Si7 0.441936 0.173176 0.142847
Si Si8 0.793423 0.829535 0.932284
O O1 0.168175 0.500000 0.690370
O O2 0.092641 0.262407 0.645121
O O3 0.210494 0.243901 0.693165
O O4 0.260973 0.301308 0.839664
O O5 0.438221 0.500000 0.349455
O O6 0.449633 0.269635 0.299252
O O7 0.564747 0.301768 0.492329
O O8 0.603782 0.210856 0.850078
O O9 0.716719 0.215141 0.892466
O O10 0.600207 0.000000 0.773240
O O11 0.397324 0.500000 0.654806
O O12 0.365374 0.754405 0.579396
O O13 0.303508 0.698290 0.608955
O O14 0.467663 0.739436 0.768337
O O15 0.789977 0.748019 0.408305
O O16 0.807315 0.000000 0.379616
O O17 0.684795 0.000000 0.514960
O O18 0.461333 0.000000 0.156470
O O19 0.377057 0.226368 0.029631
O O20 0.821122 0.000000 0.969638
#
# Coordination Sequence:
#
# PCOD8095300 Si02
#       8
#     8   8   8   8   8   8   8   8
#     4  10  21  36  53  73 101 139 178 216 257 301
#     4  10  20  32  48  74 106 138 172 210 254 304
#     4   9  19  33  48  72 105 139 174 210 252 304
#     4  10  21  37  56  79 108 138 167 206 257 307
#     4  11  22  34  52  78 106 137 173 213 258 307
#     4  10  21  37  57  80 106 136 170 208 253 307
#     4  11  21  32  52  79 104 135 175 214 255 307
#     4   9  19  35  51  70 101 138 175 215 257 300
#
# _framework density 18.144098
#
# number of rings (size 3 to 8) (size 9 to 14) (size 15 to 20)
#    0.000    2.000    0.000    4.500    0.000   10.500 
#    0.000    0.000    0.000    0.750    0.000    5.250 
#    0.000    0.000    0.000    0.000    0.000    0.000 
#
# Total GULP energy -396971.478055 kJ/mol
# GULP energy per Si atom -12405.358689 kJ/mol
# Density = 1.810280 g / cm^3
# Si number density = 18.144098 Si / 1000 Ang^3
#
#
#
# Elastic Constant Matrix: (Units=GPa)
#
#
# Indices 1 2 3 4 5 6 
#
# 1 76.3949 55.4022 37.3244 0.0000 -17.4564 0.0000
# 2 55.4022 122.0128 60.8152 0.0000 -5.6910 0.0000
# 3 37.3244 60.8152 97.3154 0.0000 -4.7829 0.0000
# 4 0.0000 0.0000 0.0000 35.0671 0.0000 -2.6217
# 5 -17.4564 -5.6910 -4.7829 0.0000 21.8221 0.0000
# 6 0.0000 0.0000 0.0000 -2.6217 0.0000 30.7037
#
#
#
# Elastic Compliance Matrix: (Units=1/GPa)
#
#
# Indices 1 2 3 4 5 6 
#
# 1 0.025044 -0.009016 -0.003136 0.000000 0.016995 0.000000
# 2 -0.009016 0.015198 -0.006267 0.000000 -0.004622 0.000000
# 3 -0.003136 -0.006267 0.015357 0.000000 -0.000777 0.000000
# 4 0.000000 0.000000 0.000000 0.028700 0.000000 0.002451
# 5 0.016995 -0.004622 -0.000777 0.000000 0.058044 0.000000
# 6 0.000000 0.000000 0.000000 0.002451 0.000000 0.032779
#
#
# Mechanical properties :
#
#
# Convention : Reuss Voigt Hill
#
# Bulk Modulus (GPa) = 53.30106 66.97852 60.13979
# Shear Modulus (GPa) = 22.91360 26.99734 24.95547
#
# Velocity S-wave (km/s) = 3.55754 3.86157 3.71267
# Velocity P-wave (km/s) = 6.80552 7.54170 7.18305
#
# Compressibility (1/GPa) = 0.01876135
#
# Stress axis : x y z
#
# Youngs Moduli (GPa) = 39.93022 65.79983 65.11883
#
# Poissons Ratio (x) = 0.59325 0.20419
# Poissons Ratio (y) = 0.36001 0.40808
# Poissons Ratio (z) = 0.12521 0.41234
#
# Static dielectric constant tensor:
#      x y z
#    x 3.234970 0.000000 -0.113230 
#    y 0.000000 3.465420 0.000000 
#    z -0.113230 0.000000 3.273510 
# 
# 
# High freq. dielectric constant tensor:
#      x y z
#    x 1.687280 0.000000 -0.009250 
#    y 0.000000 1.717550 0.000000 
#    z -0.009250 0.000000 1.695540 
# 
# From -- ./inp_files/243826.got.cif
#   From: 2010.06.25/outbox.cif.g09.slc.cpg/sg12_122_cif.got.tgz:243826.got - 2010.06.28 00:19:55.
