data_PCOD8095290
_publ_section_title
;
Structure prediction by ZEFSAII (Michael W. Deem and Ramdas Pophale) SiO2 
 PCOD8095290
Probable space group: C 2/M
;
_chemical_formula_sum "Si O2"
_cell_formula_units_Z 56
_cell_length_a 27.332718
_cell_length_b 9.475233
_cell_length_c 15.913275
_cell_angle_alpha 90.000000
_cell_angle_beta 130.714204
_cell_angle_gamma 90.000000
_cell_volume 3123.818726
_symmetry_space_group_name_H-M "C 2/M"
_symmetry_group_IT_number 12
_symmetry_cell_setting 'monoclinic'
loop_
_space_group_symop_operation_xyz
x,y,z
-x,y,-z
-x,-y,-z
x,-y,z
1/2+x,1/2+y,z
1/2-x,1/2+y,-z
1/2-x,1/2-y,-z
1/2+x,1/2-y,z
loop_
_atom_site_type_symbol
_atom_site_label
_atom_site_fract_x
_atom_site_fract_y
_atom_site_fract_z
Si Si1 0.108055 0.839831 0.426853
Si Si2 0.662531 0.665260 0.306834
Si Si3 0.152631 0.664911 0.883665
Si Si4 0.731735 0.662956 0.662205
Si Si5 0.545696 0.162132 0.127409
Si Si6 0.740489 0.663576 0.864181
Si Si7 0.992505 0.336973 0.249783
O O1 0.148358 0.802669 0.388239
O O2 0.155517 0.814261 0.558834
O O3 0.044432 0.744410 0.365451
O O4 0.083493 0.000000 0.395424
O O5 0.665771 0.500000 0.290548
O O6 0.729851 0.737025 0.358293
O O7 0.607204 0.736914 0.188403
O O8 0.155239 0.500000 0.865689
O O9 0.182572 0.747453 0.839042
O O10 0.079526 0.718277 0.813120
O O11 0.192253 0.697726 0.013469
O O12 0.750623 0.500000 0.666046
O O13 0.747648 0.707158 0.775250
O O14 0.506239 0.191808 0.167756
O O15 0.569095 0.000000 0.148509
O O16 0.500000 0.202438 0.000000
O O17 0.721887 0.500000 0.851867
O O18 0.999032 0.500000 0.280355
#
# Coordination Sequence:
#
# PCOD8095290 Si02
#       7
#     8   8   8   8   8   8   8
#     4   9  19  35  51  73 103 135 170 208 247 294
#     4  10  20  32  48  73 106 137 166 205 253 297
#     4   9  18  34  54  75 102 128 160 206 255 305
#     4  10  20  34  54  75  99 133 174 212 247 293
#     4   9  18  31  50  73 100 134 172 207 242 294
#     4   9  19  34  54  77  99 126 165 211 252 297
#     4   9  18  32  52  75  98 132 169 203 249 301
#
# _framework density 17.926777000000001
#
# number of rings (size 3 to 8) (size 9 to 14) (size 15 to 20)
#    0.000    2.714    0.000    0.857    2.000    2.571 
#    0.000    0.714    0.000    4.286    0.000    0.000 
#    0.000    0.000    0.000    0.000    0.000    0.000 
#
# Total GULP energy -347244.528475 kJ/mol
# GULP energy per Si atom -12401.590303 kJ/mol
# Density = 1.788597 g / cm^3
# Si number density = 17.926777 Si / 1000 Ang^3
#
#
#
# Elastic Constant Matrix: (Units=GPa)
#
#
# Indices 1 2 3 4 5 6 
#
# 1 71.2472 41.4086 42.0979 0.0000 22.2503 0.0000
# 2 41.4086 65.9630 44.1823 0.0000 13.2090 0.0000
# 3 42.0979 44.1823 93.0052 0.0000 14.7767 0.0000
# 4 0.0000 0.0000 0.0000 29.2566 0.0000 6.8941
# 5 22.2503 13.2090 14.7767 0.0000 29.0974 0.0000
# 6 0.0000 0.0000 0.0000 6.8941 0.0000 30.4932
#
#
#
# Elastic Compliance Matrix: (Units=1/GPa)
#
#
# Indices 1 2 3 4 5 6 
#
# 1 0.027890 -0.011408 -0.005047 0.000000 -0.013586 0.000000
# 2 -0.011408 0.027632 -0.008002 0.000000 0.000243 0.000000
# 3 -0.005047 -0.008002 0.017021 0.000000 -0.001152 0.000000
# 4 0.000000 0.000000 0.000000 0.036104 0.000000 -0.008163
# 5 -0.013586 0.000243 -0.001152 0.000000 0.045231 0.000000
# 6 0.000000 0.000000 0.000000 -0.008163 0.000000 0.034640
#
#
# Mechanical properties :
#
#
# Convention : Reuss Voigt Hill
#
# Bulk Modulus (GPa) = 42.31653 53.95478 48.13566
# Shear Modulus (GPa) = 20.38263 24.60454 22.49358
#
# Velocity S-wave (km/s) = 3.37559 3.70875 3.54608
# Velocity P-wave (km/s) = 6.23292 6.96437 6.60877
#
# Compressibility (1/GPa) = 0.02363142
#
# Stress axis : x y z
#
# Youngs Moduli (GPa) = 35.85460 36.18975 58.75200
#
# Poissons Ratio (x) = 0.41284 0.29650
# Poissons Ratio (y) = 0.40901 0.47012
# Poissons Ratio (z) = 0.18094 0.28958
#
# Static dielectric constant tensor:
#      x y z
#    x 3.152580 0.000000 0.067020 
#    y 0.000000 3.296830 0.000000 
#    z 0.067020 0.000000 3.409910 
# 
# 
# High freq. dielectric constant tensor:
#      x y z
#    x 1.675180 0.000000 0.006780 
#    y 0.000000 1.690920 0.000000 
#    z 0.006780 0.000000 1.699350 
# 
# From -- ./inp_files/288453.got.cif
#   From: 2010.06.25/outbox.cif.g09.slc.cpg/sg12_145_cif.got.tgz:288453.got - 2010.06.28 00:19:55.
