data_PCOD8095674
_publ_section_title
;
Structure prediction by ZEFSAII (Michael W. Deem and Ramdas Pophale) SiO2 
 PCOD8095674
Probable space group: C 2/M
;
_chemical_formula_sum "Si O2"
_cell_formula_units_Z 64
_cell_length_a 24.315797
_cell_length_b 9.214390
_cell_length_c 28.768459
_cell_angle_alpha 90.000000
_cell_angle_beta 144.929895
_cell_angle_gamma 90.000000
_cell_volume 3703.573017
_symmetry_space_group_name_H-M "C 2/M"
_symmetry_group_IT_number 12
_symmetry_cell_setting 'monoclinic'
loop_
_space_group_symop_operation_xyz
x,y,z
-x,y,-z
-x,-y,-z
x,-y,z
1/2+x,1/2+y,z
1/2-x,1/2+y,-z
1/2-x,1/2-y,-z
1/2+x,1/2-y,z
loop_
_atom_site_type_symbol
_atom_site_label
_atom_site_fract_x
_atom_site_fract_y
_atom_site_fract_z
Si Si1 0.103483 0.830961 0.888347
Si Si2 0.676451 0.167187 0.789653
Si Si3 0.511307 0.665665 0.324893
Si Si4 0.401306 0.669346 0.711042
Si Si5 0.961928 0.832440 0.552529
Si Si6 0.760485 0.167116 0.939750
Si Si7 0.155599 0.672102 0.672433
Si Si8 0.226497 0.170988 0.634649
O O1 0.173236 0.755909 0.900352
O O2 0.994387 0.781491 0.805203
O O3 0.110477 0.000000 0.882237
O O4 0.138619 0.793074 0.965460
O O5 0.584278 0.243510 0.747134
O O6 0.764518 0.196587 0.886607
O O7 0.699951 0.217848 0.753417
O O8 0.648898 0.000000 0.768251
O O9 0.478701 0.500000 0.298328
O O10 0.583727 0.703102 0.333286
O O11 0.560943 0.696869 0.408949
O O12 0.377216 0.500000 0.702734
O O13 0.315408 0.770003 0.667445
O O14 0.868667 0.789134 0.459473
O O15 0.047761 0.731961 0.593823
O O16 0.990932 0.000000 0.563996
O O17 0.736414 0.000000 0.932810
O O18 0.155264 0.500000 0.663961
O O19 0.223393 0.748787 0.681960
O O20 0.237515 0.000000 0.649872
#
# Coordination Sequence:
#
# PCOD8095674 Si02
#       8
#     8   8   8   8   8   8   8   8
#     4   9  17  29  46  72 102 131 159 190 231 283
#     4   9  17  29  48  75 102 126 155 197 242 284
#     4   9  17  31  50  71  98 130 159 192 240 290
#     4  10  20  33  49  70 100 133 164 196 233 286
#     4   9  19  35  53  73  97 124 158 203 248 290
#     4   9  16  27  47  74 103 128 155 192 235 282
#     4  10  20  34  53  75  97 123 161 205 246 286
#     4  11  23  36  50  69  94 129 169 204 244 289
#
# _framework density 17.280608999999998
#
# number of rings (size 3 to 8) (size 9 to 14) (size 15 to 20)
#    0.000    2.500    1.250    1.125    0.000    4.500 
#    0.000    0.000    0.000    0.750    0.000    5.250 
#    0.000    0.000    0.000    0.000    0.000    0.000 
#
# Total GULP energy -396644.787703 kJ/mol
# GULP energy per Si atom -12395.149616 kJ/mol
# Density = 1.724128 g / cm^3
# Si number density = 17.280609 Si / 1000 Ang^3
#
#
#
# Elastic Constant Matrix: (Units=GPa)
#
#
# Indices 1 2 3 4 5 6 
#
# 1 95.2528 31.3857 28.9799 -0.0001 -12.1574 0.0001
# 2 31.3857 46.8089 17.5612 -0.0002 -3.5265 -0.0003
# 3 28.9799 17.5612 45.6217 0.0000 -21.7846 0.0001
# 4 -0.0001 -0.0002 0.0000 20.9302 0.0000 2.8572
# 5 -12.1574 -3.5265 -21.7846 0.0000 23.4793 0.0000
# 6 0.0001 -0.0003 0.0001 2.8572 0.0000 28.9128
#
#
#
# Elastic Compliance Matrix: (Units=1/GPa)
#
#
# Indices 1 2 3 4 5 6 
#
# 1 0.015020 -0.007700 -0.006133 0.000000 0.000931 0.000000
# 2 -0.007700 0.030096 -0.011561 0.000000 -0.010193 0.000000
# 3 -0.006133 -0.011561 0.050129 0.000000 0.041599 0.000000
# 4 0.000000 0.000000 0.000000 0.048431 0.000000 -0.004786
# 5 0.000931 -0.010193 0.041599 0.000000 0.080138 0.000000
# 6 0.000000 0.000000 0.000000 -0.004786 0.000000 0.035060
#
#
# Mechanical properties :
#
#
# Convention : Reuss Voigt Hill
#
# Bulk Modulus (GPa) = 22.49338 38.17077 30.33207
# Shear Modulus (GPa) = 15.40928 21.98158 18.69543
#
# Velocity S-wave (km/s) = 2.98939 3.57043 3.29275
# Velocity P-wave (km/s) = 4.99601 6.25572 5.66101
#
# Compressibility (1/GPa) = 0.04445753
#
# Stress axis : x y z
#
# Youngs Moduli (GPa) = 66.57692 33.22722 19.94867
#
# Poissons Ratio (x) = 0.25586 0.12234
# Poissons Ratio (y) = 0.51266 0.23062
# Poissons Ratio (z) = 0.40829 0.38413
#
# Static dielectric constant tensor:
#      x y z
#    x 3.256600 0.000000 -0.451750 
#    y 0.000000 3.249950 0.000000 
#    z -0.451750 0.000000 3.475730 
# 
# 
# High freq. dielectric constant tensor:
#      x y z
#    x 1.653430 0.000000 -0.031470 
#    y 0.000000 1.670000 0.000000 
#    z -0.031470 0.000000 1.661840 
# 
# From -- ./inp_files/287642.got.cif
#   From: 2010.06.25/outbox.cif.g09.slc.cpg/sg12_144_cif.got.tgz:287642.got - 2010.06.28 00:19:55.
