data_PCOD8095044
_publ_section_title
;
Structure prediction by ZEFSAII (Michael W. Deem and Ramdas Pophale) SiO2 
 PCOD8095044
Probable space group: C 2/M
;
_chemical_formula_sum "Si O2"
_cell_formula_units_Z 64
_cell_length_a 16.272571
_cell_length_b 17.720763
_cell_length_c 17.976937
_cell_angle_alpha 90.000000
_cell_angle_beta 41.341131
_cell_angle_gamma 90.000000
_cell_volume 3424.159157
_symmetry_space_group_name_H-M "C 2/M"
_symmetry_group_IT_number 12
_symmetry_cell_setting 'monoclinic'
loop_
_space_group_symop_operation_xyz
x,y,z
-x,y,-z
-x,-y,-z
x,-y,z
1/2+x,1/2+y,z
1/2-x,1/2+y,-z
1/2-x,1/2-y,-z
1/2+x,1/2-y,z
loop_
_atom_site_type_symbol
_atom_site_label
_atom_site_fract_x
_atom_site_fract_y
_atom_site_fract_z
Si Si1 0.707621 0.193711 0.136880
Si Si2 0.858258 0.580215 0.079441
Si Si3 0.513220 0.310794 0.314517
Si Si4 0.148589 0.913356 0.328677
Si Si5 0.618534 0.699880 0.751997
Si Si6 0.622430 0.276643 0.454017
Si Si7 0.096915 0.295396 0.065696
Si Si8 0.366685 0.412246 0.127956
O O1 0.635017 0.256079 0.235617
O O2 0.608932 0.168957 0.140353
O O3 0.755972 0.126071 0.155493
O O4 0.822716 0.221669 0.008213
O O5 0.806593 0.500000 0.082736
O O6 0.788819 0.598114 0.203744
O O7 0.844239 0.644917 0.029655
O O8 0.000000 0.570976 0.000000
O O9 0.557832 0.389034 0.321981
O O10 0.462046 0.321876 0.266117
O O11 0.400569 0.279345 0.441756
O O12 0.133740 0.860951 0.411355
O O13 0.120567 0.000000 0.370208
O O14 0.756584 0.726704 0.640196
O O15 0.546441 0.767374 0.845769
O O16 0.629090 0.624897 0.793762
O O17 0.500000 0.237985 0.500000
O O18 0.333537 0.500000 0.158852
O O19 0.500000 0.399936 0.000000
#
# Coordination Sequence:
#
# PCOD8095044 Si02
#       8
#     8   8   8   8   8   8   8   8
#     4  10  20  37  54  81 107 141 185 223 267 321
#     4  10  20  31  49  81 118 147 175 214 266 332
#     4  10  21  37  57  82 111 142 188 229 273 319
#     4  10  20  34  54  82 114 146 179 221 276 328
#     4  11  22  37  59  83 108 145 184 233 273 322
#     4  10  21  36  58  83 109 144 185 230 272 325
#     4  10  20  33  58  80 107 145 181 219 268 324
#     4  11  23  36  54  82 114 147 182 225 278 330
#
# _framework density 18.690719999999999
#
# number of rings (size 3 to 8) (size 9 to 14) (size 15 to 20)
#    0.000    1.750    2.500    2.625    1.750    3.250 
#    0.000    2.500    0.000    4.125    0.000    3.500 
#    0.000    0.000    0.000    0.000    0.000    0.000 
#
# Total GULP energy -396477.577352 kJ/mol
# GULP energy per Si atom -12389.924292 kJ/mol
# Density = 1.864818 g / cm^3
# Si number density = 18.690720 Si / 1000 Ang^3
#
#
#
# Elastic Constant Matrix: (Units=GPa)
#
#
# Indices 1 2 3 4 5 6 
#
# 1 81.4867 50.6232 30.8387 0.0002 3.4574 -0.0001
# 2 50.6232 92.9699 37.0283 0.0001 4.1377 0.0000
# 3 30.8387 37.0283 118.3351 0.0004 -4.0355 -0.0002
# 4 0.0002 0.0001 0.0004 51.2802 -0.0002 -6.0497
# 5 3.4574 4.1377 -4.0355 -0.0002 33.1073 0.0001
# 6 -0.0001 0.0000 -0.0002 -6.0497 0.0001 5.8290
#
#
#
# Elastic Compliance Matrix: (Units=1/GPa)
#
#
# Indices 1 2 3 4 5 6 
#
# 1 0.018967 -0.009480 -0.002012 0.000000 -0.001041 0.000000
# 2 -0.009480 0.017161 -0.002951 0.000000 -0.001514 0.000000
# 3 -0.002012 -0.002951 0.009959 0.000000 0.001793 0.000000
# 4 0.000000 0.000000 0.000000 0.022221 0.000000 0.023063
# 5 -0.001041 -0.001514 0.001793 0.000000 0.030721 0.000000
# 6 0.000000 0.000000 0.000000 0.023063 0.000000 0.195493
#
#
# Mechanical properties :
#
#
# Convention : Reuss Voigt Hill
#
# Bulk Modulus (GPa) = 58.13494 58.86357 58.49926
# Shear Modulus (GPa) = 15.19098 29.66340 22.42719
#
# Velocity S-wave (km/s) = 2.85398 3.98812 3.46773
# Velocity P-wave (km/s) = 6.48316 7.26420 6.88477
#
# Compressibility (1/GPa) = 0.01720136
#
# Stress axis : x y z
#
# Youngs Moduli (GPa) = 52.72308 58.27208 100.40738
#
# Poissons Ratio (x) = 0.55242 0.20202
# Poissons Ratio (y) = 0.49982 0.29629
# Poissons Ratio (z) = 0.10608 0.17196
#
# Static dielectric constant tensor:
#      x y z
#    x 3.379100 0.000000 -0.051010 
#    y 0.000000 4.409250 0.000000 
#    z -0.051010 0.000000 3.631630 
# 
# 
# High freq. dielectric constant tensor:
#      x y z
#    x 1.716730 0.000000 -0.000280 
#    y 0.000000 1.701960 0.000000 
#    z -0.000280 0.000000 1.745270 
# 
# From -- ./inp_files/271689.got.cif
#   From: 2010.06.25/outbox.cif.g09.slc.cpg/sg12_136_cif.got.tgz:271689.got - 2010.06.28 00:19:55.
