data_PCOD8095697
_publ_section_title
;
Structure prediction by ZEFSAII (Michael W. Deem and Ramdas Pophale) SiO2 
 PCOD8095697
Probable space group: C 2/M
;
_chemical_formula_sum "Si O2"
_cell_formula_units_Z 64
_cell_length_a 23.319445
_cell_length_b 9.376293
_cell_length_c 17.243990
_cell_angle_alpha 90.000000
_cell_angle_beta 72.075336
_cell_angle_gamma 90.000000
_cell_volume 3587.390009
_symmetry_space_group_name_H-M "C 2/M"
_symmetry_group_IT_number 12
_symmetry_cell_setting 'monoclinic'
loop_
_space_group_symop_operation_xyz
x,y,z
-x,y,-z
-x,-y,-z
x,-y,z
1/2+x,1/2+y,z
1/2-x,1/2+y,-z
1/2-x,1/2-y,-z
1/2+x,1/2-y,z
loop_
_atom_site_type_symbol
_atom_site_label
_atom_site_fract_x
_atom_site_fract_y
_atom_site_fract_z
Si Si1 0.844195 0.334184 0.770983
Si Si2 0.102809 0.835593 0.973098
Si Si3 0.168840 0.332511 0.677858
Si Si4 0.811619 0.165211 0.472096
Si Si5 0.759767 0.836860 0.073096
Si Si6 0.435854 0.163029 0.862728
Si Si7 0.569631 0.836717 0.842598
Si Si8 0.306935 0.338202 0.645693
O O1 0.839550 0.500000 0.754252
O O2 0.785669 0.280040 0.842534
O O3 0.904298 0.297051 0.794594
O O4 0.846172 0.254593 0.688295
O O5 0.172964 0.818419 0.923058
O O6 0.065249 0.758792 0.921301
O O7 0.083053 0.000000 0.985004
O O8 0.089985 0.765144 0.060761
O O9 0.164020 0.500000 0.660434
O O10 0.147883 0.242606 0.610412
O O11 0.124215 0.287136 0.765278
O O12 0.236850 0.288926 0.672843
O O13 0.750000 0.250000 0.500000
O O14 0.838588 0.176680 0.547869
O O15 0.800970 0.000000 0.454257
O O16 0.744683 0.000000 0.059185
O O17 0.750000 0.750000 0.000000
O O18 0.507284 0.183133 0.822067
O O19 0.419942 0.000000 0.892279
O O20 0.578754 0.000000 0.865041
O O21 0.309323 0.500000 0.673822
#
# Coordination Sequence:
#
# PCOD8095697 Si02
#       8
#     8   8   8   8   8   8   8   8
#     4  10  20  33  50  72  98 129 169 209 245 293
#     4  11  22  34  51  76 101 128 168 215 260 303
#     4   9  18  33  52  77 104 130 164 205 250 298
#     4   9  17  30  50  77 107 135 162 196 244 301
#     4  10  20  33  49  71  98 128 162 202 249 297
#     4  10  21  37  53  69  95 135 177 212 251 299
#     4  10  21  36  54  73  97 133 173 212 253 299
#     4   9  18  31  49  76 105 129 156 194 246 302
#
# _framework density 17.840268999999999
#
# number of rings (size 3 to 8) (size 9 to 14) (size 15 to 20)
#    0.000    2.250    1.250    2.625    0.000    6.500 
#    0.000    0.000    0.000    0.750    0.000    5.250 
#    0.000    0.000    0.000    0.000    0.000    0.000 
#
# Total GULP energy -396785.340479 kJ/mol
# GULP energy per Si atom -12399.541890 kJ/mol
# Density = 1.779966 g / cm^3
# Si number density = 17.840269 Si / 1000 Ang^3
#
#
#
# Elastic Constant Matrix: (Units=GPa)
#
#
# Indices 1 2 3 4 5 6 
#
# 1 71.6123 30.7082 30.9073 0.0000 17.0170 0.0000
# 2 30.7082 85.0532 57.6176 0.0000 16.3550 0.0000
# 3 30.9073 57.6176 97.9930 0.0000 24.7671 0.0000
# 4 0.0000 0.0000 0.0000 36.9355 0.0000 6.2720
# 5 17.0170 16.3550 24.7671 0.0000 22.3575 0.0000
# 6 0.0000 0.0000 0.0000 6.2720 0.0000 21.8585
#
#
#
# Elastic Compliance Matrix: (Units=1/GPa)
#
#
# Indices 1 2 3 4 5 6 
#
# 1 0.018518 -0.004181 -0.000823 0.000000 -0.010124 0.000000
# 2 -0.004181 0.020561 -0.010796 0.000000 0.000102 0.000000
# 3 -0.000823 -0.010796 0.020358 0.000000 -0.014027 0.000000
# 4 0.000000 0.000000 0.000000 0.028461 0.000000 -0.008166
# 5 -0.010124 0.000102 -0.014027 0.000000 0.067898 0.000000
# 6 0.000000 0.000000 0.000000 -0.008166 0.000000 0.048092
#
#
# Mechanical properties :
#
#
# Convention : Reuss Voigt Hill
#
# Bulk Modulus (GPa) = 35.92596 54.79163 45.35879
# Shear Modulus (GPa) = 20.42739 25.25866 22.84302
#
# Velocity S-wave (km/s) = 3.38748 3.76682 3.58218
# Velocity P-wave (km/s) = 5.95662 7.04965 6.52606
#
# Compressibility (1/GPa) = 0.02783503
#
# Stress axis : x y z
#
# Youngs Moduli (GPa) = 54.00091 48.63504 49.12100
#
# Poissons Ratio (x) = 0.20336 0.04045
# Poissons Ratio (y) = 0.22580 0.53033
# Poissons Ratio (z) = 0.04446 0.52508
#
# Static dielectric constant tensor:
#      x y z
#    x 3.232330 0.000000 -0.015240 
#    y 0.000000 3.400870 0.000000 
#    z -0.015240 0.000000 3.519490 
# 
# 
# High freq. dielectric constant tensor:
#      x y z
#    x 1.668680 0.000000 0.007390 
#    y 0.000000 1.693350 0.000000 
#    z 0.007390 0.000000 1.686020 
# 
# From -- ./inp_files/287527.got.cif
#   From: 2010.06.25/outbox.cif.g09.slc.cpg/sg12_144_cif.got.tgz:287527.got - 2010.06.28 00:19:55.
