data_PCOD8095439
_publ_section_title
;
Structure prediction by ZEFSAII (Michael W. Deem and Ramdas Pophale) SiO2 
 PCOD8095439
Probable space group: C 2/M
;
_chemical_formula_sum "Si O2"
_cell_formula_units_Z 56
_cell_length_a 19.088168
_cell_length_b 8.899722
_cell_length_c 24.456516
_cell_angle_alpha 90.000000
_cell_angle_beta 136.401102
_cell_angle_gamma 90.000000
_cell_volume 2865.075478
_symmetry_space_group_name_H-M "C 2/M"
_symmetry_group_IT_number 12
_symmetry_cell_setting 'monoclinic'
loop_
_space_group_symop_operation_xyz
x,y,z
-x,y,-z
-x,-y,-z
x,-y,z
1/2+x,1/2+y,z
1/2-x,1/2+y,-z
1/2-x,1/2-y,-z
1/2+x,1/2-y,z
loop_
_atom_site_type_symbol
_atom_site_label
_atom_site_fract_x
_atom_site_fract_y
_atom_site_fract_z
Si Si1 0.041555 0.827824 0.684273
Si Si2 0.563420 0.178307 0.586998
Si Si3 0.481179 0.323554 0.767198
Si Si4 0.580672 0.327386 0.002074
Si Si5 0.743448 0.169096 0.817481
Si Si6 0.290753 0.327271 0.725437
Si Si7 0.859635 0.677093 0.069275
O O1 0.010484 0.731781 0.613524
O O2 0.967995 0.795906 0.694542
O O3 0.154688 0.789817 0.768563
O O4 0.037309 0.000000 0.664263
O O5 0.500000 0.242349 0.500000
O O6 0.679100 0.241701 0.648817
O O7 0.562914 0.000000 0.587113
O O8 0.495640 0.500000 0.788278
O O9 0.381476 0.253982 0.741002
O O10 0.582206 0.237424 0.844443
O O11 0.556957 0.500000 0.972376
O O12 0.692208 0.312761 0.091278
O O13 0.500000 0.266992 0.000000
O O14 0.572398 0.222988 0.944512
O O15 0.813475 0.194612 0.802944
O O16 0.697435 0.000000 0.787721
O O17 0.287756 0.500000 0.706580
O O18 0.846425 0.500000 0.066585
O O19 0.750000 0.750000 0.000000
#
# Coordination Sequence:
#
# PCOD8095439 Si02
#       7
#     8   8   8   8   8   8   8
#     4  10  20  32  51  77 103 132 164 207 260 310
#     4   9  18  35  59  82 104 135 173 208 245 302
#     4  10  20  36  55  75 103 139 178 217 264 321
#     4  10  20  35  55  77 103 138 179 224 276 328
#     4   9  17  31  52  73  95 131 176 215 251 304
#     4   8  15  31  55  78 100 132 174 213 250 302
#     4  12  25  38  53  75 106 144 186 232 278 321
#
# _framework density 19.545732000000001
#
# number of rings (size 3 to 8) (size 9 to 14) (size 15 to 20)
#    0.000    2.286    0.000    4.286    0.000    6.857 
#    0.000    6.429    0.000    0.000    0.000    0.000 
#    0.000    0.000    0.000    0.000    0.000    0.000 
#
# Total GULP energy -347137.298566 kJ/mol
# GULP energy per Si atom -12397.760663 kJ/mol
# Density = 1.950125 g / cm^3
# Si number density = 19.545732 Si / 1000 Ang^3
#
#
#
# Elastic Constant Matrix: (Units=GPa)
#
#
# Indices 1 2 3 4 5 6 
#
# 1 90.2621 26.9765 20.3957 0.0000 -13.8289 0.0000
# 2 26.9765 58.0519 24.9484 0.0000 -6.7847 0.0000
# 3 20.3957 24.9484 86.4827 0.0000 -16.9562 0.0000
# 4 0.0000 0.0000 0.0000 23.4335 0.0000 -5.8797
# 5 -13.8289 -6.7847 -16.9562 0.0000 26.5862 0.0000
# 6 0.0000 0.0000 0.0000 -5.8797 0.0000 24.5539
#
#
#
# Elastic Compliance Matrix: (Units=1/GPa)
#
#
# Indices 1 2 3 4 5 6 
#
# 1 0.013666 -0.005470 -0.000600 0.000000 0.005330 0.000000
# 2 -0.005470 0.021913 -0.005135 0.000000 -0.000528 0.000000
# 3 -0.000600 -0.005135 0.014707 0.000000 0.007757 0.000000
# 4 0.000000 0.000000 0.000000 0.045402 0.000000 0.010872
# 5 0.005330 -0.000528 0.007757 0.000000 0.045198 0.000000
# 6 0.000000 0.000000 0.000000 0.010872 0.000000 0.043330
#
#
# Mechanical properties :
#
#
# Convention : Reuss Voigt Hill
#
# Bulk Modulus (GPa) = 35.87312 42.15977 39.01644
# Shear Modulus (GPa) = 23.15706 25.74645 24.45176
#
# Velocity S-wave (km/s) = 3.44577 3.63332 3.54079
# Velocity P-wave (km/s) = 5.85016 6.26243 6.05980
#
# Compressibility (1/GPa) = 0.02787603
#
# Stress axis : x y z
#
# Youngs Moduli (GPa) = 73.17597 45.63547 67.99603
#
# Poissons Ratio (x) = 0.24961 0.04080
# Poissons Ratio (y) = 0.40025 0.34916
# Poissons Ratio (z) = 0.04391 0.23434
#
# Static dielectric constant tensor:
#      x y z
#    x 3.789180 0.000000 -0.099430 
#    y 0.000000 3.289800 0.000000 
#    z -0.099430 0.000000 3.576960 
# 
# 
# High freq. dielectric constant tensor:
#      x y z
#    x 1.769910 0.000000 -0.015270 
#    y 0.000000 1.731640 0.000000 
#    z -0.015270 0.000000 1.746030 
# 
# From -- ./inp_files/342491.got.cif
#   From: 2010.06.25/outbox.cif.g09.slc.cpg/sg12_172_cif.got.tgz:342491.got - 2010.06.28 00:19:55.
