data_PCOD8095374
_publ_section_title
;
Structure prediction by ZEFSAII (Michael W. Deem and Ramdas Pophale) SiO2 
 PCOD8095374
Probable space group: C 2/M
;
_chemical_formula_sum "Si O2"
_cell_formula_units_Z 56
_cell_length_a 25.224771
_cell_length_b 8.863820
_cell_length_c 15.762180
_cell_angle_alpha 90.000000
_cell_angle_beta 56.320216
_cell_angle_gamma 90.000000
_cell_volume 2932.688774
_symmetry_space_group_name_H-M "C 2/M"
_symmetry_group_IT_number 12
_symmetry_cell_setting 'monoclinic'
loop_
_space_group_symop_operation_xyz
x,y,z
-x,y,-z
-x,-y,-z
x,-y,z
1/2+x,1/2+y,z
1/2-x,1/2+y,-z
1/2-x,1/2-y,-z
1/2+x,1/2-y,z
loop_
_atom_site_type_symbol
_atom_site_label
_atom_site_fract_x
_atom_site_fract_y
_atom_site_fract_z
Si Si1 0.600017 0.321974 0.409868
Si Si2 0.499304 0.678518 0.363188
Si Si3 0.258340 0.324447 0.733834
Si Si4 0.413987 0.676364 0.985867
Si Si5 0.525300 0.178278 0.792611
Si Si6 0.791241 0.324667 0.035587
Si Si7 0.864070 0.824500 0.216694
O O1 0.603558 0.500000 0.398592
O O2 0.564352 0.277153 0.528224
O O3 0.560363 0.265410 0.363179
O O4 0.671558 0.256078 0.347165
O O5 0.501789 0.500000 0.343119
O O6 0.500186 0.768327 0.275313
O O7 0.253552 0.500000 0.714679
O O8 0.244369 0.296152 0.844622
O O9 0.208138 0.235906 0.719895
O O10 0.419837 0.500000 0.962042
O O11 0.480650 0.754829 0.905916
O O12 0.359823 0.745396 0.973663
O O13 0.397600 0.710402 0.097578
O O14 0.596730 0.238980 0.744950
O O15 0.524811 0.000000 0.797938
O O16 0.800946 0.500000 0.007881
O O17 0.750000 0.250000 0.000000
O O18 0.863114 0.000000 0.239212
#
# Coordination Sequence:
#
# PCOD8095374 Si02
#       7
#     8   8   8   8   8   8   8
#     4   8  16  34  60  85 108 141 183 224 273 326
#     4   9  18  35  59  84 110 142 183 226 268 327
#     4   9  18  34  56  80 108 144 181 223 275 324
#     4  10  21  37  56  77 106 145 187 228 273 322
#     4  12  24  36  54  82 113 144 181 227 277 328
#     4  10  20  32  49  78 115 148 183 223 267 323
#     4  10  21  38  57  80 107 143 187 227 270 326
#
# _framework density 19.095105
#
# number of rings (size 3 to 8) (size 9 to 14) (size 15 to 20)
#    0.000    2.286    0.000    3.857    2.000    4.000 
#    0.000    3.571    0.000    0.000    0.000    0.000 
#    0.000    0.000    0.000    0.000    0.000    0.000 
#
# Total GULP energy -347254.634695 kJ/mol
# GULP energy per Si atom -12401.951239 kJ/mol
# Density = 1.905164 g / cm^3
# Si number density = 19.095105 Si / 1000 Ang^3
#
#
#
# Elastic Constant Matrix: (Units=GPa)
#
#
# Indices 1 2 3 4 5 6 
#
# 1 117.3450 40.7374 35.3266 0.0000 -20.5308 0.0000
# 2 40.7374 87.1209 25.9975 0.0000 -4.1918 0.0001
# 3 35.3266 25.9975 55.7191 0.0000 -18.1495 0.0000
# 4 0.0000 0.0000 0.0000 19.6472 0.0000 -1.0233
# 5 -20.5308 -4.1918 -18.1495 0.0000 32.3893 0.0000
# 6 0.0000 0.0001 0.0000 -1.0233 0.0000 32.2299
#
#
#
# Elastic Compliance Matrix: (Units=1/GPa)
#
#
# Indices 1 2 3 4 5 6 
#
# 1 0.012052 -0.004171 -0.004138 0.000000 0.004781 0.000000
# 2 -0.004171 0.014902 -0.005556 0.000000 -0.003828 0.000000
# 3 -0.004138 -0.005556 0.027003 0.000000 0.011789 0.000000
# 4 0.000000 0.000000 0.000000 0.050982 0.000000 0.001619
# 5 0.004781 -0.003828 0.011789 0.000000 0.040016 0.000000
# 6 0.000000 0.000000 0.000000 0.001619 0.000000 0.031079
#
#
# Mechanical properties :
#
#
# Convention : Reuss Voigt Hill
#
# Bulk Modulus (GPa) = 38.12633 51.58979 44.85806
# Shear Modulus (GPa) = 23.52884 27.39483 25.46183
#
# Velocity S-wave (km/s) = 3.51407 3.79179 3.65557
# Velocity P-wave (km/s) = 6.03944 6.80045 6.43121
#
# Compressibility (1/GPa) = 0.02622859
#
# Stress axis : x y z
#
# Youngs Moduli (GPa) = 82.97418 67.10416 37.03291
#
# Poissons Ratio (x) = 0.27987 0.15323
# Poissons Ratio (y) = 0.34606 0.20575
# Poissons Ratio (z) = 0.34333 0.37282
#
# Static dielectric constant tensor:
#      x y z
#    x 3.800310 0.000000 -0.274530 
#    y 0.000000 3.363050 0.000000 
#    z -0.274530 0.000000 3.457290 
# 
# 
# High freq. dielectric constant tensor:
#      x y z
#    x 1.756900 0.000000 -0.006810 
#    y 0.000000 1.730820 0.000000 
#    z -0.006810 0.000000 1.724820 
# 
# From -- ./inp_files/238373.got.cif
#   From: 2010.06.25/outbox.cif.g09.slc.cpg/sg12_120_cif.got.tgz:238373.got - 2010.06.28 00:19:55.
