data_PCOD8095040
_publ_section_title
;
Structure prediction by ZEFSAII (Michael W. Deem and Ramdas Pophale) SiO2 
 PCOD8095040
Probable space group: C 2/M
;
_chemical_formula_sum "Si O2"
_cell_formula_units_Z 64
_cell_length_a 24.308784
_cell_length_b 9.677651
_cell_length_c 21.657096
_cell_angle_alpha 90.000000
_cell_angle_beta 137.737695
_cell_angle_gamma 90.000000
_cell_volume 3426.433746
_symmetry_space_group_name_H-M "C 2/M"
_symmetry_group_IT_number 12
_symmetry_cell_setting 'monoclinic'
loop_
_space_group_symop_operation_xyz
x,y,z
-x,y,-z
-x,-y,-z
x,-y,z
1/2+x,1/2+y,z
1/2-x,1/2+y,-z
1/2-x,1/2-y,-z
1/2+x,1/2-y,z
loop_
_atom_site_type_symbol
_atom_site_label
_atom_site_fract_x
_atom_site_fract_y
_atom_site_fract_z
Si Si1 0.885844 0.663368 0.860509
Si Si2 0.558213 0.835274 0.602889
Si Si3 0.869333 0.660438 0.627881
Si Si4 0.058461 0.337721 0.958060
Si Si5 0.753473 0.651821 0.421168
Si Si6 0.768270 0.345405 0.295855
Si Si7 0.166410 0.664569 0.932232
Si Si8 0.460412 0.162845 0.275552
O O1 0.872669 0.500000 0.842348
O O2 0.806251 0.742346 0.772941
O O3 0.963799 0.713534 0.883904
O O4 0.897643 0.703768 0.941949
O O5 0.500000 0.774040 0.500000
O O6 0.652092 0.788345 0.672585
O O7 0.536381 0.774286 0.652529
O O8 0.552173 0.000000 0.596129
O O9 0.866247 0.500000 0.643070
O O10 0.824695 0.696987 0.526716
O O11 0.823384 0.743950 0.643359
O O12 0.961764 0.715667 0.698881
O O13 0.054539 0.500000 0.947581
O O14 0.109602 0.280442 0.941886
O O15 0.720392 0.500000 0.411982
O O16 0.794949 0.649515 0.389183
O O17 0.744107 0.500000 0.252769
O O18 0.183928 0.500000 0.952547
O O19 0.121047 0.700597 0.830178
O O20 0.250000 0.750000 0.000000
O O21 0.468679 0.000000 0.289569
#
# Coordination Sequence:
#
# PCOD8095040 Si02
#       8
#     8   8   8   8   8   8   8   8
#     4   9  18  34  56  76  96 131 173 209 250 305
#     4   9  17  31  51  74 103 138 172 208 253 302
#     4   9  17  31  52  74  97 131 171 205 240 294
#     4   8  17  35  55  74 100 133 169 209 253 300
#     4   9  18  31  46  72 108 134 156 198 256 303
#     4  10  20  31  49  77 106 131 162 210 259 300
#     4  10  21  36  54  77 106 135 169 213 257 302
#     4   9  18  31  51  76  98 129 175 214 243 292
#
# _framework density 18.678311999999998
#
# number of rings (size 3 to 8) (size 9 to 14) (size 15 to 20)
#    0.000    2.875    0.000    1.500    3.500    3.500 
#    0.000    2.500    0.000    1.125    0.000    0.000 
#    0.000    0.000    0.000    0.000    0.000    0.000 
#
# Total GULP energy -396565.801538 kJ/mol
# GULP energy per Si atom -12392.681298 kJ/mol
# Density = 1.863580 g / cm^3
# Si number density = 18.678312 Si / 1000 Ang^3
#
#
#
# Elastic Constant Matrix: (Units=GPa)
#
#
# Indices 1 2 3 4 5 6 
#
# 1 110.6807 23.9306 40.3175 0.0000 6.6991 0.0000
# 2 23.9306 37.3595 26.0677 0.0000 10.4673 0.0000
# 3 40.3175 26.0677 88.7435 0.0000 12.8947 0.0000
# 4 0.0000 0.0000 0.0000 24.3963 0.0000 6.5576
# 5 6.6991 10.4673 12.8947 0.0000 32.4394 0.0000
# 6 0.0000 0.0000 0.0000 6.5576 0.0000 17.6104
#
#
#
# Elastic Compliance Matrix: (Units=1/GPa)
#
#
# Indices 1 2 3 4 5 6 
#
# 1 0.011452 -0.004827 -0.003892 0.000000 0.000740 0.000000
# 2 -0.004827 0.037442 -0.007636 0.000000 -0.008049 0.000000
# 3 -0.003892 -0.007636 0.015712 0.000000 -0.002978 0.000000
# 4 0.000000 0.000000 0.000000 0.045549 0.000000 -0.016961
# 5 0.000740 -0.008049 -0.002978 0.000000 0.034455 0.000000
# 6 0.000000 0.000000 0.000000 -0.016961 0.000000 0.063101
#
#
# Mechanical properties :
#
#
# Convention : Reuss Voigt Hill
#
# Bulk Modulus (GPa) = 31.35159 46.37947 38.86553
# Shear Modulus (GPa) = 19.91616 24.65374 22.28495
#
# Velocity S-wave (km/s) = 3.26892 3.63700 3.45786
# Velocity P-wave (km/s) = 5.57398 6.52086 6.06592
#
# Compressibility (1/GPa) = 0.03189631
#
# Stress axis : x y z
#
# Youngs Moduli (GPa) = 87.32334 26.70801 63.64378
#
# Poissons Ratio (x) = 0.12891 0.24772
# Poissons Ratio (y) = 0.42149 0.48597
# Poissons Ratio (z) = 0.33989 0.20394
#
# Static dielectric constant tensor:
#      x y z
#    x 3.934640 0.000000 -0.129380 
#    y 0.000000 3.036090 0.000000 
#    z -0.129380 0.000000 3.457230 
# 
# 
# High freq. dielectric constant tensor:
#      x y z
#    x 1.737260 0.000000 -0.001740 
#    y 0.000000 1.671530 0.000000 
#    z -0.001740 0.000000 1.729450 
# 
# From -- ./inp_files/324990.got.cif
#   From: 2010.06.25/outbox.cif.g09.slc.cpg/sg12_163_cif.got.tgz:324990.got - 2010.06.28 00:19:55.
