data_PCOD8095043
_publ_section_title
;
Structure prediction by ZEFSAII (Michael W. Deem and Ramdas Pophale) SiO2 
 PCOD8095043
Probable space group: C 2/M
;
_chemical_formula_sum "Si O2"
_cell_formula_units_Z 56
_cell_length_a 20.311235
_cell_length_b 9.106605
_cell_length_c 20.733150
_cell_angle_alpha 90.000000
_cell_angle_beta 131.032738
_cell_angle_gamma 90.000000
_cell_volume 2892.824888
_symmetry_space_group_name_H-M "C 2/M"
_symmetry_group_IT_number 12
_symmetry_cell_setting 'monoclinic'
loop_
_space_group_symop_operation_xyz
x,y,z
-x,y,-z
-x,-y,-z
x,-y,z
1/2+x,1/2+y,z
1/2-x,1/2+y,-z
1/2-x,1/2-y,-z
1/2+x,1/2-y,z
loop_
_atom_site_type_symbol
_atom_site_label
_atom_site_fract_x
_atom_site_fract_y
_atom_site_fract_z
Si Si1 0.265862 0.829835 0.774526
Si Si2 0.550701 0.675111 0.096124
Si Si3 0.099281 0.829080 0.742856
Si Si4 0.809183 0.669218 0.394042
Si Si5 0.347895 0.336947 0.619888
Si Si6 0.989228 0.163402 0.189331
Si Si7 0.449831 0.169594 0.581555
O O1 0.352699 0.740249 0.843821
O O2 0.201311 0.806231 0.794205
O O3 0.212282 0.776062 0.678194
O O4 0.289306 0.000000 0.780181
O O5 0.559990 0.500000 0.106644
O O6 0.495323 0.737818 0.122133
O O7 0.500000 0.726389 0.000000
O O8 0.074353 0.760645 0.797720
O O9 0.040750 0.755352 0.649042
O O10 0.072447 0.000000 0.725711
O O11 0.796133 0.500000 0.363781
O O12 0.746547 0.706829 0.414072
O O13 0.908121 0.695350 0.483502
O O14 0.347010 0.500000 0.588088
O O15 0.411959 0.335744 0.722341
O O16 0.378222 0.218862 0.587651
O O17 0.952759 0.000000 0.155404
O O18 0.470383 0.000000 0.605974
#
# Coordination Sequence:
#
# PCOD8095043 Si02
#       7
#     8   8   8   8   8   8   8
#     4  11  23  37  56  81 109 144 184 232 275 317
#     4  10  20  37  63  89 110 136 174 221 276 339
#     4   9  20  38  55  73 108 155 190 217 269 329
#     4  10  20  34  51  74 110 149 184 225 278 328
#     4   9  16  30  51  72 105 149 182 218 271 328
#     4   8  14  31  57  78 101 141 182 212 257 326
#     4  10  20  31  49  79 109 142 187 237 271 306
#
# _framework density 19.358239999999999
#
# number of rings (size 3 to 8) (size 9 to 14) (size 15 to 20)
#    0.000    2.429    1.429    2.143    0.000    3.714 
#    0.000    3.571    0.000    0.000    0.000    0.000 
#    0.000    0.000    0.000    0.000    0.000    0.000 
#
# Total GULP energy -347003.146040 kJ/mol
# GULP energy per Si atom -12392.969501 kJ/mol
# Density = 1.931418 g / cm^3
# Si number density = 19.358240 Si / 1000 Ang^3
#
#
#
# Elastic Constant Matrix: (Units=GPa)
#
#
# Indices 1 2 3 4 5 6 
#
# 1 85.6529 27.6514 48.5087 0.0000 6.4629 0.0000
# 2 27.6514 53.3454 32.3981 0.0000 -1.2929 0.0000
# 3 48.5087 32.3981 101.6863 0.0000 -12.6185 0.0000
# 4 0.0000 0.0000 0.0000 21.2761 0.0000 2.8107
# 5 6.4629 -1.2929 -12.6185 0.0000 12.8299 0.0000
# 6 0.0000 0.0000 0.0000 2.8107 0.0000 24.7968
#
#
#
# Elastic Compliance Matrix: (Units=1/GPa)
#
#
# Indices 1 2 3 4 5 6 
#
# 1 0.021417 -0.004638 -0.011545 0.000000 -0.022610 0.000000
# 2 -0.004638 0.024610 -0.005730 0.000000 -0.000820 0.000000
# 3 -0.011545 -0.005730 0.020294 0.000000 0.025198 0.000000
# 4 0.000000 0.000000 0.000000 0.047716 0.000000 -0.005409
# 5 -0.022610 -0.000820 0.025198 0.000000 0.114034 0.000000
# 6 0.000000 0.000000 0.000000 -0.005409 0.000000 0.040941
#
#
# Mechanical properties :
#
#
# Convention : Reuss Voigt Hill
#
# Bulk Modulus (GPa) = 44.45411 50.86678 47.66045
# Shear Modulus (GPa) = 15.60868 20.58898 18.09883
#
# Velocity S-wave (km/s) = 2.84263 3.26479 3.06100
# Velocity P-wave (km/s) = 5.81273 6.36753 6.09644
#
# Compressibility (1/GPa) = 0.02249511
#
# Stress axis : x y z
#
# Youngs Moduli (GPa) = 46.69271 40.63395 49.27530
#
# Poissons Ratio (x) = 0.18845 0.56887
# Poissons Ratio (y) = 0.21655 0.28236
# Poissons Ratio (z) = 0.53906 0.23284
#
# Static dielectric constant tensor:
#      x y z
#    x 3.654410 0.000000 -0.139270 
#    y 0.000000 3.335480 0.000000 
#    z -0.139270 0.000000 3.427480 
# 
# 
# High freq. dielectric constant tensor:
#      x y z
#    x 1.760250 0.000000 -0.004410 
#    y 0.000000 1.730770 0.000000 
#    z -0.004410 0.000000 1.732870 
# 
# From -- ./inp_files/320278.got.cif
#   From: 2010.06.25/outbox.cif.g09.slc.cpg/sg12_161_cif.got.tgz:320278.got - 2010.06.28 00:19:55.
