data_PCOD8095667
_publ_section_title
;
Structure prediction by ZEFSAII (Michael W. Deem and Ramdas Pophale) SiO2 
 PCOD8095667
Probable space group: C 2/M
;
_chemical_formula_sum "Si O2"
_cell_formula_units_Z 56
_cell_length_a 29.562822
_cell_length_b 9.134263
_cell_length_c 18.961168
_cell_angle_alpha 90.000000
_cell_angle_beta 142.178100
_cell_angle_gamma 90.000000
_cell_volume 3139.735232
_symmetry_space_group_name_H-M "C 2/M"
_symmetry_group_IT_number 12
_symmetry_cell_setting 'monoclinic'
loop_
_space_group_symop_operation_xyz
x,y,z
-x,y,-z
-x,-y,-z
x,-y,z
1/2+x,1/2+y,z
1/2-x,1/2+y,-z
1/2-x,1/2-y,-z
1/2+x,1/2-y,z
loop_
_atom_site_type_symbol
_atom_site_label
_atom_site_fract_x
_atom_site_fract_y
_atom_site_fract_z
Si Si1 0.623647 0.335677 0.397026
Si Si2 0.986475 0.331641 0.275979
Si Si3 0.477645 0.670196 0.548326
Si Si4 0.936519 0.671890 0.064763
Si Si5 0.082873 0.832394 0.197267
Si Si6 0.169485 0.172983 0.166047
Si Si7 0.190269 0.834518 0.617767
O O1 0.590265 0.500000 0.370300
O O2 0.566513 0.210026 0.345812
O O3 0.640473 0.319840 0.334317
O O4 0.693395 0.316622 0.535586
O O5 0.985325 0.500000 0.295661
O O6 0.969896 0.241649 0.326894
O O7 0.931198 0.298575 0.142631
O O8 0.500000 0.736441 0.500000
O O9 0.495299 0.500000 0.571986
O O10 0.391927 0.704330 0.457214
O O11 0.936239 0.500000 0.047927
O O12 0.009927 0.738274 0.120104
O O13 0.864981 0.749015 0.944279
O O14 0.124559 0.774577 0.179680
O O15 0.057492 0.000000 0.155318
O O16 0.253879 0.223080 0.277095
O O17 0.167391 0.000000 0.153406
O O18 0.211644 0.000000 0.665695
#
# Coordination Sequence:
#
# PCOD8095667 Si02
#       7
#     8   8   8   8   8   8   8
#     4   8  15  30  49  66  91 128 163 197 240 287
#     4   9  17  29  48  75 100 122 153 196 241 279
#     4   9  18  34  57  81 101 123 151 185 233 294
#     4  10  20  33  49  69  95 129 169 207 240 278
#     4   9  18  32  48  68  94 126 168 211 245 279
#     4  11  22  32  45  67  97 133 168 204 243 281
#     4   9  18  32  49  70  97 127 157 191 236 290
#
# _framework density 17.835898
#
# number of rings (size 3 to 8) (size 9 to 14) (size 15 to 20)
#    0.000    2.714    0.000    2.571    0.000    7.714 
#    0.000    0.000    0.000    0.857    0.000    0.000 
#    0.000    0.000    0.000    0.000    0.000    0.000 
#
# Total GULP energy -346985.238065 kJ/mol
# GULP energy per Si atom -12392.329931 kJ/mol
# Density = 1.779530 g / cm^3
# Si number density = 17.835898 Si / 1000 Ang^3
#
#
#
# Elastic Constant Matrix: (Units=GPa)
#
#
# Indices 1 2 3 4 5 6 
#
# 1 55.1313 33.4298 47.9544 0.0000 -23.7388 0.0000
# 2 33.4298 74.8347 61.7625 0.0000 -12.1267 0.0000
# 3 47.9544 61.7625 130.3547 0.0000 -19.3473 0.0000
# 4 0.0000 0.0000 0.0000 32.0693 0.0000 -2.5234
# 5 -23.7388 -12.1267 -19.3473 0.0000 26.5122 0.0000
# 6 0.0000 0.0000 0.0000 -2.5234 0.0000 18.2399
#
#
#
# Elastic Compliance Matrix: (Units=1/GPa)
#
#
# Indices 1 2 3 4 5 6 
#
# 1 0.041396 -0.007902 -0.007312 0.000000 0.028116 0.000000
# 2 -0.007902 0.023632 -0.008675 0.000000 -0.002597 0.000000
# 3 -0.007312 -0.008675 0.014479 0.000000 0.000051 0.000000
# 4 0.000000 0.000000 0.000000 0.031526 0.000000 0.004361
# 5 0.028116 -0.002597 0.000051 0.000000 0.061743 0.000000
# 6 0.000000 0.000000 0.000000 0.004361 0.000000 0.055428
#
#
# Mechanical properties :
#
#
# Convention : Reuss Voigt Hill
#
# Bulk Modulus (GPa) = 31.51652 60.73488 46.12570
# Shear Modulus (GPa) = 17.44849 23.17588 20.31218
#
# Velocity S-wave (km/s) = 3.13114 3.60862 3.37833
# Velocity P-wave (km/s) = 5.54803 7.17557 6.41364
#
# Compressibility (1/GPa) = 0.03172939
#
# Stress axis : x y z
#
# Youngs Moduli (GPa) = 24.15687 42.31611 69.06429
#
# Poissons Ratio (x) = 0.33436 0.50499
# Poissons Ratio (y) = 0.19088 0.59916
# Poissons Ratio (z) = 0.17663 0.36711
#
# Static dielectric constant tensor:
#      x y z
#    x 3.092810 0.000000 -0.435560 
#    y 0.000000 3.285160 0.000000 
#    z -0.435560 0.000000 3.510320 
# 
# 
# High freq. dielectric constant tensor:
#      x y z
#    x 1.647580 0.000000 -0.032110 
#    y 0.000000 1.694100 0.000000 
#    z -0.032110 0.000000 1.693090 
# 
# From -- ./inp_files/281010.got.cif
#   From: 2010.06.25/outbox.cif.g09.slc.cpg/sg12_141_cif.got.tgz:281010.got - 2010.06.28 00:19:55.
