data_PCOD8095112
_publ_section_title
;
Structure prediction by ZEFSAII (Michael W. Deem and Ramdas Pophale) SiO2 
 PCOD8095112
Probable space group: C 2/M
;
_chemical_formula_sum "Si O2"
_cell_formula_units_Z 64
_cell_length_a 21.290232
_cell_length_b 25.350447
_cell_length_c 9.378310
_cell_angle_alpha 90.000000
_cell_angle_beta 49.492282
_cell_angle_gamma 90.000000
_cell_volume 3848.452614
_symmetry_space_group_name_H-M "C 2/M"
_symmetry_group_IT_number 12
_symmetry_cell_setting 'monoclinic'
loop_
_space_group_symop_operation_xyz
x,y,z
-x,y,-z
-x,-y,-z
x,-y,z
1/2+x,1/2+y,z
1/2-x,1/2+y,-z
1/2-x,1/2-y,-z
1/2+x,1/2-y,z
loop_
_atom_site_type_symbol
_atom_site_label
_atom_site_fract_x
_atom_site_fract_y
_atom_site_fract_z
Si Si1 0.771448 0.645580 0.533855
Si Si2 0.092754 0.687549 0.850945
Si Si3 0.640240 0.717078 0.590766
Si Si4 0.506608 0.332578 0.327357
Si Si5 0.802811 0.288161 0.740536
Si Si6 0.132555 0.255132 0.073450
Si Si7 0.363729 0.441452 0.249612
Si Si8 0.474241 0.559417 0.816162
O O1 0.847379 0.643281 0.309001
O O2 0.714467 0.695800 0.578540
O O3 0.805357 0.657339 0.644341
O O4 0.717318 0.593345 0.605159
O O5 0.091245 0.738878 0.752007
O O6 0.124743 0.701895 0.960611
O O7 0.000000 0.664622 0.000000
O O8 0.579252 0.669680 0.634365
O O9 0.675987 0.739357 0.391866
O O10 0.500000 0.315644 0.500000
O O11 0.561293 0.288391 0.170174
O O12 0.540615 0.392990 0.273437
O O13 0.867411 0.288158 0.777426
O O14 0.713591 0.280328 0.940227
O O15 0.327643 0.500000 0.293000
O O16 0.430446 0.437938 0.277076
O O17 0.411359 0.426818 0.035248
O O18 0.456424 0.500000 0.781130
#
# Coordination Sequence:
#
# PCOD8095112 Si02
#       8
#     8   8   8   8   8   8   8   8
#     4  11  19  34  51  71  98 130 168 206 253 298
#     4  11  21  31  49  72 100 132 168 204 243 297
#     4  11  19  32  47  70  97 133 173 202 239 300
#     4  12  22  30  47  70 101 143 170 201 250 292
#     4  10  20  32  45  67  98 132 167 202 245 289
#     4  11  20  31  45  68 101 132 167 204 238 293
#     4   9  18  33  55  76  93 122 166 217 255 293
#     4   9  19  33  50  74  98 125 172 214 246 290
#
# _framework density 16.630061000000001
#
# number of rings (size 3 to 8) (size 9 to 14) (size 15 to 20)
#    0.000    1.500    6.250    2.250    0.000    0.250 
#    0.000    0.000    0.000    0.375    0.000    0.000 
#    0.000    1.000    0.000    0.000    0.000    0.000 
#
# Total GULP energy -396617.729776 kJ/mol
# GULP energy per Si atom -12394.304056 kJ/mol
# Density = 1.659221 g / cm^3
# Si number density = 16.630061 Si / 1000 Ang^3
#
#
#
# Elastic Constant Matrix: (Units=GPa)
#
#
# Indices 1 2 3 4 5 6 
#
# 1 62.6538 22.7034 32.2112 0.0000 2.1037 0.0000
# 2 22.7034 65.8879 38.9121 0.0000 -5.9737 0.0000
# 3 32.2112 38.9121 84.0651 0.0000 -5.4452 0.0000
# 4 0.0000 0.0000 0.0000 23.6579 0.0000 -6.8091
# 5 2.1037 -5.9737 -5.4452 0.0000 32.3621 0.0000
# 6 0.0000 0.0000 0.0000 -6.8091 0.0000 21.7318
#
#
#
# Elastic Compliance Matrix: (Units=1/GPa)
#
#
# Indices 1 2 3 4 5 6 
#
# 1 0.020690 -0.003591 -0.006466 0.000000 -0.003096 0.000000
# 2 -0.003591 0.021674 -0.008475 0.000000 0.002808 0.000000
# 3 -0.006466 -0.008475 0.018423 0.000000 0.001956 0.000000
# 4 0.000000 0.000000 0.000000 0.046459 0.000000 0.014557
# 5 -0.003096 0.002808 0.001956 0.000000 0.031949 0.000000
# 6 0.000000 0.000000 0.000000 0.014557 0.000000 0.050576
#
#
# Mechanical properties :
#
#
# Convention : Reuss Voigt Hill
#
# Bulk Modulus (GPa) = 42.15290 44.47335 43.31313
# Shear Modulus (GPa) = 21.29985 23.46904 22.38445
#
# Velocity S-wave (km/s) = 3.58272 3.76073 3.67280
# Velocity P-wave (km/s) = 6.52050 6.75709 6.63985
#
# Compressibility (1/GPa) = 0.02372316
#
# Stress axis : x y z
#
# Youngs Moduli (GPa) = 48.33170 46.13750 54.28126
#
# Poissons Ratio (x) = 0.16570 0.35099
# Poissons Ratio (y) = 0.17358 0.46001
# Poissons Ratio (z) = 0.31252 0.39100
#
# Static dielectric constant tensor:
#      x y z
#    x 3.131800 0.000000 0.011160 
#    y 0.000000 2.857720 0.000000 
#    z 0.011160 0.000000 3.211370 
# 
# 
# High freq. dielectric constant tensor:
#      x y z
#    x 1.631250 0.000000 0.003090 
#    y 0.000000 1.601230 0.000000 
#    z 0.003090 0.000000 1.647430 
# 
# From -- ./inp_files/91090.got.cif
#   From: 2010.06.25/outbox.cif.g09.slc.cpg/sg12_46_cif.got.tgz:91090.got - 2010.06.28 00:19:55.
