data_PCOD8095335
_publ_section_title
;
Structure prediction by ZEFSAII (Michael W. Deem and Ramdas Pophale) SiO2 
 PCOD8095335
Probable space group: C 2/M
;
_chemical_formula_sum "Si O2"
_cell_formula_units_Z 40
_cell_length_a 22.755110
_cell_length_b 9.414022
_cell_length_c 18.184270
_cell_angle_alpha 90.000000
_cell_angle_beta 36.039644
_cell_angle_gamma 90.000000
_cell_volume 2291.827897
_symmetry_space_group_name_H-M "C 2/M"
_symmetry_group_IT_number 12
_symmetry_cell_setting 'monoclinic'
loop_
_space_group_symop_operation_xyz
x,y,z
-x,y,-z
-x,-y,-z
x,-y,z
1/2+x,1/2+y,z
1/2-x,1/2+y,-z
1/2-x,1/2-y,-z
1/2+x,1/2-y,z
loop_
_atom_site_type_symbol
_atom_site_label
_atom_site_fract_x
_atom_site_fract_y
_atom_site_fract_z
Si Si1 0.615844 0.336164 0.895454
Si Si2 0.712602 0.835266 0.927557
Si Si3 0.805217 0.164399 0.341720
Si Si4 0.895544 0.664615 0.376799
Si Si5 0.383180 0.837104 0.818889
O O1 0.634014 0.500000 0.899015
O O2 0.653324 0.235269 0.921472
O O3 0.677105 0.294685 0.760481
O O4 0.500000 0.305942 0.000000
O O5 0.820658 0.762187 0.827441
O O6 0.729602 0.000000 0.893062
O O7 0.647370 0.810630 0.066130
O O8 0.881448 0.249973 0.315751
O O9 0.690919 0.202792 0.477338
O O10 0.828923 0.000000 0.331456
O O11 0.894091 0.500000 0.356308
O O12 0.000817 0.705067 0.307314
O O13 0.363758 0.000000 0.815859
#
# Coordination Sequence:
#
# PCOD8095335 Si02
#       5
#     8   8   8   8   8
#     4  10  20  33  49  70  98 129 156 187 232 282
#     4  10  20  32  49  73  96 121 157 197 235 277
#     4   9  18  31  48  72  98 124 157 193 231 278
#     4   9  17  31  51  72  94 123 158 195 234 275
#     4   9  18  33  51  70  94 124 157 194 236 280
#
# _framework density 17.453316999999998
#
# number of rings (size 3 to 8) (size 9 to 14) (size 15 to 20)
#    0.000    2.600    0.000    1.800    0.000    2.800 
#    0.000    1.000    0.000    6.000    0.000    0.000 
#    0.000    0.000    0.000    0.000    0.000    0.000 
#
# Total GULP energy -248049.558921 kJ/mol
# GULP energy per Si atom -12402.477946 kJ/mol
# Density = 1.741359 g / cm^3
# Si number density = 17.453317 Si / 1000 Ang^3
#
#
#
# Elastic Constant Matrix: (Units=GPa)
#
#
# Indices 1 2 3 4 5 6 
#
# 1 113.4959 71.5669 47.8395 0.0000 -9.4636 0.0000
# 2 71.5669 88.5279 41.6154 -0.0003 -5.3000 0.0001
# 3 47.8395 41.6154 75.0853 -0.0002 -13.3107 0.0000
# 4 0.0000 -0.0003 -0.0002 19.7013 0.0000 -1.0339
# 5 -9.4636 -5.3000 -13.3107 0.0000 24.1832 0.0001
# 6 0.0000 0.0001 0.0000 -1.0339 0.0001 40.3123
#
#
#
# Elastic Compliance Matrix: (Units=1/GPa)
#
#
# Indices 1 2 3 4 5 6 
#
# 1 0.019326 -0.013369 -0.004524 0.000000 0.002143 0.000000
# 2 -0.013369 0.024570 -0.005621 0.000000 -0.002941 0.000000
# 3 -0.004524 -0.005621 0.020815 0.000000 0.008454 0.000000
# 4 0.000000 0.000000 0.000000 0.050827 0.000000 0.001304
# 5 0.002143 -0.002941 0.008454 0.000000 0.046198 0.000000
# 6 0.000000 0.000000 0.000000 0.001304 0.000000 0.024840
#
#
# Mechanical properties :
#
#
# Convention : Reuss Voigt Hill
#
# Bulk Modulus (GPa) = 56.55179 66.57252 61.56216
# Shear Modulus (GPa) = 20.87699 24.57850 22.72775
#
# Velocity S-wave (km/s) = 3.46231 3.75673 3.61252
# Velocity P-wave (km/s) = 6.96100 7.55270 7.26288
#
# Compressibility (1/GPa) = 0.01768291
#
# Stress axis : x y z
#
# Youngs Moduli (GPa) = 51.74276 40.70073 48.04232
#
# Poissons Ratio (x) = 0.54411 0.21735
# Poissons Ratio (y) = 0.69173 0.27006
# Poissons Ratio (z) = 0.23409 0.22879
#
# Static dielectric constant tensor:
#      x y z
#    x 3.109650 0.000000 -0.112640 
#    y 0.000000 3.285200 0.000000 
#    z -0.112640 0.000000 3.396980 
# 
# 
# High freq. dielectric constant tensor:
#      x y z
#    x 1.665810 0.000000 -0.011460 
#    y 0.000000 1.676060 0.000000 
#    z -0.011460 0.000000 1.674600 
# 
# From -- ./inp_files/229489.got.cif
#   From: 2010.06.25/outbox.cif.g09.slc.cpg/sg12_115_cif.got.tgz:229489.got - 2010.06.28 00:19:55.
