data_PCOD8095269
_publ_section_title
;
Structure prediction by ZEFSAII (Michael W. Deem and Ramdas Pophale) SiO2 
 PCOD8095269
Probable space group: C 2/M
;
_chemical_formula_sum "Si O2"
_cell_formula_units_Z 56
_cell_length_a 18.123687
_cell_length_b 9.712366
_cell_length_c 25.138633
_cell_angle_alpha 90.000000
_cell_angle_beta 45.496130
_cell_angle_gamma 90.000000
_cell_volume 3155.923565
_symmetry_space_group_name_H-M "C 2/M"
_symmetry_group_IT_number 12
_symmetry_cell_setting 'monoclinic'
loop_
_space_group_symop_operation_xyz
x,y,z
-x,y,-z
-x,-y,-z
x,-y,z
1/2+x,1/2+y,z
1/2-x,1/2+y,-z
1/2-x,1/2-y,-z
1/2+x,1/2-y,z
loop_
_atom_site_type_symbol
_atom_site_label
_atom_site_fract_x
_atom_site_fract_y
_atom_site_fract_z
Si Si1 0.045807 0.337276 0.871038
Si Si2 0.234728 0.846922 0.430168
Si Si3 0.910639 0.335912 0.267769
Si Si4 0.685171 0.839221 0.991919
Si Si5 0.070323 0.337751 0.275058
Si Si6 0.735815 0.160393 0.845511
Si Si7 0.397794 0.848376 0.442589
O O1 0.045382 0.500000 0.866498
O O2 0.074440 0.274560 0.798746
O O3 0.128926 0.289878 0.872637
O O4 0.933094 0.286727 0.946269
O O5 0.300500 0.784458 0.347372
O O6 0.310488 0.852119 0.441920
O O7 0.134622 0.753779 0.493406
O O8 0.193777 0.000000 0.437832
O O9 0.908323 0.500000 0.270319
O O10 0.006301 0.286604 0.255814
O O11 0.693301 0.000000 0.003273
O O12 0.750000 0.750000 0.000000
O O13 0.729309 0.811377 0.911296
O O14 0.095238 0.500000 0.258746
O O15 0.174606 0.250920 0.225670
O O16 0.005664 0.303052 0.361089
O O17 0.757040 0.000000 0.822777
O O18 0.409526 0.000000 0.461775
#
# Coordination Sequence:
#
# PCOD8095269 Si02
#       7
#     8   8   8   8   8   8   8
#     4   9  17  31  50  69  94 127 156 186 230 279
#     4   8  13  22  39  64  89 112 147 194 233 266
#     4   8  14  26  46  69  90 119 159 194 228 277
#     4  10  20  34  53  75  97 122 154 191 230 273
#     4   9  17  30  48  69  94 125 158 190 230 281
#     4  10  20  32  48  72  97 121 155 195 230 269
#     4   8  14  24  39  62  91 120 149 183 229 281
#
# _framework density 17.744409999999998
#
# number of rings (size 3 to 8) (size 9 to 14) (size 15 to 20)
#    0.000    3.143    0.000    3.000    0.000    4.000 
#    0.000    2.857    0.000    5.143    0.000    6.000 
#    0.000    0.000    0.000    0.000    0.000    0.000 
#
# Total GULP energy -347069.723657 kJ/mol
# GULP energy per Si atom -12395.347273 kJ/mol
# Density = 1.770402 g / cm^3
# Si number density = 17.744410 Si / 1000 Ang^3
#
#
#
# Elastic Constant Matrix: (Units=GPa)
#
#
# Indices 1 2 3 4 5 6 
#
# 1 75.7957 33.2706 38.5088 0.0000 -19.7719 0.0001
# 2 33.2706 56.2294 54.4588 0.0000 -15.1604 0.0002
# 3 38.5088 54.4588 127.7628 0.0000 -25.2485 0.0000
# 4 0.0000 0.0000 0.0000 28.2997 0.0000 -4.6859
# 5 -19.7719 -15.1604 -25.2485 0.0000 18.1971 0.0000
# 6 0.0001 0.0002 0.0000 -4.6859 0.0000 19.1541
#
#
#
# Elastic Compliance Matrix: (Units=1/GPa)
#
#
# Indices 1 2 3 4 5 6 
#
# 1 0.020924 -0.008493 0.000562 0.000000 0.016439 0.000000
# 2 -0.008493 0.035141 -0.011652 0.000000 0.003882 0.000000
# 3 0.000562 -0.011652 0.014917 0.000000 0.011600 0.000000
# 4 0.000000 0.000000 0.000000 0.036828 0.000000 0.009010
# 5 0.016439 0.003882 0.011600 0.000000 0.092145 0.000000
# 6 0.000000 0.000000 0.000000 0.009010 0.000000 0.054412
#
#
# Mechanical properties :
#
#
# Convention : Reuss Voigt Hill
#
# Bulk Modulus (GPa) = 31.43015 56.91825 44.17420
# Shear Modulus (GPa) = 16.43998 22.03351 19.23675
#
# Velocity S-wave (km/s) = 3.04713 3.52762 3.29614
# Velocity P-wave (km/s) = 5.48918 6.98130 6.27972
#
# Compressibility (1/GPa) = 0.03181658
#
# Stress axis : x y z
#
# Youngs Moduli (GPa) = 47.79213 28.45683 67.03948
#
# Poissons Ratio (x) = 0.24167 -0.03768
# Poissons Ratio (y) = 0.40588 0.78113
# Poissons Ratio (z) = -0.02686 0.33158
#
# Static dielectric constant tensor:
#      x y z
#    x 3.053190 0.000000 0.045180 
#    y 0.000000 3.112080 0.000000 
#    z 0.045180 0.000000 3.597030 
# 
# 
# High freq. dielectric constant tensor:
#      x y z
#    x 1.655850 0.000000 -0.001490 
#    y 0.000000 1.651520 0.000000 
#    z -0.001490 0.000000 1.704020 
# 
# From -- ./inp_files/343005.got.cif
#   From: 2010.06.25/outbox.cif.g09.slc.cpg/sg12_172_cif.got.tgz:343005.got - 2010.06.28 00:19:55.
