data_PCOD8095957
_publ_section_title
;
Structure prediction by ZEFSAII (Michael W. Deem and Ramdas Pophale) SiO2 
 PCOD8095957
Probable space group: C 2/M
;
_chemical_formula_sum "Si O2"
_cell_formula_units_Z 40
_cell_length_a 18.875471
_cell_length_b 9.307518
_cell_length_c 15.788678
_cell_angle_alpha 90.000000
_cell_angle_beta 126.458653
_cell_angle_gamma 90.000000
_cell_volume 2230.940075
_symmetry_space_group_name_H-M "C 2/M"
_symmetry_group_IT_number 12
_symmetry_cell_setting 'monoclinic'
loop_
_space_group_symop_operation_xyz
x,y,z
-x,y,-z
-x,-y,-z
x,-y,z
1/2+x,1/2+y,z
1/2-x,1/2+y,-z
1/2-x,1/2-y,-z
1/2+x,1/2-y,z
loop_
_atom_site_type_symbol
_atom_site_label
_atom_site_fract_x
_atom_site_fract_y
_atom_site_fract_z
Si Si1 0.881256 0.333747 0.083871
Si Si2 0.762723 0.832768 0.879540
Si Si3 0.168021 0.165721 0.478336
Si Si4 0.759042 0.662594 0.708857
Si Si5 0.571108 0.833138 0.282364
O O1 0.875500 0.500000 0.054133
O O2 0.822626 0.300291 0.124419
O O3 0.980617 0.286339 0.173916
O O4 0.848364 0.242510 0.980505
O O5 0.742913 0.771523 0.773158
O O6 0.783065 0.000000 0.886525
O O7 0.250000 0.250000 0.500000
O O8 0.175384 0.177568 0.585584
O O9 0.081562 0.240958 0.376782
O O10 0.171694 0.000000 0.452423
O O11 0.764311 0.500000 0.747576
O O12 0.850035 0.701633 0.726200
O O13 0.569857 0.000000 0.307220
#
# Coordination Sequence:
#
# PCOD8095957 Si02
#       5
#     8   8   8   8   8
#     4   9  19  36  53  69  95 130 164 199 243 291
#     4  10  20  33  51  73  96 127 164 201 242 287
#     4   9  17  30  49  73 100 130 161 195 240 287
#     4   9  18  32  50  72  98 128 159 194 240 290
#     4   9  18  33  53  74  96 127 165 201 239 284
#
# _framework density 17.929662
#
# number of rings (size 3 to 8) (size 9 to 14) (size 15 to 20)
#    0.000    2.800    0.000    2.400    0.000    6.400 
#    0.000    5.000    0.000    6.000    0.000    0.000 
#    0.000    0.000    0.000    0.000    0.000    0.000 
#
# Total GULP energy -247954.845891 kJ/mol
# GULP energy per Si atom -12397.742295 kJ/mol
# Density = 1.788885 g / cm^3
# Si number density = 17.929662 Si / 1000 Ang^3
#
#
#
# Elastic Constant Matrix: (Units=GPa)
#
#
# Indices 1 2 3 4 5 6 
#
# 1 22.5461 15.8740 11.5158 0.0000 -8.6413 0.0000
# 2 15.8740 87.9589 48.8551 0.0000 -14.4825 0.0000
# 3 11.5158 48.8551 74.6047 0.0000 -22.6910 0.0000
# 4 0.0000 0.0000 0.0000 42.7610 0.0000 -3.0593
# 5 -8.6413 -14.4825 -22.6910 0.0000 17.7313 0.0000
# 6 0.0000 0.0000 0.0000 -3.0593 0.0000 24.0511
#
#
#
# Elastic Compliance Matrix: (Units=1/GPa)
#
#
# Indices 1 2 3 4 5 6 
#
# 1 0.058701 -0.008930 0.005353 0.000000 0.028164 0.000000
# 2 -0.008930 0.019231 -0.012707 0.000000 -0.004906 0.000000
# 3 0.005353 -0.012707 0.030348 0.000000 0.031067 0.000000
# 4 0.000000 0.000000 0.000000 0.023601 0.000000 0.003002
# 5 0.028164 -0.004906 0.031067 0.000000 0.105872 0.000000
# 6 0.000000 0.000000 0.000000 0.003002 0.000000 0.041960
#
#
# Mechanical properties :
#
#
# Convention : Reuss Voigt Hill
#
# Bulk Modulus (GPa) = 13.20796 37.51108 25.35952
# Shear Modulus (GPa) = 14.81403 24.16633 19.49018
#
# Velocity S-wave (km/s) = 2.87754 3.67528 3.30060
# Velocity P-wave (km/s) = 4.29218 6.24315 5.35723
#
# Compressibility (1/GPa) = 0.07571193
#
# Stress axis : x y z
#
# Youngs Moduli (GPa) = 17.03540 52.00049 32.95122
#
# Poissons Ratio (x) = 0.46435 -0.17638
# Poissons Ratio (y) = 0.15212 0.41871
# Poissons Ratio (z) = -0.09119 0.66077
#
# Static dielectric constant tensor:
#      x y z
#    x 3.035220 0.000000 0.118590 
#    y 0.000000 3.464700 0.000000 
#    z 0.118590 0.000000 3.755310 
# 
# 
# High freq. dielectric constant tensor:
#      x y z
#    x 1.657100 0.000000 0.002900 
#    y 0.000000 1.700520 0.000000 
#    z 0.002900 0.000000 1.707390 
# 
# From -- ./inp_files/220563.got.cif
#   From: 2010.06.25/outbox.cif.g09.slc.cpg/sg12_111_cif.got.tgz:220563.got - 2010.06.28 00:19:55.
