data_PCOD8095923
_publ_section_title
;
Structure prediction by ZEFSAII (Michael W. Deem and Ramdas Pophale) SiO2 
 PCOD8095923
Probable space group: C 2/M
;
_chemical_formula_sum "Si O2"
_cell_formula_units_Z 56
_cell_length_a 25.338950
_cell_length_b 8.852709
_cell_length_c 13.727319
_cell_angle_alpha 90.000000
_cell_angle_beta 104.914364
_cell_angle_gamma 90.000000
_cell_volume 2975.553176
_symmetry_space_group_name_H-M "C 2/M"
_symmetry_group_IT_number 12
_symmetry_cell_setting 'monoclinic'
loop_
_space_group_symop_operation_xyz
x,y,z
-x,y,-z
-x,-y,-z
x,-y,z
1/2+x,1/2+y,z
1/2-x,1/2+y,-z
1/2-x,1/2-y,-z
1/2+x,1/2-y,z
loop_
_atom_site_type_symbol
_atom_site_label
_atom_site_fract_x
_atom_site_fract_y
_atom_site_fract_z
Si Si1 0.698982 0.821868 0.593337
Si Si2 0.417218 0.673741 0.776538
Si Si3 0.091131 0.825441 0.001242
Si Si4 0.808175 0.676773 0.039990
Si Si5 0.972924 0.680018 0.198820
Si Si6 0.813162 0.322776 0.634196
Si Si7 0.129416 0.675650 0.735991
O O1 0.755868 0.741325 0.645009
O O2 0.678722 0.782015 0.475587
O O3 0.653231 0.756726 0.646472
O O4 0.708346 0.000000 0.611405
O O5 0.416508 0.500000 0.744874
O O6 0.425921 0.693453 0.895393
O O7 0.467651 0.755630 0.746529
O O8 0.360971 0.748062 0.718037
O O9 0.150876 0.753942 0.016658
O O10 0.092249 0.000000 0.970327
O O11 0.046557 0.738887 0.915523
O O12 0.805878 0.500000 0.015852
O O13 0.750000 0.750000 0.000000
O O14 0.827473 0.709883 0.158627
O O15 0.974548 0.500000 0.195739
O O16 0.930111 0.739747 0.261076
O O17 0.814143 0.500000 0.652834
O O18 0.121773 0.500000 0.716353
#
# Coordination Sequence:
#
# PCOD8095923 Si02
#       7
#     8   8   8   8   8   8   8
#     4   9  18  37  60  79 107 142 175 216 272 332
#     4  11  23  37  55  77 108 148 184 221 269 324
#     4  10  21  36  53  75 106 147 186 217 264 322
#     4  10  20  33  50  77 111 142 179 222 263 316
#     4  10  20  36  57  82 109 139 179 227 269 318
#     4  10  21  35  55  84 109 135 178 228 270 316
#     4   8  17  34  56  77 102 141 177 209 266 328
#
# _framework density 18.820029000000002
#
# number of rings (size 3 to 8) (size 9 to 14) (size 15 to 20)
#    0.000    2.286    0.000    3.429    2.000    4.571 
#    0.000    4.286    0.000    4.286    0.000    0.000 
#    0.000    0.000    0.000    0.000    0.000    0.000 
#
# Total GULP energy -347196.869380 kJ/mol
# GULP energy per Si atom -12399.888192 kJ/mol
# Density = 1.877719 g / cm^3
# Si number density = 18.820029 Si / 1000 Ang^3
#
#
#
# Elastic Constant Matrix: (Units=GPa)
#
#
# Indices 1 2 3 4 5 6 
#
# 1 99.1352 31.8018 30.8161 0.0000 -8.9541 0.0000
# 2 31.8018 60.0747 14.3445 0.0000 -1.3310 0.0000
# 3 30.8161 14.3445 45.3673 0.0000 -10.7103 0.0000
# 4 0.0000 0.0000 0.0000 23.6264 0.0000 3.4719
# 5 -8.9541 -1.3310 -10.7103 0.0000 31.1183 0.0000
# 6 0.0000 0.0000 0.0000 3.4719 0.0000 35.8124
#
#
#
# Elastic Compliance Matrix: (Units=1/GPa)
#
#
# Indices 1 2 3 4 5 6 
#
# 1 0.014446 -0.005784 -0.007685 0.000000 0.001264 0.000000
# 2 -0.005784 0.020369 -0.002937 0.000000 -0.001804 0.000000
# 3 -0.007685 -0.002937 0.030084 0.000000 0.008017 0.000000
# 4 0.000000 0.000000 0.000000 0.042937 0.000000 -0.004163
# 5 0.001264 -0.001804 0.008017 0.000000 0.035181 0.000000
# 6 0.000000 0.000000 0.000000 -0.004163 0.000000 0.028327
#
#
# Mechanical properties :
#
#
# Convention : Reuss Voigt Hill
#
# Bulk Modulus (GPa) = 31.16659 39.83356 35.50007
# Shear Modulus (GPa) = 23.27167 26.61907 24.94537
#
# Velocity S-wave (km/s) = 3.52026 3.76493 3.64465
# Velocity P-wave (km/s) = 5.75493 6.33333 6.05105
#
# Compressibility (1/GPa) = 0.03208564
#
# Stress axis : x y z
#
# Youngs Moduli (GPa) = 69.22398 49.09335 33.24024
#
# Poissons Ratio (x) = 0.28396 0.25546
# Poissons Ratio (y) = 0.40040 0.09764
# Poissons Ratio (z) = 0.53200 0.14421
#
# Static dielectric constant tensor:
#      x y z
#    x 4.061060 0.000000 -0.344080 
#    y 0.000000 3.463790 0.000000 
#    z -0.344080 0.000000 3.431460 
# 
# 
# High freq. dielectric constant tensor:
#      x y z
#    x 1.745020 0.000000 -0.005500 
#    y 0.000000 1.729810 0.000000 
#    z -0.005500 0.000000 1.712930 
# 
# From -- ./inp_files/181020.got.cif
#   From: 2010.06.25/outbox.cif.g09.slc.cpg/sg12_91_cif.got.tgz:181020.got - 2010.06.28 00:19:55.
