data_PCOD8095889
_publ_section_title
;
Structure prediction by ZEFSAII (Michael W. Deem and Ramdas Pophale) SiO2 
 PCOD8095889
Probable space group: C 2/M
;
_chemical_formula_sum "Si O2"
_cell_formula_units_Z 64
_cell_length_a 14.001120
_cell_length_b 9.443104
_cell_length_c 28.362362
_cell_angle_alpha 90.000000
_cell_angle_beta 101.799948
_cell_angle_gamma 90.000000
_cell_volume 3670.657715
_symmetry_space_group_name_H-M "C 2/M"
_symmetry_group_IT_number 12
_symmetry_cell_setting 'monoclinic'
loop_
_space_group_symop_operation_xyz
x,y,z
-x,y,-z
-x,-y,-z
x,-y,z
1/2+x,1/2+y,z
1/2-x,1/2+y,-z
1/2-x,1/2-y,-z
1/2+x,1/2-y,z
loop_
_atom_site_type_symbol
_atom_site_label
_atom_site_fract_x
_atom_site_fract_y
_atom_site_fract_z
Si Si1 0.477338 0.336743 0.756910
Si Si2 0.110892 0.664350 0.008498
Si Si3 0.345459 0.162660 0.499375
Si Si4 0.637660 0.163886 0.820595
Si Si5 0.254527 0.664247 0.739057
Si Si6 0.592981 0.334804 0.674293
Si Si7 0.467895 0.836042 0.421402
Si Si8 0.728469 0.835516 0.927459
O O1 0.486537 0.500000 0.772283
O O2 0.538430 0.248482 0.801092
O O3 0.365999 0.285582 0.747754
O O4 0.516730 0.308925 0.708551
O O5 0.119468 0.500000 0.022564
O O6 0.172482 0.750302 0.053172
O O7 0.149597 0.695615 0.960020
O O8 0.000000 0.717342 0.000000
O O9 0.250000 0.250000 0.500000
O O10 0.428488 0.202684 0.545280
O O11 0.382743 0.193913 0.450449
O O12 0.317317 0.000000 0.501826
O O13 0.716659 0.192450 0.787918
O O14 0.683383 0.218668 0.873947
O O15 0.609004 0.000000 0.821092
O O16 0.243070 0.500000 0.723559
O O17 0.194932 0.757962 0.695794
O O18 0.613527 0.500000 0.667942
O O19 0.545530 0.267404 0.623576
O O20 0.465380 0.000000 0.405051
O O21 0.756221 0.000000 0.927586
#
# Coordination Sequence:
#
# PCOD8095889 Si02
#       8
#     8   8   8   8   8   8   8   8
#     4   9  19  34  50  70  97 126 158 196 237 284
#     4   9  18  32  48  67  94 127 159 193 238 287
#     4   9  19  35  54  75 100 130 164 200 239 284
#     4   9  18  32  50  71  95 124 158 197 240 284
#     4   9  18  34  52  69  95 130 160 191 240 294
#     4  10  20  33  50  74  99 124 160 203 238 274
#     4   9  19  36  53  71 100 135 163 192 239 293
#     4   9  18  32  48  69  96 123 157 199 237 281
#
# _framework density 17.435568
#
# number of rings (size 3 to 8) (size 9 to 14) (size 15 to 20)
#    0.000    2.875    0.000    1.125    0.000    4.750 
#    0.000    5.000    0.000    0.000    0.000    0.000 
#    0.000    0.000    0.000    0.000    0.000    0.000 
#
# Total GULP energy -396875.602649 kJ/mol
# GULP energy per Si atom -12402.362583 kJ/mol
# Density = 1.739588 g / cm^3
# Si number density = 17.435568 Si / 1000 Ang^3
#
#
#
# Elastic Constant Matrix: (Units=GPa)
#
#
# Indices 1 2 3 4 5 6 
#
# 1 122.8021 52.0504 47.0624 0.0000 25.2841 0.0000
# 2 52.0504 72.6498 61.0987 0.0000 12.4112 0.0000
# 3 47.0624 61.0987 126.2626 0.0000 12.4320 0.0000
# 4 0.0000 0.0000 0.0000 34.3579 0.0000 6.1720
# 5 25.2841 12.4112 12.4320 0.0000 18.4276 0.0000
# 6 0.0000 0.0000 0.0000 6.1720 0.0000 30.5657
#
#
#
# Elastic Compliance Matrix: (Units=1/GPa)
#
#
# Indices 1 2 3 4 5 6 
#
# 1 0.014490 -0.007689 -0.000249 0.000000 -0.014535 0.000000
# 2 -0.007689 0.028646 -0.010856 0.000000 -0.001420 0.000000
# 3 -0.000249 -0.010856 0.013403 0.000000 -0.001388 0.000000
# 4 0.000000 0.000000 0.000000 0.030201 0.000000 -0.006098
# 5 -0.014535 -0.001420 -0.001388 0.000000 0.076102 0.000000
# 6 0.000000 0.000000 0.000000 -0.006098 0.000000 0.033948
#
#
# Mechanical properties :
#
#
# Convention : Reuss Voigt Hill
#
# Bulk Modulus (GPa) = 52.76866 71.34861 62.05864
# Shear Modulus (GPa) = 20.77308 27.43712 24.10510
#
# Velocity S-wave (km/s) = 3.45544 3.97120 3.72226
# Velocity P-wave (km/s) = 6.80079 7.87638 7.35827
#
# Compressibility (1/GPa) = 0.01895064
#
# Stress axis : x y z
#
# Youngs Moduli (GPa) = 69.01113 34.90876 74.61070
#
# Poissons Ratio (x) = 0.26842 0.01859
# Poissons Ratio (y) = 0.53063 0.80999
# Poissons Ratio (z) = 0.01720 0.37897
#
# Static dielectric constant tensor:
#      x y z
#    x 3.245870 0.000000 0.036360 
#    y 0.000000 3.207610 0.000000 
#    z 0.036360 0.000000 3.242670 
# 
# 
# High freq. dielectric constant tensor:
#      x y z
#    x 1.673800 0.000000 0.003360 
#    y 0.000000 1.671760 0.000000 
#    z 0.003360 0.000000 1.675110 
# 
# From -- ./inp_files/374805.got.cif
#   From: 2010.06.25/outbox.cif.g09.slc.cpg/sg12_188_cif.got.tgz:374805.got - 2010.06.28 00:19:55.
