data_PCOD8095496
_publ_section_title
;
Structure prediction by ZEFSAII (Michael W. Deem and Ramdas Pophale) SiO2 
 PCOD8095496
Probable space group: C 2/M
;
_chemical_formula_sum "Si O2"
_cell_formula_units_Z 28
_cell_length_a 26.674631
_cell_length_b 7.235295
_cell_length_c 12.193510
_cell_angle_alpha 90.000000
_cell_angle_beta 136.592859
_cell_angle_gamma 90.000000
_cell_volume 1617.158873
_symmetry_space_group_name_H-M "C 2/M"
_symmetry_group_IT_number 12
_symmetry_cell_setting 'monoclinic'
loop_
_space_group_symop_operation_xyz
x,y,z
-x,y,-z
-x,-y,-z
x,-y,z
1/2+x,1/2+y,z
1/2-x,1/2+y,-z
1/2-x,1/2-y,-z
1/2+x,1/2-y,z
loop_
_atom_site_type_symbol
_atom_site_label
_atom_site_fract_x
_atom_site_fract_y
_atom_site_fract_z
Si Si1 0.165163 0.708762 0.865809
Si Si2 0.422423 0.783046 0.057163
Si Si3 0.913158 0.000000 0.867657
Si Si4 0.416480 0.500000 0.402377
Si Si5 0.952470 0.000000 0.703002
O O1 0.149081 0.500000 0.808553
O O2 0.135497 0.754392 0.939235
O O3 0.123526 0.821092 0.706962
O O4 0.250000 0.750000 0.000000
O O5 0.498064 0.684940 0.211424
O O6 0.435849 0.000000 0.056470
O O7 0.388883 0.685314 0.894643
O O8 0.890960 0.000000 0.703508
O O9 0.000000 0.000000 0.000000
O O10 0.500000 0.500000 0.500000
O O11 0.408129 0.500000 0.519955
#
# Coordination Sequence:
#
# PCOD8095496 Si02
#       5
#     8   8   4   4   4
#     4  11  22  35  57  85 109 148 188 220 279 338
#     4   9  17  31  52  80 108 140 183 226 264 326
#     4   8  17  30  49  78 108 146 176 221 274 320
#     4  12  21  38  57  80 123 142 174 243 280 315
#     4  10  20  32  52  80 112 144 175 224 283 318
#
# _framework density 17.314316000000002
#
# number of rings (size 3 to 8) (size 9 to 14) (size 15 to 20)
#    0.000    2.286    4.286    0.857    0.000    6.857 
#    0.000    0.000    0.000    1.714    0.000    0.000 
#    0.000    0.000    0.000    0.000    0.000    0.000 
#
# Total GULP energy -173516.467107 kJ/mol
# GULP energy per Si atom -12394.033365 kJ/mol
# Density = 1.727491 g / cm^3
# Si number density = 17.314316 Si / 1000 Ang^3
#
#
#
# Elastic Constant Matrix: (Units=GPa)
#
#
# Indices 1 2 3 4 5 6 
#
# 1 119.1227 68.1493 70.8282 0.0000 -32.1735 0.0000
# 2 68.1493 149.8387 54.6717 0.0000 -20.8669 0.0000
# 3 70.8282 54.6717 106.2812 0.0000 -20.5553 0.0000
# 4 0.0000 0.0000 0.0000 22.2649 0.0000 -1.8768
# 5 -32.1735 -20.8669 -20.5553 0.0000 34.4242 0.0000
# 6 0.0000 0.0000 0.0000 -1.8768 0.0000 27.7413
#
#
#
# Elastic Compliance Matrix: (Units=1/GPa)
#
#
# Indices 1 2 3 4 5 6 
#
# 1 0.018108 -0.003901 -0.008191 0.000000 0.009668 0.000000
# 2 -0.003901 0.009298 -0.002033 0.000000 0.000776 0.000000
# 3 -0.008191 -0.002033 0.016048 0.000000 0.000695 0.000000
# 4 0.000000 0.000000 0.000000 0.045171 0.000000 0.003056
# 5 0.009668 0.000776 0.000695 0.000000 0.038971 0.000000
# 6 0.000000 0.000000 0.000000 0.003056 0.000000 0.036254
#
#
# Mechanical properties :
#
#
# Convention : Reuss Voigt Hill
#
# Bulk Modulus (GPa) = 65.77302 84.72676 75.24989
# Shear Modulus (GPa) = 25.35911 28.99230 27.17570
#
# Velocity S-wave (km/s) = 3.83120 4.09647 3.96605
# Velocity P-wave (km/s) = 7.59216 8.45077 8.03295
#
# Compressibility (1/GPa) = 0.01520380
#
# Stress axis : x y z
#
# Youngs Moduli (GPa) = 55.22500 107.55086 62.31337
#
# Poissons Ratio (x) = 0.41951 0.51041
# Poissons Ratio (y) = 0.21541 0.12670
# Poissons Ratio (z) = 0.45235 0.21868
#
# Static dielectric constant tensor:
#      x y z
#    x 3.859490 0.000000 -0.451840 
#    y 0.000000 3.510440 0.000000 
#    z -0.451840 0.000000 3.165890 
# 
# 
# High freq. dielectric constant tensor:
#      x y z
#    x 1.678890 0.000000 -0.024220 
#    y 0.000000 1.684300 0.000000 
#    z -0.024220 0.000000 1.628530 
# 
# From -- ./inp_files/178976.got.cif
#   From: 2010.06.25/outbox.cif.g09.slc.cpg/sg12_90_cif.got.tgz:178976.got - 2010.06.28 00:19:55.
