data_PCOD8095284
_publ_section_title
;
Structure prediction by ZEFSAII (Michael W. Deem and Ramdas Pophale) SiO2 
 PCOD8095284
Probable space group: C 2/M
;
_chemical_formula_sum "Si O2"
_cell_formula_units_Z 48
_cell_length_a 24.367343
_cell_length_b 11.026824
_cell_length_c 12.392281
_cell_angle_alpha 90.000000
_cell_angle_beta 121.274906
_cell_angle_gamma 90.000000
_cell_volume 2845.880149
_symmetry_space_group_name_H-M "C 2/M"
_symmetry_group_IT_number 12
_symmetry_cell_setting 'monoclinic'
loop_
_space_group_symop_operation_xyz
x,y,z
-x,y,-z
-x,-y,-z
x,-y,z
1/2+x,1/2+y,z
1/2-x,1/2+y,-z
1/2-x,1/2-y,-z
1/2+x,1/2-y,z
loop_
_atom_site_type_symbol
_atom_site_label
_atom_site_fract_x
_atom_site_fract_y
_atom_site_fract_z
Si Si1 0.910123 0.859782 0.415544
Si Si2 0.608812 0.000000 0.555318
Si Si3 0.822618 0.855380 0.662237
Si Si4 0.989375 0.235172 0.312907
Si Si5 0.037499 0.141896 0.139368
Si Si6 0.190209 0.729404 0.580229
Si Si7 0.467410 0.000000 0.325811
O O1 0.929054 0.825736 0.312934
O O2 0.834997 0.826337 0.356342
O O3 0.950116 0.780230 0.544023
O O4 0.923751 0.000000 0.452606
O O5 0.644920 0.886766 0.541734
O O6 0.533527 0.000000 0.458141
O O7 0.601099 0.000000 0.678361
O O8 0.888993 0.811137 0.784128
O O9 0.817087 0.791099 0.542453
O O10 0.763826 0.809523 0.677404
O O11 0.819826 0.000000 0.643345
O O12 0.971692 0.374140 0.263552
O O13 0.001181 0.168201 0.213266
O O14 0.039382 0.000000 0.124068
O O15 0.000000 0.202738 0.000000
#
# Coordination Sequence:
#
# PCOD8095284 Si02
#       7
#     8   4   8   8   8   8   4
#     4  11  19  29  49  76 107 131 159 213 263 305
#     4  11  16  30  42  72 105 136 161 194 256 311
#     4  10  20  32  48  73 104 138 173 207 250 308
#     4  11  19  31  49  77 102 131 169 207 260 301
#     4  10  20  36  55  74 101 136 176 215 247 292
#     4  11  19  29  48  73 107 134 163 204 258 311
#     4  11  18  28  49  72 106 130 163 209 245 313
#
# _framework density 16.866486999999999
#
# number of rings (size 3 to 8) (size 9 to 14) (size 15 to 20)
#    0.000    1.333    5.833    3.500    0.000    0.000 
#    0.000    0.417    0.000    1.000    0.000    0.000 
#    0.000    0.000    0.000    0.000    0.000    0.000 
#
# Total GULP energy -297313.166641 kJ/mol
# GULP energy per Si atom -12388.048610 kJ/mol
# Density = 1.682810 g / cm^3
# Si number density = 16.866487 Si / 1000 Ang^3
#
#
#
# Elastic Constant Matrix: (Units=GPa)
#
#
# Indices 1 2 3 4 5 6 
#
# 1 146.6637 26.7346 47.6183 0.0000 4.8856 0.0000
# 2 26.7346 66.2905 8.1429 0.0000 11.4656 0.0000
# 3 47.6183 8.1429 71.3963 0.0000 2.4084 0.0000
# 4 0.0000 0.0000 0.0000 -31.9829 0.0000 68.2871
# 5 4.8856 11.4656 2.4084 0.0000 16.3467 0.0000
# 6 0.0000 0.0000 0.0000 68.2871 0.0000 -84.9732
#
#
#
# Elastic Compliance Matrix: (Units=1/GPa)
#
#
# Indices 1 2 3 4 5 6 
#
# 1 0.009263 -0.003060 -0.005837 0.000000 0.000238 0.000000
# 2 -0.003060 0.018353 0.000353 0.000000 -0.012010 0.000000
# 3 -0.005837 0.000353 0.017898 0.000000 -0.001140 0.000000
# 4 0.000000 0.000000 0.000000 0.043678 0.000000 0.035101
# 5 0.000238 -0.012010 -0.001140 0.000000 0.069695 0.000000
# 6 0.000000 0.000000 0.000000 0.035101 0.000000 0.016440
#
#
# Mechanical properties :
#
#
# Convention : Reuss Voigt Hill
#
# Bulk Modulus (GPa) = 35.17985 49.92692 42.55339
# Shear Modulus (GPa) = 24.76571 -6.66490 9.05041
#
# Velocity S-wave (km/s) = 3.83605 -1.99001 2.31896
# Velocity P-wave (km/s) = 6.36580 4.93815 5.69688
#
# Compressibility (1/GPa) = 0.02842536
#
# Stress axis : x y z
#
# Youngs Moduli (GPa) = 107.95127 54.48651 55.87280
#
# Poissons Ratio (x) = 0.16673 0.32615
# Poissons Ratio (y) = 0.33033 -0.01971
# Poissons Ratio (z) = 0.63015 -0.01922
#
# Static dielectric constant tensor:
#      x y z
#    x 3.751800 0.000000 0.092680 
#    y 0.000000 3.346380 0.000000 
#    z 0.092680 0.000000 2.820610 
# 
# 
# High freq. dielectric constant tensor:
#      x y z
#    x 1.676080 0.000000 -0.006850 
#    y 0.000000 1.662530 0.000000 
#    z -0.006850 0.000000 1.575930 
# 
# From -- ./inp_files/174095.got.cif
#   From: 2010.06.25/outbox.cif.g09.slc.cpg/sg12_88_cif.got.tgz:174095.got - 2010.06.28 00:19:55.
