data_PCOD8095616
_publ_section_title
;
Structure prediction by ZEFSAII (Michael W. Deem and Ramdas Pophale) SiO2 
 PCOD8095616
Probable space group: C 2/M
;
_chemical_formula_sum "Si O2"
_cell_formula_units_Z 56
_cell_length_a 29.750693
_cell_length_b 9.049405
_cell_length_c 18.724105
_cell_angle_alpha 90.000000
_cell_angle_beta 141.796189
_cell_angle_gamma 90.000000
_cell_volume 3117.670851
_symmetry_space_group_name_H-M "C 2/M"
_symmetry_group_IT_number 12
_symmetry_cell_setting 'monoclinic'
loop_
_space_group_symop_operation_xyz
x,y,z
-x,y,-z
-x,-y,-z
x,-y,z
1/2+x,1/2+y,z
1/2-x,1/2+y,-z
1/2-x,1/2-y,-z
1/2+x,1/2-y,z
loop_
_atom_site_type_symbol
_atom_site_label
_atom_site_fract_x
_atom_site_fract_y
_atom_site_fract_z
Si Si1 0.361811 0.327454 0.251977
Si Si2 0.563278 0.326367 0.024792
Si Si3 0.220089 0.166480 0.066342
Si Si4 0.221437 0.163233 0.238015
Si Si5 0.638766 0.673726 0.586541
Si Si6 0.998996 0.173888 0.327023
Si Si7 0.073551 0.324362 0.888196
O O1 0.343645 0.500000 0.228173
O O2 0.293557 0.244520 0.129632
O O3 0.373625 0.271336 0.347876
O O4 0.434523 0.288363 0.301006
O O5 0.562406 0.500000 0.003103
O O6 0.640170 0.286216 0.159270
O O7 0.500000 0.283254 0.000000
O O8 0.552717 0.230795 0.940763
O O9 0.222241 0.165885 0.153909
O O10 0.214991 0.000000 0.029110
O O11 0.149127 0.256368 0.953215
O O12 0.284049 0.268443 0.347556
O O13 0.237973 0.000000 0.288001
O O14 0.640851 0.500000 0.586677
O O15 0.573383 0.731301 0.455667
O O16 0.989591 0.267221 0.243148
O O17 0.001318 0.000000 0.312188
O O18 0.078891 0.500000 0.894632
#
# Coordination Sequence:
#
# PCOD8095616 Si02
#       7
#     8   8   8   8   8   8   8
#     4   9  17  30  49  72  95 124 169 218 253 282
#     4   9  18  35  59  82 102 125 153 189 240 301
#     4   9  17  31  49  68  95 130 165 202 247 297
#     4   8  15  28  48  74  99 123 153 192 238 286
#     4   9  17  30  49  71  96 130 170 207 242 283
#     4  10  20  33  48  67  97 136 171 204 245 293
#     4  11  22  34  49  72 101 130 162 201 245 291
#
# _framework density 17.962128
#
# number of rings (size 3 to 8) (size 9 to 14) (size 15 to 20)
#    0.000    2.714    0.000    3.000    0.000    7.143 
#    0.000    0.000    0.000    5.143    0.000    0.000 
#    0.000    0.000    0.000    0.000    0.000    0.000 
#
# Total GULP energy -347154.602512 kJ/mol
# GULP energy per Si atom -12398.378661 kJ/mol
# Density = 1.792125 g / cm^3
# Si number density = 17.962128 Si / 1000 Ang^3
#
#
#
# Elastic Constant Matrix: (Units=GPa)
#
#
# Indices 1 2 3 4 5 6 
#
# 1 75.8584 29.3283 44.6007 0.0000 21.9068 0.0000
# 2 29.3283 68.6742 41.3895 0.0000 1.2630 0.0000
# 3 44.6007 41.3895 117.8458 0.0000 13.9182 0.0000
# 4 0.0000 0.0000 0.0000 28.5795 0.0000 5.5981
# 5 21.9068 1.2630 13.9182 0.0000 22.3436 0.0000
# 6 0.0000 0.0000 0.0000 5.5981 0.0000 22.1391
#
#
#
# Elastic Compliance Matrix: (Units=1/GPa)
#
#
# Indices 1 2 3 4 5 6 
#
# 1 0.024712 -0.007657 -0.004159 0.000000 -0.021205 0.000000
# 2 -0.007657 0.021063 -0.005662 0.000000 0.009844 0.000000
# 3 -0.004159 -0.005662 0.012445 0.000000 -0.003354 0.000000
# 4 0.000000 0.000000 0.000000 0.036813 0.000000 -0.009309
# 5 -0.021205 0.009844 -0.003354 0.000000 0.067079 0.000000
# 6 0.000000 0.000000 0.000000 -0.009309 0.000000 0.047523
#
#
# Mechanical properties :
#
#
# Convention : Reuss Voigt Hill
#
# Bulk Modulus (GPa) = 42.98692 54.77947 48.88320
# Shear Modulus (GPa) = 19.81409 24.41645 22.11527
#
# Velocity S-wave (km/s) = 3.32490 3.69091 3.51268
# Velocity P-wave (km/s) = 6.22285 6.98048 6.61253
#
# Compressibility (1/GPa) = 0.02326289
#
# Stress axis : x y z
#
# Youngs Moduli (GPa) = 40.46661 47.47609 80.35635
#
# Poissons Ratio (x) = 0.36352 0.33419
# Poissons Ratio (y) = 0.30985 0.45502
# Poissons Ratio (z) = 0.16829 0.26883
#
# Static dielectric constant tensor:
#      x y z
#    x 3.177570 0.000000 0.259990 
#    y 0.000000 3.288320 0.000000 
#    z 0.259990 0.000000 3.520040 
# 
# 
# High freq. dielectric constant tensor:
#      x y z
#    x 1.667230 0.000000 0.018020 
#    y 0.000000 1.688230 0.000000 
#    z 0.018020 0.000000 1.694900 
# 
# From -- ./inp_files/281639.got.cif
#   From: 2010.06.25/outbox.cif.g09.slc.cpg/sg12_141_cif.got.tgz:281639.got - 2010.06.28 00:19:55.
