data_PCOD8095857
_publ_section_title
;
Structure prediction by ZEFSAII (Michael W. Deem and Ramdas Pophale) SiO2 
 PCOD8095857
Probable space group: C 2/M
;
_chemical_formula_sum "Si O2"
_cell_formula_units_Z 48
_cell_length_a 18.425209
_cell_length_b 8.981517
_cell_length_c 32.506555
_cell_angle_alpha 90.000000
_cell_angle_beta 150.065750
_cell_angle_gamma 90.000000
_cell_volume 2684.347343
_symmetry_space_group_name_H-M "C 2/M"
_symmetry_group_IT_number 12
_symmetry_cell_setting 'monoclinic'
loop_
_space_group_symop_operation_xyz
x,y,z
-x,y,-z
-x,-y,-z
x,-y,z
1/2+x,1/2+y,z
1/2-x,1/2+y,-z
1/2-x,1/2-y,-z
1/2+x,1/2-y,z
loop_
_atom_site_type_symbol
_atom_site_label
_atom_site_fract_x
_atom_site_fract_y
_atom_site_fract_z
Si Si1 0.330715 0.826149 0.663936
Si Si2 0.080149 0.331423 0.582661
Si Si3 0.585525 0.826344 0.083095
Si Si4 0.637598 0.675689 0.822733
Si Si5 0.812125 0.674995 0.990814
Si Si6 0.824410 0.174917 0.497529
O O1 0.236188 0.746155 0.653002
O O2 0.493699 0.769809 0.746911
O O3 0.273027 0.789102 0.590099
O O4 0.323180 0.000000 0.669384
O O5 0.103079 0.500000 0.609431
O O6 0.000000 0.327021 0.500000
O O7 0.985396 0.243165 0.569972
O O8 0.751025 0.767100 0.158912
O O9 0.600565 0.000000 0.097030
O O10 0.500000 0.790497 0.000000
O O11 0.479325 0.762974 0.066769
O O12 0.604215 0.500000 0.802282
O O13 0.709419 0.712748 0.901838
O O14 0.817395 0.500000 0.000214
O O15 0.750000 0.750000 0.000000
O O16 0.750000 0.250000 0.500000
O O17 0.840338 0.000000 0.513228
#
# Coordination Sequence:
#
# PCOD8095857 Si02
#       6
#     8   8   8   8   8   8
#     4  10  20  33  50  74 102 129 160 202 247 291
#     4   9  17  31  52  74  96 127 165 201 241 293
#     4   7  12  26  47  67  88 119 160 197 228 273
#     4   9  17  31  51  71  92 125 167 203 237 285
#     4   9  17  30  49  72  96 124 159 200 244 290
#     4  10  20  34  52  74 100 130 165 204 246 293
#
# _framework density 17.881440999999999
#
# number of rings (size 3 to 8) (size 9 to 14) (size 15 to 20)
#    0.000    3.000    0.000    3.500    0.000    4.667 
#    0.000    2.500    0.000   11.000    0.000    0.000 
#    0.000    0.000    0.000    0.000    0.000    0.000 
#
# Total GULP energy -297328.532584 kJ/mol
# GULP energy per Si atom -12388.688858 kJ/mol
# Density = 1.784074 g / cm^3
# Si number density = 17.881441 Si / 1000 Ang^3
#
#
#
# Elastic Constant Matrix: (Units=GPa)
#
#
# Indices 1 2 3 4 5 6 
#
# 1 180.0588 66.7579 58.3843 0.0000 36.8441 0.0000
# 2 66.7579 84.5895 39.2475 0.0000 12.9932 0.0001
# 3 58.3843 39.2475 72.2673 0.0000 31.2576 0.0000
# 4 0.0000 0.0000 0.0000 25.9791 0.0000 3.2218
# 5 36.8441 12.9932 31.2576 0.0000 32.9074 0.0000
# 6 0.0000 0.0001 0.0000 3.2218 0.0000 34.0117
#
#
#
# Elastic Compliance Matrix: (Units=1/GPa)
#
#
# Indices 1 2 3 4 5 6 
#
# 1 0.009659 -0.005789 -0.001648 0.000000 -0.006964 0.000000
# 2 -0.005789 0.019480 -0.009130 0.000000 0.007462 0.000000
# 3 -0.001648 -0.009130 0.030162 0.000000 -0.023200 0.000000
# 4 0.000000 0.000000 0.000000 0.038950 0.000000 -0.003690
# 5 -0.006964 0.007462 -0.023200 0.000000 0.057276 0.000000
# 6 0.000000 0.000000 0.000000 -0.003690 0.000000 0.029751
#
#
# Mechanical properties :
#
#
# Convention : Reuss Voigt Hill
#
# Bulk Modulus (GPa) = 38.21532 73.96610 56.09071
# Shear Modulus (GPa) = 22.01335 30.08137 26.04736
#
# Velocity S-wave (km/s) = 3.51247 4.10600 3.82078
# Velocity P-wave (km/s) = 6.15368 7.99584 7.13447
#
# Compressibility (1/GPa) = 0.02616752
#
# Stress axis : x y z
#
# Youngs Moduli (GPa) = 103.52749 51.33349 33.15450
#
# Poissons Ratio (x) = 0.29717 0.05463
# Poissons Ratio (y) = 0.59931 0.30272
# Poissons Ratio (z) = 0.17058 0.46870
#
# Static dielectric constant tensor:
#      x y z
#    x 3.611280 0.000000 0.376640 
#    y 0.000000 3.194920 0.000000 
#    z 0.376640 0.000000 3.129120 
# 
# 
# High freq. dielectric constant tensor:
#      x y z
#    x 1.705890 0.000000 0.031580 
#    y 0.000000 1.679980 0.000000 
#    z 0.031580 0.000000 1.663030 
# 
# From -- ./inp_files/319379.got.cif
#   From: 2010.06.25/outbox.cif.g09.slc.cpg/sg12_160_cif.got.tgz:319379.got - 2010.06.28 00:19:55.
