data_PCOD8095903
_publ_section_title
;
Structure prediction by ZEFSAII (Michael W. Deem and Ramdas Pophale) SiO2 
 PCOD8095903
Probable space group: C 2/M
;
_chemical_formula_sum "Si O2"
_cell_formula_units_Z 48
_cell_length_a 25.520305
_cell_length_b 8.787058
_cell_length_c 11.809613
_cell_angle_alpha 90.000000
_cell_angle_beta 89.981936
_cell_angle_gamma 90.000000
_cell_volume 2648.286691
_symmetry_space_group_name_H-M "C 2/M"
_symmetry_group_IT_number 12
_symmetry_cell_setting 'monoclinic'
loop_
_space_group_symop_operation_xyz
x,y,z
-x,y,-z
-x,-y,-z
x,-y,z
1/2+x,1/2+y,z
1/2-x,1/2+y,-z
1/2-x,1/2-y,-z
1/2+x,1/2-y,z
loop_
_atom_site_type_symbol
_atom_site_label
_atom_site_fract_x
_atom_site_fract_y
_atom_site_fract_z
Si Si1 0.692524 0.180085 0.505780
Si Si2 0.655444 0.819531 0.264232
Si Si3 0.350989 0.320722 0.270738
Si Si4 0.940165 0.319723 0.879210
Si Si5 0.557865 0.819775 0.865310
Si Si6 0.746589 0.679628 0.877692
O O1 0.750000 0.250000 0.500000
O O2 0.659927 0.230688 0.394589
O O3 0.659344 0.239405 0.610767
O O4 0.698918 0.000000 0.511740
O O5 0.602679 0.750656 0.207518
O O6 0.705667 0.755812 0.197042
O O7 0.654378 0.000000 0.254280
O O8 0.349615 0.500000 0.290967
O O9 0.407078 0.269310 0.224605
O O10 0.307115 0.268401 0.181256
O O11 0.938875 0.500000 0.878042
O O12 0.998084 0.267782 0.841542
O O13 0.926964 0.267496 0.007352
O O14 0.565384 0.000000 0.849460
O O15 0.749740 0.500000 0.888789
O O16 0.750000 0.750000 0.000000
#
# Coordination Sequence:
#
# PCOD8095903 Si02
#       6
#     8   8   8   8   8   8
#     4  11  21  36  56  76 103 142 182 220 264 313
#     4   9  17  32  52  75 104 135 170 217 264 306
#     4  11  22  36  52  76 109 142 176 217 262 315
#     4   8  15  30  55  82 107 133 172 220 264 312
#     4   9  17  32  56  83 105 136 176 215 261 316
#     4  10  20  33  50  76 106 133 167 212 264 315
#
# _framework density 18.124925999999999
#
# number of rings (size 3 to 8) (size 9 to 14) (size 15 to 20)
#    0.000    2.333    1.667    3.000    0.000    2.667 
#    0.000    2.500    0.000    9.000    0.000    0.000 
#    0.000    0.000    0.000    0.000    0.000    0.000 
#
# Total GULP energy -297575.150521 kJ/mol
# GULP energy per Si atom -12398.964605 kJ/mol
# Density = 1.808367 g / cm^3
# Si number density = 18.124926 Si / 1000 Ang^3
#
#
#
# Elastic Constant Matrix: (Units=GPa)
#
#
# Indices 1 2 3 4 5 6 
#
# 1 132.3470 29.4033 77.7386 0.0000 -5.7071 0.0000
# 2 29.4033 39.1888 38.7765 0.0000 0.7676 0.0000
# 3 77.7386 38.7765 155.3909 0.0000 -7.9321 0.0000
# 4 0.0000 0.0000 0.0000 26.0071 0.0000 -4.5498
# 5 -5.7071 0.7676 -7.9321 0.0000 32.6703 0.0000
# 6 0.0000 0.0000 0.0000 -4.5498 0.0000 24.6872
#
#
#
# Elastic Compliance Matrix: (Units=1/GPa)
#
#
# Indices 1 2 3 4 5 6 
#
# 1 0.011131 -0.003860 -0.004558 0.000000 0.000928 0.000000
# 2 -0.003860 0.035493 -0.007091 0.000000 -0.003230 0.000000
# 3 -0.004558 -0.007091 0.010584 0.000000 0.001940 0.000000
# 4 0.000000 0.000000 0.000000 0.039732 0.000000 0.007323
# 5 0.000928 -0.003230 0.001940 0.000000 0.031318 0.000000
# 6 0.000000 0.000000 0.000000 0.007323 0.000000 0.041856
#
#
# Mechanical properties :
#
#
# Convention : Reuss Voigt Hill
#
# Bulk Modulus (GPa) = 38.18129 68.75152 53.46641
# Shear Modulus (GPa) = 23.82526 28.74013 26.28269
#
# Velocity S-wave (km/s) = 3.62954 3.98637 3.81213
# Velocity P-wave (km/s) = 6.21901 7.69432 6.99566
#
# Compressibility (1/GPa) = 0.02619084
#
# Stress axis : x y z
#
# Youngs Moduli (GPa) = 89.84205 28.17462 94.48101
#
# Poissons Ratio (x) = 0.10874 0.43064
# Poissons Ratio (y) = 0.34675 0.66996
# Poissons Ratio (z) = 0.40949 0.19979
#
# Static dielectric constant tensor:
#      x y z
#    x 3.564610 0.000000 0.220770 
#    y 0.000000 3.055460 0.000000 
#    z 0.220770 0.000000 3.534940 
# 
# 
# High freq. dielectric constant tensor:
#      x y z
#    x 1.708130 0.000000 0.000390 
#    y 0.000000 1.671490 0.000000 
#    z 0.000390 0.000000 1.707090 
# 
# From -- ./inp_files/172070.got.cif
#   From: 2010.06.25/outbox.cif.g09.slc.cpg/sg12_87_cif.got.tgz:172070.got - 2010.06.28 00:19:55.
