data_PCOD8095860
_publ_section_title
;
Structure prediction by ZEFSAII (Michael W. Deem and Ramdas Pophale) SiO2 
 PCOD8095860
Probable space group: C 2/M
;
_chemical_formula_sum "Si O2"
_cell_formula_units_Z 56
_cell_length_a 18.152131
_cell_length_b 9.496355
_cell_length_c 25.450248
_cell_angle_alpha 90.000000
_cell_angle_beta 136.120142
_cell_angle_gamma 90.000000
_cell_volume 3040.904997
_symmetry_space_group_name_H-M "C 2/M"
_symmetry_group_IT_number 12
_symmetry_cell_setting 'monoclinic'
loop_
_space_group_symop_operation_xyz
x,y,z
-x,y,-z
-x,-y,-z
x,-y,z
1/2+x,1/2+y,z
1/2-x,1/2+y,-z
1/2-x,1/2-y,-z
1/2+x,1/2-y,z
loop_
_atom_site_type_symbol
_atom_site_label
_atom_site_fract_x
_atom_site_fract_y
_atom_site_fract_z
Si Si1 0.805806 0.662908 0.720604
Si Si2 0.256510 0.160210 0.579149
Si Si3 0.988966 0.837732 0.156198
Si Si4 0.418753 0.662913 0.003390
Si Si5 0.647469 0.667046 0.726947
Si Si6 0.790479 0.165766 0.125205
Si Si7 0.411189 0.664506 0.591592
O O1 0.832732 0.500000 0.744997
O O2 0.740652 0.682237 0.633023
O O3 0.733327 0.727207 0.729838
O O4 0.915426 0.745513 0.772794
O O5 0.350361 0.259523 0.607484
O O6 0.145471 0.197213 0.493211
O O7 0.289375 0.000000 0.583081
O O8 0.975451 0.808577 0.087724
O O9 0.883011 0.792690 0.132440
O O10 0.015527 0.000000 0.181296
O O11 0.386415 0.500000 0.980359
O O12 0.500000 0.710870 0.000000
O O13 0.314251 0.755848 0.947166
O O14 0.647456 0.500000 0.723692
O O15 0.677407 0.719289 0.800416
O O16 0.531020 0.723789 0.651181
O O17 0.767502 0.000000 0.112854
O O18 0.410887 0.500000 0.605082
#
# Coordination Sequence:
#
# PCOD8095860 Si02
#       7
#     8   8   8   8   8   8   8
#     4  10  20  33  50  74 102 129 163 207 248 288
#     4   9  18  31  49  75 101 127 164 206 245 288
#     4  10  21  36  53  74 100 131 167 202 242 296
#     4  10  21  36  53  75 103 131 161 201 248 295
#     4   9  18  32  50  73  99 129 166 204 244 292
#     4  10  20  34  53  75  98 128 168 206 240 289
#     4   9  17  32  53  72  97 134 167 199 243 292
#
# _framework density 18.415571
#
# number of rings (size 3 to 8) (size 9 to 14) (size 15 to 20)
#    0.000    2.429    0.000    2.143    0.000    3.714 
#    0.000    4.286    0.000    0.000    0.000    5.000 
#    0.000    0.000    0.000    0.000    0.000    0.000 
#
# Total GULP energy -347265.737456 kJ/mol
# GULP energy per Si atom -12402.347766 kJ/mol
# Density = 1.837366 g / cm^3
# Si number density = 18.415571 Si / 1000 Ang^3
#
#
#
# Elastic Constant Matrix: (Units=GPa)
#
#
# Indices 1 2 3 4 5 6 
#
# 1 101.4342 24.1761 25.3569 0.0000 -9.7463 0.0000
# 2 24.1761 37.2404 25.4950 0.0000 4.6497 0.0000
# 3 25.3569 25.4950 70.9246 0.0000 1.3756 0.0000
# 4 0.0000 0.0000 0.0000 25.8181 0.0000 3.0423
# 5 -9.7463 4.6497 1.3756 0.0000 33.9267 0.0000
# 6 0.0000 0.0000 0.0000 3.0423 0.0000 21.4092
#
#
#
# Elastic Compliance Matrix: (Units=1/GPa)
#
#
# Indices 1 2 3 4 5 6 
#
# 1 0.012560 -0.007434 -0.001909 0.000000 0.004704 0.000000
# 2 -0.007434 0.040676 -0.011824 0.000000 -0.007231 0.000000
# 3 -0.001909 -0.011824 0.019026 0.000000 0.000300 0.000000
# 4 0.000000 0.000000 0.000000 0.039392 0.000000 -0.005598
# 5 0.004704 -0.007231 0.000300 0.000000 0.031805 0.000000
# 6 0.000000 0.000000 0.000000 -0.005598 0.000000 0.047504
#
#
# Mechanical properties :
#
#
# Convention : Reuss Voigt Hill
#
# Bulk Modulus (GPa) = 33.41306 39.96169 36.68737
# Shear Modulus (GPa) = 20.55296 25.20222 22.87759
#
# Velocity S-wave (km/s) = 3.34438 3.70337 3.52845
# Velocity P-wave (km/s) = 5.75295 6.32722 6.04691
#
# Compressibility (1/GPa) = 0.02992842
#
# Stress axis : x y z
#
# Youngs Moduli (GPa) = 79.61951 24.58456 52.55833
#
# Poissons Ratio (x) = 0.18276 0.10035
# Poissons Ratio (y) = 0.59188 0.62143
# Poissons Ratio (z) = 0.15202 0.29068
#
# Static dielectric constant tensor:
#      x y z
#    x 3.544140 0.000000 -0.100100 
#    y 0.000000 3.203720 0.000000 
#    z -0.100100 0.000000 3.449700 
# 
# 
# High freq. dielectric constant tensor:
#      x y z
#    x 1.720410 0.000000 -0.006640 
#    y 0.000000 1.692380 0.000000 
#    z -0.006640 0.000000 1.725020 
# 
# From -- ./inp_files/342313.got.cif
#   From: 2010.06.25/outbox.cif.g09.slc.cpg/sg12_172_cif.got.tgz:342313.got - 2010.06.28 00:19:55.
