data_PCOD8095810
_publ_section_title
;
Structure prediction by ZEFSAII (Michael W. Deem and Ramdas Pophale) SiO2 
 PCOD8095810
Probable space group: C 2/M
;
_chemical_formula_sum "Si O2"
_cell_formula_units_Z 64
_cell_length_a 19.592480
_cell_length_b 9.055523
_cell_length_c 20.309480
_cell_angle_alpha 90.000000
_cell_angle_beta 113.077667
_cell_angle_gamma 90.000000
_cell_volume 3314.953761
_symmetry_space_group_name_H-M "C 2/M"
_symmetry_group_IT_number 12
_symmetry_cell_setting 'monoclinic'
loop_
_space_group_symop_operation_xyz
x,y,z
-x,y,-z
-x,-y,-z
x,-y,z
1/2+x,1/2+y,z
1/2-x,1/2+y,-z
1/2-x,1/2-y,-z
1/2+x,1/2-y,z
loop_
_atom_site_type_symbol
_atom_site_label
_atom_site_fract_x
_atom_site_fract_y
_atom_site_fract_z
Si Si1 0.393124 0.166506 0.289770
Si Si2 0.703717 0.673478 0.926018
Si Si3 0.172341 0.666874 0.537851
Si Si4 0.441526 0.327521 0.425783
Si Si5 0.056968 0.331628 0.839172
Si Si6 0.247961 0.326604 0.201441
Si Si7 0.321382 0.169546 0.605337
Si Si8 0.392419 0.174172 0.768683
O O1 0.451462 0.246030 0.360030
O O2 0.430175 0.174620 0.233310
O O3 0.314147 0.247827 0.264996
O O4 0.379933 0.000000 0.307673
O O5 0.701347 0.500000 0.937266
O O6 0.619281 0.732539 0.897865
O O7 0.745156 0.712965 0.873220
O O8 0.750000 0.750000 0.000000
O O9 0.161980 0.500000 0.560159
O O10 0.137300 0.785182 0.573759
O O11 0.258080 0.708787 0.573802
O O12 0.138061 0.677632 0.450616
O O13 0.500000 0.264808 0.500000
O O14 0.449982 0.500000 0.417260
O O15 0.064526 0.500000 0.867998
O O16 0.974129 0.265166 0.820519
O O17 0.257216 0.500000 0.216847
O O18 0.169813 0.269690 0.202608
O O19 0.373115 0.219467 0.686101
O O20 0.292914 0.000000 0.605918
O O21 0.398661 0.000000 0.774862
#
# Coordination Sequence:
#
# PCOD8095810 Si02
#       8
#     8   8   8   8   8   8   8   8
#     4  10  20  34  55  79 105 137 177 226 276 330
#     4  10  20  36  59  85 113 147 183 215 256 309
#     4  10  20  33  50  73 100 132 178 227 274 329
#     4  11  24  37  49  67  97 138 183 230 279 324
#     4   9  19  35  57  84 112 140 175 218 270 326
#     4   9  18  34  58  84 110 142 180 217 258 318
#     4   9  18  32  53  75 102 138 172 214 272 335
#     4   9  17  32  55  80 105 138 177 218 266 319
#
# _framework density 19.306453999999999
#
# number of rings (size 3 to 8) (size 9 to 14) (size 15 to 20)
#    0.000    2.375    0.000    2.250    1.750    3.500 
#    0.000    1.875    0.000    3.750    0.000    0.000 
#    0.000    0.000    0.000    0.000    0.000    0.000 
#
# Total GULP energy -396624.696402 kJ/mol
# GULP energy per Si atom -12394.521763 kJ/mol
# Density = 1.926251 g / cm^3
# Si number density = 19.306454 Si / 1000 Ang^3
#
#
#
# Elastic Constant Matrix: (Units=GPa)
#
#
# Indices 1 2 3 4 5 6 
#
# 1 83.4762 23.4826 30.0338 0.0000 16.8979 0.0000
# 2 23.4826 65.3340 48.7805 0.0000 8.2354 0.0000
# 3 30.0338 48.7805 119.0032 0.0000 18.0664 0.0000
# 4 0.0000 0.0000 0.0000 30.8183 0.0000 2.3145
# 5 16.8979 8.2354 18.0664 0.0000 23.2780 0.0000
# 6 0.0000 0.0000 0.0000 2.3145 0.0000 20.1280
#
#
#
# Elastic Compliance Matrix: (Units=1/GPa)
#
#
# Indices 1 2 3 4 5 6 
#
# 1 0.015159 -0.003571 -0.001001 0.000000 -0.008964 0.000000
# 2 -0.003571 0.022914 -0.008677 0.000000 0.001220 0.000000
# 3 -0.001001 -0.008677 0.013190 0.000000 -0.006441 0.000000
# 4 0.000000 0.000000 0.000000 0.032731 0.000000 -0.003764
# 5 -0.008964 0.001220 -0.006441 0.000000 0.054033 0.000000
# 6 0.000000 0.000000 0.000000 -0.003764 0.000000 0.050115
#
#
# Mechanical properties :
#
#
# Convention : Reuss Voigt Hill
#
# Bulk Modulus (GPa) = 40.37894 52.48971 46.43432
# Shear Modulus (GPa) = 22.43215 25.87929 24.15572
#
# Velocity S-wave (km/s) = 3.41236 3.66518 3.54103
# Velocity P-wave (km/s) = 6.04034 6.71998 6.38920
#
# Compressibility (1/GPa) = 0.02476539
#
# Stress axis : x y z
#
# Youngs Moduli (GPa) = 65.96870 43.64150 75.81391
#
# Poissons Ratio (x) = 0.15585 0.07590
# Poissons Ratio (y) = 0.23558 0.65780
# Poissons Ratio (z) = 0.06604 0.37866
#
# Static dielectric constant tensor:
#      x y z
#    x 3.655090 0.000000 0.011900 
#    y 0.000000 3.424960 0.000000 
#    z 0.011900 0.000000 3.553210 
# 
# 
# High freq. dielectric constant tensor:
#      x y z
#    x 1.743600 0.000000 -0.000180 
#    y 0.000000 1.739710 0.000000 
#    z -0.000180 0.000000 1.745920 
# 
# From -- ./inp_files/320061.got.cif
#   From: 2010.06.25/outbox.cif.g09.slc.cpg/sg12_161_cif.got.tgz:320061.got - 2010.06.28 00:19:55.
