data_PCOD8095969
_publ_section_title
;
Structure prediction by ZEFSAII (Michael W. Deem and Ramdas Pophale) SiO2 
 PCOD8095969
Probable space group: C 2/M
;
_chemical_formula_sum "Si O2"
_cell_formula_units_Z 56
_cell_length_a 14.829950
_cell_length_b 9.305250
_cell_length_c 24.584921
_cell_angle_alpha 90.000000
_cell_angle_beta 62.138636
_cell_angle_gamma 90.000000
_cell_volume 2999.359963
_symmetry_space_group_name_H-M "C 2/M"
_symmetry_group_IT_number 12
_symmetry_cell_setting 'monoclinic'
loop_
_space_group_symop_operation_xyz
x,y,z
-x,y,-z
-x,-y,-z
x,-y,z
1/2+x,1/2+y,z
1/2-x,1/2+y,-z
1/2-x,1/2-y,-z
1/2+x,1/2-y,z
loop_
_atom_site_type_symbol
_atom_site_label
_atom_site_fract_x
_atom_site_fract_y
_atom_site_fract_z
Si Si1 0.639042 0.666957 0.692390
Si Si2 0.410252 0.669307 0.782974
Si Si3 0.600135 0.341964 0.436831
Si Si4 0.672785 0.832161 0.090630
Si Si5 0.098669 0.166832 0.008509
Si Si6 0.737578 0.664018 0.558302
Si Si7 0.818747 0.162755 0.696461
O O1 0.665022 0.500000 0.692142
O O2 0.529230 0.706295 0.746502
O O3 0.643967 0.703345 0.625640
O O4 0.719588 0.752980 0.705293
O O5 0.392681 0.500000 0.797535
O O6 0.359994 0.760095 0.844443
O O7 0.359836 0.724978 0.741378
O O8 0.500000 0.329138 0.500000
O O9 0.649880 0.500000 0.435853
O O10 0.664639 0.203273 0.433898
O O11 0.588983 0.330683 0.374417
O O12 0.606467 0.760309 0.061106
O O13 0.646132 0.000000 0.098025
O O14 0.794761 0.807487 0.052861
O O15 0.086026 0.000000 0.028436
O O16 0.000000 0.214904 0.000000
O O17 0.735223 0.500000 0.541557
O O18 0.750000 0.750000 0.500000
O O19 0.783405 0.000000 0.715426
#
# Coordination Sequence:
#
# PCOD8095969 Si02
#       7
#     8   8   8   8   8   8   8
#     4   9  20  37  55  74 103 141 182 225 274 334
#     4  10  21  37  57  78 108 152 188 221 271 332
#     4   9  18  32  53  75  99 133 173 221 277 338
#     4  10  21  36  56  87 118 144 184 231 266 310
#     4   9  19  38  62  85 115 153 185 217 263 320
#     4  10  20  33  51  74 101 131 172 225 279 335
#     4   9  19  35  54  77 105 138 182 229 275 328
#
# _framework density 18.670649999999998
#
# number of rings (size 3 to 8) (size 9 to 14) (size 15 to 20)
#    0.000    2.571    0.000    0.857    2.000    4.000 
#    0.000    4.286    0.000    0.000    0.000    0.000 
#    0.000    0.000    0.000    0.000    0.000    0.000 
#
# Total GULP energy -346887.836764 kJ/mol
# GULP energy per Si atom -12388.851313 kJ/mol
# Density = 1.862815 g / cm^3
# Si number density = 18.670650 Si / 1000 Ang^3
#
#
#
# Elastic Constant Matrix: (Units=GPa)
#
#
# Indices 1 2 3 4 5 6 
#
# 1 114.2654 48.1392 68.9578 0.0000 13.1275 0.0000
# 2 48.1392 68.2787 67.5010 0.0000 6.5526 0.0000
# 3 68.9578 67.5010 158.4037 0.0000 14.4318 0.0000
# 4 0.0000 0.0000 0.0000 33.5295 0.0000 6.0138
# 5 13.1275 6.5526 14.4318 0.0000 26.0827 0.0000
# 6 0.0000 0.0000 0.0000 6.0138 0.0000 20.6529
#
#
#
# Elastic Compliance Matrix: (Units=1/GPa)
#
#
# Indices 1 2 3 4 5 6 
#
# 1 0.013595 -0.006415 -0.002852 0.000000 -0.003653 0.000000
# 2 -0.006415 0.028339 -0.009403 0.000000 0.001312 0.000000
# 3 -0.002852 -0.009403 0.011811 0.000000 -0.002737 0.000000
# 4 0.000000 0.000000 0.000000 0.031468 0.000000 -0.009163
# 5 -0.003653 0.001312 -0.002737 0.000000 0.041363 0.000000
# 6 0.000000 0.000000 0.000000 -0.009163 0.000000 0.051088
#
#
# Mechanical properties :
#
#
# Convention : Reuss Voigt Hill
#
# Bulk Modulus (GPa) = 60.95800 78.90487 69.93144
# Shear Modulus (GPa) = 22.67879 26.47634 24.57756
#
# Velocity S-wave (km/s) = 3.48900 3.76982 3.63212
# Velocity P-wave (km/s) = 6.99649 7.82955 7.42471
#
# Compressibility (1/GPa) = 0.01640474
#
# Stress axis : x y z
#
# Youngs Moduli (GPa) = 73.55734 35.28755 84.66887
#
# Poissons Ratio (x) = 0.22637 0.24146
# Poissons Ratio (y) = 0.47188 0.79613
# Poissons Ratio (z) = 0.20977 0.33180
#
# Static dielectric constant tensor:
#      x y z
#    x 3.338430 0.000000 0.095190 
#    y 0.000000 3.442370 0.000000 
#    z 0.095190 0.000000 3.830990 
# 
# 
# High freq. dielectric constant tensor:
#      x y z
#    x 1.710320 0.000000 0.004480 
#    y 0.000000 1.724830 0.000000 
#    z 0.004480 0.000000 1.736840 
# 
# From -- ./inp_files/338583.got.cif
#   From: 2010.06.25/outbox.cif.g09.slc.cpg/sg12_170_cif.got.tgz:338583.got - 2010.06.28 00:19:55.
