data_PCOD8095902
_publ_section_title
;
Structure prediction by ZEFSAII (Michael W. Deem and Ramdas Pophale) SiO2 
 PCOD8095902
Probable space group: C 2/M
;
_chemical_formula_sum "Si O2"
_cell_formula_units_Z 56
_cell_length_a 19.365108
_cell_length_b 28.011011
_cell_length_c 9.355364
_cell_angle_alpha 90.000000
_cell_angle_beta 34.706546
_cell_angle_gamma 90.000000
_cell_volume 2889.392949
_symmetry_space_group_name_H-M "C 2/M"
_symmetry_group_IT_number 12
_symmetry_cell_setting 'monoclinic'
loop_
_space_group_symop_operation_xyz
x,y,z
-x,y,-z
-x,-y,-z
x,-y,z
1/2+x,1/2+y,z
1/2-x,1/2+y,-z
1/2-x,1/2-y,-z
1/2+x,1/2-y,z
loop_
_atom_site_type_symbol
_atom_site_label
_atom_site_fract_x
_atom_site_fract_y
_atom_site_fract_z
Si Si1 0.240441 0.866450 0.231311
Si Si2 0.353870 0.445110 0.100388
Si Si3 0.774402 0.144196 0.078227
Si Si4 0.133755 0.705479 0.818048
Si Si5 0.367347 0.445837 0.405929
Si Si6 0.181505 0.280241 0.429989
Si Si7 0.016936 0.199325 0.636131
O O1 0.360836 0.843647 0.099395
O O2 0.215310 0.918791 0.336831
O O3 0.127207 0.835924 0.478070
O O4 0.254805 0.864918 0.037074
O O5 0.310814 0.500000 0.150460
O O6 0.271324 0.408226 0.153410
O O7 0.341988 0.430384 0.286173
O O8 0.489850 0.439334 0.808604
O O9 0.673763 0.178132 0.323426
O O10 0.899027 0.172799 0.897927
O O11 0.203697 0.697240 0.548552
O O12 0.201573 0.746029 0.797608
O O13 0.000000 0.720466 0.000000
O O14 0.328531 0.500000 0.493891
O O15 0.054061 0.250196 0.644156
O O16 0.000000 0.210414 0.500000
#
# Coordination Sequence:
#
# PCOD8095902 Si02
#       7
#     8   8   8   8   8   8   8
#     4  10  20  33  50  76 104 142 175 210 267 318
#     4   9  18  31  52  80 109 141 172 210 263 316
#     4  11  20  33  53  77 112 144 172 218 262 316
#     4  10  21  37  52  71 102 134 184 228 259 306
#     4   9  17  32  52  79 110 138 173 213 258 319
#     4  10  21  34  52  76  98 139 185 216 266 311
#     4   9  19  32  48  72 106 137 175 213 262 309
#
# _framework density 19.381233999999999
#
# number of rings (size 3 to 8) (size 9 to 14) (size 15 to 20)
#    0.000    2.286    1.429    2.571    0.000    6.857 
#    2.571    1.429    0.000    0.429    0.000    0.000 
#    0.000    5.143    0.000    0.000    0.000    0.000 
#
# Total GULP energy -347004.322106 kJ/mol
# GULP energy per Si atom -12393.011504 kJ/mol
# Density = 1.933712 g / cm^3
# Si number density = 19.381234 Si / 1000 Ang^3
#
#
#
# Elastic Constant Matrix: (Units=GPa)
#
#
# Indices 1 2 3 4 5 6 
#
# 1 74.1821 48.1528 23.3025 0.0001 12.1027 -0.0001
# 2 48.1528 112.2145 32.8611 0.0000 19.9592 0.0000
# 3 23.3025 32.8611 37.4171 0.0001 14.7100 -0.0001
# 4 0.0001 0.0000 0.0001 31.0323 0.0000 6.4827
# 5 12.1027 19.9592 14.7100 0.0000 30.7780 0.0000
# 6 -0.0001 0.0000 -0.0001 6.4827 0.0000 30.1892
#
#
#
# Elastic Compliance Matrix: (Units=1/GPa)
#
#
# Indices 1 2 3 4 5 6 
#
# 1 0.019818 -0.006542 -0.006405 0.000000 -0.000490 0.000000
# 2 -0.006542 0.014449 -0.007318 0.000000 -0.003300 0.000000
# 3 -0.006405 -0.007318 0.042218 0.000000 -0.012914 0.000000
# 4 0.000000 0.000000 0.000000 0.033738 0.000000 -0.007245
# 5 -0.000490 -0.003300 -0.012914 0.000000 0.040995 0.000000
# 6 0.000000 0.000000 0.000000 -0.007245 0.000000 0.034680
#
#
# Mechanical properties :
#
#
# Convention : Reuss Voigt Hill
#
# Bulk Modulus (GPa) = 27.81149 48.04962 37.93055
# Shear Modulus (GPa) = 20.97204 26.36640 23.66922
#
# Velocity S-wave (km/s) = 3.29307 3.69237 3.49842
# Velocity P-wave (km/s) = 5.37028 6.55925 5.99432
#
# Compressibility (1/GPa) = 0.03595637
#
# Stress axis : x y z
#
# Youngs Moduli (GPa) = 50.45796 69.21098 23.68647
#
# Poissons Ratio (x) = 0.45276 0.15171
# Poissons Ratio (y) = 0.33008 0.17334
# Poissons Ratio (z) = 0.32317 0.50649
#
# Static dielectric constant tensor:
#      x y z
#    x 3.483070 0.000000 0.102620 
#    y 0.000000 3.505440 0.000000 
#    z 0.102620 0.000000 3.244700 
# 
# 
# High freq. dielectric constant tensor:
#      x y z
#    x 1.747060 0.000000 0.023490 
#    y 0.000000 1.748280 0.000000 
#    z 0.023490 0.000000 1.724760 
# 
# From -- ./inp_files/53150.got.cif
#   From: 2010.06.25/outbox.cif.g09.slc.cpg/sg12_27_cif.got.tgz:53150.got - 2010.06.28 00:19:55.
