data_PCOD8095156
_publ_section_title
;
Structure prediction by ZEFSAII (Michael W. Deem and Ramdas Pophale) SiO2 
 PCOD8095156
Probable space group: C 2/M
;
_chemical_formula_sum "Si O2"
_cell_formula_units_Z 64
_cell_length_a 31.468648
_cell_length_b 8.970356
_cell_length_c 15.861269
_cell_angle_alpha 90.000000
_cell_angle_beta 54.681466
_cell_angle_gamma 90.000000
_cell_volume 3653.335627
_symmetry_space_group_name_H-M "C 2/M"
_symmetry_group_IT_number 12
_symmetry_cell_setting 'monoclinic'
loop_
_space_group_symop_operation_xyz
x,y,z
-x,y,-z
-x,-y,-z
x,-y,z
1/2+x,1/2+y,z
1/2-x,1/2+y,-z
1/2-x,1/2-y,-z
1/2+x,1/2-y,z
loop_
_atom_site_type_symbol
_atom_site_label
_atom_site_fract_x
_atom_site_fract_y
_atom_site_fract_z
Si Si1 0.861470 0.324774 0.417602
Si Si2 0.770098 0.325571 0.854243
Si Si3 0.533741 0.176315 0.787376
Si Si4 0.206454 0.323846 0.355979
Si Si5 0.071822 0.823932 0.089740
Si Si6 0.308945 0.672389 0.327860
Si Si7 0.084016 0.171581 0.882697
Si Si8 0.672969 0.174462 0.040775
O O1 0.858077 0.500000 0.409274
O O2 0.919848 0.270657 0.328792
O O3 0.845106 0.276857 0.531669
O O4 0.819136 0.256556 0.403184
O O5 0.756034 0.500000 0.867083
O O6 0.796716 0.267690 0.736921
O O7 0.810339 0.290310 0.882551
O O8 0.716148 0.238259 0.927763
O O9 0.481840 0.255841 0.813283
O O10 0.546651 0.228735 0.867408
O O11 0.525891 0.000000 0.795440
O O12 0.211986 0.500000 0.348211
O O13 0.257794 0.258694 0.342726
O O14 0.118401 0.755100 0.090027
O O15 0.072124 0.000000 0.101626
O O16 0.077247 0.776808 0.986222
O O17 0.301719 0.500000 0.358543
O O18 0.356029 0.697458 0.208906
O O19 0.067188 0.000000 0.889218
O O20 0.666713 0.000000 0.031050
#
# Coordination Sequence:
#
# PCOD8095156 Si02
#       8
#     8   8   8   8   8   8   8   8
#     4   9  18  31  46  66  95 128 160 197 236 272
#     4   9  18  34  54  74  98 127 156 187 230 286
#     4  10  20  32  46  68  98 127 158 201 245 277
#     4   9  16  29  50  71  92 125 165 195 225 274
#     4  11  21  33  51  70  92 127 166 197 231 284
#     4   9  16  27  45  68  95 124 155 192 230 275
#     4   9  18  31  46  67  94 126 162 194 230 283
#     4  10  20  33  51  76 102 123 149 192 241 284
#
# _framework density 17.518236000000002
#
# number of rings (size 3 to 8) (size 9 to 14) (size 15 to 20)
#    0.000    2.500    0.000    2.625    0.000    5.500 
#    0.000    3.750    0.000    0.750    0.000    5.250 
#    0.000    0.000    0.000    0.000    0.000    0.000 
#
# Total GULP energy -396787.138903 kJ/mol
# GULP energy per Si atom -12399.598091 kJ/mol
# Density = 1.747836 g / cm^3
# Si number density = 17.518236 Si / 1000 Ang^3
#
#
#
# Elastic Constant Matrix: (Units=GPa)
#
#
# Indices 1 2 3 4 5 6 
#
# 1 115.8652 42.4232 65.0951 0.0000 -12.0229 0.0000
# 2 42.4232 51.0996 32.3452 0.0000 -3.4884 0.0001
# 3 65.0951 32.3452 127.9458 0.0000 4.6058 0.0000
# 4 0.0000 0.0000 0.0000 20.2206 0.0000 -1.5863
# 5 -12.0229 -3.4884 4.6058 0.0000 20.3452 0.0000
# 6 0.0000 0.0001 0.0000 -1.5863 0.0000 28.7770
#
#
#
# Elastic Compliance Matrix: (Units=1/GPa)
#
#
# Indices 1 2 3 4 5 6 
#
# 1 0.016596 -0.008984 -0.006523 0.000000 0.009744 0.000000
# 2 -0.008984 0.028758 -0.002708 0.000000 0.000235 0.000000
# 3 -0.006523 -0.002708 0.012073 0.000000 -0.007052 0.000000
# 4 0.000000 0.000000 0.000000 0.049669 0.000000 0.002738
# 5 0.009744 0.000235 -0.007052 0.000000 0.056546 0.000000
# 6 0.000000 0.000000 0.000000 0.002738 0.000000 0.034901
#
#
# Mechanical properties :
#
#
# Convention : Reuss Voigt Hill
#
# Bulk Modulus (GPa) = 47.62510 63.84861 55.73685
# Shear Modulus (GPa) = 20.66348 24.20502 22.43425
#
# Velocity S-wave (km/s) = 3.43817 3.72116 3.58246
# Velocity P-wave (km/s) = 6.55793 7.41544 6.99983
#
# Compressibility (1/GPa) = 0.02099733
#
# Stress axis : x y z
#
# Youngs Moduli (GPa) = 60.25569 34.77277 82.82925
#
# Poissons Ratio (x) = 0.31239 0.54031
# Poissons Ratio (y) = 0.54133 0.22429
# Poissons Ratio (z) = 0.39306 0.09416
#
# Static dielectric constant tensor:
#      x y z
#    x 3.208200 0.000000 -0.071550 
#    y 0.000000 3.149720 0.000000 
#    z -0.071550 0.000000 3.523570 
# 
# 
# High freq. dielectric constant tensor:
#      x y z
#    x 1.663100 0.000000 -0.010990 
#    y 0.000000 1.667370 0.000000 
#    z -0.010990 0.000000 1.676340 
# 
# From -- ./inp_files/248997.got.cif
#   From: 2010.06.25/outbox.cif.g09.slc.cpg/sg12_125_cif.got.tgz:248997.got - 2010.06.28 00:19:55.
