data_PCOD8095438
_publ_section_title
;
Structure prediction by ZEFSAII (Michael W. Deem and Ramdas Pophale) SiO2 
 PCOD8095438
Probable space group: C 2/M
;
_chemical_formula_sum "Si O2"
_cell_formula_units_Z 56
_cell_length_a 19.369711
_cell_length_b 8.931061
_cell_length_c 31.678759
_cell_angle_alpha 90.000000
_cell_angle_beta 145.093905
_cell_angle_gamma 90.000000
_cell_volume 3135.937108
_symmetry_space_group_name_H-M "C 2/M"
_symmetry_group_IT_number 12
_symmetry_cell_setting 'monoclinic'
loop_
_space_group_symop_operation_xyz
x,y,z
-x,y,-z
-x,-y,-z
x,-y,z
1/2+x,1/2+y,z
1/2-x,1/2+y,-z
1/2-x,1/2-y,-z
1/2+x,1/2-y,z
loop_
_atom_site_type_symbol
_atom_site_label
_atom_site_fract_x
_atom_site_fract_y
_atom_site_fract_z
Si Si1 0.145902 0.821037 0.420296
Si Si2 0.157215 0.828682 0.806645
Si Si3 0.274781 0.175585 0.950049
Si Si4 0.116335 0.171186 0.312796
Si Si5 0.679957 0.677791 0.255234
Si Si6 0.435269 0.676687 0.092883
Si Si7 0.394416 0.176126 0.303328
O O1 0.250000 0.750000 0.500000
O O2 0.161721 0.759650 0.380101
O O3 0.016990 0.766491 0.372941
O O4 0.149684 0.000000 0.424625
O O5 0.255382 0.782089 0.891101
O O6 0.169212 0.720388 0.772590
O O7 0.027079 0.811707 0.763211
O O8 0.175118 0.000000 0.800551
O O9 0.158840 0.230103 0.918563
O O10 0.291644 0.000000 0.963590
O O11 0.395411 0.255086 0.027764
O O12 0.176511 0.246057 0.301312
O O13 0.155816 0.000000 0.333735
O O14 0.664960 0.500000 0.250614
O O15 0.567139 0.739888 0.171465
O O16 0.805031 0.723245 0.296254
O O17 0.437405 0.500000 0.089234
O O18 0.421274 0.000000 0.316743
#
# Coordination Sequence:
#
# PCOD8095438 Si02
#       7
#     8   8   8   8   8   8   8
#     4  10  20  36  59  80 102 130 160 196 237 287
#     4   9  16  30  50  69  94 132 173 209 246 294
#     4   9  16  27  45  69  95 126 168 214 255 291
#     4   8  14  28  52  75  92 124 169 203 232 279
#     4   9  16  30  50  73  99 129 167 206 244 291
#     4   9  16  27  46  69  95 126 164 213 255 287
#     4  10  20  32  51  77 103 128 159 203 249 293
#
# _framework density 17.857500999999999
#
# number of rings (size 3 to 8) (size 9 to 14) (size 15 to 20)
#    0.000    2.857    1.429    1.714    0.000    0.571 
#    0.000    2.857    0.000   17.143    0.000    0.000 
#    0.000    0.000    0.000    0.000    0.000    0.000 
#
# Total GULP energy -347037.704788 kJ/mol
# GULP energy per Si atom -12394.203742 kJ/mol
# Density = 1.781686 g / cm^3
# Si number density = 17.857501 Si / 1000 Ang^3
#
#
#
# Elastic Constant Matrix: (Units=GPa)
#
#
# Indices 1 2 3 4 5 6 
#
# 1 110.3423 29.0949 64.9231 -0.0001 -5.3975 -0.0001
# 2 29.0949 39.4090 33.9664 0.0000 -0.5605 -0.0006
# 3 64.9231 33.9664 149.4207 0.0000 -11.2207 0.0000
# 4 -0.0001 0.0000 0.0000 29.7366 0.0000 -1.5559
# 5 -5.3975 -0.5605 -11.2207 0.0000 18.7457 0.0000
# 6 -0.0001 -0.0006 0.0000 -1.5559 0.0000 19.5390
#
#
#
# Elastic Compliance Matrix: (Units=1/GPa)
#
#
# Indices 1 2 3 4 5 6 
#
# 1 0.013239 -0.006056 -0.004296 0.000000 0.001059 0.000000
# 2 -0.006056 0.034550 -0.005524 0.000000 -0.004017 0.000001
# 3 -0.004296 -0.005524 0.010167 0.000000 0.004683 0.000000
# 4 0.000000 0.000000 0.000000 0.033769 0.000000 0.002689
# 5 0.001059 -0.004017 0.004683 0.000000 0.056334 0.000000
# 6 0.000000 0.000001 0.000000 0.002689 0.000000 0.051394
#
#
# Mechanical properties :
#
#
# Convention : Reuss Voigt Hill
#
# Bulk Modulus (GPa) = 38.16389 61.68231 49.92310
# Shear Modulus (GPa) = 20.83847 25.01676 22.92762
#
# Velocity S-wave (km/s) = 3.41974 3.74693 3.58707
# Velocity P-wave (km/s) = 6.08363 7.30313 6.72110
#
# Compressibility (1/GPa) = 0.02620278
#
# Stress axis : x y z
#
# Youngs Moduli (GPa) = 75.53314 28.94328 98.36105
#
# Poissons Ratio (x) = 0.17529 0.42257
# Poissons Ratio (y) = 0.45746 0.54336
# Poissons Ratio (z) = 0.32450 0.15989
#
# Static dielectric constant tensor:
#      x y z
#    x 3.352940 0.000000 -0.232670 
#    y 0.000000 3.027510 0.000000 
#    z -0.232670 0.000000 3.397060 
# 
# 
# High freq. dielectric constant tensor:
#      x y z
#    x 1.676010 0.000000 -0.015180 
#    y 0.000000 1.661460 0.000000 
#    z -0.015180 0.000000 1.690350 
# 
# From -- ./inp_files/377718.got.cif
#   From: 2010.06.25/outbox.cif.g09.slc.cpg/sg12_189_cif.got.tgz:377718.got - 2010.06.28 00:19:55.
