data_PCOD8095968
_publ_section_title
;
Structure prediction by ZEFSAII (Michael W. Deem and Ramdas Pophale) SiO2 
 PCOD8095968
Probable space group: C 2/M
;
_chemical_formula_sum "Si O2"
_cell_formula_units_Z 64
_cell_length_a 15.564224
_cell_length_b 9.407444
_cell_length_c 28.229358
_cell_angle_alpha 90.000000
_cell_angle_beta 57.485491
_cell_angle_gamma 90.000000
_cell_volume 3485.452956
_symmetry_space_group_name_H-M "C 2/M"
_symmetry_group_IT_number 12
_symmetry_cell_setting 'monoclinic'
loop_
_space_group_symop_operation_xyz
x,y,z
-x,y,-z
-x,-y,-z
x,-y,z
1/2+x,1/2+y,z
1/2-x,1/2+y,-z
1/2-x,1/2-y,-z
1/2+x,1/2-y,z
loop_
_atom_site_type_symbol
_atom_site_label
_atom_site_fract_x
_atom_site_fract_y
_atom_site_fract_z
Si Si1 0.863376 0.167065 0.370789
Si Si2 0.718737 0.835873 0.182346
Si Si3 0.512021 0.666390 0.240841
Si Si4 0.099251 0.165298 0.059926
Si Si5 0.233149 0.838538 0.937138
Si Si6 0.454330 0.332177 0.442111
Si Si7 0.657645 0.331443 0.430430
Si Si8 0.414656 0.668601 0.173055
O O1 0.912142 0.228786 0.405008
O O2 0.760335 0.248482 0.388074
O O3 0.943279 0.200804 0.306212
O O4 0.839227 0.000000 0.381842
O O5 0.618908 0.742698 0.215976
O O6 0.779356 0.816581 0.114947
O O7 0.799240 0.779211 0.197745
O O8 0.688082 0.000000 0.199162
O O9 0.533747 0.500000 0.229155
O O10 0.455413 0.727945 0.211058
O O11 0.179163 0.236793 0.071063
O O12 0.987552 0.220992 0.108197
O O13 0.106253 0.000000 0.069347
O O14 0.127040 0.197022 0.996545
O O15 0.265351 0.000000 0.939352
O O16 0.456740 0.500000 0.439025
O O17 0.570255 0.282433 0.418865
O O18 0.378764 0.284448 0.506419
O O19 0.677022 0.500000 0.421965
O O20 0.411630 0.500000 0.175426
#
# Coordination Sequence:
#
# PCOD8095968 Si02
#       8
#     8   8   8   8   8   8   8   8
#     4  10  20  33  51  74 101 131 166 207 244 285
#     4  10  20  34  52  73  97 125 164 211 247 283
#     4  10  21  37  52  69  98 135 169 200 244 297
#     4   9  16  29  50  71  96 128 156 189 243 304
#     4   9  17  28  47  75  98 119 155 203 245 283
#     4   8  16  32  52  75 104 135 162 196 245 295
#     4   9  17  32  54  76 101 133 166 198 241 296
#     4   9  18  33  52  71  95 130 164 197 245 298
#
# _framework density 18.362031999999999
#
# number of rings (size 3 to 8) (size 9 to 14) (size 15 to 20)
#    0.000    2.750    1.250    1.125    0.000    2.000 
#    0.000    5.625    0.000    0.000    0.000    4.375 
#    0.000    0.000    0.000    0.000    0.000    0.000 
#
# Total GULP energy -396599.698143 kJ/mol
# GULP energy per Si atom -12393.740567 kJ/mol
# Density = 1.832024 g / cm^3
# Si number density = 18.362032 Si / 1000 Ang^3
#
#
#
# Elastic Constant Matrix: (Units=GPa)
#
#
# Indices 1 2 3 4 5 6 
#
# 1 135.8790 35.6434 63.0720 0.0000 -16.7695 0.0000
# 2 35.6434 32.3616 34.4454 0.0000 -6.3575 0.0001
# 3 63.0720 34.4454 96.9793 0.0000 -12.5344 0.0000
# 4 0.0000 0.0000 0.0000 14.5265 0.0000 -4.6084
# 5 -16.7695 -6.3575 -12.5344 0.0000 15.6091 0.0000
# 6 0.0000 0.0001 0.0000 -4.6084 0.0000 26.1153
#
#
#
# Elastic Compliance Matrix: (Units=1/GPa)
#
#
# Indices 1 2 3 4 5 6 
#
# 1 0.012162 -0.007387 -0.004448 0.000000 0.006486 0.000000
# 2 -0.007387 0.054820 -0.014290 0.000000 0.002916 0.000000
# 3 -0.004448 -0.014290 0.018868 0.000000 0.004553 0.000000
# 4 0.000000 0.000000 0.000000 0.072922 0.000000 0.012868
# 5 0.006486 0.002916 0.004553 0.000000 0.075877 0.000000
# 6 0.000000 0.000000 0.000000 0.012868 0.000000 0.040563
#
#
# Mechanical properties :
#
#
# Convention : Reuss Voigt Hill
#
# Bulk Modulus (GPa) = 29.76122 59.06018 44.41070
# Shear Modulus (GPa) = 14.76394 20.05410 17.40902
#
# Velocity S-wave (km/s) = 2.83865 3.30836 3.08246
# Velocity P-wave (km/s) = 5.19491 6.84308 6.07515
#
# Compressibility (1/GPa) = 0.03360077
#
# Stress axis : x y z
#
# Youngs Moduli (GPa) = 82.22081 18.24150 52.99948
#
# Poissons Ratio (x) = 0.13476 0.23573
# Poissons Ratio (y) = 0.60739 0.75735
# Poissons Ratio (z) = 0.36570 0.26067
#
# Static dielectric constant tensor:
#      x y z
#    x 3.587950 0.000000 0.153350 
#    y 0.000000 3.087450 0.000000 
#    z 0.153350 0.000000 3.600060 
# 
# 
# High freq. dielectric constant tensor:
#      x y z
#    x 1.713330 0.000000 -0.000440 
#    y 0.000000 1.677750 0.000000 
#    z -0.000440 0.000000 1.716970 
# 
# From -- ./inp_files/375027.got.cif
#   From: 2010.06.25/outbox.cif.g09.slc.cpg/sg12_188_cif.got.tgz:375027.got - 2010.06.28 00:19:55.
