data_PCOD8095710
_publ_section_title
;
Structure prediction by ZEFSAII (Michael W. Deem and Ramdas Pophale) SiO2 
 PCOD8095710
Probable space group: C 2/M
;
_chemical_formula_sum "Si O2"
_cell_formula_units_Z 48
_cell_length_a 24.066358
_cell_length_b 9.480906
_cell_length_c 12.114269
_cell_angle_alpha 90.000000
_cell_angle_beta 102.838754
_cell_angle_gamma 90.000000
_cell_volume 2695.018316
_symmetry_space_group_name_H-M "C 2/M"
_symmetry_group_IT_number 12
_symmetry_cell_setting 'monoclinic'
loop_
_space_group_symop_operation_xyz
x,y,z
-x,y,-z
-x,-y,-z
x,-y,z
1/2+x,1/2+y,z
1/2-x,1/2+y,-z
1/2-x,1/2-y,-z
1/2+x,1/2-y,z
loop_
_atom_site_type_symbol
_atom_site_label
_atom_site_fract_x
_atom_site_fract_y
_atom_site_fract_z
Si Si1 0.716807 0.665239 0.077213
Si Si2 0.533851 0.164442 0.405548
Si Si3 0.664346 0.836274 0.455604
Si Si4 0.760657 0.162524 0.666098
Si Si5 0.411262 0.666207 0.968935
Si Si6 0.005109 0.833298 0.180759
O O1 0.717884 0.500000 0.048084
O O2 0.746461 0.695481 0.207830
O O3 0.652487 0.726144 0.052056
O O4 0.750000 0.750000 0.000000
O O5 0.500000 0.206009 0.500000
O O6 0.599647 0.207351 0.451670
O O7 0.505704 0.252276 0.295517
O O8 0.527437 0.000000 0.375059
O O9 0.701376 0.797607 0.580358
O O10 0.687118 0.751187 0.360343
O O11 0.669819 0.000000 0.428769
O O12 0.776917 0.000000 0.654732
O O13 0.409559 0.500000 0.955971
O O14 0.442883 0.722409 0.872859
O O15 0.446068 0.707462 0.094029
O O16 0.009075 0.000000 0.204072
#
# Coordination Sequence:
#
# PCOD8095710 Si02
#       6
#     8   8   8   8   8   8
#     4  10  20  33  49  72 102 132 160 193 238 290
#     4  10  21  34  47  69 104 136 157 190 243 291
#     4   9  18  33  52  73  97 126 161 200 241 284
#     4   9  18  33  53  74  95 124 163 203 240 281
#     4   8  16  32  53  75  98 123 155 203 252 281
#     4   9  17  33  56  75  92 122 165 205 240 283
#
# _framework density 17.810639999999999
#
# number of rings (size 3 to 8) (size 9 to 14) (size 15 to 20)
#    0.000    2.833    0.000    2.000    0.000    4.333 
#    0.000    5.000    0.000    0.000    0.000    0.000 
#    0.000    0.000    0.000    0.000    0.000    0.000 
#
# Total GULP energy -297592.548062 kJ/mol
# GULP energy per Si atom -12399.689503 kJ/mol
# Density = 1.777010 g / cm^3
# Si number density = 17.810640 Si / 1000 Ang^3
#
#
#
# Elastic Constant Matrix: (Units=GPa)
#
#
# Indices 1 2 3 4 5 6 
#
# 1 74.2485 26.7824 53.5845 0.0000 -5.9094 0.0000
# 2 26.7824 41.2399 50.0725 0.0000 -6.6313 0.0000
# 3 53.5845 50.0725 135.6740 0.0000 -9.3473 0.0000
# 4 0.0000 0.0000 0.0000 30.4127 0.0000 -6.7308
# 5 -5.9094 -6.6313 -9.3473 0.0000 24.4807 0.0000
# 6 0.0000 0.0000 0.0000 -6.7308 0.0000 24.3144
#
#
#
# Elastic Compliance Matrix: (Units=1/GPa)
#
#
# Indices 1 2 3 4 5 6 
#
# 1 0.019661 -0.005907 -0.005513 0.000000 0.001041 0.000000
# 2 -0.005907 0.046547 -0.014456 0.000000 0.005663 0.000000
# 3 -0.005513 -0.014456 0.014914 0.000000 0.000448 0.000000
# 4 0.000000 0.000000 0.000000 0.035027 0.000000 0.009696
# 5 0.001041 0.005663 0.000448 0.000000 0.042805 0.000000
# 6 0.000000 0.000000 0.000000 0.009696 0.000000 0.043812
#
#
# Mechanical properties :
#
#
# Convention : Reuss Voigt Hill
#
# Bulk Modulus (GPa) = 34.04841 56.89347 45.47094
# Shear Modulus (GPa) = 18.91741 23.88977 21.40359
#
# Velocity S-wave (km/s) = 3.26259 3.66638 3.47036
# Velocity P-wave (km/s) = 5.77503 7.06654 6.45318
#
# Compressibility (1/GPa) = 0.02936994
#
# Stress axis : x y z
#
# Youngs Moduli (GPa) = 50.86297 21.48380 67.05080
#
# Poissons Ratio (x) = 0.12690 0.36967
# Poissons Ratio (y) = 0.30043 0.96927
# Poissons Ratio (z) = 0.28043 0.31056
#
# Static dielectric constant tensor:
#      x y z
#    x 3.749240 0.000000 0.206470 
#    y 0.000000 3.070550 0.000000 
#    z 0.206470 0.000000 3.327570 
# 
# 
# High freq. dielectric constant tensor:
#      x y z
#    x 1.691640 0.000000 0.009730 
#    y 0.000000 1.666870 0.000000 
#    z 0.009730 0.000000 1.694620 
# 
# From -- ./inp_files/172090.got.cif
#   From: 2010.06.25/outbox.cif.g09.slc.cpg/sg12_87_cif.got.tgz:172090.got - 2010.06.28 00:19:55.
