data_PCOD8095864
_publ_section_title
;
Structure prediction by ZEFSAII (Michael W. Deem and Ramdas Pophale) SiO2 
 PCOD8095864
Probable space group: C 2/M
;
_chemical_formula_sum "Si O2"
_cell_formula_units_Z 56
_cell_length_a 14.773409
_cell_length_b 9.616932
_cell_length_c 24.186519
_cell_angle_alpha 90.000000
_cell_angle_beta 61.688937
_cell_angle_gamma 90.000000
_cell_volume 3025.266667
_symmetry_space_group_name_H-M "C 2/M"
_symmetry_group_IT_number 12
_symmetry_cell_setting 'monoclinic'
loop_
_space_group_symop_operation_xyz
x,y,z
-x,y,-z
-x,-y,-z
x,-y,z
1/2+x,1/2+y,z
1/2-x,1/2+y,-z
1/2-x,1/2-y,-z
1/2+x,1/2-y,z
loop_
_atom_site_type_symbol
_atom_site_label
_atom_site_fract_x
_atom_site_fract_y
_atom_site_fract_z
Si Si1 0.470515 0.843700 0.068100
Si Si2 0.401129 0.162330 0.491585
Si Si3 0.653848 0.656567 0.818577
Si Si4 0.636431 0.842698 0.194716
Si Si5 0.058324 0.837304 0.732276
Si Si6 0.313611 0.155495 0.940175
Si Si7 0.670531 0.660792 0.588021
O O1 0.383689 0.749872 0.120050
O O2 0.567501 0.842119 0.079529
O O3 0.426860 0.000000 0.073054
O O4 0.500000 0.780521 0.000000
O O5 0.500000 0.209577 0.500000
O O6 0.395270 0.248898 0.436481
O O7 0.292944 0.192285 0.553928
O O8 0.412825 0.000000 0.473289
O O9 0.613139 0.500000 0.840004
O O10 0.777307 0.660523 0.782743
O O11 0.616367 0.713736 0.770548
O O12 0.547858 0.743496 0.242010
O O13 0.689095 0.790084 0.122136
O O14 0.594364 0.000000 0.198237
O O15 0.130432 0.799191 0.660069
O O16 0.033531 0.000000 0.741273
O O17 0.267755 0.000000 0.957951
O O18 0.250000 0.250000 0.000000
O O19 0.650537 0.500000 0.579142
#
# Coordination Sequence:
#
# PCOD8095864 Si02
#       7
#     8   8   8   8   8   8   8
#     4  10  20  34  52  75 104 136 173 221 277 332
#     4   9  18  34  58  86 114 147 186 223 265 315
#     4  10  21  36  55  78 104 137 178 224 274 324
#     4  10  21  37  55  77 105 138 180 229 273 324
#     4  10  21  37  55  78 110 147 183 222 273 326
#     4  10  20  33  50  74 102 133 172 221 274 328
#     4   9  19  35  54  80 115 148 182 225 267 317
#
# _framework density 18.510764999999999
#
# number of rings (size 3 to 8) (size 9 to 14) (size 15 to 20)
#    0.000    2.286    1.429    0.857    0.000    4.000 
#    0.000    2.857    0.000    0.000    0.000    0.000 
#    0.000    0.000    0.000    0.000    0.000    0.000 
#
# Total GULP energy -347173.376955 kJ/mol
# GULP energy per Si atom -12399.049177 kJ/mol
# Density = 1.846863 g / cm^3
# Si number density = 18.510765 Si / 1000 Ang^3
#
#
#
# Elastic Constant Matrix: (Units=GPa)
#
#
# Indices 1 2 3 4 5 6 
#
# 1 109.8439 38.4981 44.8582 0.0000 4.0018 0.0000
# 2 38.4981 62.3256 56.8395 0.0000 -2.4054 0.0000
# 3 44.8582 56.8395 125.0530 0.0000 -0.2204 0.0000
# 4 0.0000 0.0000 0.0000 31.9944 0.0000 -0.5279
# 5 4.0018 -2.4054 -0.2204 0.0000 22.7937 0.0000
# 6 0.0000 0.0000 0.0000 -0.5279 0.0000 26.5744
#
#
#
# Elastic Compliance Matrix: (Units=1/GPa)
#
#
# Indices 1 2 3 4 5 6 
#
# 1 0.011967 -0.006113 -0.001519 0.000000 -0.002761 0.000000
# 2 -0.006113 0.030703 -0.011755 0.000000 0.004200 0.000000
# 3 -0.001519 -0.011755 0.013883 0.000000 -0.000840 0.000000
# 4 0.000000 0.000000 0.000000 0.031266 0.000000 0.000621
# 5 -0.002761 0.004200 -0.000840 0.000000 0.044791 0.000000
# 6 0.000000 0.000000 0.000000 0.000621 0.000000 0.037643
#
#
# Mechanical properties :
#
#
# Convention : Reuss Voigt Hill
#
# Bulk Modulus (GPa) = 56.24685 64.17936 60.21310
# Shear Modulus (GPa) = 23.26070 26.74094 25.00082
#
# Velocity S-wave (km/s) = 3.54871 3.80493 3.67905
# Velocity P-wave (km/s) = 6.87336 7.35187 7.11664
#
# Compressibility (1/GPa) = 0.01777877
#
# Stress axis : x y z
#
# Youngs Moduli (GPa) = 83.56048 32.56967 72.03059
#
# Poissons Ratio (x) = 0.19911 0.10942
# Poissons Ratio (y) = 0.51084 0.84672
# Poissons Ratio (z) = 0.12693 0.38286
#
# Static dielectric constant tensor:
#      x y z
#    x 3.470440 0.000000 0.101850 
#    y 0.000000 3.420930 0.000000 
#    z 0.101850 0.000000 3.304320 
# 
# 
# High freq. dielectric constant tensor:
#      x y z
#    x 1.723860 0.000000 0.006950 
#    y 0.000000 1.712650 0.000000 
#    z 0.006950 0.000000 1.710220 
# 
# From -- ./inp_files/338531.got.cif
#   From: 2010.06.25/outbox.cif.g09.slc.cpg/sg12_170_cif.got.tgz:338531.got - 2010.06.28 00:19:55.
