data_PCOD8095561
_publ_section_title
;
Structure prediction by ZEFSAII (Michael W. Deem and Ramdas Pophale) SiO2 
 PCOD8095561
Probable space group: C 2/M
;
_chemical_formula_sum "Si O2"
_cell_formula_units_Z 48
_cell_length_a 15.160934
_cell_length_b 18.120308
_cell_length_c 12.612743
_cell_angle_alpha 90.000000
_cell_angle_beta 143.173346
_cell_angle_gamma 90.000000
_cell_volume 2076.896928
_symmetry_space_group_name_H-M "C 2/M"
_symmetry_group_IT_number 12
_symmetry_cell_setting 'monoclinic'
loop_
_space_group_symop_operation_xyz
x,y,z
-x,y,-z
-x,-y,-z
x,-y,z
1/2+x,1/2+y,z
1/2-x,1/2+y,-z
1/2-x,1/2-y,-z
1/2+x,1/2-y,z
loop_
_atom_site_type_symbol
_atom_site_label
_atom_site_fract_x
_atom_site_fract_y
_atom_site_fract_z
Si Si1 0.456555 0.415374 0.827011
Si Si2 0.333402 0.322239 0.323476
Si Si3 0.878117 0.806971 0.144685
Si Si4 0.232894 0.337441 0.744872
Si Si5 0.482901 0.832276 0.654748
Si Si6 0.728315 0.084235 0.415935
O O1 0.508588 0.500000 0.888450
O O2 0.590510 0.358206 0.928597
O O3 0.375126 0.390667 0.859300
O O4 0.351503 0.405125 0.624370
O O5 0.500000 0.292132 0.500000
O O6 0.332657 0.356955 0.203206
O O7 0.227242 0.249981 0.221017
O O8 0.285801 0.382488 0.361445
O O9 0.018341 0.754420 0.311386
O O10 0.750000 0.750000 0.000000
O O11 0.128054 0.352122 0.544940
O O12 0.147135 0.356614 0.772601
O O13 0.427438 0.879134 0.702257
O O14 0.695163 0.000000 0.361149
#
# Coordination Sequence:
#
# PCOD8095561 Si02
#       6
#     8   8   8   8   8   8
#     4  10  20  34  56  88 120 149 186 239 298 348
#     4  11  18  34  57  82 112 148 196 245 279 330
#     4  11  22  37  57  83 114 154 197 237 286 346
#     4   9  16  32  58  82 106 146 195 243 288 326
#     4   9  17  34  54  81 111 148 194 241 279 336
#     4  10  20  32  56  90 120 149 186 240 296 344
#
# _framework density 23.111401000000001
#
# number of rings (size 3 to 8) (size 9 to 14) (size 15 to 20)
#    0.000    2.000    5.000    1.000    0.000    4.333 
#    0.000   11.667    0.000    6.000    0.000    0.000 
#    0.000    0.000    0.000    0.000    0.000    0.000 
#
# Total GULP energy -297411.521214 kJ/mol
# GULP energy per Si atom -12392.146717 kJ/mol
# Density = 2.305880 g / cm^3
# Si number density = 23.111401 Si / 1000 Ang^3
#
#
#
# Elastic Constant Matrix: (Units=GPa)
#
#
# Indices 1 2 3 4 5 6 
#
# 1 198.4012 96.8277 27.6001 0.0000 -1.2144 0.0000
# 2 96.8277 149.0564 14.4462 0.0000 17.9886 0.0000
# 3 27.6001 14.4462 30.7894 0.0000 12.0555 0.0000
# 4 0.0000 0.0000 0.0000 21.1782 0.0000 -1.7667
# 5 -1.2144 17.9886 12.0555 0.0000 32.1631 0.0000
# 6 0.0000 0.0000 0.0000 -1.7667 0.0000 30.1177
#
#
#
# Elastic Compliance Matrix: (Units=1/GPa)
#
#
# Indices 1 2 3 4 5 6 
#
# 1 0.009083 -0.005930 -0.007961 0.000000 0.006644 0.000000
# 2 -0.005930 0.011185 0.003053 0.000000 -0.007624 0.000000
# 3 -0.007961 0.003053 0.045671 0.000000 -0.019127 0.000000
# 4 0.000000 0.000000 0.000000 0.047451 0.000000 0.002783
# 5 0.006644 -0.007624 -0.019127 0.000000 0.042776 0.000000
# 6 0.000000 0.000000 0.000000 0.002783 0.000000 0.033366
#
#
# Mechanical properties :
#
#
# Convention : Reuss Voigt Hill
#
# Bulk Modulus (GPa) = 22.59187 72.88832 47.74009
# Shear Modulus (GPa) = 22.12763 32.65001 27.38882
#
# Velocity S-wave (km/s) = 3.09760 3.76270 3.44623
# Velocity P-wave (km/s) = 4.75289 7.10517 6.04456
#
# Compressibility (1/GPa) = 0.04426370
#
# Stress axis : x y z
#
# Youngs Moduli (GPa) = 110.10043 89.40171 21.89567
#
# Poissons Ratio (x) = 0.53018 0.17430
# Poissons Ratio (y) = 0.65293 -0.06685
# Poissons Ratio (z) = 0.87646 -0.27296
#
# Static dielectric constant tensor:
#      x y z
#    x 4.720550 0.000000 -0.181360 
#    y 0.000000 4.011580 0.000000 
#    z -0.181360 0.000000 4.467040 
# 
# 
# High freq. dielectric constant tensor:
#      x y z
#    x 1.935640 0.000000 -0.019530 
#    y 0.000000 1.878410 0.000000 
#    z -0.019530 0.000000 1.920020 
# 
# From -- ./inp_files/89408.got.cif
#   From: 2010.06.25/outbox.cif.g09.slc.cpg/sg12_45_cif.got.tgz:89408.got - 2010.06.28 00:19:55.
