data_PCOD8095861
_publ_section_title
;
Structure prediction by ZEFSAII (Michael W. Deem and Ramdas Pophale) SiO2 
 PCOD8095861
Probable space group: C 2/M
;
_chemical_formula_sum "Si O2"
_cell_formula_units_Z 64
_cell_length_a 22.316726
_cell_length_b 9.191398
_cell_length_c 25.619224
_cell_angle_alpha 90.000000
_cell_angle_beta 138.421613
_cell_angle_gamma 90.000000
_cell_volume 3487.492245
_symmetry_space_group_name_H-M "C 2/M"
_symmetry_group_IT_number 12
_symmetry_cell_setting 'monoclinic'
loop_
_space_group_symop_operation_xyz
x,y,z
-x,y,-z
-x,-y,-z
x,-y,z
1/2+x,1/2+y,z
1/2-x,1/2+y,-z
1/2-x,1/2-y,-z
1/2+x,1/2-y,z
loop_
_atom_site_type_symbol
_atom_site_label
_atom_site_fract_x
_atom_site_fract_y
_atom_site_fract_z
Si Si1 0.524950 0.672316 0.672958
Si Si2 0.222877 0.172359 0.826376
Si Si3 0.684865 0.170023 0.218162
Si Si4 0.701025 0.171176 0.015104
Si Si5 0.497579 0.167876 0.144148
Si Si6 0.060925 0.171188 0.490152
Si Si7 0.428912 0.669811 0.713206
Si Si8 0.238965 0.328472 0.636156
O O1 0.532050 0.500000 0.675318
O O2 0.623791 0.737725 0.749843
O O3 0.490803 0.729028 0.594851
O O4 0.454941 0.722840 0.672135
O O5 0.291083 0.218719 0.824751
O O6 0.217954 0.000000 0.827192
O O7 0.259911 0.234424 0.905186
O O8 0.579919 0.207890 0.159090
O O9 0.748602 0.259362 0.298736
O O10 0.705760 0.000000 0.240858
O O11 0.594725 0.207999 0.945190
O O12 0.718418 0.000000 0.021025
O O13 0.750000 0.250000 0.000000
O O14 0.504218 0.255509 0.202175
O O15 0.501170 0.000000 0.162096
O O16 0.153859 0.258037 0.552627
O O17 0.000000 0.210296 0.500000
O O18 0.082148 0.000000 0.501290
O O19 0.446233 0.500000 0.730926
O O20 0.325165 0.710759 0.656410
O O21 0.225274 0.500000 0.633161
#
# Coordination Sequence:
#
# PCOD8095861 Si02
#       8
#     8   8   8   8   8   8   8   8
#     4   9  17  30  49  72  95 124 166 207 239 282
#     4   9  17  30  51  75  97 126 166 207 244 285
#     4   9  17  32  53  74  98 130 166 203 243 288
#     4  10  20  33  50  74 102 132 166 204 246 291
#     4   9  18  31  49  75 103 128 160 204 248 288
#     4  10  20  34  53  74  96 126 165 206 246 290
#     4   9  18  33  52  72  98 133 166 195 236 293
#     4  10  20  33  50  74 102 130 161 198 243 294
#
# _framework density 18.351293999999999
#
# number of rings (size 3 to 8) (size 9 to 14) (size 15 to 20)
#    0.000    2.625    0.000    1.875    0.000    5.250 
#    0.000    3.750    0.000    3.000    0.000    4.375 
#    0.000    0.000    0.000    0.000    0.000    0.000 
#
# Total GULP energy -396821.639950 kJ/mol
# GULP energy per Si atom -12400.676248 kJ/mol
# Density = 1.830953 g / cm^3
# Si number density = 18.351294 Si / 1000 Ang^3
#
#
#
# Elastic Constant Matrix: (Units=GPa)
#
#
# Indices 1 2 3 4 5 6 
#
# 1 143.9464 33.2500 92.5165 0.0000 -19.6558 0.0000
# 2 33.2500 33.4966 40.4337 0.0000 -0.3857 0.0000
# 3 92.5165 40.4337 179.2805 0.0000 -8.2566 0.0000
# 4 0.0000 0.0000 0.0000 21.8036 0.0000 -0.7345
# 5 -19.6558 -0.3857 -8.2566 0.0000 33.0531 0.0000
# 6 0.0000 0.0000 0.0000 -0.7345 0.0000 21.6542
#
#
#
# Elastic Compliance Matrix: (Units=1/GPa)
#
#
# Indices 1 2 3 4 5 6 
#
# 1 0.012208 -0.006568 -0.004540 0.000000 0.006049 0.000000
# 2 -0.006568 0.044668 -0.006920 0.000000 -0.005113 0.000000
# 3 -0.004540 -0.006920 0.009462 0.000000 -0.000417 0.000000
# 4 0.000000 0.000000 0.000000 0.045917 0.000000 0.001558
# 5 0.006049 -0.005113 -0.000417 0.000000 0.033688 0.000000
# 6 0.000000 0.000000 0.000000 0.001558 0.000000 0.046233
#
#
# Mechanical properties :
#
#
# Convention : Reuss Voigt Hill
#
# Bulk Modulus (GPa) = 33.02338 76.56932 54.79635
# Shear Modulus (GPa) = 20.97959 28.00373 24.49166
#
# Velocity S-wave (km/s) = 3.38482 3.91062 3.65718
# Velocity P-wave (km/s) = 5.77150 7.88704 6.91070
#
# Compressibility (1/GPa) = 0.03028157
#
# Stress axis : x y z
#
# Youngs Moduli (GPa) = 81.91235 22.38732 105.68409
#
# Poissons Ratio (x) = 0.14705 0.47980
# Poissons Ratio (y) = 0.53804 0.73134
# Poissons Ratio (z) = 0.37188 0.15492
#
# Static dielectric constant tensor:
#      x y z
#    x 3.597660 0.000000 0.010110 
#    y 0.000000 3.097530 0.000000 
#    z 0.010110 0.000000 3.575160 
# 
# 
# High freq. dielectric constant tensor:
#      x y z
#    x 1.723030 0.000000 0.003640 
#    y 0.000000 1.677960 0.000000 
#    z 0.003640 0.000000 1.716640 
# 
# From -- ./inp_files/346874.got.cif
#   From: 2010.06.25/outbox.cif.g09.slc.cpg/sg12_174_cif.got.tgz:346874.got - 2010.06.28 00:19:55.
