data_PCOD8095154
_publ_section_title
;
Structure prediction by ZEFSAII (Michael W. Deem and Ramdas Pophale) SiO2 
 PCOD8095154
Probable space group: C 2/M
;
_chemical_formula_sum "Si O2"
_cell_formula_units_Z 60
_cell_length_a 22.085014
_cell_length_b 9.927578
_cell_length_c 16.799826
_cell_angle_alpha 90.000000
_cell_angle_beta 120.121476
_cell_angle_gamma 90.000000
_cell_volume 3185.983275
_symmetry_space_group_name_H-M "C 2/M"
_symmetry_group_IT_number 12
_symmetry_cell_setting 'monoclinic'
loop_
_space_group_symop_operation_xyz
x,y,z
-x,y,-z
-x,-y,-z
x,-y,z
1/2+x,1/2+y,z
1/2-x,1/2+y,-z
1/2-x,1/2-y,-z
1/2+x,1/2-y,z
loop_
_atom_site_type_symbol
_atom_site_label
_atom_site_fract_x
_atom_site_fract_y
_atom_site_fract_z
Si Si1 0.620456 0.654044 0.681549
Si Si2 0.875486 0.343711 0.712655
Si Si3 0.172458 0.347701 0.021507
Si Si4 0.283108 0.339281 0.393562
Si Si5 0.500000 0.760427 0.500000
Si Si6 0.336112 0.344468 0.123672
Si Si7 0.113422 0.349025 0.455191
Si Si8 0.432891 0.157000 0.912046
O O1 0.636982 0.500000 0.707467
O O2 0.682759 0.709856 0.667219
O O3 0.545666 0.669725 0.589647
O O4 0.623292 0.716590 0.772165
O O5 0.868020 0.500000 0.728168
O O6 0.796223 0.287390 0.656563
O O7 0.913678 0.318392 0.652980
O O8 0.919103 0.277990 0.814935
O O9 0.155830 0.500000 0.982406
O O10 0.140718 0.246339 0.935275
O O11 0.254321 0.325662 0.087844
O O12 0.136257 0.316875 0.081643
O O13 0.291875 0.500000 0.413244
O O14 0.326598 0.260678 0.489804
O O15 0.549875 0.848711 0.476376
O O16 0.354641 0.500000 0.116797
O O17 0.145922 0.500000 0.478433
O O18 0.449348 0.000000 0.912376
O O19 0.500000 0.225007 0.000000
#
# Coordination Sequence:
#
# PCOD8095154 Si02
#       8
#     8   8   8   8   4   8   8   8
#     4   9  17  30  49  71  94 125 163 200 235 276
#     4   9  17  30  49  71  94 124 161 200 239 279
#     4   9  17  30  49  73  98 122 155 200 242 281
#     4   9  17  31  52  74  95 121 159 203 240 275
#     4  10  20  32  46  68 101 132 159 190 231 282
#     4   9  17  30  49  72  97 125 157 195 241 285
#     4  10  20  33  49  71 101 130 156 190 237 288
#     4   9  17  29  47  71  97 125 160 200 238 278
#
# _framework density 18.83249
#
# number of rings (size 3 to 8) (size 9 to 14) (size 15 to 20)
#    0.000    2.800    0.000    1.600    0.000    4.800 
#    0.000    4.667    0.000    5.200    0.000    0.000 
#    0.000    0.000    0.000    0.000    0.000    0.000 
#
# Total GULP energy -371753.625113 kJ/mol
# GULP energy per Si atom -12391.787504 kJ/mol
# Density = 1.878963 g / cm^3
# Si number density = 18.832490 Si / 1000 Ang^3
#
#
#
# Elastic Constant Matrix: (Units=GPa)
#
#
# Indices 1 2 3 4 5 6 
#
# 1 68.4025 14.8607 49.4465 0.0000 -1.5145 0.0000
# 2 14.8607 43.5485 38.8189 0.0000 -8.1562 0.0000
# 3 49.4465 38.8189 169.3048 0.0000 -15.8792 0.0000
# 4 0.0000 0.0000 0.0000 20.7402 0.0000 -4.6722
# 5 -1.5145 -8.1562 -15.8792 0.0000 24.8444 0.0000
# 6 0.0000 0.0000 0.0000 -4.6722 0.0000 13.6047
#
#
#
# Elastic Compliance Matrix: (Units=1/GPa)
#
#
# Indices 1 2 3 4 5 6 
#
# 1 0.018854 -0.002304 -0.005256 0.000000 -0.002967 0.000000
# 2 -0.002304 0.029889 -0.005609 0.000000 0.006087 0.000000
# 3 -0.005256 -0.005609 0.009069 0.000000 0.003634 0.000000
# 4 0.000000 0.000000 0.000000 0.052259 0.000000 0.017947
# 5 -0.002967 0.006087 0.003634 0.000000 0.044391 0.000000
# 6 0.000000 0.000000 0.000000 0.017947 0.000000 0.079668
#
#
# Mechanical properties :
#
#
# Convention : Reuss Voigt Hill
#
# Bulk Modulus (GPa) = 31.77378 54.16756 42.97067
# Shear Modulus (GPa) = 18.45297 23.71317 21.08307
#
# Velocity S-wave (km/s) = 3.13365 3.55232 3.34953
# Velocity P-wave (km/s) = 5.47735 6.75652 6.15028
#
# Compressibility (1/GPa) = 0.03147249
#
# Stress axis : x y z
#
# Youngs Moduli (GPa) = 53.03932 33.45681 110.26968
#
# Poissons Ratio (x) = 0.07708 0.57962
# Poissons Ratio (y) = 0.12220 0.61855
# Poissons Ratio (z) = 0.27880 0.18767
#
# Static dielectric constant tensor:
#      x y z
#    x 3.384630 0.000000 -0.094870 
#    y 0.000000 3.108610 0.000000 
#    z -0.094870 0.000000 3.789060 
# 
# 
# High freq. dielectric constant tensor:
#      x y z
#    x 1.726890 0.000000 -0.010940 
#    y 0.000000 1.683430 0.000000 
#    z -0.010940 0.000000 1.744070 
# 
# From -- ./inp_files/232559.got.cif
#   From: 2010.06.25/outbox.cif.g09.slc.cpg/sg12_117_cif.got.tgz:232559.got - 2010.06.28 00:19:55.
