data_PCOD8095036
_publ_section_title
;
Structure prediction by ZEFSAII (Michael W. Deem and Ramdas Pophale) SiO2 
 PCOD8095036
Probable space group: C 2/M
;
_chemical_formula_sum "Si O2"
_cell_formula_units_Z 56
_cell_length_a 26.334264
_cell_length_b 17.330682
_cell_length_c 16.092385
_cell_angle_alpha 90.000000
_cell_angle_beta 154.925289
_cell_angle_gamma 90.000000
_cell_volume 3112.561076
_symmetry_space_group_name_H-M "C 2/M"
_symmetry_group_IT_number 12
_symmetry_cell_setting 'monoclinic'
loop_
_space_group_symop_operation_xyz
x,y,z
-x,y,-z
-x,-y,-z
x,-y,z
1/2+x,1/2+y,z
1/2-x,1/2+y,-z
1/2-x,1/2-y,-z
1/2+x,1/2-y,z
loop_
_atom_site_type_symbol
_atom_site_label
_atom_site_fract_x
_atom_site_fract_y
_atom_site_fract_z
Si Si1 0.811207 0.413424 0.754316
Si Si2 0.991309 0.317346 0.267633
Si Si3 0.559516 0.085748 0.216886
Si Si4 0.441776 0.582318 0.324991
Si Si5 0.812441 0.411776 0.111046
Si Si6 0.371139 0.700848 0.431025
Si Si7 0.741218 0.267976 0.084709
O O1 0.754505 0.500000 0.676180
O O2 0.838078 0.391731 0.698184
O O3 0.728408 0.348376 0.670305
O O4 0.932029 0.413001 0.984622
O O5 0.927568 0.380630 0.232098
O O6 0.060360 0.355368 0.293690
O O7 0.100932 0.280094 0.480892
O O8 0.894044 0.254548 0.088789
O O9 0.585323 0.000000 0.289464
O O10 0.500000 0.574743 0.500000
O O11 0.464249 0.500000 0.311261
O O12 0.504714 0.654126 0.374682
O O13 0.298808 0.595005 0.118545
O O14 0.835800 0.500000 0.174314
O O15 0.777208 0.359528 0.140481
O O16 0.333965 0.720387 0.280625
O O17 0.750000 0.250000 0.000000
#
# Coordination Sequence:
#
# PCOD8095036 Si02
#       7
#     8   8   8   8   8   8   8
#     4   9  19  35  58  85 110 137 172 224 284 333
#     4  11  21  34  55  81 109 144 178 221 276 319
#     4   9  18  36  58  82 112 140 172 219 279 335
#     4  10  20  31  49  76 103 135 175 221 270 321
#     4  10  21  37  51  71 106 147 184 216 258 313
#     4  12  22  33  56  80 110 141 183 226 267 327
#     4  10  21  36  50  76 110 143 177 223 270 311
#
# _framework density 17.991613999999998
#
# number of rings (size 3 to 8) (size 9 to 14) (size 15 to 20)
#    0.000    1.857    2.857    3.429    2.000    0.571 
#    0.000    2.143    0.000    0.000    0.000    0.000 
#    0.000    3.429    0.000    0.000    0.000    0.000 
#
# Total GULP energy -346884.506020 kJ/mol
# GULP energy per Si atom -12388.732358 kJ/mol
# Density = 1.795066 g / cm^3
# Si number density = 17.991614 Si / 1000 Ang^3
#
#
#
# Elastic Constant Matrix: (Units=GPa)
#
#
# Indices 1 2 3 4 5 6 
#
# 1 96.1627 65.2963 29.3885 0.0000 -2.9797 0.0000
# 2 65.2963 134.4492 38.4928 0.0000 -1.1149 0.0000
# 3 29.3885 38.4928 58.1277 0.0000 -3.6572 0.0000
# 4 0.0000 0.0000 0.0000 22.1836 0.0000 3.5431
# 5 -2.9797 -1.1149 -3.6572 0.0000 18.6165 0.0000
# 6 0.0000 0.0000 0.0000 3.5431 0.0000 33.6784
#
#
#
# Elastic Compliance Matrix: (Units=1/GPa)
#
#
# Indices 1 2 3 4 5 6 
#
# 1 0.016163 -0.006817 -0.003565 0.000000 0.001478 0.000000
# 2 -0.006817 0.012061 -0.004621 0.000000 -0.001276 0.000000
# 3 -0.003565 -0.004621 0.022288 0.000000 0.003531 0.000000
# 4 0.000000 0.000000 0.000000 0.045849 0.000000 -0.004823
# 5 0.001478 -0.001276 0.003531 0.000000 0.054570 0.000000
# 6 0.000000 0.000000 0.000000 -0.004823 0.000000 0.030200
#
#
# Mechanical properties :
#
#
# Convention : Reuss Voigt Hill
#
# Bulk Modulus (GPa) = 48.76285 61.67721 55.22003
# Shear Modulus (GPa) = 22.93899 25.26651 24.10275
#
# Velocity S-wave (km/s) = 3.57456 3.75153 3.66412
# Velocity P-wave (km/s) = 6.64820 7.28840 6.97565
#
# Compressibility (1/GPa) = 0.02050741
#
# Stress axis : x y z
#
# Youngs Moduli (GPa) = 61.86957 82.91383 44.86801
#
# Poissons Ratio (x) = 0.56522 0.15993
# Poissons Ratio (y) = 0.42176 0.20731
# Poissons Ratio (z) = 0.22054 0.38311
#
# Static dielectric constant tensor:
#      x y z
#    x 3.342240 0.000000 0.129060 
#    y 0.000000 4.126620 0.000000 
#    z 0.129060 0.000000 3.196420 
# 
# 
# High freq. dielectric constant tensor:
#      x y z
#    x 1.666350 0.000000 0.006410 
#    y 0.000000 1.712770 0.000000 
#    z 0.006410 0.000000 1.678380 
# 
# From -- ./inp_files/296896.got.cif
#   From: 2010.06.25/outbox.cif.g09.slc.cpg/sg12_149_cif.got.tgz:296896.got - 2010.06.28 00:19:55.
