data_PCOD8095825
_publ_section_title
;
Structure prediction by ZEFSAII (Michael W. Deem and Ramdas Pophale) SiO2 
 PCOD8095825
Probable space group: C 2/M
;
_chemical_formula_sum "Si O2"
_cell_formula_units_Z 64
_cell_length_a 19.089566
_cell_length_b 9.122316
_cell_length_c 31.054711
_cell_angle_alpha 90.000000
_cell_angle_beta 40.316705
_cell_angle_gamma 90.000000
_cell_volume 3498.976864
_symmetry_space_group_name_H-M "C 2/M"
_symmetry_group_IT_number 12
_symmetry_cell_setting 'monoclinic'
loop_
_space_group_symop_operation_xyz
x,y,z
-x,y,-z
-x,-y,-z
x,-y,z
1/2+x,1/2+y,z
1/2-x,1/2+y,-z
1/2-x,1/2-y,-z
1/2+x,1/2-y,z
loop_
_atom_site_type_symbol
_atom_site_label
_atom_site_fract_x
_atom_site_fract_y
_atom_site_fract_z
Si Si1 0.138480 0.668690 0.046473
Si Si2 0.305591 0.827785 0.191521
Si Si3 0.668963 0.173638 0.423971
Si Si4 0.020217 0.168276 0.940360
Si Si5 0.588930 0.673799 0.694168
Si Si6 0.544255 0.165890 0.800724
Si Si7 0.008220 0.326454 0.426666
Si Si8 0.557641 0.672919 0.316069
O O1 0.158896 0.500000 0.024818
O O2 0.075439 0.743338 0.037155
O O3 0.071001 0.682096 0.122062
O O4 0.250000 0.750000 0.000000
O O5 0.363883 0.738754 0.126034
O O6 0.360037 0.786208 0.211624
O O7 0.181204 0.778629 0.250729
O O8 0.320299 0.000000 0.175286
O O9 0.790105 0.238375 0.369563
O O10 0.601089 0.224305 0.497524
O O11 0.610719 0.226283 0.407283
O O12 0.671321 0.000000 0.422365
O O13 0.018608 0.000000 0.925700
O O14 0.000000 0.181675 0.000000
O O15 0.591133 0.500000 0.694896
O O16 0.541286 0.729286 0.761286
O O17 0.512471 0.728784 0.691474
O O18 0.563611 0.000000 0.776081
O O19 0.010612 0.500000 0.418401
O O20 0.008979 0.247665 0.380837
O O21 0.548951 0.500000 0.326342
#
# Coordination Sequence:
#
# PCOD8095825 Si02
#       8
#     8   8   8   8   8   8   8   8
#     4  10  21  37  57  81 110 142 175 216 265 314
#     4   9  19  36  54  72  99 136 173 210 257 310
#     4   8  16  32  52  74  99 128 169 213 248 295
#     4  10  21  36  55  81 109 137 175 221 263 309
#     4  10  20  33  50  73 102 135 167 205 256 309
#     4   9  19  35  53  73  98 129 168 213 251 291
#     4   9  17  32  54  74  95 131 173 209 249 300
#     4  10  21  34  48  73 106 132 162 209 259 305
#
# _framework density 18.291063000000001
#
# number of rings (size 3 to 8) (size 9 to 14) (size 15 to 20)
#    0.000    2.625    0.000    3.000    0.000    6.000 
#    0.000    4.375    0.000    0.000    0.000    0.000 
#    0.000    0.000    0.000    0.000    0.000    0.000 
#
# Total GULP energy -396821.199735 kJ/mol
# GULP energy per Si atom -12400.662492 kJ/mol
# Density = 1.824943 g / cm^3
# Si number density = 18.291063 Si / 1000 Ang^3
#
#
#
# Elastic Constant Matrix: (Units=GPa)
#
#
# Indices 1 2 3 4 5 6 
#
# 1 120.2455 40.9155 75.8498 0.0000 -1.9200 -0.0007
# 2 40.9155 59.9176 44.6642 0.0002 4.5201 -0.0011
# 3 75.8498 44.6642 109.6537 -0.0001 -0.3626 -0.0003
# 4 0.0000 0.0002 -0.0001 32.0078 0.0001 5.2534
# 5 -1.9200 4.5201 -0.3626 0.0001 32.8371 0.0001
# 6 -0.0007 -0.0011 -0.0003 5.2534 0.0001 24.6078
#
#
#
# Elastic Compliance Matrix: (Units=1/GPa)
#
#
# Indices 1 2 3 4 5 6 
#
# 1 0.015354 -0.003836 -0.009054 0.000000 0.001326 0.000000
# 2 -0.003836 0.025312 -0.007670 0.000000 -0.003793 0.000001
# 3 -0.009054 -0.007670 0.018509 0.000000 0.000731 0.000000
# 4 0.000000 0.000000 0.000000 0.032377 0.000000 -0.006912
# 5 0.001326 -0.003793 0.000731 0.000000 0.031061 0.000000
# 6 0.000000 0.000001 0.000000 -0.006912 0.000000 0.042113
#
#
# Mechanical properties :
#
#
# Convention : Reuss Voigt Hill
#
# Bulk Modulus (GPa) = 55.38125 68.07511 61.72818
# Shear Modulus (GPa) = 23.60030 26.44969 25.02500
#
# Velocity S-wave (km/s) = 3.59592 3.80681 3.70287
# Velocity P-wave (km/s) = 6.89814 7.52469 7.21822
#
# Compressibility (1/GPa) = 0.01805665
#
# Stress axis : x y z
#
# Youngs Moduli (GPa) = 65.13128 39.50706 54.02876
#
# Poissons Ratio (x) = 0.15153 0.48916
# Poissons Ratio (y) = 0.24981 0.41437
# Poissons Ratio (z) = 0.58968 0.30300
#
# Static dielectric constant tensor:
#      x y z
#    x 3.710820 0.000000 -0.507980 
#    y 0.000000 3.242570 0.000000 
#    z -0.507980 0.000000 3.847620 
# 
# 
# High freq. dielectric constant tensor:
#      x y z
#    x 1.707630 0.000000 -0.004120 
#    y 0.000000 1.695690 0.000000 
#    z -0.004120 0.000000 1.717420 
# 
# From -- ./inp_files/378243.got.cif
#   From: 2010.06.25/outbox.cif.g09.slc.cpg/sg12_190_cif.got.tgz:378243.got - 2010.06.28 00:19:55.
