data_PCOD8095458
_publ_section_title
;
Structure prediction by ZEFSAII (Michael W. Deem and Ramdas Pophale) SiO2 
 PCOD8095458
Probable space group: C 2/M
;
_chemical_formula_sum "Si O2"
_cell_formula_units_Z 44
_cell_length_a 11.883757
_cell_length_b 26.239571
_cell_length_c 14.998291
_cell_angle_alpha 90.000000
_cell_angle_beta 148.113271
_cell_angle_gamma 90.000000
_cell_volume 2470.500430
_symmetry_space_group_name_H-M "C 2/M"
_symmetry_group_IT_number 12
_symmetry_cell_setting 'monoclinic'
loop_
_space_group_symop_operation_xyz
x,y,z
-x,y,-z
-x,-y,-z
x,-y,z
1/2+x,1/2+y,z
1/2-x,1/2+y,-z
1/2-x,1/2-y,-z
1/2+x,1/2-y,z
loop_
_atom_site_type_symbol
_atom_site_label
_atom_site_fract_x
_atom_site_fract_y
_atom_site_fract_z
Si Si1 0.000000 0.919507 0.500000
Si Si2 0.830562 0.681642 0.463462
Si Si3 0.501064 0.768836 0.752277
Si Si4 0.994734 0.105706 0.295176
Si Si5 0.659094 0.187085 0.028666
Si Si6 0.658942 0.000000 0.236793
Si Si7 0.800378 0.000000 0.132155
O O1 0.009905 0.887813 0.599340
O O2 0.779726 0.951562 0.360894
O O3 0.670878 0.727312 0.330348
O O4 0.942750 0.697874 0.629099
O O5 0.714861 0.627740 0.404106
O O6 0.000000 0.672952 0.500000
O O7 0.718316 0.740064 0.873369
O O8 0.530447 0.809845 0.850068
O O9 0.810096 0.138697 0.126843
O O10 0.956142 0.048885 0.231426
O O11 0.500000 0.176933 0.000000
O O12 0.694046 0.000000 0.156017
O O13 0.398392 0.000000 0.073788
#
# Coordination Sequence:
#
# PCOD8095458 Si02
#       7
#     4   8   8   8   8   4   4
#     4   9  18  32  48  82 108 132 182 220 264 331
#     4  10  20  37  56  77 106 146 184 223 270 317
#     4   9  20  36  53  77 105 142 181 221 272 317
#     4  10  22  32  52  81 109 142 183 221 272 323
#     4  10  20  32  51  81 108 137 175 221 272 328
#     4   8  16  30  54  69 104 150 165 217 283 306
#     4   9  18  34  49  75 111 140 177 222 272 326
#
# _framework density 17.810158000000001
#
# number of rings (size 3 to 8) (size 9 to 14) (size 15 to 20)
#    0.000    2.545    0.000    1.636    7.636    0.000 
#    3.273    0.455    0.000    0.000    0.000    2.545 
#    0.000    0.000    0.000    0.000    0.000    0.000 
#
# Total GULP energy -272650.375587 kJ/mol
# GULP energy per Si atom -12393.198890 kJ/mol
# Density = 1.776962 g / cm^3
# Si number density = 17.810158 Si / 1000 Ang^3
#
#
#
# Elastic Constant Matrix: (Units=GPa)
#
#
# Indices 1 2 3 4 5 6 
#
# 1 87.3922 46.5033 33.8127 -0.0015 11.4005 0.0004
# 2 46.5033 99.7720 44.2267 0.0005 -8.4549 0.0000
# 3 33.8127 44.2267 100.3035 0.0002 -10.2045 0.0004
# 4 -0.0015 0.0005 0.0002 157.3256 -0.0016 -40.5693
# 5 11.4005 -8.4549 -10.2045 -0.0016 20.1349 0.0005
# 6 0.0004 0.0000 0.0004 -40.5693 0.0005 32.8772
#
#
#
# Elastic Compliance Matrix: (Units=1/GPa)
#
#
# Indices 1 2 3 4 5 6 
#
# 1 0.020270 -0.008845 -0.004722 0.000000 -0.017584 0.000000
# 2 -0.008845 0.016446 -0.003224 0.000000 0.010280 0.000000
# 3 -0.004722 -0.003224 0.013831 0.000000 0.008329 0.000000
# 4 0.000000 0.000000 0.000000 0.009323 0.000000 0.011504
# 5 -0.017584 0.010280 0.008329 0.000000 0.068159 -0.000001
# 6 0.000000 0.000000 0.000000 0.011504 -0.000001 0.044612
#
#
# Mechanical properties :
#
#
# Convention : Reuss Voigt Hill
#
# Bulk Modulus (GPa) = 58.94649 59.61702 59.28176
# Shear Modulus (GPa) = 23.59866 52.92921 38.26393
#
# Velocity S-wave (km/s) = 3.64402 5.45739 4.64015
# Velocity P-wave (km/s) = 7.13261 8.55903 7.87817
#
# Compressibility (1/GPa) = 0.01696454
#
# Stress axis : x y z
#
# Youngs Moduli (GPa) = 49.33367 60.80674 72.30370
#
# Poissons Ratio (x) = 0.53782 0.34143
# Poissons Ratio (y) = 0.43634 0.23310
# Poissons Ratio (z) = 0.23296 0.19604
#
# Static dielectric constant tensor:
#      x y z
#    x 3.063220 0.000000 -0.021710 
#    y 0.000000 3.315300 0.000000 
#    z -0.021710 0.000000 3.773810 
# 
# 
# High freq. dielectric constant tensor:
#      x y z
#    x 1.651630 0.000000 -0.003000 
#    y 0.000000 1.681060 0.000000 
#    z -0.003000 0.000000 1.712620 
# 
# From -- ./inp_files/209250.got.cif
#   From: 2010.06.25/outbox.cif.g09.slc.cpg/sg12_105_cif.got.tgz:209250.got - 2010.06.28 00:19:55.
