data_PCOD8095703
_publ_section_title
;
Structure prediction by ZEFSAII (Michael W. Deem and Ramdas Pophale) SiO2 
 PCOD8095703
Probable space group: C 2/M
;
_chemical_formula_sum "Si O2"
_cell_formula_units_Z 40
_cell_length_a 27.385159
_cell_length_b 8.788890
_cell_length_c 11.486561
_cell_angle_alpha 90.000000
_cell_angle_beta 126.514886
_cell_angle_gamma 90.000000
_cell_volume 2221.951250
_symmetry_space_group_name_H-M "C 2/M"
_symmetry_group_IT_number 12
_symmetry_cell_setting 'monoclinic'
loop_
_space_group_symop_operation_xyz
x,y,z
-x,y,-z
-x,-y,-z
x,-y,z
1/2+x,1/2+y,z
1/2-x,1/2+y,-z
1/2-x,1/2-y,-z
1/2+x,1/2-y,z
loop_
_atom_site_type_symbol
_atom_site_label
_atom_site_fract_x
_atom_site_fract_y
_atom_site_fract_z
Si Si1 0.216482 0.324732 0.278849
Si Si2 0.698654 0.679805 0.007252
Si Si3 0.423441 0.319209 0.281521
Si Si4 0.660049 0.323038 0.412631
Si Si5 0.056419 0.819241 0.432236
O O1 0.205426 0.500000 0.232060
O O2 0.207933 0.224174 0.153210
O O3 0.284049 0.295896 0.421150
O O4 0.167750 0.272741 0.306010
O O5 0.701543 0.500000 0.998140
O O6 0.750000 0.750000 0.000000
O O7 0.633420 0.744476 0.871860
O O8 0.421989 0.500000 0.281963
O O9 0.486883 0.265583 0.311855
O O10 0.420564 0.257122 0.409970
O O11 0.654555 0.500000 0.371300
O O12 0.599837 0.258564 0.391061
O O13 0.060902 0.000000 0.440773
#
# Coordination Sequence:
#
# PCOD8095703 Si02
#       5
#     8   8   8   8   8
#     4  10  20  33  49  72 100 128 160 197 239 288
#     4  11  21  33  50  73 100 128 158 194 240 289
#     4   8  15  27  46  73  99 122 154 198 241 281
#     4   9  17  31  52  74  95 124 163 204 242 280
#     4   8  13  26  49  73  95 120 156 202 243 275
#
# _framework density 18.002196000000001
#
# number of rings (size 3 to 8) (size 9 to 14) (size 15 to 20)
#    0.000    2.800    0.000    3.600    0.000    4.000 
#    0.000    1.000    0.000    8.400    0.000    8.400 
#    0.000    0.000    0.000    0.000    0.000    0.000 
#
# Total GULP energy -247937.190562 kJ/mol
# GULP energy per Si atom -12396.859528 kJ/mol
# Density = 1.796122 g / cm^3
# Si number density = 18.002196 Si / 1000 Ang^3
#
#
#
# Elastic Constant Matrix: (Units=GPa)
#
#
# Indices 1 2 3 4 5 6 
#
# 1 173.4313 29.3867 63.3126 0.0000 4.5103 0.0000
# 2 29.3867 37.9808 29.2285 0.0000 2.0179 0.0000
# 3 63.3126 29.2285 95.6063 0.0000 1.1427 0.0000
# 4 0.0000 0.0000 0.0000 21.8771 0.0000 -4.4940
# 5 4.5103 2.0179 1.1427 0.0000 22.9971 0.0000
# 6 0.0000 0.0000 0.0000 -4.4940 0.0000 26.0758
#
#
#
# Elastic Compliance Matrix: (Units=1/GPa)
#
#
# Indices 1 2 3 4 5 6 
#
# 1 0.007837 -0.002644 -0.004369 0.000000 -0.001088 0.000000
# 2 -0.002644 0.035465 -0.009066 0.000000 -0.002143 0.000000
# 3 -0.004369 -0.009066 0.016114 0.000000 0.000852 0.000000
# 4 0.000000 0.000000 0.000000 0.047388 0.000000 0.008167
# 5 -0.001088 -0.002143 0.000852 0.000000 0.043843 0.000000
# 6 0.000000 0.000000 0.000000 0.008167 0.000000 0.039757
#
#
# Mechanical properties :
#
#
# Convention : Reuss Voigt Hill
#
# Bulk Modulus (GPa) = 36.68446 61.20824 48.94635
# Shear Modulus (GPa) = 21.58455 26.52940 24.05697
#
# Velocity S-wave (km/s) = 3.46641 3.84301 3.65956
# Velocity P-wave (km/s) = 6.03683 7.33252 6.71600
#
# Compressibility (1/GPa) = 0.02725950
#
# Stress axis : x y z
#
# Youngs Moduli (GPa) = 127.59907 28.19650 62.05828
#
# Poissons Ratio (x) = 0.07455 0.27110
# Poissons Ratio (y) = 0.33738 0.56261
# Poissons Ratio (z) = 0.55742 0.25562
#
# Static dielectric constant tensor:
#      x y z
#    x 3.696430 0.000000 0.101560 
#    y 0.000000 2.999070 0.000000 
#    z 0.101560 0.000000 3.425010 
# 
# 
# High freq. dielectric constant tensor:
#      x y z
#    x 1.711010 0.000000 0.001790 
#    y 0.000000 1.661430 0.000000 
#    z 0.001790 0.000000 1.686610 
# 
# From -- ./inp_files/162396.got.cif
#   From: 2010.06.25/outbox.cif.g09.slc.cpg/sg12_82_cif.got.tgz:162396.got - 2010.06.28 00:19:55.
