data_PCOD8095784
_publ_section_title
;
Structure prediction by ZEFSAII (Michael W. Deem and Ramdas Pophale) SiO2 
 PCOD8095784
Probable space group: C 2/M
;
_chemical_formula_sum "Si O2"
_cell_formula_units_Z 56
_cell_length_a 22.507022
_cell_length_b 8.952252
_cell_length_c 21.024430
_cell_angle_alpha 90.000000
_cell_angle_beta 129.924082
_cell_angle_gamma 90.000000
_cell_volume 3248.708469
_symmetry_space_group_name_H-M "C 2/M"
_symmetry_group_IT_number 12
_symmetry_cell_setting 'monoclinic'
loop_
_space_group_symop_operation_xyz
x,y,z
-x,y,-z
-x,-y,-z
x,-y,z
1/2+x,1/2+y,z
1/2-x,1/2+y,-z
1/2-x,1/2-y,-z
1/2+x,1/2-y,z
loop_
_atom_site_type_symbol
_atom_site_label
_atom_site_fract_x
_atom_site_fract_y
_atom_site_fract_z
Si Si1 0.650641 0.170375 0.888647
Si Si2 0.413182 0.825612 0.919263
Si Si3 0.318676 0.327701 0.962283
Si Si4 0.753266 0.665919 0.600199
Si Si5 0.878585 0.176681 0.763195
Si Si6 0.516216 0.826066 0.266472
Si Si7 0.636456 0.834382 0.445429
O O1 0.726027 0.197540 0.897148
O O2 0.575649 0.202199 0.793461
O O3 0.649770 0.000000 0.913945
O O4 0.648402 0.281930 0.946429
O O5 0.354750 0.778574 0.934400
O O6 0.392883 0.730109 0.844011
O O7 0.402900 0.000000 0.897179
O O8 0.500000 0.787845 0.000000
O O9 0.340615 0.500000 0.964550
O O10 0.741543 0.500000 0.619536
O O11 0.794934 0.765251 0.682233
O O12 0.668361 0.730765 0.524038
O O13 0.804438 0.663993 0.572418
O O14 0.948408 0.235335 0.767760
O O15 0.877594 0.000000 0.760098
O O16 0.554412 0.775428 0.360164
O O17 0.536801 0.000000 0.268955
O O18 0.627117 0.000000 0.467609
#
# Coordination Sequence:
#
# PCOD8095784 Si02
#       7
#     8   8   8   8   8   8   8
#     4   9  18  33  51  70  95 126 156 189 232 279
#     4  11  23  37  51  67  92 126 159 191 232 281
#     4  10  20  33  50  72  95 121 157 197 233 271
#     4   9  16  27  42  61  90 125 156 186 227 279
#     4  11  21  31  46  69  96 124 157 196 233 273
#     4   9  17  30  47  68  96 128 158 188 229 280
#     4   8  14  24  40  63  90 120 154 190 225 266
#
# _framework density 17.237621000000001
#
# number of rings (size 3 to 8) (size 9 to 14) (size 15 to 20)
#    0.000    2.429    0.000    4.286    0.000    9.143 
#    0.000    0.000    0.000    0.000    0.000    1.000 
#    0.000    8.000    0.000    0.000    0.000    0.000 
#
# Total GULP energy -347151.166499 kJ/mol
# GULP energy per Si atom -12398.255946 kJ/mol
# Density = 1.719839 g / cm^3
# Si number density = 17.237621 Si / 1000 Ang^3
#
#
#
# Elastic Constant Matrix: (Units=GPa)
#
#
# Indices 1 2 3 4 5 6 
#
# 1 59.8440 33.6755 47.5199 0.0000 13.0115 0.0000
# 2 33.6755 87.0801 46.6226 0.0000 8.1588 0.0000
# 3 47.5199 46.6226 122.4992 0.0000 29.3411 0.0000
# 4 0.0000 0.0000 0.0000 32.5047 0.0000 -4.4930
# 5 13.0115 8.1588 29.3411 0.0000 24.6273 0.0000
# 6 0.0000 0.0000 0.0000 -4.4930 0.0000 36.0437
#
#
#
# Elastic Compliance Matrix: (Units=1/GPa)
#
#
# Indices 1 2 3 4 5 6 
#
# 1 0.026595 -0.006132 -0.007142 0.000000 -0.003511 0.000000
# 2 -0.006132 0.015944 -0.004478 0.000000 0.003293 0.000000
# 3 -0.007142 -0.004478 0.015923 0.000000 -0.013714 0.000000
# 4 0.000000 0.000000 0.000000 0.031304 0.000000 0.003902
# 5 -0.003511 0.003293 -0.013714 0.000000 0.057708 0.000000
# 6 0.000000 0.000000 0.000000 0.003902 0.000000 0.028231
#
#
# Mechanical properties :
#
#
# Convention : Reuss Voigt Hill
#
# Bulk Modulus (GPa) = 43.55872 58.33990 50.94931
# Shear Modulus (GPa) = 22.84536 28.07549 25.46042
#
# Velocity S-wave (km/s) = 3.64444 4.04014 3.84738
# Velocity P-wave (km/s) = 6.56001 7.46201 7.02550
#
# Compressibility (1/GPa) = 0.02295752
#
# Stress axis : x y z
#
# Youngs Moduli (GPa) = 37.60045 62.71868 62.80207
#
# Poissons Ratio (x) = 0.38460 0.44854
# Poissons Ratio (y) = 0.23057 0.28124
# Poissons Ratio (z) = 0.26855 0.28087
#
# Static dielectric constant tensor:
#      x y z
#    x 2.911250 0.000000 0.296220 
#    y 0.000000 3.352980 0.000000 
#    z 0.296220 0.000000 3.467450 
# 
# 
# High freq. dielectric constant tensor:
#      x y z
#    x 1.615920 0.000000 0.022530 
#    y 0.000000 1.674900 0.000000 
#    z 0.022530 0.000000 1.674500 
# 
# From -- ./inp_files/323825.got.cif
#   From: 2010.06.25/outbox.cif.g09.slc.cpg/sg12_162_cif.got.tgz:323825.got - 2010.06.28 00:19:55.
