data_PCOD8095505
_publ_section_title
;
Structure prediction by ZEFSAII (Michael W. Deem and Ramdas Pophale) SiO2 
 PCOD8095505
Probable space group: C 2/M
;
_chemical_formula_sum "Si O2"
_cell_formula_units_Z 64
_cell_length_a 15.267518
_cell_length_b 22.244051
_cell_length_c 9.927708
_cell_angle_alpha 90.000000
_cell_angle_beta 102.085065
_cell_angle_gamma 90.000000
_cell_volume 3296.842187
_symmetry_space_group_name_H-M "C 2/M"
_symmetry_group_IT_number 12
_symmetry_cell_setting 'monoclinic'
loop_
_space_group_symop_operation_xyz
x,y,z
-x,y,-z
-x,-y,-z
x,-y,z
1/2+x,1/2+y,z
1/2-x,1/2+y,-z
1/2-x,1/2-y,-z
1/2+x,1/2-y,z
loop_
_atom_site_type_symbol
_atom_site_label
_atom_site_fract_x
_atom_site_fract_y
_atom_site_fract_z
Si Si1 0.689718 0.571991 0.293088
Si Si2 0.992896 0.569915 0.652404
Si Si3 0.504148 0.378887 0.347217
Si Si4 0.290924 0.930094 0.581580
Si Si5 0.669287 0.566374 0.766164
Si Si6 0.562570 0.710253 0.898688
Si Si7 0.567566 0.848383 0.902894
Si Si8 0.224966 0.138908 0.028251
O O1 0.686112 0.500000 0.260166
O O2 0.598544 0.594976 0.331347
O O3 0.768954 0.590505 0.422361
O O4 0.712124 0.612458 0.172270
O O5 0.020527 0.500000 0.678449
O O6 0.891176 0.582766 0.660902
O O7 0.000000 0.589820 0.500000
O O8 0.055299 0.609595 0.768359
O O9 0.500000 0.356210 0.500000
O O10 0.434447 0.433535 0.309111
O O11 0.467060 0.324226 0.245096
O O12 0.227511 0.897647 0.671925
O O13 0.268009 0.000000 0.572610
O O14 0.707384 0.500000 0.784059
O O15 0.680714 0.590428 0.918256
O O16 0.546394 0.779853 0.859047
O O17 0.500000 0.688139 0.000000
O O18 0.665727 0.699004 0.980150
O O19 0.671550 0.851998 0.978637
O O20 0.500000 0.870154 0.000000
#
# Coordination Sequence:
#
# PCOD8095505 Si02
#       8
#     8   8   8   8   8   8   8   8
#     4  11  21  34  59  90 123 159 196 239 295 363
#     4  10  21  38  60  86 118 151 188 242 302 351
#     4  11  21  36  58  85 121 159 198 241 294 355
#     4   9  18  33  52  80 117 151 186 233 288 348
#     4  10  20  32  52  82 118 152 189 236 290 351
#     4  10  22  42  61  85 118 158 199 251 299 345
#     4  11  24  41  65  87 115 158 207 248 294 351
#     4  11  22  38  59  85 119 155 199 247 297 352
#
# _framework density 19.412514999999999
#
# number of rings (size 3 to 8) (size 9 to 14) (size 15 to 20)
#    0.000    1.625    2.500    2.625    0.000    3.250 
#    0.000    1.875    0.000    1.500    0.000    0.000 
#    0.000    0.000    0.000    0.000    0.000    0.000 
#
# Total GULP energy -396598.822478 kJ/mol
# GULP energy per Si atom -12393.713202 kJ/mol
# Density = 1.936833 g / cm^3
# Si number density = 19.412515 Si / 1000 Ang^3
#
#
#
# Elastic Constant Matrix: (Units=GPa)
#
#
# Indices 1 2 3 4 5 6 
#
# 1 85.4822 12.3942 28.2402 0.0000 -2.8828 0.0000
# 2 12.3942 59.0416 31.3224 0.0000 1.2244 0.0000
# 3 28.2402 31.3224 113.3514 0.0000 -1.4982 0.0000
# 4 0.0000 0.0000 0.0000 15.6174 0.0000 -1.8305
# 5 -2.8828 1.2244 -1.4982 0.0000 34.6553 0.0000
# 6 0.0000 0.0000 0.0000 -1.8305 0.0000 21.8393
#
#
#
# Elastic Compliance Matrix: (Units=1/GPa)
#
#
# Indices 1 2 3 4 5 6 
#
# 1 0.012850 -0.001203 -0.002856 0.000000 0.000988 0.000000
# 2 -0.001203 0.019990 -0.005238 0.000000 -0.001033 0.000000
# 3 -0.002856 -0.005238 0.010987 0.000000 0.000422 0.000000
# 4 0.000000 0.000000 0.000000 0.064667 0.000000 0.005420
# 5 0.000988 -0.001033 0.000422 0.000000 0.028993 0.000000
# 6 0.000000 0.000000 0.000000 0.005420 0.000000 0.046243
#
#
# Mechanical properties :
#
#
# Convention : Reuss Voigt Hill
#
# Bulk Modulus (GPa) = 39.63066 44.64320 42.13693
# Shear Modulus (GPa) = 23.72677 26.81695 25.27186
#
# Velocity S-wave (km/s) = 3.49985 3.72079 3.61201
# Velocity P-wave (km/s) = 6.06558 6.44252 6.25689
#
# Compressibility (1/GPa) = 0.02523299
#
# Stress axis : x y z
#
# Youngs Moduli (GPa) = 77.82382 50.02541 91.02017
#
# Poissons Ratio (x) = 0.06017 0.25994
# Poissons Ratio (y) = 0.09361 0.47674
# Poissons Ratio (z) = 0.22226 0.26202
#
# Static dielectric constant tensor:
#      x y z
#    x 3.938240 0.000000 -0.074720 
#    y 0.000000 3.256300 0.000000 
#    z -0.074720 0.000000 3.650640 
# 
# 
# High freq. dielectric constant tensor:
#      x y z
#    x 1.773380 0.000000 -0.003860 
#    y 0.000000 1.725700 0.000000 
#    z -0.003860 0.000000 1.768550 
# 
# From -- ./inp_files/65861.got.cif
#   From: 2010.06.25/outbox.cif.g09.slc.cpg/sg12_33_cif.got.tgz:65861.got - 2010.06.28 00:19:55.
