data_PCOD8095742
_publ_section_title
;
Structure prediction by ZEFSAII (Michael W. Deem and Ramdas Pophale) SiO2 
 PCOD8095742
Probable space group: C 2/M
;
_chemical_formula_sum "Si O2"
_cell_formula_units_Z 56
_cell_length_a 24.118750
_cell_length_b 9.692773
_cell_length_c 15.205897
_cell_angle_alpha 90.000000
_cell_angle_beta 121.021091
_cell_angle_gamma 90.000000
_cell_volume 3046.382133
_symmetry_space_group_name_H-M "C 2/M"
_symmetry_group_IT_number 12
_symmetry_cell_setting 'monoclinic'
loop_
_space_group_symop_operation_xyz
x,y,z
-x,y,-z
-x,-y,-z
x,-y,z
1/2+x,1/2+y,z
1/2-x,1/2+y,-z
1/2-x,1/2-y,-z
1/2+x,1/2-y,z
loop_
_atom_site_type_symbol
_atom_site_label
_atom_site_fract_x
_atom_site_fract_y
_atom_site_fract_z
Si Si1 0.455891 0.838586 0.884320
Si Si2 0.313946 0.159366 0.829317
Si Si3 0.994660 0.342601 0.726240
Si Si4 0.297676 0.342813 0.983400
Si Si5 0.825257 0.845114 0.331717
Si Si6 0.435317 0.842073 0.497270
Si Si7 0.607524 0.350260 0.789158
O O1 0.379906 0.808402 0.831819
O O2 0.474671 0.775910 0.803902
O O3 0.469617 0.000000 0.893240
O O4 0.500000 0.774744 0.000000
O O5 0.312190 0.270285 0.904298
O O6 0.251376 0.183751 0.715157
O O7 0.313479 0.000000 0.863771
O O8 0.014943 0.500000 0.756979
O O9 0.055707 0.267800 0.734053
O O10 0.939642 0.329550 0.606776
O O11 0.271314 0.500000 0.948324
O O12 0.250000 0.250000 0.000000
O O13 0.364849 0.346905 0.090365
O O14 0.871155 0.741919 0.421321
O O15 0.835450 0.826581 0.235129
O O16 0.842694 0.000000 0.376722
O O17 0.500000 0.785731 0.500000
O O18 0.424724 0.000000 0.459375
O O19 0.574936 0.500000 0.745544
#
# Coordination Sequence:
#
# PCOD8095742 Si02
#       7
#     8   8   8   8   8   8   8
#     4   9  18  34  58  83 106 139 185 229 269 320
#     4  10  20  37  56  78 110 144 184 230 272 321
#     4  10  20  35  56  81 106 139 184 229 274 320
#     4  11  21  33  50  77 111 143 179 219 270 328
#     4  10  20  34  52  76 108 143 178 218 272 330
#     4  10  20  34  52  79 111 140 177 226 277 325
#     4  10  20  33  49  76 110 140 174 218 270 329
#
# _framework density 18.382460999999999
#
# number of rings (size 3 to 8) (size 9 to 14) (size 15 to 20)
#    0.000    2.000    2.857    1.286    0.000    3.714 
#    0.000    1.429    0.000    2.571    0.000    0.000 
#    0.000    0.000    0.000    0.000    0.000    0.000 
#
# Total GULP energy -347033.486232 kJ/mol
# GULP energy per Si atom -12394.053080 kJ/mol
# Density = 1.834062 g / cm^3
# Si number density = 18.382461 Si / 1000 Ang^3
#
#
#
# Elastic Constant Matrix: (Units=GPa)
#
#
# Indices 1 2 3 4 5 6 
#
# 1 93.1306 34.7795 42.2694 0.0000 14.9395 0.0000
# 2 34.7795 75.1233 36.2476 0.0000 9.1670 0.0000
# 3 42.2694 36.2476 95.8290 0.0000 7.4610 0.0000
# 4 0.0000 0.0000 0.0000 29.7831 0.0000 4.1462
# 5 14.9395 9.1670 7.4610 0.0000 32.0795 0.0000
# 6 0.0000 0.0000 0.0000 4.1462 0.0000 17.3903
#
#
#
# Elastic Compliance Matrix: (Units=1/GPa)
#
#
# Indices 1 2 3 4 5 6 
#
# 1 0.015225 -0.004163 -0.004768 0.000000 -0.004792 0.000000
# 2 -0.004163 0.017768 -0.004726 0.000000 -0.002039 0.000000
# 3 -0.004768 -0.004726 0.014307 0.000000 0.000243 0.000000
# 4 0.000000 0.000000 0.000000 0.034729 0.000000 -0.008280
# 5 -0.004792 -0.002039 0.000243 0.000000 0.033930 0.000000
# 6 0.000000 0.000000 0.000000 -0.008280 0.000000 0.059477
#
#
# Mechanical properties :
#
#
# Convention : Reuss Voigt Hill
#
# Bulk Modulus (GPa) = 50.03427 54.51955 52.27691
# Shear Modulus (GPa) = 23.87641 25.90302 24.88972
#
# Velocity S-wave (km/s) = 3.60789 3.75789 3.68366
# Velocity P-wave (km/s) = 6.68083 6.96792 6.82588
#
# Compressibility (1/GPa) = 0.01998630
#
# Stress axis : x y z
#
# Youngs Moduli (GPa) = 65.68130 56.28109 69.89703
#
# Poissons Ratio (x) = 0.23433 0.33325
# Poissons Ratio (y) = 0.27346 0.33030
# Poissons Ratio (z) = 0.31315 0.26596
#
# Static dielectric constant tensor:
#      x y z
#    x 3.385710 0.000000 -0.091120 
#    y 0.000000 3.377420 0.000000 
#    z -0.091120 0.000000 3.471220 
# 
# 
# High freq. dielectric constant tensor:
#      x y z
#    x 1.696910 0.000000 0.005740 
#    y 0.000000 1.700840 0.000000 
#    z 0.005740 0.000000 1.710140 
# 
# From -- ./inp_files/238435.got.cif
#   From: 2010.06.25/outbox.cif.g09.slc.cpg/sg12_120_cif.got.tgz:238435.got - 2010.06.28 00:19:55.
