data_PCOD8095175
_publ_section_title
;
Structure prediction by ZEFSAII (Michael W. Deem and Ramdas Pophale) SiO2 
 PCOD8095175
Probable space group: C 2/M
;
_chemical_formula_sum "Si O2"
_cell_formula_units_Z 56
_cell_length_a 26.622433
_cell_length_b 13.936561
_cell_length_c 9.049686
_cell_angle_alpha 90.000000
_cell_angle_beta 109.452853
_cell_angle_gamma 90.000000
_cell_volume 3165.991979
_symmetry_space_group_name_H-M "C 2/M"
_symmetry_group_IT_number 12
_symmetry_cell_setting 'monoclinic'
loop_
_space_group_symop_operation_xyz
x,y,z
-x,y,-z
-x,-y,-z
x,-y,z
1/2+x,1/2+y,z
1/2-x,1/2+y,-z
1/2-x,1/2-y,-z
1/2+x,1/2-y,z
loop_
_atom_site_type_symbol
_atom_site_label
_atom_site_fract_x
_atom_site_fract_y
_atom_site_fract_z
Si Si1 0.360525 0.108858 0.380052
Si Si2 0.381037 0.388720 0.492427
Si Si3 0.813048 0.741512 0.577067
Si Si4 0.996703 0.105151 0.669764
Si Si5 0.093356 0.768431 0.755340
Si Si6 0.237613 0.607079 0.936481
Si Si7 0.318758 0.750800 0.919344
O O1 0.341037 0.155225 0.514500
O O2 0.407786 0.170867 0.346575
O O3 0.310169 0.110416 0.224909
O O4 0.380887 0.000000 0.427335
O O5 0.369835 0.500000 0.468913
O O6 0.333395 0.342991 0.537248
O O7 0.435317 0.365822 0.638200
O O8 0.380878 0.349498 0.324130
O O9 0.750000 0.750000 0.500000
O O10 0.831703 0.726642 0.763055
O O11 0.000000 0.089684 0.500000
O O12 0.035705 0.192618 0.755349
O O13 0.010496 0.000000 0.756870
O O14 0.126760 0.749612 0.935391
O O15 0.250288 0.500000 0.001752
O O16 0.290119 0.648153 0.908510
O O17 0.222463 0.668086 0.065898
#
# Coordination Sequence:
#
# PCOD8095175 Si02
#       7
#     8   8   8   8   8   8   8
#     4   9  18  33  50  70  97 131 168 204 245 295
#     4   9  19  34  53  77 103 134 170 203 246 302
#     4  11  21  34  49  68 101 137 168 206 245 299
#     4   8  14  29  53  78 102 129 163 203 248 298
#     4   9  17  31  53  75 100 129 163 213 252 293
#     4   9  18  32  48  66  95 129 164 209 249 287
#     4  10  20  32  46  73 101 126 170 208 248 302
#
# _framework density 17.687978999999999
#
# number of rings (size 3 to 8) (size 9 to 14) (size 15 to 20)
#    0.000    2.714    1.429    1.286    2.000    2.857 
#    0.000    0.714    0.000   12.429    0.000    0.000 
#    0.000   22.857    0.000    0.000    0.000    0.000 
#
# Total GULP energy -346999.852863 kJ/mol
# GULP energy per Si atom -12392.851888 kJ/mol
# Density = 1.764772 g / cm^3
# Si number density = 17.687979 Si / 1000 Ang^3
#
#
#
# Elastic Constant Matrix: (Units=GPa)
#
#
# Indices 1 2 3 4 5 6 
#
# 1 76.7573 42.9668 26.4316 0.0000 5.0247 0.0000
# 2 42.9668 137.4903 36.0965 0.0000 0.2335 0.0000
# 3 26.4316 36.0965 83.3893 0.0000 -11.1063 0.0000
# 4 0.0000 0.0000 0.0000 17.6794 0.0000 6.7423
# 5 5.0247 0.2335 -11.1063 0.0000 19.5757 0.0000
# 6 0.0000 0.0000 0.0000 6.7423 0.0000 2.6509
#
#
#
# Elastic Compliance Matrix: (Units=1/GPa)
#
#
# Indices 1 2 3 4 5 6 
#
# 1 0.017454 -0.004223 -0.004645 0.000000 -0.007065 0.000000
# 2 -0.004223 0.009323 -0.002777 0.000000 -0.000603 0.000000
# 3 -0.004645 -0.002777 0.016042 0.000000 0.010327 0.000000
# 4 0.000000 0.000000 0.000000 1.883164 0.000000 -4.789637
# 5 -0.007065 -0.000603 0.010327 0.000000 0.058763 0.000000
# 6 0.000000 0.000000 0.000000 -4.789637 0.000000 12.559186
#
#
# Mechanical properties :
#
#
# Convention : Reuss Voigt Hill
#
# Bulk Modulus (GPa) = 51.20926 56.51407 53.86167
# Shear Modulus (GPa) = 0.34308 20.79066 10.56687
#
# Velocity S-wave (km/s) = 0.44089 3.43215 2.44684
# Velocity P-wave (km/s) = 5.41050 6.90841 6.20482
#
# Compressibility (1/GPa) = 0.01952772
#
# Stress axis : x y z
#
# Youngs Moduli (GPa) = 57.29305 107.25964 62.33608
#
# Poissons Ratio (x) = 0.45295 0.28957
# Poissons Ratio (y) = 0.24195 0.17314
# Poissons Ratio (z) = 0.26615 0.29791
#
# Static dielectric constant tensor:
#      x y z
#    x 3.447120 0.000000 0.106210 
#    y 0.000000 3.573170 0.000000 
#    z 0.106210 0.000000 3.090470 
# 
# 
# High freq. dielectric constant tensor:
#      x y z
#    x 1.667480 0.000000 0.002990 
#    y 0.000000 1.686120 0.000000 
#    z 0.002990 0.000000 1.662330 
# 
# From -- ./inp_files/96505.got.cif
#   From: 2010.06.25/outbox.cif.g09.slc.cpg/sg12_49_cif.got.tgz:96505.got - 2010.06.28 00:19:55.
