data_PCOD8095009
_publ_section_title
;
Structure prediction by ZEFSAII (Michael W. Deem and Ramdas Pophale) SiO2 
 PCOD8095009
Probable space group: C 2/M
;
_chemical_formula_sum "Si O2"
_cell_formula_units_Z 56
_cell_length_a 13.043899
_cell_length_b 21.931872
_cell_length_c 13.179102
_cell_angle_alpha 90.000000
_cell_angle_beta 57.139216
_cell_angle_gamma 90.000000
_cell_volume 3166.968990
_symmetry_space_group_name_H-M "C 2/M"
_symmetry_group_IT_number 12
_symmetry_cell_setting 'monoclinic'
loop_
_space_group_symop_operation_xyz
x,y,z
-x,y,-z
-x,-y,-z
x,-y,z
1/2+x,1/2+y,z
1/2-x,1/2+y,-z
1/2-x,1/2-y,-z
1/2+x,1/2-y,z
loop_
_atom_site_type_symbol
_atom_site_label
_atom_site_fract_x
_atom_site_fract_y
_atom_site_fract_z
Si Si1 0.436775 0.569607 0.137273
Si Si2 0.844719 0.568955 0.687029
Si Si3 0.988172 0.654807 0.728494
Si Si4 0.147645 0.240385 0.286395
Si Si5 0.420945 0.782664 0.141812
Si Si6 0.948457 0.173444 0.281962
Si Si7 0.826670 0.675013 0.544581
O O1 0.473940 0.500000 0.141014
O O2 0.292106 0.576513 0.198401
O O3 0.480034 0.609390 0.210418
O O4 0.500000 0.592660 0.000000
O O5 0.872248 0.500000 0.638125
O O6 0.868815 0.613553 0.579527
O O7 0.939317 0.587579 0.726234
O O8 0.037447 0.657188 0.817008
O O9 0.098387 0.679928 0.598894
O O10 0.874670 0.701327 0.774482
O O11 0.279120 0.212377 0.189371
O O12 0.142183 0.264882 0.405328
O O13 0.047773 0.187901 0.315811
O O14 0.447642 0.723480 0.194380
O O15 0.500000 0.778470 0.000000
O O16 0.816062 0.171291 0.406330
#
# Coordination Sequence:
#
# PCOD8095009 Si02
#       7
#     8   8   8   8   8   8   8
#     4   9  17  29  46  70  97 122 154 195 231 268
#     4   9  17  30  49  72  95 120 150 188 236 278
#     4  10  20  31  47  69  95 122 151 191 231 271
#     4   9  18  30  47  67  91 122 151 183 228 274
#     4  10  21  33  45  67  96 123 155 190 223 270
#     4   9  18  30  48  69  93 125 153 186 232 277
#     4   9  18  31  45  72  99 114 148 195 231 272
#
# _framework density 17.682521999999999
#
# number of rings (size 3 to 8) (size 9 to 14) (size 15 to 20)
#    0.000    2.714    0.000    3.000    0.000   10.857 
#    0.000    0.000    0.000    1.286    0.000    0.000 
#    0.000   14.857    0.000    0.000    0.000    0.000 
#
# Total GULP energy -347109.941042 kJ/mol
# GULP energy per Si atom -12396.783609 kJ/mol
# Density = 1.764228 g / cm^3
# Si number density = 17.682522 Si / 1000 Ang^3
#
#
#
# Elastic Constant Matrix: (Units=GPa)
#
#
# Indices 1 2 3 4 5 6 
#
# 1 91.7823 31.1037 21.6216 0.0000 -7.0496 0.0000
# 2 31.1037 67.8285 12.0367 0.0000 2.2839 0.0000
# 3 21.6216 12.0367 58.6200 0.0000 -5.7173 0.0000
# 4 0.0000 0.0000 0.0000 10.2313 0.0000 -3.6853
# 5 -7.0496 2.2839 -5.7173 0.0000 12.9382 0.0000
# 6 0.0000 0.0000 0.0000 -3.6853 0.0000 25.0163
#
#
#
# Elastic Compliance Matrix: (Units=1/GPa)
#
#
# Indices 1 2 3 4 5 6 
#
# 1 0.014363 -0.006256 -0.003284 0.000000 0.007479 0.000000
# 2 -0.006256 0.018255 -0.002182 0.000000 -0.007595 0.000000
# 3 -0.003284 -0.002182 0.019418 0.000000 0.007177 0.000000
# 4 0.000000 0.000000 0.000000 0.103216 0.000000 0.015205
# 5 0.007479 -0.007595 0.007177 0.000000 0.085877 0.000000
# 6 0.000000 0.000000 0.000000 0.015205 0.000000 0.042214
#
#
# Mechanical properties :
#
#
# Convention : Reuss Voigt Hill
#
# Bulk Modulus (GPa) = 34.97271 38.63944 36.80607
# Shear Modulus (GPa) = 15.80695 19.86844 17.83770
#
# Velocity S-wave (km/s) = 2.99311 3.35568 3.17957
# Velocity P-wave (km/s) = 5.63613 6.07563 5.86001
#
# Compressibility (1/GPa) = 0.02859373
#
# Stress axis : x y z
#
# Youngs Moduli (GPa) = 69.62183 54.78095 51.49813
#
# Poissons Ratio (x) = 0.34269 0.16911
# Poissons Ratio (y) = 0.43552 0.11235
# Poissons Ratio (z) = 0.22863 0.11952
#
# Static dielectric constant tensor:
#      x y z
#    x 3.506690 0.000000 -0.105890 
#    y 0.000000 3.293430 0.000000 
#    z -0.105890 0.000000 3.111940 
# 
# 
# High freq. dielectric constant tensor:
#      x y z
#    x 1.683820 0.000000 -0.019880 
#    y 0.000000 1.659690 0.000000 
#    z -0.019880 0.000000 1.670520 
# 
# From -- ./inp_files/133882.got.cif
#   From: 2010.06.25/outbox.cif.g09.slc.cpg/sg12_67_cif.got.tgz:133882.got - 2010.06.28 00:19:55.
