data_PCOD8095528
_publ_section_title
;
Structure prediction by ZEFSAII (Michael W. Deem and Ramdas Pophale) SiO2 
 PCOD8095528
Probable space group: C 2/M
;
_chemical_formula_sum "Si O2"
_cell_formula_units_Z 56
_cell_length_a 27.623923
_cell_length_b 19.035673
_cell_length_c 11.178963
_cell_angle_alpha 90.000000
_cell_angle_beta 150.212753
_cell_angle_gamma 90.000000
_cell_volume 2920.249187
_symmetry_space_group_name_H-M "C 2/M"
_symmetry_group_IT_number 12
_symmetry_cell_setting 'monoclinic'
loop_
_space_group_symop_operation_xyz
x,y,z
-x,y,-z
-x,-y,-z
x,-y,z
1/2+x,1/2+y,z
1/2-x,1/2+y,-z
1/2-x,1/2-y,-z
1/2+x,1/2-y,z
loop_
_atom_site_type_symbol
_atom_site_label
_atom_site_fract_x
_atom_site_fract_y
_atom_site_fract_z
Si Si1 0.614313 0.917368 0.250019
Si Si2 0.717998 0.921688 0.714008
Si Si3 0.335059 0.286629 0.350727
Si Si4 0.325730 0.684872 0.075676
Si Si5 0.710080 0.800246 0.311248
Si Si6 0.477644 0.923468 0.589204
Si Si7 0.458226 0.226855 0.206251
O O1 0.661037 0.891865 0.475630
O O2 0.676087 0.876155 0.283605
O O3 0.627069 0.000000 0.255550
O O4 0.500000 0.896216 0.000000
O O5 0.638847 0.916509 0.650194
O O6 0.753308 0.000000 0.762420
O O7 0.817028 0.881976 0.967792
O O8 0.338498 0.339432 0.242586
O O9 0.285358 0.316523 0.363981
O O10 0.441673 0.262093 0.617675
O O11 0.278707 0.220927 0.172759
O O12 0.415626 0.736657 0.235422
O O13 0.750000 0.750000 0.500000
O O14 0.618353 0.757291 0.062877
O O15 0.500000 0.925427 0.500000
O O16 0.534733 0.857774 0.767874
O O17 0.508524 0.000000 0.714700
#
# Coordination Sequence:
#
# PCOD8095528 Si02
#       7
#     8   8   8   8   8   8   8
#     4  10  21  38  59  83 117 158 194 231 287 353
#     4  10  20  36  57  81 116 151 187 237 285 344
#     4  10  21  36  54  83 114 147 193 239 290 338
#     4  10  20  35  58  85 112 149 195 233 288 353
#     4  11  25  36  55  86 114 154 198 244 280 337
#     4  10  20  32  53  87 120 147 179 226 295 359
#     4  11  21  36  60  80 120 155 187 239 290 348
#
# _framework density 19.176445000000001
#
# number of rings (size 3 to 8) (size 9 to 14) (size 15 to 20)
#    0.000    1.714    1.429    3.857    6.000    1.714 
#    0.000    0.714    0.000    2.571    0.000    3.000 
#    0.000    0.000    0.000    0.000    0.000    0.000 
#
# Total GULP energy -346930.741079 kJ/mol
# GULP energy per Si atom -12390.383610 kJ/mol
# Density = 1.913280 g / cm^3
# Si number density = 19.176445 Si / 1000 Ang^3
#
#
#
# Elastic Constant Matrix: (Units=GPa)
#
#
# Indices 1 2 3 4 5 6 
#
# 1 124.5793 54.9050 50.3953 0.0000 -0.1973 0.0000
# 2 54.9050 84.9192 48.7422 0.0000 -1.0349 0.0000
# 3 50.3953 48.7422 103.6837 0.0000 3.1558 0.0000
# 4 0.0000 0.0000 0.0000 26.9184 0.0000 4.9690
# 5 -0.1973 -1.0349 3.1558 0.0000 29.8230 0.0000
# 6 0.0000 0.0000 0.0000 4.9690 0.0000 26.5915
#
#
#
# Elastic Compliance Matrix: (Units=1/GPa)
#
#
# Indices 1 2 3 4 5 6 
#
# 1 0.011853 -0.005960 -0.002965 0.000000 0.000185 0.000000
# 2 -0.005960 0.019180 -0.006159 0.000000 0.001278 0.000000
# 3 -0.002965 -0.006159 0.014034 0.000000 -0.001718 0.000000
# 4 0.000000 0.000000 0.000000 0.038477 0.000000 -0.007190
# 5 0.000185 0.001278 -0.001718 0.000000 0.033759 0.000000
# 6 0.000000 0.000000 0.000000 -0.007190 0.000000 0.038950
#
#
# Mechanical properties :
#
#
# Convention : Reuss Voigt Hill
#
# Bulk Modulus (GPa) = 67.11690 69.02968 68.07329
# Shear Modulus (GPa) = 26.12536 27.27589 26.70063
#
# Velocity S-wave (km/s) = 3.69503 3.77552 3.73549
# Velocity P-wave (km/s) = 7.29931 7.42168 7.36075
#
# Compressibility (1/GPa) = 0.01489938
#
# Stress axis : x y z
#
# Youngs Moduli (GPa) = 84.36413 52.13857 71.25783
#
# Poissons Ratio (x) = 0.31072 0.21130
# Poissons Ratio (y) = 0.50277 0.43886
# Poissons Ratio (z) = 0.25017 0.32111
#
# Static dielectric constant tensor:
#      x y z
#    x 3.657500 0.000000 -0.166970 
#    y 0.000000 3.670890 0.000000 
#    z -0.166970 0.000000 3.618280 
# 
# 
# High freq. dielectric constant tensor:
#      x y z
#    x 1.751420 0.000000 -0.011410 
#    y 0.000000 1.723720 0.000000 
#    z -0.011410 0.000000 1.736850 
# 
# From -- ./inp_files/184596.got.cif
#   From: 2010.06.25/outbox.cif.g09.slc.cpg/sg12_93_cif.got.tgz:184596.got - 2010.06.28 00:19:55.
