data_PCOD8095051
_publ_section_title
;
Structure prediction by ZEFSAII (Michael W. Deem and Ramdas Pophale) SiO2 
 PCOD8095051
Probable space group: C 2/M
;
_chemical_formula_sum "Si O2"
_cell_formula_units_Z 60
_cell_length_a 8.881190
_cell_length_b 23.424986
_cell_length_c 19.262897
_cell_angle_alpha 90.000000
_cell_angle_beta 50.520758
_cell_angle_gamma 90.000000
_cell_volume 3093.198670
_symmetry_space_group_name_H-M "C 2/M"
_symmetry_group_IT_number 12
_symmetry_cell_setting 'monoclinic'
loop_
_space_group_symop_operation_xyz
x,y,z
-x,y,-z
-x,-y,-z
x,-y,z
1/2+x,1/2+y,z
1/2-x,1/2+y,-z
1/2-x,1/2-y,-z
1/2+x,1/2-y,z
loop_
_atom_site_type_symbol
_atom_site_label
_atom_site_fract_x
_atom_site_fract_y
_atom_site_fract_z
Si Si1 0.408198 0.647199 0.207617
Si Si2 0.000000 0.253964 0.000000
Si Si3 0.430197 0.771153 0.867914
Si Si4 0.340862 0.434761 0.603502
Si Si5 0.578777 0.434740 0.262317
Si Si6 0.517236 0.065884 0.129333
Si Si7 0.903238 0.936555 0.953914
Si Si8 0.012300 0.637934 0.257435
O O1 0.524067 0.706328 0.167222
O O2 0.436931 0.613266 0.271509
O O3 0.486332 0.607123 0.125308
O O4 0.177217 0.656929 0.264031
O O5 0.196649 0.216165 0.934843
O O6 0.992542 0.288486 0.928695
O O7 0.542214 0.809204 0.778018
O O8 0.500000 0.418440 0.500000
O O9 0.263577 0.500000 0.614995
O O10 0.439814 0.429663 0.649679
O O11 0.170691 0.387372 0.646168
O O12 0.527013 0.500000 0.254683
O O13 0.797061 0.417130 0.172872
O O14 0.586445 0.089690 0.183320
O O15 0.525790 0.000000 0.141413
O O16 0.675585 0.083516 0.025119
O O17 0.911528 0.000000 0.918325
O O18 0.000000 0.937269 0.000000
#
# Coordination Sequence:
#
# PCOD8095051 Si02
#       8
#     8   4   8   8   8   8   8   8
#     4  12  24  35  56  83 121 157 203 256 293 345
#     4  10  24  40  54  78 120 166 220 258 286 322
#     4  11  25  38  56  84 117 167 214 260 293 337
#     4   9  20  42  71  96 118 148 186 234 302 386
#     4   9  20  36  57  87 118 147 189 239 300 362
#     4   9  19  34  52  76 110 155 195 234 282 351
#     4  10  20  31  50  78 115 157 200 241 286 339
#     4  11  22  37  59  83 116 152 196 241 305 357
#
# _framework density 19.397396000000001
#
# number of rings (size 3 to 8) (size 9 to 14) (size 15 to 20)
#    0.000    1.867    2.667    1.600    8.400    2.133 
#    0.000    2.667    0.000    5.600    0.000    0.467 
#    0.000    0.000    0.000    0.000    0.000    0.000 
#
# Total GULP energy -371703.922103 kJ/mol
# GULP energy per Si atom -12390.130737 kJ/mol
# Density = 1.935325 g / cm^3
# Si number density = 19.397396 Si / 1000 Ang^3
#
#
#
# Elastic Constant Matrix: (Units=GPa)
#
#
# Indices 1 2 3 4 5 6 
#
# 1 86.7593 -0.7477 56.3046 0.0000 -2.6194 0.0000
# 2 -0.7477 -215.3442 186.8894 0.0000 -63.2138 0.0000
# 3 56.3046 186.8894 42.0593 0.0000 15.3261 0.0000
# 4 0.0000 0.0000 0.0000 21.3122 0.0000 4.9503
# 5 -2.6194 -63.2138 15.3261 0.0000 10.4798 0.0000
# 6 0.0000 0.0000 0.0000 4.9503 0.0000 21.3326
#
#
#
# Elastic Compliance Matrix: (Units=1/GPa)
#
#
# Indices 1 2 3 4 5 6 
#
# 1 0.014637 -0.002793 -0.005098 0.000000 -0.005731 0.000000
# 2 -0.002793 0.000314 0.004085 0.000000 -0.004779 0.000000
# 3 -0.005098 0.004085 0.008423 0.000000 0.011048 0.000000
# 4 0.000000 0.000000 0.000000 0.049595 0.000000 -0.011509
# 5 -0.005731 -0.004779 0.011048 0.000000 0.049008 0.000000
# 6 0.000000 0.000000 0.000000 -0.011509 0.000000 0.049547
#
#
# Mechanical properties :
#
#
# Convention : Reuss Voigt Hill
#
# Bulk Modulus (GPa) = 63.43677 44.26301 53.84989
# Shear Modulus (GPa) = 27.11645 -11.30654 7.90496
#
# Velocity S-wave (km/s) = 3.74296 -2.41693 2.02092
# Velocity P-wave (km/s) = 7.17318 3.88328 5.76777
#
# Compressibility (1/GPa) = 0.01576373
#
# Stress axis : x y z
#
# Youngs Moduli (GPa) = 68.31844 3185.79996 118.71907
#
# Poissons Ratio (x) = 8.89666 0.60520
# Poissons Ratio (y) = 0.19079 -0.48496
# Poissons Ratio (z) = 0.34827 -13.01382
#
# Static dielectric constant tensor:
#      x y z
#    x 3.828320 0.000000 0.002250 
#    y 0.000000 3.621720 0.000000 
#    z 0.002250 0.000000 3.244570 
# 
# 
# High freq. dielectric constant tensor:
#      x y z
#    x 1.754820 0.000000 0.004860 
#    y 0.000000 1.754580 0.000000 
#    z 0.004860 0.000000 1.717310 
# 
# From -- ./inp_files/259193.got.cif
#   From: 2010.06.25/outbox.cif.g09.slc.cpg/sg12_130_cif.got.tgz:259193.got - 2010.06.28 00:19:55.
