data_PCOD8095096
_publ_section_title
;
Structure prediction by ZEFSAII (Michael W. Deem and Ramdas Pophale) SiO2 
 PCOD8095096
Probable space group: C 2/M
;
_chemical_formula_sum "Si O2"
_cell_formula_units_Z 40
_cell_length_a 27.227425
_cell_length_b 9.436341
_cell_length_c 11.526378
_cell_angle_alpha 90.000000
_cell_angle_beta 126.543334
_cell_angle_gamma 90.000000
_cell_volume 2379.241537
_symmetry_space_group_name_H-M "C 2/M"
_symmetry_group_IT_number 12
_symmetry_cell_setting 'monoclinic'
loop_
_space_group_symop_operation_xyz
x,y,z
-x,y,-z
-x,-y,-z
x,-y,z
1/2+x,1/2+y,z
1/2-x,1/2+y,-z
1/2-x,1/2-y,-z
1/2+x,1/2-y,z
loop_
_atom_site_type_symbol
_atom_site_label
_atom_site_fract_x
_atom_site_fract_y
_atom_site_fract_z
Si Si1 0.031823 0.668013 0.224419
Si Si2 0.088733 0.666779 0.071860
Si Si3 0.671892 0.664059 0.798374
Si Si4 0.691868 0.834740 0.051890
Si Si5 0.053658 0.165461 0.488227
O O1 0.034936 0.500000 0.250637
O O2 0.079306 0.719755 0.190616
O O3 0.049231 0.746477 0.365526
O O4 0.964687 0.719762 0.089579
O O5 0.082098 0.500000 0.067529
O O6 0.154608 0.714495 0.114153
O O7 0.668204 0.500000 0.828568
O O8 0.736760 0.700310 0.828638
O O9 0.618636 0.705459 0.635397
O O10 0.663982 0.753222 0.903573
O O11 0.681289 0.000000 0.012742
O O12 0.000000 0.211256 0.500000
O O13 0.048996 0.000000 0.451828
#
# Coordination Sequence:
#
# PCOD8095096 Si02
#       5
#     8   8   8   8   8
#     4   9  17  30  48  68  88 111 145 182 214 256
#     4   8  15  29  48  68  88 111 141 182 224 253
#     4   9  18  30  44  65  91 116 144 179 216 255
#     4   9  16  29  49  67  85 113 147 180 216 257
#     4  10  20  32  44  62  92 122 143 172 218 262
#
# _framework density 16.812080999999999
#
# number of rings (size 3 to 8) (size 9 to 14) (size 15 to 20)
#    0.000    3.000    0.000    2.400    0.000    1.200 
#    0.000    4.000    0.000    0.000    0.000    0.000 
#    0.000    0.000    0.000    0.000    0.000    0.000 
#
# Total GULP energy -247912.259188 kJ/mol
# GULP energy per Si atom -12395.612959 kJ/mol
# Density = 1.677382 g / cm^3
# Si number density = 16.812081 Si / 1000 Ang^3
#
#
#
# Elastic Constant Matrix: (Units=GPa)
#
#
# Indices 1 2 3 4 5 6 
#
# 1 159.1608 43.3405 81.1784 0.0000 -9.2953 0.0000
# 2 43.3405 38.5020 47.0305 0.0000 -7.3279 0.0000
# 3 81.1784 47.0305 127.4955 0.0000 -11.1576 0.0000
# 4 0.0000 0.0000 0.0000 20.5485 0.0000 -6.1444
# 5 -9.2953 -7.3279 -11.1576 0.0000 22.0948 0.0000
# 6 0.0000 0.0000 0.0000 -6.1444 0.0000 19.0027
#
#
#
# Elastic Compliance Matrix: (Units=1/GPa)
#
#
# Indices 1 2 3 4 5 6 
#
# 1 0.010102 -0.006386 -0.004070 0.000000 0.000077 0.000000
# 2 -0.006386 0.052428 -0.014634 0.000000 0.007312 0.000000
# 3 -0.004070 -0.014634 0.015964 0.000000 0.001496 0.000000
# 4 0.000000 0.000000 0.000000 0.053874 0.000000 0.017420
# 5 0.000077 0.007312 0.001496 0.000000 0.048472 0.000000
# 6 0.000000 0.000000 0.000000 0.017420 0.000000 0.058257
#
#
# Mechanical properties :
#
#
# Convention : Reuss Voigt Hill
#
# Bulk Modulus (GPa) = 35.31703 74.25079 54.78391
# Shear Modulus (GPa) = 16.73844 22.56979 19.65411
#
# Velocity S-wave (km/s) = 3.15877 3.66795 3.42284
# Velocity P-wave (km/s) = 5.86142 7.88667 6.94823
#
# Compressibility (1/GPa) = 0.02831495
#
# Stress axis : x y z
#
# Youngs Moduli (GPa) = 98.98937 19.07390 62.64143
#
# Poissons Ratio (x) = 0.12180 0.25495
# Poissons Ratio (y) = 0.63210 0.91669
# Poissons Ratio (z) = 0.40288 0.27913
#
# Static dielectric constant tensor:
#      x y z
#    x 3.610150 0.000000 0.076220 
#    y 0.000000 2.939050 0.000000 
#    z 0.076220 0.000000 3.020290 
# 
# 
# High freq. dielectric constant tensor:
#      x y z
#    x 1.662850 0.000000 0.003580 
#    y 0.000000 1.626590 0.000000 
#    z 0.003580 0.000000 1.633960 
# 
# From -- ./inp_files/71324.got.cif
#   From: 2010.06.25/outbox.cif.g09.slc.cpg/sg12_36_cif.got.tgz:71324.got - 2010.06.28 00:19:55.
