data_PCOD8095612
_publ_section_title
;
Structure prediction by ZEFSAII (Michael W. Deem and Ramdas Pophale) SiO2 
 PCOD8095612
Probable space group: C 2/M
;
_chemical_formula_sum "Si O2"
_cell_formula_units_Z 64
_cell_length_a 29.712816
_cell_length_b 8.910086
_cell_length_c 14.052566
_cell_angle_alpha 90.000000
_cell_angle_beta 88.936244
_cell_angle_gamma 90.000000
_cell_volume 3719.687785
_symmetry_space_group_name_H-M "C 2/M"
_symmetry_group_IT_number 12
_symmetry_cell_setting 'monoclinic'
loop_
_space_group_symop_operation_xyz
x,y,z
-x,y,-z
-x,-y,-z
x,-y,z
1/2+x,1/2+y,z
1/2-x,1/2+y,-z
1/2-x,1/2-y,-z
1/2+x,1/2-y,z
loop_
_atom_site_type_symbol
_atom_site_label
_atom_site_fract_x
_atom_site_fract_y
_atom_site_fract_z
Si Si1 0.701331 0.322386 0.510503
Si Si2 0.451081 0.826586 0.988648
Si Si3 0.629883 0.823053 0.880741
Si Si4 0.753707 0.169336 0.809462
Si Si5 0.615090 0.826941 0.164445
Si Si6 0.826670 0.825429 0.282127
Si Si7 0.157554 0.830867 0.320821
Si Si8 0.314314 0.324374 0.971820
O O1 0.708744 0.500000 0.507173
O O2 0.750000 0.250000 0.500000
O O3 0.677007 0.270933 0.608771
O O4 0.669062 0.269373 0.425723
O O5 0.434812 0.808290 0.879381
O O6 0.455695 0.000000 0.016118
O O7 0.500000 0.747957 0.000000
O O8 0.414063 0.757160 0.063339
O O9 0.632422 0.761152 0.772713
O O10 0.629004 0.000000 0.881157
O O11 0.676419 0.769659 0.931899
O O12 0.719714 0.290719 0.769960
O O13 0.797608 0.176978 0.742769
O O14 0.767194 0.211450 0.918675
O O15 0.733384 0.000000 0.805658
O O16 0.618469 0.772457 0.274181
O O17 0.646628 0.718994 0.102828
O O18 0.630746 0.000000 0.154992
O O19 0.836899 0.000000 0.275779
O O20 0.138923 0.000000 0.327482
O O21 0.317736 0.500000 0.995615
#
# Coordination Sequence:
#
# PCOD8095612 Si02
#       8
#     8   8   8   8   8   8   8   8
#     4  10  20  33  48  67  89 123 167 208 244 273
#     4   8  15  30  52  76  98 119 146 183 229 282
#     4  10  20  33  49  68  92 122 153 188 231 282
#     4   9  17  29  45  63  86 121 160 197 234 270
#     4   9  16  26  45  73  98 121 152 187 229 282
#     4  11  22  32  45  65  91 123 159 199 239 275
#     4   9  17  30  46  64  93 126 158 200 242 273
#     4   9  17  30  46  63  90 124 156 192 230 270
#
# _framework density 17.205745
#
# number of rings (size 3 to 8) (size 9 to 14) (size 15 to 20)
#    0.000    2.625    1.250    3.000    0.000    4.000 
#    0.000    0.000    0.000   13.500    0.000    0.875 
#    0.000    7.000    0.000    0.000    0.000    0.000 
#
# Total GULP energy -396529.307530 kJ/mol
# GULP energy per Si atom -12391.540860 kJ/mol
# Density = 1.716658 g / cm^3
# Si number density = 17.205745 Si / 1000 Ang^3
#
#
#
# Elastic Constant Matrix: (Units=GPa)
#
#
# Indices 1 2 3 4 5 6 
#
# 1 51.2050 5.1725 36.1153 0.0000 13.3777 0.0000
# 2 5.1725 39.4122 31.5711 0.0000 3.1004 0.0000
# 3 36.1153 31.5711 136.7049 0.0000 9.5811 0.0000
# 4 0.0000 0.0000 0.0000 19.8361 0.0000 -0.6080
# 5 13.3777 3.1004 9.5811 0.0000 16.3117 0.0000
# 6 0.0000 0.0000 0.0000 -0.6080 0.0000 12.2472
#
#
#
# Elastic Compliance Matrix: (Units=1/GPa)
#
#
# Indices 1 2 3 4 5 6 
#
# 1 0.029678 0.003501 -0.007193 0.000000 -0.020780 0.000000
# 2 0.003501 0.031594 -0.007926 0.000000 -0.004222 0.000000
# 3 -0.007193 -0.007926 0.010979 0.000000 0.000957 0.000000
# 4 0.000000 0.000000 0.000000 0.050490 0.000000 0.002507
# 5 -0.020780 -0.004222 0.000957 0.000000 0.078589 0.000000
# 6 0.000000 0.000000 0.000000 0.002507 0.000000 0.081776
#
#
# Mechanical properties :
#
#
# Convention : Reuss Voigt Hill
#
# Bulk Modulus (GPa) = 20.40116 41.44888 30.92502
# Shear Modulus (GPa) = 15.49535 19.97654 17.73595
#
# Velocity S-wave (km/s) = 3.00424 3.41110 3.21411
# Velocity P-wave (km/s) = 4.89049 6.29735 5.63797
#
# Compressibility (1/GPa) = 0.04901682
#
# Stress axis : x y z
#
# Youngs Moduli (GPa) = 33.69536 31.65132 91.08690
#
# Poissons Ratio (x) = -0.11083 0.65515
# Poissons Ratio (y) = -0.11798 0.72192
# Poissons Ratio (z) = 0.24236 0.25086
#
# Static dielectric constant tensor:
#      x y z
#    x 3.140160 0.000000 0.178960 
#    y 0.000000 3.143870 0.000000 
#    z 0.178960 0.000000 3.706870 
# 
# 
# High freq. dielectric constant tensor:
#      x y z
#    x 1.618930 0.000000 0.009780 
#    y 0.000000 1.657320 0.000000 
#    z 0.009780 0.000000 1.668520 
# 
# From -- ./inp_files/248416.got.cif
#   From: 2010.06.25/outbox.cif.g09.slc.cpg/sg12_125_cif.got.tgz:248416.got - 2010.06.28 00:19:55.
