data_PCOD8095480
_publ_section_title
;
Structure prediction by ZEFSAII (Michael W. Deem and Ramdas Pophale) SiO2 
 PCOD8095480
Probable space group: C 2/M
;
_chemical_formula_sum "Si O2"
_cell_formula_units_Z 64
_cell_length_a 32.670050
_cell_length_b 9.074050
_cell_length_c 17.899784
_cell_angle_alpha 90.000000
_cell_angle_beta 138.023880
_cell_angle_gamma 90.000000
_cell_volume 3549.020757
_symmetry_space_group_name_H-M "C 2/M"
_symmetry_group_IT_number 12
_symmetry_cell_setting 'monoclinic'
loop_
_space_group_symop_operation_xyz
x,y,z
-x,y,-z
-x,-y,-z
x,-y,z
1/2+x,1/2+y,z
1/2-x,1/2+y,-z
1/2-x,1/2-y,-z
1/2+x,1/2-y,z
loop_
_atom_site_type_symbol
_atom_site_label
_atom_site_fract_x
_atom_site_fract_y
_atom_site_fract_z
Si Si1 0.992692 0.170766 0.759330
Si Si2 0.125931 0.331238 0.430177
Si Si3 0.664695 0.172794 0.318440
Si Si4 0.230454 0.326027 0.147683
Si Si5 0.703979 0.170047 0.883253
Si Si6 0.384680 0.167613 0.111376
Si Si7 0.546158 0.330126 0.128105
Si Si8 0.248374 0.328243 0.671004
O O1 0.056540 0.231876 0.816937
O O2 0.935206 0.238769 0.636409
O O3 0.987076 0.207097 0.839212
O O4 0.992081 0.000000 0.741125
O O5 0.105371 0.500000 0.396860
O O6 0.157650 0.283558 0.395500
O O7 0.175130 0.306253 0.562987
O O8 0.603626 0.224181 0.192538
O O9 0.721203 0.264523 0.362611
O O10 0.675654 0.000000 0.320735
O O11 0.240738 0.500000 0.164415
O O12 0.289874 0.251194 0.188416
O O13 0.225445 0.261597 0.223630
O O14 0.168740 0.284128 0.018918
O O15 0.637607 0.183415 0.832447
O O16 0.722718 0.000000 0.899023
O O17 0.750000 0.250000 0.000000
O O18 0.403240 0.000000 0.119338
O O19 0.567791 0.500000 0.155519
O O20 0.500000 0.292614 0.000000
O O21 0.264809 0.500000 0.702075
#
# Coordination Sequence:
#
# PCOD8095480 Si02
#       8
#     8   8   8   8   8   8   8   8
#     4  10  20  32  52  78 101 134 176 216 257 302
#     4   9  20  38  55  72 100 139 179 218 264 310
#     4  10  20  34  52  75 100 133 177 220 263 309
#     4  10  21  35  52  80 111 139 170 213 265 312
#     4   9  17  32  53  77 106 142 174 208 256 311
#     4   9  19  34  53  77 108 139 169 205 251 312
#     4   9  19  34  48  68 102 139 173 212 257 305
#     4  11  22  35  54  77 103 138 176 218 264 314
#
# _framework density 18.033142000000002
#
# number of rings (size 3 to 8) (size 9 to 14) (size 15 to 20)
#    0.000    2.375    0.000    3.000    1.750    5.250 
#    0.000    0.000    0.000    0.750    0.000    5.250 
#    0.000    0.000    0.000    0.000    0.000    0.000 
#
# Total GULP energy -396764.155165 kJ/mol
# GULP energy per Si atom -12398.879849 kJ/mol
# Density = 1.799210 g / cm^3
# Si number density = 18.033142 Si / 1000 Ang^3
#
#
#
# Elastic Constant Matrix: (Units=GPa)
#
#
# Indices 1 2 3 4 5 6 
#
# 1 89.1172 53.8302 31.2687 0.0000 13.9219 0.0000
# 2 53.8302 102.8043 34.9299 0.0000 11.6718 0.0000
# 3 31.2687 34.9299 55.2205 0.0000 12.0907 0.0000
# 4 0.0000 0.0000 0.0000 26.6093 0.0000 1.8246
# 5 13.9219 11.6718 12.0907 0.0000 19.9012 0.0000
# 6 0.0000 0.0000 0.0000 1.8246 0.0000 36.9280
#
#
#
# Elastic Compliance Matrix: (Units=1/GPa)
#
#
# Indices 1 2 3 4 5 6 
#
# 1 0.018067 -0.007338 -0.004341 0.000000 -0.005698 0.000000
# 2 -0.007338 0.015517 -0.005526 0.000000 -0.000609 0.000000
# 3 -0.004341 -0.005526 0.026170 0.000000 -0.009621 0.000000
# 4 0.000000 0.000000 0.000000 0.037709 0.000000 -0.001863
# 5 -0.005698 -0.000609 -0.009621 0.000000 0.060437 0.000000
# 6 0.000000 0.000000 0.000000 -0.001863 0.000000 0.027172
#
#
# Mechanical properties :
#
#
# Convention : Reuss Voigt Hill
#
# Bulk Modulus (GPa) = 39.46056 54.13328 46.79692
# Shear Modulus (GPa) = 21.93667 25.16193 23.54930
#
# Velocity S-wave (km/s) = 3.49157 3.73945 3.61763
# Velocity P-wave (km/s) = 6.17936 6.98058 6.59215
#
# Compressibility (1/GPa) = 0.02534176
#
# Stress axis : x y z
#
# Youngs Moduli (GPa) = 55.34920 64.44716 38.21230
#
# Poissons Ratio (x) = 0.47294 0.16588
# Poissons Ratio (y) = 0.40618 0.21117
# Poissons Ratio (z) = 0.24027 0.35615
#
# Static dielectric constant tensor:
#      x y z
#    x 3.423490 0.000000 -0.031910 
#    y 0.000000 3.440990 0.000000 
#    z -0.031910 0.000000 3.169470 
# 
# 
# High freq. dielectric constant tensor:
#      x y z
#    x 1.691790 0.000000 0.002920 
#    y 0.000000 1.710200 0.000000 
#    z 0.002920 0.000000 1.676120 
# 
# From -- ./inp_files/250102.got.cif
#   From: 2010.06.25/outbox.cif.g09.slc.cpg/sg12_126_cif.got.tgz:250102.got - 2010.06.28 00:19:55.
