data_PCOD8095238
_publ_section_title
;
Structure prediction by ZEFSAII (Michael W. Deem and Ramdas Pophale) SiO2 
 PCOD8095238
Probable space group: C 2/M
;
_chemical_formula_sum "Si O2"
_cell_formula_units_Z 48
_cell_length_a 21.635496
_cell_length_b 14.959305
_cell_length_c 9.478820
_cell_angle_alpha 90.000000
_cell_angle_beta 65.061869
_cell_angle_gamma 90.000000
_cell_volume 2781.804668
_symmetry_space_group_name_H-M "C 2/M"
_symmetry_group_IT_number 12
_symmetry_cell_setting 'monoclinic'
loop_
_space_group_symop_operation_xyz
x,y,z
-x,y,-z
-x,-y,-z
x,-y,z
1/2+x,1/2+y,z
1/2-x,1/2+y,-z
1/2-x,1/2-y,-z
1/2+x,1/2-y,z
loop_
_atom_site_type_symbol
_atom_site_label
_atom_site_fract_x
_atom_site_fract_y
_atom_site_fract_z
Si Si1 0.657599 0.596888 0.603905
Si Si2 0.491405 0.395340 0.173878
Si Si3 0.219990 0.139827 0.824368
Si Si4 0.383675 0.287279 0.865414
Si Si5 0.782051 0.823985 0.726544
Si Si6 0.821518 0.598469 0.963407
O O1 0.645493 0.500000 0.548677
O O2 0.583739 0.638258 0.709483
O O3 0.700544 0.583021 0.706385
O O4 0.700356 0.650321 0.448746
O O5 0.505094 0.500000 0.200957
O O6 0.539580 0.324638 0.209757
O O7 0.500000 0.381788 0.000000
O O8 0.237813 0.236618 0.750585
O O9 0.154878 0.148997 0.987700
O O10 0.282291 0.097569 0.851309
O O11 0.351782 0.303897 0.742610
O O12 0.375936 0.180918 0.912688
O O13 0.734184 0.893239 0.857710
O O14 0.856954 0.500000 0.945448
#
# Coordination Sequence:
#
# PCOD8095238 Si02
#       6
#     8   8   8   8   8   8
#     4  11  20  29  46  73  99 126 156 190 240 287
#     4  10  20  32  48  70  95 128 165 194 227 283
#     4   9  17  31  49  69  95 128 159 189 234 290
#     4   9  18  33  49  68  96 130 163 194 234 279
#     4   9  19  31  46  72 101 124 152 196 245 280
#     4   9  17  31  52  74  95 123 160 200 237 279
#
# _framework density 17.254985000000001
#
# number of rings (size 3 to 8) (size 9 to 14) (size 15 to 20)
#    0.000    2.500    1.667    3.500    0.000    4.000 
#    0.000    1.667    0.000    0.500    0.000   10.500 
#    0.000    0.000    0.000    0.000    0.000    0.000 
#
# Total GULP energy -297351.638494 kJ/mol
# GULP energy per Si atom -12389.651604 kJ/mol
# Density = 1.721571 g / cm^3
# Si number density = 17.254985 Si / 1000 Ang^3
#
#
#
# Elastic Constant Matrix: (Units=GPa)
#
#
# Indices 1 2 3 4 5 6 
#
# 1 65.5923 16.6120 16.0960 0.0000 -1.3153 0.0000
# 2 16.6120 79.3283 10.7435 0.0000 0.7468 0.0000
# 3 16.0960 10.7435 81.4786 0.0000 1.3166 0.0000
# 4 0.0000 0.0000 0.0000 12.2645 0.0000 4.1355
# 5 -1.3153 0.7468 1.3166 0.0000 17.1947 0.0000
# 6 0.0000 0.0000 0.0000 4.1355 0.0000 20.0893
#
#
#
# Elastic Compliance Matrix: (Units=1/GPa)
#
#
# Indices 1 2 3 4 5 6 
#
# 1 0.016792 -0.003135 -0.002930 0.000000 0.001645 0.000000
# 2 -0.003135 0.013423 -0.001139 0.000000 -0.000736 0.000000
# 3 -0.002930 -0.001139 0.013021 0.000000 -0.001172 0.000000
# 4 0.000000 0.000000 0.000000 0.087618 0.000000 -0.018037
# 5 0.001645 -0.000736 -0.001172 0.000000 0.058405 0.000000
# 6 0.000000 0.000000 0.000000 -0.018037 0.000000 0.053491
#
#
# Mechanical properties :
#
#
# Convention : Reuss Voigt Hill
#
# Bulk Modulus (GPa) = 34.68840 34.81137 34.74989
# Shear Modulus (GPa) = 18.74286 22.10620 20.42453
#
# Velocity S-wave (km/s) = 3.29937 3.58320 3.44421
# Velocity P-wave (km/s) = 5.88741 6.11044 5.99996
#
# Compressibility (1/GPa) = 0.02882808
#
# Stress axis : x y z
#
# Youngs Moduli (GPa) = 59.55302 74.49632 76.79814
#
# Poissons Ratio (x) = 0.23354 0.22505
# Poissons Ratio (y) = 0.18670 0.08746
# Poissons Ratio (z) = 0.17452 0.08484
#
# Static dielectric constant tensor:
#      x y z
#    x 3.013570 0.000000 0.044680 
#    y 0.000000 3.210020 0.000000 
#    z 0.044680 0.000000 3.116260 
# 
# 
# High freq. dielectric constant tensor:
#      x y z
#    x 1.641230 0.000000 0.010140 
#    y 0.000000 1.663290 0.000000 
#    z 0.010140 0.000000 1.658560 
# 
# From -- ./inp_files/85649.got.cif
#   From: 2010.06.25/outbox.cif.g09.slc.cpg/sg12_43_cif.got.tgz:85649.got - 2010.06.28 00:19:55.
