data_PCOD8095982
_publ_section_title
;
Structure prediction by ZEFSAII (Michael W. Deem and Ramdas Pophale) SiO2 
 PCOD8095982
Probable space group: C 2/M
;
_chemical_formula_sum "Si O2"
_cell_formula_units_Z 56
_cell_length_a 14.111852
_cell_length_b 9.808324
_cell_length_c 24.053147
_cell_angle_alpha 90.000000
_cell_angle_beta 70.959062
_cell_angle_gamma 90.000000
_cell_volume 3147.123725
_symmetry_space_group_name_H-M "C 2/M"
_symmetry_group_IT_number 12
_symmetry_cell_setting 'monoclinic'
loop_
_space_group_symop_operation_xyz
x,y,z
-x,y,-z
-x,-y,-z
x,-y,z
1/2+x,1/2+y,z
1/2-x,1/2+y,-z
1/2-x,1/2-y,-z
1/2+x,1/2-y,z
loop_
_atom_site_type_symbol
_atom_site_label
_atom_site_fract_x
_atom_site_fract_y
_atom_site_fract_z
Si Si1 0.677462 0.158070 0.848609
Si Si2 0.272035 0.843088 0.576659
Si Si3 0.886610 0.842213 0.754983
Si Si4 0.508407 0.342339 0.151005
Si Si5 0.380124 0.153942 0.445000
Si Si6 0.218273 0.157097 0.056684
Si Si7 0.088083 0.345697 0.352881
O O1 0.772088 0.194766 0.791760
O O2 0.583897 0.249554 0.849399
O O3 0.708104 0.188974 0.906112
O O4 0.647957 0.000000 0.847200
O O5 0.353460 0.806092 0.513421
O O6 0.174479 0.751245 0.588454
O O7 0.314196 0.810595 0.629681
O O8 0.239947 0.000000 0.578160
O O9 0.960651 0.809136 0.791767
O O10 0.923152 0.754102 0.696443
O O11 0.894634 0.000000 0.737277
O O12 0.476704 0.500000 0.151246
O O13 0.603369 0.310242 0.093854
O O14 0.497678 0.171945 0.413538
O O15 0.345434 0.000000 0.438952
O O16 0.228870 0.000000 0.037077
O O17 0.250000 0.250000 0.000000
O O18 0.092538 0.500000 0.329020
#
# Coordination Sequence:
#
# PCOD8095982 Si02
#       7
#     8   8   8   8   8   8   8
#     4   9  19  36  55  74 100 135 170 204 245 291
#     4   9  18  33  51  71  97 128 161 199 245 297
#     4   9  20  37  52  70 100 133 165 205 249 292
#     4   9  19  36  55  74 100 135 170 204 245 291
#     4   9  18  33  51  71  97 128 161 199 245 297
#     4   9  19  35  53  77 108 136 165 203 245 290
#     4  10  20  33  51  74  98 127 164 204 247 295
#
# _framework density 17.794025999999999
#
# number of rings (size 3 to 8) (size 9 to 14) (size 15 to 20)
#    0.000    2.857    0.000    2.143    0.000    6.857 
#    0.000   11.429    0.000    4.286    0.000    0.000 
#    0.000    0.000    0.000    0.000    0.000    0.000 
#
# Total GULP energy -347170.383518 kJ/mol
# GULP energy per Si atom -12398.942268 kJ/mol
# Density = 1.775353 g / cm^3
# Si number density = 17.794026 Si / 1000 Ang^3
#
#
#
# Elastic Constant Matrix: (Units=GPa)
#
#
# Indices 1 2 3 4 5 6 
#
# 1 105.3524 57.4946 23.1899 0.0000 8.4816 0.0000
# 2 57.4946 78.8708 40.7287 0.0000 9.7248 0.0000
# 3 23.1899 40.7287 69.5007 0.0000 10.1878 0.0000
# 4 0.0000 0.0000 0.0000 35.7335 0.0000 0.6515
# 5 8.4816 9.7248 10.1878 0.0000 15.6587 0.0000
# 6 0.0000 0.0000 0.0000 0.6515 0.0000 37.9530
#
#
#
# Elastic Compliance Matrix: (Units=1/GPa)
#
#
# Indices 1 2 3 4 5 6 
#
# 1 0.016063 -0.012657 0.002411 0.000000 -0.002408 0.000000
# 2 -0.012657 0.028490 -0.012031 0.000000 -0.003010 0.000000
# 3 0.002411 -0.012031 0.021811 0.000000 -0.008024 0.000000
# 4 0.000000 0.000000 0.000000 0.027994 0.000000 -0.000481
# 5 -0.002408 -0.003010 -0.008024 0.000000 0.072257 0.000000
# 6 0.000000 0.000000 0.000000 -0.000481 0.000000 0.026357
#
#
# Mechanical properties :
#
#
# Convention : Reuss Voigt Hill
#
# Bulk Modulus (GPa) = 45.85445 55.17225 50.51335
# Shear Modulus (GPa) = 20.42532 26.68976 23.55754
#
# Velocity S-wave (km/s) = 3.39171 3.87709 3.64249
# Velocity P-wave (km/s) = 6.41590 7.14953 6.79263
#
# Compressibility (1/GPa) = 0.02180814
#
# Stress axis : x y z
#
# Youngs Moduli (GPa) = 62.25605 35.10048 45.84942
#
# Poissons Ratio (x) = 0.44428 -0.11054
# Poissons Ratio (y) = 0.78799 0.55161
# Poissons Ratio (z) = -0.15009 0.42229
#
# Static dielectric constant tensor:
#      x y z
#    x 3.237230 0.000000 0.026710 
#    y 0.000000 3.256540 0.000000 
#    z 0.026710 0.000000 3.173440 
# 
# 
# High freq. dielectric constant tensor:
#      x y z
#    x 1.688160 0.000000 0.002090 
#    y 0.000000 1.688220 0.000000 
#    z 0.002090 0.000000 1.683950 
# 
# From -- ./inp_files/337910.got.cif
#   From: 2010.06.25/outbox.cif.g09.slc.cpg/sg12_169_cif.got.tgz:337910.got - 2010.06.28 00:19:55.
