data_PCOD8095158
_publ_section_title
;
Structure prediction by ZEFSAII (Michael W. Deem and Ramdas Pophale) SiO2 
 PCOD8095158
Probable space group: C 2/M
;
_chemical_formula_sum "Si O2"
_cell_formula_units_Z 64
_cell_length_a 14.647941
_cell_length_b 9.111564
_cell_length_c 25.849366
_cell_angle_alpha 90.000000
_cell_angle_beta 91.717219
_cell_angle_gamma 90.000000
_cell_volume 3448.453086
_symmetry_space_group_name_H-M "C 2/M"
_symmetry_group_IT_number 12
_symmetry_cell_setting 'monoclinic'
loop_
_space_group_symop_operation_xyz
x,y,z
-x,y,-z
-x,-y,-z
x,-y,z
1/2+x,1/2+y,z
1/2-x,1/2+y,-z
1/2-x,1/2-y,-z
1/2+x,1/2-y,z
loop_
_atom_site_type_symbol
_atom_site_label
_atom_site_fract_x
_atom_site_fract_y
_atom_site_fract_z
Si Si1 0.168939 0.826306 0.382293
Si Si2 0.629239 0.173652 0.635803
Si Si3 0.983763 0.825492 0.187946
Si Si4 0.839505 0.673553 0.249269
Si Si5 0.504468 0.828018 0.081490
Si Si6 0.637274 0.326396 0.267851
Si Si7 0.524961 0.825905 0.443000
Si Si8 0.847512 0.670978 0.000418
O O1 0.273628 0.773060 0.384562
O O2 0.124216 0.774121 0.326931
O O3 0.121049 0.744794 0.429051
O O4 0.160230 0.000000 0.389532
O O5 0.615829 0.222983 0.695120
O O6 0.550432 0.238446 0.597972
O O7 0.628391 0.000000 0.633803
O O8 0.057897 0.763589 0.230131
O O9 0.886827 0.759243 0.203162
O O10 0.011533 0.769298 0.132395
O O11 0.978841 0.000000 0.187216
O O12 0.849360 0.500000 0.240565
O O13 0.734543 0.725374 0.247062
O O14 0.410778 0.785436 0.050321
O O15 0.503633 0.000000 0.095059
O O16 0.594299 0.788509 0.049611
O O17 0.636642 0.500000 0.267505
O O18 0.500000 0.773822 0.500000
O O19 0.532933 0.000000 0.439979
O O20 0.826112 0.500000 0.001184
O O21 0.750000 0.750000 0.000000
#
# Coordination Sequence:
#
# PCOD8095158 Si02
#       8
#     8   8   8   8   8   8   8   8
#     4   9  17  33  54  70  89 124 168 205 236 287
#     4   8  16  32  52  70  92 128 167 198 240 300
#     4  11  21  32  49  77 108 131 158 206 253 284
#     4   9  17  33  54  71  93 132 172 199 237 301
#     4   9  20  38  54  74 105 140 171 198 241 301
#     4   8  17  33  51  71  97 129 163 200 246 293
#     4  10  20  32  46  69 100 127 154 198 254 301
#     4   9  19  37  60  79 100 133 173 212 247 287
#
# _framework density 18.559045000000001
#
# number of rings (size 3 to 8) (size 9 to 14) (size 15 to 20)
#    0.000    2.875    0.000    3.375    0.000    2.750 
#    0.000   10.000    0.000    0.000    0.000    0.000 
#    0.000    0.000    0.000    0.000    0.000    0.000 
#
# Total GULP energy -396703.824296 kJ/mol
# GULP energy per Si atom -12396.994509 kJ/mol
# Density = 1.851680 g / cm^3
# Si number density = 18.559045 Si / 1000 Ang^3
#
#
#
# Elastic Constant Matrix: (Units=GPa)
#
#
# Indices 1 2 3 4 5 6 
#
# 1 89.3135 27.8080 35.8439 0.0000 -14.9616 0.0000
# 2 27.8080 40.7355 32.6634 0.0000 -8.6139 0.0000
# 3 35.8439 32.6634 94.4910 0.0000 -19.7239 0.0000
# 4 0.0000 0.0000 0.0000 26.4375 0.0000 -5.2009
# 5 -14.9616 -8.6139 -19.7239 0.0000 25.9284 0.0000
# 6 0.0000 0.0000 0.0000 -5.2009 0.0000 27.8523
#
#
#
# Elastic Compliance Matrix: (Units=1/GPa)
#
#
# Indices 1 2 3 4 5 6 
#
# 1 0.015227 -0.007693 -0.002159 0.000000 0.004588 0.000000
# 2 -0.007693 0.038020 -0.010122 0.000000 0.000492 0.000000
# 3 -0.002159 -0.010122 0.016570 0.000000 0.007996 0.000000
# 4 0.000000 0.000000 0.000000 0.039267 0.000000 0.007332
# 5 0.004588 0.000492 0.007996 0.000000 0.047462 0.000000
# 6 0.000000 0.000000 0.000000 0.007332 0.000000 0.037273
#
#
# Mechanical properties :
#
#
# Convention : Reuss Voigt Hill
#
# Bulk Modulus (GPa) = 33.47899 46.35228 39.91564
# Shear Modulus (GPa) = 20.51501 24.59197 22.55349
#
# Velocity S-wave (km/s) = 3.32835 3.64410 3.48980
# Velocity P-wave (km/s) = 5.73140 6.53725 6.14754
#
# Compressibility (1/GPa) = 0.02986948
#
# Stress axis : x y z
#
# Youngs Moduli (GPa) = 65.67331 26.30162 60.34986
#
# Poissons Ratio (x) = 0.20234 0.13030
# Poissons Ratio (y) = 0.50524 0.61085
# Poissons Ratio (z) = 0.14179 0.26622
#
# Static dielectric constant tensor:
#      x y z
#    x 3.648270 0.000000 0.153040 
#    y 0.000000 3.007510 0.000000 
#    z 0.153040 0.000000 3.498430 
# 
# 
# High freq. dielectric constant tensor:
#      x y z
#    x 1.727620 0.000000 -0.005490 
#    y 0.000000 1.689300 0.000000 
#    z -0.005490 0.000000 1.721840 
# 
# From -- ./inp_files/359847.got.cif
#   From: 2010.06.25/outbox.cif.g09.slc.cpg/sg12_180_cif.got.tgz:359847.got - 2010.06.28 00:19:55.
