data_PCOD8095212
_publ_section_title
;
Structure prediction by ZEFSAII (Michael W. Deem and Ramdas Pophale) SiO2 
 PCOD8095212
Probable space group: C 2/M
;
_chemical_formula_sum "Si O2"
_cell_formula_units_Z 56
_cell_length_a 28.789751
_cell_length_b 11.189847
_cell_length_c 12.594326
_cell_angle_alpha 90.000000
_cell_angle_beta 47.805311
_cell_angle_gamma 90.000000
_cell_volume 3005.918181
_symmetry_space_group_name_H-M "C 2/M"
_symmetry_group_IT_number 12
_symmetry_cell_setting 'monoclinic'
loop_
_space_group_symop_operation_xyz
x,y,z
-x,y,-z
-x,-y,-z
x,-y,z
1/2+x,1/2+y,z
1/2-x,1/2+y,-z
1/2-x,1/2-y,-z
1/2+x,1/2-y,z
loop_
_atom_site_type_symbol
_atom_site_label
_atom_site_fract_x
_atom_site_fract_y
_atom_site_fract_z
Si Si1 0.553840 0.862755 0.145969
Si Si2 0.291555 0.632942 0.814676
Si Si3 0.299892 0.706483 0.570195
Si Si4 0.807101 0.872545 0.327221
Si Si5 0.415555 0.137053 0.336245
Si Si6 0.165036 0.363056 0.129532
Si Si7 0.929731 0.245497 0.096618
O O1 0.482709 0.820272 0.281272
O O2 0.597707 0.840599 0.179627
O O3 0.550701 0.000000 0.117974
O O4 0.582411 0.797102 0.000838
O O5 0.315452 0.500000 0.818999
O O6 0.298859 0.626782 0.676828
O O7 0.328236 0.751901 0.798889
O O8 0.219031 0.647186 0.958259
O O9 0.235105 0.779025 0.670071
O O10 0.299007 0.626618 0.466667
O O11 0.361148 0.789651 0.477085
O O12 0.880307 0.859922 0.187798
O O13 0.784759 0.000000 0.319196
O O14 0.416575 0.154790 0.207163
O O15 0.401741 0.000000 0.382488
O O16 0.166694 0.500000 0.176720
O O17 0.000000 0.193880 0.000000
#
# Coordination Sequence:
#
# PCOD8095212 Si02
#       7
#     8   8   8   8   8   8   8
#     4   9  16  30  51  73 100 130 163 207 253 294
#     4  10  20  36  56  75 100 133 166 205 254 304
#     4  10  20  33  50  71  98 132 166 201 244 298
#     4  10  20  32  47  71 101 131 165 203 244 296
#     4   9  17  29  48  75 103 131 165 205 247 293
#     4   9  19  34  54  79 100 124 166 215 257 297
#     4   9  17  29  47  72 101 133 166 199 244 300
#
# _framework density 18.629915
#
# number of rings (size 3 to 8) (size 9 to 14) (size 15 to 20)
#    0.000    2.571    0.000    2.143    0.000    3.143 
#    0.000    8.571    0.000    7.714    0.000    0.000 
#    0.000    0.000    0.000    0.000    0.000    0.000 
#
# Total GULP energy -346937.357857 kJ/mol
# GULP energy per Si atom -12390.619923 kJ/mol
# Density = 1.858751 g / cm^3
# Si number density = 18.629915 Si / 1000 Ang^3
#
#
#
# Elastic Constant Matrix: (Units=GPa)
#
#
# Indices 1 2 3 4 5 6 
#
# 1 81.9829 38.3450 24.3152 0.0000 -10.5165 0.0000
# 2 38.3450 100.9229 25.7878 0.0000 -3.7003 0.0000
# 3 24.3152 25.7878 63.6074 0.0000 -9.5720 0.0000
# 4 0.0000 0.0000 0.0000 3.4989 0.0000 8.7785
# 5 -10.5165 -3.7003 -9.5720 0.0000 28.5426 0.0000
# 6 0.0000 0.0000 0.0000 8.7785 0.0000 10.2789
#
#
#
# Elastic Compliance Matrix: (Units=1/GPa)
#
#
# Indices 1 2 3 4 5 6 
#
# 1 0.016141 -0.005091 -0.003487 0.000000 0.004118 0.000000
# 2 -0.005091 0.012659 -0.003393 0.000000 -0.001372 0.000000
# 3 -0.003487 -0.003393 0.019136 0.000000 0.004693 0.000000
# 4 0.000000 0.000000 0.000000 -0.250117 0.000000 0.213607
# 5 0.004118 -0.001372 0.004693 0.000000 0.037949 0.000000
# 6 0.000000 0.000000 0.000000 0.213607 0.000000 -0.085140
#
#
# Mechanical properties :
#
#
# Convention : Reuss Voigt Hill
#
# Bulk Modulus (GPa) = 41.67376 47.04547 44.35962
# Shear Modulus (GPa) = -22.99567 19.00176 -1.99696
#
# Velocity S-wave (km/s) = -3.51713 3.19715 -1.03645
# Velocity P-wave (km/s) = 2.43397 6.23991 4.73607
#
# Compressibility (1/GPa) = 0.02399592
#
# Stress axis : x y z
#
# Youngs Moduli (GPa) = 61.95374 78.99262 52.25745
#
# Poissons Ratio (x) = 0.40214 0.18220
# Poissons Ratio (y) = 0.31540 0.17730
# Poissons Ratio (z) = 0.21601 0.26801
#
# Static dielectric constant tensor:
#      x y z
#    x 3.402530 0.000000 -0.249880 
#    y 0.000000 3.352170 0.000000 
#    z -0.249880 0.000000 3.344510 
# 
# 
# High freq. dielectric constant tensor:
#      x y z
#    x 1.712040 0.000000 -0.016150 
#    y 0.000000 1.714930 0.000000 
#    z -0.016150 0.000000 1.716270 
# 
# From -- ./inp_files/164950.got.cif
#   From: 2010.06.25/outbox.cif.g09.slc.cpg/sg12_83_cif.got.tgz:164950.got - 2010.06.28 00:19:55.
