data_PCOD8095939
_publ_section_title
;
Structure prediction by ZEFSAII (Michael W. Deem and Ramdas Pophale) SiO2 
 PCOD8095939
Probable space group: C 2/M
;
_chemical_formula_sum "Si O2"
_cell_formula_units_Z 56
_cell_length_a 32.223409
_cell_length_b 8.574620
_cell_length_c 12.655509
_cell_angle_alpha 90.000000
_cell_angle_beta 56.418047
_cell_angle_gamma 90.000000
_cell_volume 2913.136101
_symmetry_space_group_name_H-M "C 2/M"
_symmetry_group_IT_number 12
_symmetry_cell_setting 'monoclinic'
loop_
_space_group_symop_operation_xyz
x,y,z
-x,y,-z
-x,-y,-z
x,-y,z
1/2+x,1/2+y,z
1/2-x,1/2+y,-z
1/2-x,1/2-y,-z
1/2+x,1/2-y,z
loop_
_atom_site_type_symbol
_atom_site_label
_atom_site_fract_x
_atom_site_fract_y
_atom_site_fract_z
Si Si1 0.244573 0.316750 0.830534
Si Si2 0.381935 0.816661 0.474163
Si Si3 0.349306 0.183652 0.742903
Si Si4 0.457100 0.185217 0.198658
Si Si5 0.728425 0.184639 0.423690
Si Si6 0.855697 0.182163 0.949205
Si Si7 0.566843 0.815491 0.000818
O O1 0.235817 0.500000 0.851491
O O2 0.296782 0.271237 0.809175
O O3 0.241335 0.263578 0.713738
O O4 0.201288 0.230353 0.954892
O O5 0.384581 0.766519 0.593990
O O6 0.426056 0.741342 0.340872
O O7 0.329067 0.763809 0.501427
O O8 0.387420 0.000000 0.456690
O O9 0.338839 0.000000 0.752856
O O10 0.375965 0.233163 0.814130
O O11 0.431974 0.237456 0.123452
O O12 0.456807 0.000000 0.201473
O O13 0.514325 0.240977 0.125139
O O14 0.750000 0.250000 0.500000
O O15 0.734785 0.000000 0.406688
O O16 0.888412 0.231325 0.002959
O O17 0.859787 0.000000 0.925706
O O18 0.573812 0.000000 0.002154
#
# Coordination Sequence:
#
# PCOD8095939 Si02
#       7
#     8   8   8   8   8   8   8
#     4  11  22  37  56  78 108 147 185 226 277 328
#     4   8  16  31  54  79 106 141 180 223 270 321
#     4  10  20  37  57  80 109 143 185 228 272 330
#     4   8  15  32  57  84 110 138 177 225 274 327
#     4  10  20  33  50  79 115 149 187 227 268 321
#     4  12  24  37  54  78 111 145 184 229 274 329
#     4   9  18  33  57  85 110 138 179 225 273 329
#
# _framework density 19.223269999999999
#
# number of rings (size 3 to 8) (size 9 to 14) (size 15 to 20)
#    0.000    2.286    0.000    5.571    2.000    0.000 
#    0.000    2.143    0.000   10.286    0.000    0.000 
#    0.000    0.000    0.000    0.000    0.000    0.000 
#
# Total GULP energy -347141.136005 kJ/mol
# GULP energy per Si atom -12397.897714 kJ/mol
# Density = 1.917952 g / cm^3
# Si number density = 19.223270 Si / 1000 Ang^3
#
#
#
# Elastic Constant Matrix: (Units=GPa)
#
#
# Indices 1 2 3 4 5 6 
#
# 1 44.9400 13.1381 31.0769 0.0000 11.1972 0.0000
# 2 13.1381 40.1294 19.0948 0.0000 -0.1806 0.0000
# 3 31.0769 19.0948 140.9319 0.0000 -0.7850 0.0000
# 4 0.0000 0.0000 0.0000 20.5563 0.0000 4.8742
# 5 11.1972 -0.1806 -0.7850 0.0000 26.6036 0.0000
# 6 0.0000 0.0000 0.0000 4.8742 0.0000 23.6797
#
#
#
# Elastic Compliance Matrix: (Units=1/GPa)
#
#
# Indices 1 2 3 4 5 6 
#
# 1 0.032166 -0.007676 -0.006130 0.000000 -0.013771 0.000000
# 2 -0.007676 0.028469 -0.002146 0.000000 0.003361 0.000000
# 3 -0.006130 -0.002146 0.008754 0.000000 0.002824 0.000000
# 4 0.000000 0.000000 0.000000 0.051143 0.000000 -0.010527
# 5 -0.013771 0.003361 0.002824 0.000000 0.043491 0.000000
# 6 0.000000 0.000000 0.000000 -0.010527 0.000000 0.044397
#
#
# Mechanical properties :
#
#
# Convention : Reuss Voigt Hill
#
# Bulk Modulus (GPa) = 26.67723 39.18007 32.92865
# Shear Modulus (GPa) = 19.77707 25.01402 22.39554
#
# Velocity S-wave (km/s) = 3.21098 3.61118 3.41695
# Velocity P-wave (km/s) = 5.25880 6.14925 5.72137
#
# Compressibility (1/GPa) = 0.03748515
#
# Stress axis : x y z
#
# Youngs Moduli (GPa) = 31.08877 35.12632 114.23722
#
# Poissons Ratio (x) = 0.26964 0.70022
# Poissons Ratio (y) = 0.23864 0.24513
# Poissons Ratio (z) = 0.19056 0.07537
#
# Static dielectric constant tensor:
#      x y z
#    x 3.406960 0.000000 0.047570 
#    y 0.000000 3.275550 0.000000 
#    z 0.047570 0.000000 4.098020 
# 
# 
# High freq. dielectric constant tensor:
#      x y z
#    x 1.732400 0.000000 0.011440 
#    y 0.000000 1.725960 0.000000 
#    z 0.011440 0.000000 1.762590 
# 
# From -- ./inp_files/187147.got.cif
#   From: 2010.06.25/outbox.cif.g09.slc.cpg/sg12_94_cif.got.tgz:187147.got - 2010.06.28 00:19:55.
