data_PCOD8095278
_publ_section_title
;
Structure prediction by ZEFSAII (Michael W. Deem and Ramdas Pophale) SiO2 
 PCOD8095278
Probable space group: C 2/M
;
_chemical_formula_sum "Si O2"
_cell_formula_units_Z 56
_cell_length_a 22.812526
_cell_length_b 9.118731
_cell_length_c 18.821635
_cell_angle_alpha 90.000000
_cell_angle_beta 126.887573
_cell_angle_gamma 90.000000
_cell_volume 3131.515749
_symmetry_space_group_name_H-M "C 2/M"
_symmetry_group_IT_number 12
_symmetry_cell_setting 'monoclinic'
loop_
_space_group_symop_operation_xyz
x,y,z
-x,y,-z
-x,-y,-z
x,-y,z
1/2+x,1/2+y,z
1/2-x,1/2+y,-z
1/2-x,1/2-y,-z
1/2+x,1/2-y,z
loop_
_atom_site_type_symbol
_atom_site_label
_atom_site_fract_x
_atom_site_fract_y
_atom_site_fract_z
Si Si1 0.924855 0.832286 0.246028
Si Si2 0.626414 0.327068 0.030768
Si Si3 0.284982 0.161407 0.131389
Si Si4 0.007842 0.832185 0.165701
Si Si5 0.722308 0.161668 0.705255
Si Si6 0.135400 0.326562 0.186565
Si Si7 0.437999 0.173345 0.401306
O O1 0.849101 0.772563 0.156349
O O2 0.950684 0.746671 0.334324
O O3 0.988517 0.815622 0.234349
O O4 0.910802 0.000000 0.256361
O O5 0.626767 0.500000 0.048511
O O6 0.703718 0.284329 0.048093
O O7 0.615289 0.241082 0.095891
O O8 0.561264 0.281577 0.931528
O O9 0.280325 0.151882 0.212425
O O10 0.302839 0.000000 0.112977
O O11 0.075678 0.726411 0.199910
O O12 0.028582 0.000000 0.162465
O O13 0.785020 0.274719 0.726804
O O14 0.641204 0.215324 0.622178
O O15 0.739849 0.000000 0.686385
O O16 0.135061 0.500000 0.180609
O O17 0.500000 0.230860 0.500000
O O18 0.442975 0.000000 0.392663
#
# Coordination Sequence:
#
# PCOD8095278 Si02
#       7
#     8   8   8   8   8   8   8
#     4  10  20  32  48  73 101 128 159 196 241 289
#     4   9  18  33  50  66  90 130 173 206 240 284
#     4   8  15  29  48  68  93 127 163 198 239 286
#     4  10  21  35  48  64  94 136 172 200 238 288
#     4   8  15  30  51  72  96 127 157 187 232 288
#     4  11  21  31  47  72  98 125 165 212 245 272
#     4   9  18  34  57  81 101 123 152 187 233 292
#
# _framework density 17.882714
#
# number of rings (size 3 to 8) (size 9 to 14) (size 15 to 20)
#    0.000    2.714    0.000    3.857    0.000    9.429 
#    0.000    0.000    0.000    0.857    0.000    0.000 
#    0.000    0.000    0.000    0.000    0.000    0.000 
#
# Total GULP energy -347100.908049 kJ/mol
# GULP energy per Si atom -12396.461002 kJ/mol
# Density = 1.784201 g / cm^3
# Si number density = 17.882714 Si / 1000 Ang^3
#
#
#
# Elastic Constant Matrix: (Units=GPa)
#
#
# Indices 1 2 3 4 5 6 
#
# 1 74.1879 43.6232 45.5670 0.0000 12.2488 0.0000
# 2 43.6232 83.7792 39.0547 0.0000 7.1133 0.0000
# 3 45.5670 39.0547 99.2281 0.0000 22.8095 0.0000
# 4 0.0000 0.0000 0.0000 14.2228 0.0000 3.4584
# 5 12.2488 7.1133 22.8095 0.0000 21.8384 0.0000
# 6 0.0000 0.0000 0.0000 3.4584 0.0000 27.3622
#
#
#
# Elastic Compliance Matrix: (Units=1/GPa)
#
#
# Indices 1 2 3 4 5 6 
#
# 1 0.023123 -0.008778 -0.006369 0.000000 -0.003458 0.000000
# 2 -0.008778 0.017995 -0.003732 0.000000 0.002960 0.000000
# 3 -0.006369 -0.003732 0.017595 0.000000 -0.013590 0.000000
# 4 0.000000 0.000000 0.000000 0.072539 0.000000 -0.009169
# 5 -0.003458 0.002960 -0.013590 0.000000 0.060961 0.000000
# 6 0.000000 0.000000 0.000000 -0.009169 0.000000 0.037706
#
#
# Mechanical properties :
#
#
# Convention : Reuss Voigt Hill
#
# Bulk Modulus (GPa) = 47.71813 57.07612 52.39712
# Shear Modulus (GPa) = 18.20416 21.28136 19.74276
#
# Velocity S-wave (km/s) = 3.19403 3.45346 3.32627
# Velocity P-wave (km/s) = 6.35172 6.92012 6.64200
#
# Compressibility (1/GPa) = 0.02095640
#
# Stress axis : x y z
#
# Youngs Moduli (GPa) = 43.24606 55.57077 56.83323
#
# Poissons Ratio (x) = 0.48778 0.36197
# Poissons Ratio (y) = 0.37960 0.21211
# Poissons Ratio (z) = 0.27543 0.20740
#
# Static dielectric constant tensor:
#      x y z
#    x 3.331860 0.000000 0.458800 
#    y 0.000000 3.259290 0.000000 
#    z 0.458800 0.000000 3.413470 
# 
# 
# High freq. dielectric constant tensor:
#      x y z
#    x 1.682180 0.000000 0.024900 
#    y 0.000000 1.687140 0.000000 
#    z 0.024900 0.000000 1.668500 
# 
# From -- ./inp_files/320196.got.cif
#   From: 2010.06.25/outbox.cif.g09.slc.cpg/sg12_161_cif.got.tgz:320196.got - 2010.06.28 00:19:55.
