data_PCOD8095403
_publ_section_title
;
Structure prediction by ZEFSAII (Michael W. Deem and Ramdas Pophale) SiO2 
 PCOD8095403
Probable space group: C 2/M
;
_chemical_formula_sum "Si O2"
_cell_formula_units_Z 56
_cell_length_a 20.571309
_cell_length_b 9.507322
_cell_length_c 29.995828
_cell_angle_alpha 90.000000
_cell_angle_beta 146.209297
_cell_angle_gamma 90.000000
_cell_volume 3262.731510
_symmetry_space_group_name_H-M "C 2/M"
_symmetry_group_IT_number 12
_symmetry_cell_setting 'monoclinic'
loop_
_space_group_symop_operation_xyz
x,y,z
-x,y,-z
-x,-y,-z
x,-y,z
1/2+x,1/2+y,z
1/2-x,1/2+y,-z
1/2-x,1/2-y,-z
1/2+x,1/2-y,z
loop_
_atom_site_type_symbol
_atom_site_label
_atom_site_fract_x
_atom_site_fract_y
_atom_site_fract_z
Si Si1 0.047990 0.665242 0.740416
Si Si2 0.218518 0.338829 0.917099
Si Si3 0.588046 0.163171 0.933378
Si Si4 0.936709 0.833157 0.507756
Si Si5 0.166563 0.666670 0.232250
Si Si6 0.902378 0.832970 0.320122
Si Si7 0.817816 0.332848 0.659154
O O1 0.041816 0.500000 0.725721
O O2 0.152444 0.698272 0.834047
O O3 0.070618 0.753731 0.709591
O O4 0.926558 0.720898 0.692052
O O5 0.257641 0.500000 0.940626
O O6 0.131871 0.304780 0.908446
O O7 0.335942 0.246853 0.987055
O O8 0.453965 0.215545 0.859758
O O9 0.599392 0.000000 0.951756
O O10 0.802340 0.781544 0.432503
O O11 0.000000 0.770132 0.500000
O O12 0.002261 0.781749 0.589444
O O13 0.943203 0.000000 0.508703
O O14 0.167356 0.500000 0.237432
O O15 0.274993 0.716755 0.264243
O O16 0.176114 0.730832 0.287457
O O17 0.907326 0.000000 0.315223
O O18 0.822882 0.500000 0.665136
#
# Coordination Sequence:
#
# PCOD8095403 Si02
#       7
#     8   8   8   8   8   8   8
#     4  10  20  34  50  70 101 138 165 189 238 304
#     4   9  17  30  48  71  97 126 160 198 240 289
#     4   9  16  28  50  76  95 117 159 209 247 278
#     4   9  15  26  48  78 101 120 159 211 248 274
#     4   9  15  28  50  75  97 123 163 206 242 281
#     4  10  20  32  50  76 103 127 159 206 249 283
#     4   9  15  27  50  74  96 127 167 202 234 284
#
# _framework density 17.163533999999999
#
# number of rings (size 3 to 8) (size 9 to 14) (size 15 to 20)
#    0.000    2.714    2.857    0.000    0.000    1.143 
#    0.000    1.429    0.000    5.571    0.000    0.000 
#    0.000    0.000    0.000    0.000    0.000    0.000 
#
# Total GULP energy -347130.568287 kJ/mol
# GULP energy per Si atom -12397.520296 kJ/mol
# Density = 1.712447 g / cm^3
# Si number density = 17.163534 Si / 1000 Ang^3
#
#
#
# Elastic Constant Matrix: (Units=GPa)
#
#
# Indices 1 2 3 4 5 6 
#
# 1 135.1267 37.2350 86.3722 0.0000 4.2832 0.0000
# 2 37.2350 31.1036 43.7016 0.0001 -1.5057 0.0000
# 3 86.3722 43.7016 155.3576 0.0000 12.3458 0.0000
# 4 0.0000 0.0001 0.0000 20.5926 0.0000 -4.8961
# 5 4.2832 -1.5057 12.3458 0.0000 33.2048 0.0000
# 6 0.0000 0.0000 0.0000 -4.8961 0.0000 23.9060
#
#
#
# Elastic Compliance Matrix: (Units=1/GPa)
#
#
# Indices 1 2 3 4 5 6 
#
# 1 0.012790 -0.008890 -0.004582 0.000000 -0.000349 0.000000
# 2 -0.008890 0.061608 -0.013087 0.000000 0.008806 0.000000
# 3 -0.004582 -0.013087 0.013052 0.000000 -0.004855 0.000000
# 4 0.000000 0.000000 0.000000 0.051047 0.000000 0.010455
# 5 -0.000349 0.008806 -0.004855 0.000000 0.032366 0.000000
# 6 0.000000 0.000000 0.000000 0.010455 0.000000 0.043972
#
#
# Mechanical properties :
#
#
# Convention : Reuss Voigt Hill
#
# Bulk Modulus (GPa) = 29.12905 72.91171 51.02038
# Shear Modulus (GPa) = 17.89570 25.82597 21.86084
#
# Velocity S-wave (km/s) = 3.23253 3.88325 3.57274
# Velocity P-wave (km/s) = 5.56243 7.91701 6.84177
#
# Compressibility (1/GPa) = 0.03432999
#
# Stress axis : x y z
#
# Youngs Moduli (GPa) = 78.18447 16.23171 76.61932
#
# Poissons Ratio (x) = 0.14430 0.35109
# Poissons Ratio (y) = 0.69508 1.00274
# Poissons Ratio (z) = 0.35826 0.21243
#
# Static dielectric constant tensor:
#      x y z
#    x 3.187610 0.000000 0.218620 
#    y 0.000000 2.745600 0.000000 
#    z 0.218620 0.000000 3.476780 
# 
# 
# High freq. dielectric constant tensor:
#      x y z
#    x 1.654610 0.000000 0.011200 
#    y 0.000000 1.610150 0.000000 
#    z 0.011200 0.000000 1.678450 
# 
# From -- ./inp_files/280403.got.cif
#   From: 2010.06.25/outbox.cif.g09.slc.cpg/sg12_141_cif.got.tgz:280403.got - 2010.06.28 00:19:55.
