data_PCOD8095289
_publ_section_title
;
Structure prediction by ZEFSAII (Michael W. Deem and Ramdas Pophale) SiO2 
 PCOD8095289
Probable space group: C 2/M
;
_chemical_formula_sum "Si O2"
_cell_formula_units_Z 64
_cell_length_a 31.014267
_cell_length_b 8.929321
_cell_length_c 14.490281
_cell_angle_alpha 90.000000
_cell_angle_beta 62.325970
_cell_angle_gamma 90.000000
_cell_volume 3553.828344
_symmetry_space_group_name_H-M "C 2/M"
_symmetry_group_IT_number 12
_symmetry_cell_setting 'monoclinic'
loop_
_space_group_symop_operation_xyz
x,y,z
-x,y,-z
-x,-y,-z
x,-y,z
1/2+x,1/2+y,z
1/2-x,1/2+y,-z
1/2-x,1/2-y,-z
1/2+x,1/2-y,z
loop_
_atom_site_type_symbol
_atom_site_label
_atom_site_fract_x
_atom_site_fract_y
_atom_site_fract_z
Si Si1 0.027765 0.172454 0.120412
Si Si2 0.466897 0.670434 0.674799
Si Si3 0.807258 0.174578 0.844376
Si Si4 0.079694 0.825303 0.570352
Si Si5 0.885912 0.323710 0.640734
Si Si6 0.608199 0.829384 0.925475
Si Si7 0.803745 0.672394 0.036309
Si Si8 0.572207 0.827684 0.765757
O O1 0.047129 0.196750 0.204887
O O2 0.980419 0.271569 0.148359
O O3 0.013233 0.000000 0.119230
O O4 0.069700 0.217928 0.008761
O O5 0.455480 0.500000 0.656035
O O6 0.523404 0.707622 0.602637
O O7 0.435162 0.780709 0.644964
O O8 0.838621 0.261052 0.738196
O O9 0.751031 0.212708 0.879196
O O10 0.819209 0.000000 0.824908
O O11 0.821249 0.227747 0.933122
O O12 0.113373 0.742312 0.463010
O O13 0.092523 0.765582 0.659321
O O14 0.091236 0.000000 0.556685
O O15 0.881940 0.500000 0.638891
O O16 0.661829 0.793031 0.910817
O O17 0.609341 0.805744 0.814119
O O18 0.593107 0.000000 0.964644
O O19 0.806877 0.500000 0.001651
O O20 0.567778 0.000000 0.740433
#
# Coordination Sequence:
#
# PCOD8095289 Si02
#       8
#     8   8   8   8   8   8   8   8
#     4  10  20  32  48  73 105 139 173 207 244 292
#     4   9  19  34  50  72 103 136 169 207 249 293
#     4  10  20  35  55  78 105 134 164 203 250 299
#     4  10  21  37  54  72  99 134 171 211 251 293
#     4  12  23  33  51  77 103 133 169 207 248 299
#     4  10  20  33  51  75 102 133 169 209 253 299
#     4   9  19  36  56  78 104 133 165 203 250 302
#     4  10  20  34  51  72 101 135 170 210 253 295
#
# _framework density 18.008748000000001
#
# number of rings (size 3 to 8) (size 9 to 14) (size 15 to 20)
#    0.000    2.000    0.000    4.875    0.000   10.000 
#    0.000    0.000    0.000    0.750    0.000    0.000 
#    0.000    0.000    0.000    0.000    0.000    0.000 
#
# Total GULP energy -396925.433134 kJ/mol
# GULP energy per Si atom -12403.919785 kJ/mol
# Density = 1.796776 g / cm^3
# Si number density = 18.008748 Si / 1000 Ang^3
#
#
#
# Elastic Constant Matrix: (Units=GPa)
#
#
# Indices 1 2 3 4 5 6 
#
# 1 93.4979 42.5421 55.4539 0.0000 13.0362 0.0000
# 2 42.5421 113.0438 66.8497 0.0000 4.3144 0.0000
# 3 55.4539 66.8497 126.6665 0.0000 3.4732 0.0000
# 4 0.0000 0.0000 0.0000 32.4618 0.0000 0.8726
# 5 13.0362 4.3144 3.4732 0.0000 18.1151 0.0000
# 6 0.0000 0.0000 0.0000 0.8726 0.0000 21.7828
#
#
#
# Elastic Compliance Matrix: (Units=1/GPa)
#
#
# Indices 1 2 3 4 5 6 
#
# 1 0.016640 -0.002512 -0.005677 0.000000 -0.010288 0.000000
# 2 -0.002512 0.013296 -0.005911 0.000000 -0.000225 0.000000
# 3 -0.005677 -0.005911 0.013419 0.000000 0.002920 0.000000
# 4 0.000000 0.000000 0.000000 0.030839 0.000000 -0.001235
# 5 -0.010288 -0.000225 0.002920 0.000000 0.062100 0.000000
# 6 0.000000 0.000000 0.000000 -0.001235 0.000000 0.045957
#
#
# Mechanical properties :
#
#
# Convention : Reuss Voigt Hill
#
# Bulk Modulus (GPa) = 65.98532 73.65551 69.82041
# Shear Modulus (GPa) = 23.20159 25.69613 24.44886
#
# Velocity S-wave (km/s) = 3.59326 3.78149 3.68857
# Velocity P-wave (km/s) = 7.34408 7.74951 7.54952
#
# Compressibility (1/GPa) = 0.01515489
#
# Stress axis : x y z
#
# Youngs Moduli (GPa) = 60.09633 75.21240 74.51878
#
# Poissons Ratio (x) = 0.18897 0.42303
# Poissons Ratio (y) = 0.15099 0.44047
# Poissons Ratio (z) = 0.34115 0.44457
#
# Static dielectric constant tensor:
#      x y z
#    x 3.264240 0.000000 0.104010 
#    y 0.000000 3.407040 0.000000 
#    z 0.104010 0.000000 3.325110 
# 
# 
# High freq. dielectric constant tensor:
#      x y z
#    x 1.678660 0.000000 0.011010 
#    y 0.000000 1.707820 0.000000 
#    z 0.011010 0.000000 1.693390 
# 
# From -- ./inp_files/248999.got.cif
#   From: 2010.06.25/outbox.cif.g09.slc.cpg/sg12_125_cif.got.tgz:248999.got - 2010.06.28 00:19:55.
