data_PCOD8095818
_publ_section_title
;
Structure prediction by ZEFSAII (Michael W. Deem and Ramdas Pophale) SiO2 
 PCOD8095818
Probable space group: C 2/M
;
_chemical_formula_sum "Si O2"
_cell_formula_units_Z 32
_cell_length_a 23.337591
_cell_length_b 8.475080
_cell_length_c 11.576381
_cell_angle_alpha 90.000000
_cell_angle_beta 48.274272
_cell_angle_gamma 90.000000
_cell_volume 1708.869929
_symmetry_space_group_name_H-M "C 2/M"
_symmetry_group_IT_number 12
_symmetry_cell_setting 'monoclinic'
loop_
_space_group_symop_operation_xyz
x,y,z
-x,y,-z
-x,-y,-z
x,-y,z
1/2+x,1/2+y,z
1/2-x,1/2+y,-z
1/2-x,1/2-y,-z
1/2+x,1/2-y,z
loop_
_atom_site_type_symbol
_atom_site_label
_atom_site_fract_x
_atom_site_fract_y
_atom_site_fract_z
Si Si1 0.712543 0.815706 0.204222
Si Si2 0.866622 0.679288 0.907597
Si Si3 0.235397 0.684366 0.645303
Si Si4 0.921020 0.817169 0.050672
O O1 0.636293 0.783066 0.227246
O O2 0.702356 0.767822 0.352097
O O3 0.735827 0.000000 0.163055
O O4 0.780090 0.703625 0.067936
O O5 0.892072 0.500000 0.894552
O O6 0.923492 0.788078 0.907830
O O7 0.250713 0.500000 0.625884
O O8 0.250000 0.750000 0.500000
O O9 0.148346 0.720060 0.800384
O O10 0.908044 0.000000 0.094825
O O11 0.000000 0.756290 0.000000
#
# Coordination Sequence:
#
# PCOD8095818 Si02
#       4
#     8   8   8   8
#     4   9  16  27  44  68  96 123 157 199 240 282
#     4   9  16  26  44  69  95 124 158 198 240 281
#     4  11  21  33  51  73  99 130 163 200 243 289
#     4  10  20  33  50  73 101 131 163 200 241 286
#
# _framework density 18.725826999999999
#
# number of rings (size 3 to 8) (size 9 to 14) (size 15 to 20)
#    0.000    2.250    0.000    7.500    0.000    5.000 
#    0.000    0.000    0.000    1.500    0.000   10.500 
#    0.000    0.000    0.000    0.000    0.000    0.000 
#
# Total GULP energy -198224.882910 kJ/mol
# GULP energy per Si atom -12389.055182 kJ/mol
# Density = 1.868321 g / cm^3
# Si number density = 18.725827 Si / 1000 Ang^3
#
#
#
# Elastic Constant Matrix: (Units=GPa)
#
#
# Indices 1 2 3 4 5 6 
#
# 1 179.6853 36.3825 48.9096 0.0000 36.6148 0.0000
# 2 36.3825 76.5886 18.2542 0.0000 9.6244 0.0000
# 3 48.9096 18.2542 49.7433 0.0000 26.7732 0.0000
# 4 0.0000 0.0000 0.0000 22.1661 0.0000 7.5780
# 5 36.6148 9.6244 26.7732 0.0000 33.3797 0.0000
# 6 0.0000 0.0000 0.0000 7.5780 0.0000 32.2499
#
#
#
# Elastic Compliance Matrix: (Units=1/GPa)
#
#
# Indices 1 2 3 4 5 6 
#
# 1 0.008258 -0.002191 -0.004892 0.000000 -0.004503 0.000000
# 2 -0.002191 0.014890 -0.004034 0.000000 0.001346 0.000000
# 3 -0.004892 -0.004034 0.040259 0.000000 -0.025762 0.000000
# 4 0.000000 0.000000 0.000000 0.049055 0.000000 -0.011527
# 5 -0.004503 0.001346 -0.025762 0.000000 0.055173 0.000000
# 6 0.000000 0.000000 0.000000 -0.011527 0.000000 0.033716
#
#
# Mechanical properties :
#
#
# Convention : Reuss Voigt Hill
#
# Bulk Modulus (GPa) = 24.28783 57.01220 40.65001
# Shear Modulus (GPa) = 21.06946 31.05719 26.06333
#
# Velocity S-wave (km/s) = 3.35797 4.07691 3.73478
# Velocity P-wave (km/s) = 5.29462 7.25765 6.35242
#
# Compressibility (1/GPa) = 0.04117288
#
# Stress axis : x y z
#
# Youngs Moduli (GPa) = 121.09339 67.15921 24.83887
#
# Poissons Ratio (x) = 0.14715 0.12151
# Poissons Ratio (y) = 0.26533 0.10020
# Poissons Ratio (z) = 0.59240 0.27093
#
# Static dielectric constant tensor:
#      x y z
#    x 4.598030 0.000000 0.791880 
#    y 0.000000 3.455380 0.000000 
#    z 0.791880 0.000000 3.109270 
# 
# 
# High freq. dielectric constant tensor:
#      x y z
#    x 1.746990 0.000000 0.047600 
#    y 0.000000 1.740320 0.000000 
#    z 0.047600 0.000000 1.656740 
# 
# From -- ./inp_files/150938.got.cif
#   From: 2010.06.25/outbox.cif.g09.slc.cpg/sg12_76_cif.got.tgz:150938.got - 2010.06.28 00:19:55.
