data_PCOD8095267
_publ_section_title
;
Structure prediction by ZEFSAII (Michael W. Deem and Ramdas Pophale) SiO2 
 PCOD8095267
Probable space group: C 2/M
;
_chemical_formula_sum "Si O2"
_cell_formula_units_Z 64
_cell_length_a 22.405212
_cell_length_b 9.118869
_cell_length_c 19.946088
_cell_angle_alpha 90.000000
_cell_angle_beta 118.827448
_cell_angle_gamma 90.000000
_cell_volume 3570.174509
_symmetry_space_group_name_H-M "C 2/M"
_symmetry_group_IT_number 12
_symmetry_cell_setting 'monoclinic'
loop_
_space_group_symop_operation_xyz
x,y,z
-x,y,-z
-x,-y,-z
x,-y,z
1/2+x,1/2+y,z
1/2-x,1/2+y,-z
1/2-x,1/2-y,-z
1/2+x,1/2-y,z
loop_
_atom_site_type_symbol
_atom_site_label
_atom_site_fract_x
_atom_site_fract_y
_atom_site_fract_z
Si Si1 0.702848 0.168957 0.026761
Si Si2 0.110352 0.664926 0.561629
Si Si3 0.489633 0.835423 0.602261
Si Si4 0.302166 0.330422 0.294417
Si Si5 0.433413 0.168038 0.124553
Si Si6 0.467456 0.329815 0.912933
Si Si7 0.190896 0.171365 0.157670
Si Si8 0.577851 0.669183 0.745862
O O1 0.713604 0.244697 0.103556
O O2 0.725679 0.000000 0.044695
O O3 0.750000 0.250000 0.000000
O O4 0.624705 0.183844 0.962817
O O5 0.139941 0.500000 0.572233
O O6 0.080097 0.715710 0.472911
O O7 0.169097 0.775118 0.618305
O O8 0.049740 0.667012 0.581558
O O9 0.508417 0.728126 0.673594
O O10 0.480462 0.000000 0.625611
O O11 0.282662 0.500000 0.290572
O O12 0.234993 0.236298 0.242385
O O13 0.357371 0.303391 0.266167
O O14 0.501375 0.241825 0.132470
O O15 0.407972 0.246461 0.177877
O O16 0.449018 0.000000 0.150053
O O17 0.485130 0.500000 0.912675
O O18 0.387530 0.299135 0.868731
O O19 0.500000 0.272577 0.000000
O O20 0.206194 0.000000 0.156494
O O21 0.566633 0.500000 0.755978
#
# Coordination Sequence:
#
# PCOD8095267 Si02
#       8
#     8   8   8   8   8   8   8   8
#     4  11  23  36  52  75 102 133 167 203 248 302
#     4   8  14  26  45  69  99 136 171 205 246 296
#     4   8  14  26  45  69  99 134 171 207 246 294
#     4  10  20  32  48  74 107 140 171 209 251 297
#     4  11  23  36  53  75  99 130 168 211 255 299
#     4  10  21  39  59  76  95 125 166 213 261 305
#     4  11  22  36  55  75  98 131 168 209 256 303
#     4  10  20  32  48  72 105 140 171 207 251 299
#
# _framework density 17.926293999999999
#
# number of rings (size 3 to 8) (size 9 to 14) (size 15 to 20)
#    0.000    2.125    1.250    3.375    0.000    6.750 
#    0.000    2.500    0.000    0.000    0.000    0.875 
#    0.000    0.000    0.000    0.000    0.000    0.000 
#
# Total GULP energy -396822.602321 kJ/mol
# GULP energy per Si atom -12400.706323 kJ/mol
# Density = 1.788549 g / cm^3
# Si number density = 17.926294 Si / 1000 Ang^3
#
#
#
# Elastic Constant Matrix: (Units=GPa)
#
#
# Indices 1 2 3 4 5 6 
#
# 1 46.3517 34.4405 10.5852 0.0000 12.7899 0.0000
# 2 34.4405 109.8409 42.0514 0.0000 16.7826 0.0000
# 3 10.5852 42.0514 89.1036 0.0000 26.5217 0.0000
# 4 0.0000 0.0000 0.0000 35.6621 0.0000 -0.8332
# 5 12.7899 16.7826 26.5217 0.0000 18.7617 0.0000
# 6 0.0000 0.0000 0.0000 -0.8332 0.0000 23.5520
#
#
#
# Elastic Compliance Matrix: (Units=1/GPa)
#
#
# Indices 1 2 3 4 5 6 
#
# 1 0.034378 -0.009988 0.008539 0.000000 -0.026571 0.000000
# 2 -0.009988 0.014224 -0.006501 0.000000 0.003276 0.000000
# 3 0.008539 -0.006501 0.022924 0.000000 -0.032410 0.000000
# 4 0.000000 0.000000 0.000000 0.028064 0.000000 0.000993
# 5 -0.026571 0.003276 -0.032410 0.000000 0.114299 0.000000
# 6 0.000000 0.000000 0.000000 0.000993 0.000000 0.042494
#
#
# Mechanical properties :
#
#
# Convention : Reuss Voigt Hill
#
# Bulk Modulus (GPa) = 17.97788 46.60560 32.29174
# Shear Modulus (GPa) = 17.19239 26.14311 21.66775
#
# Velocity S-wave (km/s) = 3.10023 3.82300 3.48043
# Velocity P-wave (km/s) = 4.78182 6.74848 5.84841
#
# Compressibility (1/GPa) = 0.05562390
#
# Stress axis : x y z
#
# Youngs Moduli (GPa) = 29.08879 70.30163 43.62279
#
# Poissons Ratio (x) = 0.70219 -0.37249
# Poissons Ratio (y) = 0.29055 0.28361
# Poissons Ratio (z) = -0.24838 0.45706
#
# Static dielectric constant tensor:
#      x y z
#    x 2.971140 0.000000 0.074980 
#    y 0.000000 3.430270 0.000000 
#    z 0.074980 0.000000 3.766840 
# 
# 
# High freq. dielectric constant tensor:
#      x y z
#    x 1.648330 0.000000 0.014090 
#    y 0.000000 1.703240 0.000000 
#    z 0.014090 0.000000 1.701430 
# 
# From -- ./inp_files/319876.got.cif
#   From: 2010.06.25/outbox.cif.g09.slc.cpg/sg12_160_cif.got.tgz:319876.got - 2010.06.28 00:19:55.
