data_PCOD8095233
_publ_section_title
;
Structure prediction by ZEFSAII (Michael W. Deem and Ramdas Pophale) SiO2 
 PCOD8095233
Probable space group: C 2/M
;
_chemical_formula_sum "Si O2"
_cell_formula_units_Z 64
_cell_length_a 23.981708
_cell_length_b 9.286537
_cell_length_c 17.201893
_cell_angle_alpha 90.000000
_cell_angle_beta 101.102761
_cell_angle_gamma 90.000000
_cell_volume 3759.279286
_symmetry_space_group_name_H-M "C 2/M"
_symmetry_group_IT_number 12
_symmetry_cell_setting 'monoclinic'
loop_
_space_group_symop_operation_xyz
x,y,z
-x,y,-z
-x,-y,-z
x,-y,z
1/2+x,1/2+y,z
1/2-x,1/2+y,-z
1/2-x,1/2-y,-z
1/2+x,1/2-y,z
loop_
_atom_site_type_symbol
_atom_site_label
_atom_site_fract_x
_atom_site_fract_y
_atom_site_fract_z
Si Si1 0.797560 0.337483 0.056364
Si Si2 0.411357 0.837702 0.989136
Si Si3 0.964424 0.835094 0.135085
Si Si4 0.183558 0.169154 0.317105
Si Si5 0.302084 0.332831 0.343382
Si Si6 0.591601 0.333236 0.169041
Si Si7 0.692911 0.334914 0.487509
Si Si8 0.855961 0.832318 0.200168
O O1 0.776665 0.500000 0.067301
O O2 0.809737 0.259702 0.141044
O O3 0.750000 0.250000 0.000000
O O4 0.852873 0.336819 0.018945
O O5 0.400198 0.756095 0.906521
O O6 0.432150 0.000000 0.978124
O O7 0.458360 0.759323 0.055209
O O8 0.919876 0.790003 0.190623
O O9 0.027766 0.812028 0.185227
O O10 0.954039 0.000000 0.107382
O O11 0.243585 0.245694 0.317563
O O12 0.135802 0.226134 0.244868
O O13 0.159064 0.202336 0.398554
O O14 0.193459 0.000000 0.308039
O O15 0.285156 0.500000 0.333176
O O16 0.334517 0.299519 0.434946
O O17 0.347316 0.292772 0.288441
O O18 0.603213 0.500000 0.153089
O O19 0.710164 0.500000 0.489580
O O20 0.750000 0.250000 0.500000
O O21 0.844131 0.000000 0.180801
#
# Coordination Sequence:
#
# PCOD8095233 Si02
#       8
#     8   8   8   8   8   8   8   8
#     4  10  21  34  47  65  93 125 153 186 230 276
#     4  10  21  34  48  68  91 118 155 196 234 270
#     4   9  18  34  51  65  88 123 160 193 228 272
#     4   9  18  30  45  69  97 122 150 185 230 278
#     4   9  17  29  48  71  94 120 152 188 228 276
#     4  10  20  32  48  69  92 122 157 192 230 275
#     4   8  14  27  45  65  92 122 148 181 225 273
#     4   9  18  32  49  68  90 120 157 193 227 269
#
# _framework density 17.024539999999998
#
# number of rings (size 3 to 8) (size 9 to 14) (size 15 to 20)
#    0.000    2.750    0.000    1.125    1.750    4.500 
#    0.000    0.000    0.000    0.750    0.000    5.250 
#    0.000    0.000    0.000   25.750    0.000   20.500 
#
# Total GULP energy -396515.171972 kJ/mol
# GULP energy per Si atom -12391.099124 kJ/mol
# Density = 1.698579 g / cm^3
# Si number density = 17.024540 Si / 1000 Ang^3
#
#
#
# Elastic Constant Matrix: (Units=GPa)
#
#
# Indices 1 2 3 4 5 6 
#
# 1 42.9066 20.5346 50.9332 0.0000 -1.2592 0.0000
# 2 20.5346 55.9024 40.6415 0.0000 -3.5928 0.0000
# 3 50.9332 40.6415 148.5862 0.0000 -13.9729 0.0000
# 4 0.0000 0.0000 0.0000 20.1911 0.0000 -0.7717
# 5 -1.2592 -3.5928 -13.9729 0.0000 24.5447 0.0000
# 6 0.0000 0.0000 0.0000 -0.7717 0.0000 19.0671
#
#
#
# Elastic Compliance Matrix: (Units=1/GPa)
#
#
# Indices 1 2 3 4 5 6 
#
# 1 0.041758 -0.006125 -0.013230 0.000000 -0.006286 0.000000
# 2 -0.006125 0.023228 -0.004188 0.000000 0.000702 0.000000
# 3 -0.013230 -0.004188 0.012984 0.000000 0.006100 0.000000
# 4 0.000000 0.000000 0.000000 0.049603 0.000000 0.002008
# 5 -0.006286 0.000702 0.006100 0.000000 0.043995 0.000000
# 6 0.000000 0.000000 0.000000 0.002008 0.000000 0.052528
#
#
# Mechanical properties :
#
#
# Convention : Reuss Voigt Hill
#
# Bulk Modulus (GPa) = 32.37804 52.40155 42.38979
# Shear Modulus (GPa) = 17.76351 21.77965 19.77158
#
# Velocity S-wave (km/s) = 3.23368 3.58062 3.41157
# Velocity P-wave (km/s) = 5.74474 6.92397 6.36173
#
# Compressibility (1/GPa) = 0.03088514
#
# Stress axis : x y z
#
# Youngs Moduli (GPa) = 23.94753 43.05181 77.01655
#
# Poissons Ratio (x) = 0.26368 1.01892
# Poissons Ratio (y) = 0.14667 0.32254
# Poissons Ratio (z) = 0.31682 0.18030
#
# Static dielectric constant tensor:
#      x y z
#    x 3.210810 0.000000 -0.125730 
#    y 0.000000 3.284090 0.000000 
#    z -0.125730 0.000000 3.722940 
# 
# 
# High freq. dielectric constant tensor:
#      x y z
#    x 1.633820 0.000000 -0.011100 
#    y 0.000000 1.659950 0.000000 
#    z -0.011100 0.000000 1.659840 
# 
# From -- ./inp_files/244246.got.cif
#   From: 2010.06.25/outbox.cif.g09.slc.cpg/sg12_123_cif.got.tgz:244246.got - 2010.06.28 00:19:55.
