data_PCOD8095293
_publ_section_title
;
Structure prediction by ZEFSAII (Michael W. Deem and Ramdas Pophale) SiO2 
 PCOD8095293
Probable space group: C 2/M
;
_chemical_formula_sum "Si O2"
_cell_formula_units_Z 48
_cell_length_a 23.551575
_cell_length_b 8.998483
_cell_length_c 13.581949
_cell_angle_alpha 90.000000
_cell_angle_beta 107.119497
_cell_angle_gamma 90.000000
_cell_volume 2750.867749
_symmetry_space_group_name_H-M "C 2/M"
_symmetry_group_IT_number 12
_symmetry_cell_setting 'monoclinic'
loop_
_space_group_symop_operation_xyz
x,y,z
-x,y,-z
-x,-y,-z
x,-y,z
1/2+x,1/2+y,z
1/2-x,1/2+y,-z
1/2-x,1/2-y,-z
1/2+x,1/2-y,z
loop_
_atom_site_type_symbol
_atom_site_label
_atom_site_fract_x
_atom_site_fract_y
_atom_site_fract_z
Si Si1 0.977823 0.824515 0.384324
Si Si2 0.445198 0.166394 0.081636
Si Si3 0.865562 0.671213 0.855507
Si Si4 0.127538 0.668371 0.765147
Si Si5 0.245580 0.824030 0.104277
Si Si6 0.047846 0.825914 0.229359
O O1 0.911466 0.767117 0.328617
O O2 0.000000 0.760489 0.500000
O O3 0.024827 0.772628 0.324987
O O4 0.973682 0.000000 0.384564
O O5 0.392691 0.189433 0.132695
O O6 0.496617 0.286250 0.124691
O O7 0.472446 0.000000 0.105218
O O8 0.418175 0.190092 0.960809
O O9 0.847378 0.500000 0.831316
O O10 0.808949 0.763378 0.860794
O O11 0.891313 0.739535 0.766814
O O12 0.119391 0.500000 0.725431
O O13 0.196485 0.715335 0.800426
O O14 0.239643 0.000000 0.085236
O O15 0.250000 0.750000 0.000000
O O16 0.060771 0.000000 0.232863
#
# Coordination Sequence:
#
# PCOD8095293 Si02
#       6
#     8   8   8   8   8   8
#     4   9  19  36  57  79 102 129 165 214 268 313
#     4   9  17  31  47  67 100 138 169 203 248 299
#     4  11  21  33  48  70 103 143 175 207 250 299
#     4   9  18  33  51  75 104 134 171 210 252 299
#     4  11  21  34  51  74 106 143 179 212 246 296
#     4  10  20  32  48  74 101 130 169 212 258 309
#
# _framework density 17.449038999999999
#
# number of rings (size 3 to 8) (size 9 to 14) (size 15 to 20)
#    0.000    2.167    1.667    2.000    0.000    5.667 
#    0.000    0.000    0.000    1.000    0.000    0.000 
#    0.000    0.000    0.000    0.000    0.000    0.000 
#
# Total GULP energy -297569.716115 kJ/mol
# GULP energy per Si atom -12398.738171 kJ/mol
# Density = 1.740932 g / cm^3
# Si number density = 17.449039 Si / 1000 Ang^3
#
#
#
# Elastic Constant Matrix: (Units=GPa)
#
#
# Indices 1 2 3 4 5 6 
#
# 1 119.1157 51.7853 51.5028 0.0000 -8.9165 0.0000
# 2 51.7853 71.8855 39.7197 0.0000 0.3901 0.0000
# 3 51.5028 39.7197 89.1025 0.0000 -0.4213 0.0000
# 4 0.0000 0.0000 0.0000 21.1493 0.0000 2.6095
# 5 -8.9165 0.3901 -0.4213 0.0000 13.0032 0.0000
# 6 0.0000 0.0000 0.0000 2.6095 0.0000 32.7177
#
#
#
# Elastic Compliance Matrix: (Units=1/GPa)
#
#
# Indices 1 2 3 4 5 6 
#
# 1 0.014749 -0.007956 -0.004930 0.000000 0.010192 0.000000
# 2 -0.007956 0.022758 -0.005576 0.000000 -0.006319 0.000000
# 3 -0.004930 -0.005576 0.016546 0.000000 -0.002677 0.000000
# 4 0.000000 0.000000 0.000000 0.047753 0.000000 -0.003809
# 5 0.010192 -0.006319 -0.002677 0.000000 0.083996 0.000000
# 6 0.000000 0.000000 0.000000 -0.003809 0.000000 0.030868
#
#
# Mechanical properties :
#
#
# Convention : Reuss Voigt Hill
#
# Bulk Modulus (GPa) = 58.38480 62.90215 60.64348
# Shear Modulus (GPa) = 19.28248 22.51377 20.89812
#
# Velocity S-wave (km/s) = 3.32787 3.59591 3.46449
# Velocity P-wave (km/s) = 6.94976 7.30535 7.12977
#
# Compressibility (1/GPa) = 0.01712774
#
# Stress axis : x y z
#
# Youngs Moduli (GPa) = 67.80250 43.94139 60.43837
#
# Poissons Ratio (x) = 0.34959 0.29798
# Poissons Ratio (y) = 0.53943 0.33700
# Poissons Ratio (z) = 0.33428 0.24502
#
# Static dielectric constant tensor:
#      x y z
#    x 3.366050 0.000000 -0.094830 
#    y 0.000000 3.273160 0.000000 
#    z -0.094830 0.000000 3.124420 
# 
# 
# High freq. dielectric constant tensor:
#      x y z
#    x 1.680300 0.000000 -0.006790 
#    y 0.000000 1.679290 0.000000 
#    z -0.006790 0.000000 1.638800 
# 
# From -- ./inp_files/236874.got.cif
#   From: 2010.06.25/outbox.cif.g09.slc.cpg/sg12_119_cif.got.tgz:236874.got - 2010.06.28 00:19:55.
