data_PCOD8096198
_publ_section_title
;
Structure prediction by ZEFSAII (Michael W. Deem and Ramdas Pophale) SiO2 
 PCOD8096198
Probable space group: C 2/M
;
_chemical_formula_sum "Si O2"
_cell_formula_units_Z 56
_cell_length_a 14.346057
_cell_length_b 9.166148
_cell_length_c 23.880561
_cell_angle_alpha 90.000000
_cell_angle_beta 115.297850
_cell_angle_gamma 90.000000
_cell_volume 2839.093739
_symmetry_space_group_name_H-M "C 2/M"
_symmetry_group_IT_number 12
_symmetry_cell_setting 'monoclinic'
loop_
_space_group_symop_operation_xyz
x,y,z
-x,y,-z
-x,-y,-z
x,-y,z
1/2+x,1/2+y,z
1/2-x,1/2+y,-z
1/2-x,1/2-y,-z
1/2+x,1/2-y,z
loop_
_atom_site_type_symbol
_atom_site_label
_atom_site_fract_x
_atom_site_fract_y
_atom_site_fract_z
Si Si1 0.408386 0.328668 0.722945
Si Si2 0.130554 0.834123 0.822461
Si Si3 0.613822 0.831807 0.510039
Si Si4 0.687595 0.830865 0.404885
Si Si5 0.718347 0.159881 0.938280
Si Si6 0.069536 0.161594 0.067588
Si Si7 0.658508 0.169584 0.186426
O O1 0.383900 0.500000 0.716139
O O2 0.529253 0.295698 0.761381
O O3 0.377165 0.258005 0.656670
O O4 0.343950 0.254553 0.755932
O O5 0.130382 0.739946 0.879579
O O6 0.227616 0.803028 0.807882
O O7 0.130652 0.000000 0.843051
O O8 0.500000 0.781950 0.500000
O O9 0.626389 0.809000 0.447012
O O10 0.696636 0.731989 0.563106
O O11 0.633590 0.000000 0.531684
O O12 0.694696 0.000000 0.389784
O O13 0.815063 0.144751 0.923085
O O14 0.678479 0.000000 0.946467
O O15 0.750000 0.250000 0.000000
O O16 0.070680 0.266023 0.122018
O O17 0.025926 0.000000 0.072414
O O18 0.000000 0.231065 0.000000
O O19 0.634414 0.000000 0.189456
#
# Coordination Sequence:
#
# PCOD8096198 Si02
#       7
#     8   8   8   8   8   8   8
#     4  11  23  39  60  82 113 157 195 232 287 347
#     4   9  21  40  57  76 108 147 186 232 286 346
#     4   9  19  38  63  90 123 160 195 233 280 330
#     4  10  21  37  58  89 123 153 194 241 279 330
#     4  10  20  33  52  77 105 137 176 228 285 344
#     4   9  19  35  53  74 102 139 179 222 281 351
#     4  10  21  38  57  81 110 140 185 241 290 339
#
# _framework density 19.724603999999999
#
# number of rings (size 3 to 8) (size 9 to 14) (size 15 to 20)
#    0.000    2.286    0.000    1.714    2.000    4.571 
#    0.000    2.857    0.000    0.000    0.000    0.000 
#    0.000    0.000    0.000    0.000    0.000    0.000 
#
# Total GULP energy -347218.841307 kJ/mol
# GULP energy per Si atom -12400.672904 kJ/mol
# Density = 1.967971 g / cm^3
# Si number density = 19.724604 Si / 1000 Ang^3
#
#
#
# Elastic Constant Matrix: (Units=GPa)
#
#
# Indices 1 2 3 4 5 6 
#
# 1 83.4571 50.7937 43.9844 0.0000 10.8152 0.0000
# 2 50.7937 144.8979 86.9552 0.0000 5.7849 0.0000
# 3 43.9844 86.9552 146.2649 0.0000 10.6729 0.0000
# 4 0.0000 0.0000 0.0000 42.0045 0.0000 -1.2736
# 5 10.8152 5.7849 10.6729 0.0000 22.5675 0.0000
# 6 0.0000 0.0000 0.0000 -1.2736 0.0000 25.5987
#
#
#
# Elastic Compliance Matrix: (Units=1/GPa)
#
#
# Indices 1 2 3 4 5 6 
#
# 1 0.016406 -0.004373 -0.001908 0.000000 -0.005839 0.000000
# 2 -0.004373 0.011897 -0.005891 0.000000 0.001832 0.000000
# 3 -0.001908 -0.005891 0.011120 0.000000 -0.002835 0.000000
# 4 0.000000 0.000000 0.000000 0.023843 0.000000 0.001186
# 5 -0.005839 0.001832 -0.002835 0.000000 0.047981 0.000000
# 6 0.000000 0.000000 0.000000 0.001186 0.000000 0.039124
#
#
# Mechanical properties :
#
#
# Convention : Reuss Voigt Hill
#
# Bulk Modulus (GPa) = 66.32040 82.00960 74.16500
# Shear Modulus (GPa) = 27.81804 30.89326 29.35565
#
# Velocity S-wave (km/s) = 3.75950 3.96186 3.86200
# Velocity P-wave (km/s) = 7.24854 7.91176 7.58740
#
# Compressibility (1/GPa) = 0.01507832
#
# Stress axis : x y z
#
# Youngs Moduli (GPa) = 60.95392 84.05704 89.92990
#
# Poissons Ratio (x) = 0.36759 0.17155
# Poissons Ratio (y) = 0.26656 0.52980
# Poissons Ratio (z) = 0.11627 0.49520
#
# Static dielectric constant tensor:
#      x y z
#    x 3.544630 0.000000 0.049340 
#    y 0.000000 3.399530 0.000000 
#    z 0.049340 0.000000 3.540090 
# 
# 
# High freq. dielectric constant tensor:
#      x y z
#    x 1.765910 0.000000 0.002760 
#    y 0.000000 1.777620 0.000000 
#    z 0.002760 0.000000 1.766380 
# 
# From -- ./inp_files/339050.got.cif
#   From: 2010.06.25/outbox.cif.g09.slc.cpg/sg12_170_cif.got.tgz:339050.got - 2010.06.28 00:19:55.
