data_PCOD8096743
_publ_section_title
;
Structure prediction by ZEFSAII (Michael W. Deem and Ramdas Pophale) SiO2 
 PCOD8096743
Probable space group: C 2/M
;
_chemical_formula_sum "Si O2"
_cell_formula_units_Z 40
_cell_length_a 20.615929
_cell_length_b 8.964126
_cell_length_c 12.747870
_cell_angle_alpha 90.000000
_cell_angle_beta 77.071429
_cell_angle_gamma 90.000000
_cell_volume 2296.133119
_symmetry_space_group_name_H-M "C 2/M"
_symmetry_group_IT_number 12
_symmetry_cell_setting 'monoclinic'
loop_
_space_group_symop_operation_xyz
x,y,z
-x,y,-z
-x,-y,-z
x,-y,z
1/2+x,1/2+y,z
1/2-x,1/2+y,-z
1/2-x,1/2-y,-z
1/2+x,1/2-y,z
loop_
_atom_site_type_symbol
_atom_site_label
_atom_site_fract_x
_atom_site_fract_y
_atom_site_fract_z
Si Si1 0.602284 0.178308 0.262352
Si Si2 0.422553 0.163032 0.505055
Si Si3 0.318755 0.676217 0.944869
Si Si4 0.430245 0.324813 0.071201
Si Si5 0.047457 0.322373 0.726455
O O1 0.610249 0.240143 0.380136
O O2 0.658724 0.258788 0.174859
O O3 0.530077 0.225067 0.243679
O O4 0.611102 0.000000 0.255254
O O5 0.500000 0.143143 0.500000
O O6 0.416483 0.242873 0.392983
O O7 0.389651 0.000000 0.506955
O O8 0.310478 0.500000 0.938596
O O9 0.250000 0.750000 0.000000
O O10 0.372090 0.721687 0.013506
O O11 0.433211 0.500000 0.089521
O O12 0.415385 0.246509 0.187365
O O13 0.500000 0.265419 0.000000
O O14 0.053661 0.500000 0.725337
#
# Coordination Sequence:
#
# PCOD8096743 Si02
#       5
#     8   8   8   8   8
#     4   9  16  29  50  74 102 133 165 201 245 294
#     4   7  12  24  43  71 103 130 157 197 246 289
#     4  11  23  37  52  71 100 135 170 207 249 298
#     4  10  20  34  50  71 103 135 161 203 259 299
#     4   9  16  27  49  78 103 129 165 204 240 290
#
# _framework density 17.420593
#
# number of rings (size 3 to 8) (size 9 to 14) (size 15 to 20)
#    0.000    2.800    2.000    3.000    0.000    2.000 
#    0.000    1.000    0.000    4.800    0.000    0.000 
#    0.000    0.000    0.000    0.000    0.000    0.000 
#
# Total GULP energy -247795.672530 kJ/mol
# GULP energy per Si atom -12389.783627 kJ/mol
# Density = 1.738094 g / cm^3
# Si number density = 17.420593 Si / 1000 Ang^3
#
#
#
# Elastic Constant Matrix: (Units=GPa)
#
#
# Indices 1 2 3 4 5 6 
#
# 1 80.9094 30.8980 62.3432 0.0000 -9.1360 0.0000
# 2 30.8980 36.0756 45.5975 0.0000 -3.1819 0.0000
# 3 62.3432 45.5975 193.2956 0.0000 -7.3382 0.0000
# 4 0.0000 0.0000 0.0000 19.2707 0.0000 0.8182
# 5 -9.1360 -3.1819 -7.3382 0.0000 21.6474 0.0000
# 6 0.0000 0.0000 0.0000 0.8182 0.0000 21.4021
#
#
#
# Elastic Compliance Matrix: (Units=1/GPa)
#
#
# Indices 1 2 3 4 5 6 
#
# 1 0.020473 -0.012771 -0.003377 0.000000 0.005618 0.000000
# 2 -0.012771 0.047616 -0.007144 0.000000 -0.000813 0.000000
# 3 -0.003377 -0.007144 0.007956 0.000000 0.000222 0.000000
# 4 0.000000 0.000000 0.000000 0.051977 0.000000 -0.001987
# 5 0.005618 -0.000813 0.000222 0.000000 0.048522 0.000000
# 6 0.000000 0.000000 0.000000 -0.001987 0.000000 0.046800
#
#
# Mechanical properties :
#
#
# Convention : Reuss Voigt Hill
#
# Bulk Modulus (GPa) = 33.94334 65.32867 49.63600
# Shear Modulus (GPa) = 17.87321 23.89352 20.88336
#
# Velocity S-wave (km/s) = 3.20657 3.70749 3.46609
# Velocity P-wave (km/s) = 5.76510 7.47727 6.67630
#
# Compressibility (1/GPa) = 0.02946086
#
# Stress axis : x y z
#
# Youngs Moduli (GPa) = 48.84450 21.00150 125.68447
#
# Poissons Ratio (x) = 0.26820 0.42448
# Poissons Ratio (y) = 0.62377 0.89793
# Poissons Ratio (z) = 0.16497 0.15004
#
# Static dielectric constant tensor:
#      x y z
#    x 2.867600 0.000000 0.031750 
#    y 0.000000 2.928070 0.000000 
#    z 0.031750 0.000000 3.743640 
# 
# 
# High freq. dielectric constant tensor:
#      x y z
#    x 1.623510 0.000000 0.001680 
#    y 0.000000 1.645740 0.000000 
#    z 0.001680 0.000000 1.701470 
# 
# From -- ./inp_files/151870.got.cif
#   From: 2010.06.25/outbox.cif.g09.slc.cpg/sg12_76_cif.got.tgz:151870.got - 2010.06.28 00:19:55.
