data_PCOD8096569
_publ_section_title
;
Structure prediction by ZEFSAII (Michael W. Deem and Ramdas Pophale) SiO2 
 PCOD8096569
Probable space group: C 2/M
;
_chemical_formula_sum "Si O2"
_cell_formula_units_Z 64
_cell_length_a 20.659151
_cell_length_b 9.000148
_cell_length_c 24.685022
_cell_angle_alpha 90.000000
_cell_angle_beta 129.778728
_cell_angle_gamma 90.000000
_cell_volume 3527.373499
_symmetry_space_group_name_H-M "C 2/M"
_symmetry_group_IT_number 12
_symmetry_cell_setting 'monoclinic'
loop_
_space_group_symop_operation_xyz
x,y,z
-x,y,-z
-x,-y,-z
x,-y,z
1/2+x,1/2+y,z
1/2-x,1/2+y,-z
1/2-x,1/2-y,-z
1/2+x,1/2-y,z
loop_
_atom_site_type_symbol
_atom_site_label
_atom_site_fract_x
_atom_site_fract_y
_atom_site_fract_z
Si Si1 0.515546 0.673372 0.421376
Si Si2 0.365745 0.327480 0.419208
Si Si3 0.027946 0.176086 0.213015
Si Si4 0.774154 0.673129 0.201003
Si Si5 0.284195 0.324988 0.713016
Si Si6 0.741041 0.827662 0.077768
Si Si7 0.029798 0.326893 0.708332
Si Si8 0.380414 0.827759 0.082339
O O1 0.509228 0.500000 0.403179
O O2 0.598305 0.705238 0.501675
O O3 0.433399 0.725005 0.410752
O O4 0.523553 0.769778 0.371469
O O5 0.347431 0.500000 0.401973
O O6 0.278816 0.240667 0.365400
O O7 0.122274 0.229098 0.250861
O O8 0.000078 0.237988 0.255649
O O9 0.968820 0.242421 0.133996
O O10 0.019693 0.000000 0.208473
O O11 0.754317 0.500000 0.182065
O O12 0.740375 0.731871 0.240367
O O13 0.723992 0.766145 0.128631
O O14 0.872769 0.707602 0.250167
O O15 0.275813 0.500000 0.705530
O O16 0.817389 0.735181 0.093571
O O17 0.766918 0.000000 0.092858
O O18 0.656421 0.803448 0.997457
O O19 0.012342 0.500000 0.707801
O O20 0.394051 0.000000 0.103283
#
# Coordination Sequence:
#
# PCOD8096569 Si02
#       8
#     8   8   8   8   8   8   8   8
#     4   9  18  33  54  83 114 141 178 224 271 322
#     4   9  18  33  55  82 111 144 179 222 272 321
#     4  11  23  38  57  79 109 148 184 221 270 327
#     4  10  20  35  55  81 112 141 179 228 271 317
#     4  10  22  39  56  79 111 146 183 223 270 325
#     4  10  20  33  55  84 110 140 180 224 272 320
#     4  11  21  34  56  84 111 141 181 228 272 317
#     4  10  20  35  54  80 112 143 179 224 270 320
#
# _framework density 18.143813000000002
#
# number of rings (size 3 to 8) (size 9 to 14) (size 15 to 20)
#    0.000    2.000    2.500    2.250    0.000    4.000 
#    0.000    2.500    0.000    3.750    0.000    0.000 
#    0.000    0.000    0.000    0.000    0.000    0.000 
#
# Total GULP energy -396894.399470 kJ/mol
# GULP energy per Si atom -12402.949983 kJ/mol
# Density = 1.810252 g / cm^3
# Si number density = 18.143813 Si / 1000 Ang^3
#
#
#
# Elastic Constant Matrix: (Units=GPa)
#
#
# Indices 1 2 3 4 5 6 
#
# 1 87.3796 39.9385 49.7107 0.0000 12.8451 0.0000
# 2 39.9385 70.8649 52.8217 0.0000 7.3321 0.0000
# 3 49.7107 52.8217 129.2482 0.0000 8.6356 0.0000
# 4 0.0000 0.0000 0.0000 38.1937 0.0000 -0.3060
# 5 12.8451 7.3321 8.6356 0.0000 28.8018 0.0000
# 6 0.0000 0.0000 0.0000 -0.3060 0.0000 23.9931
#
#
#
# Elastic Compliance Matrix: (Units=1/GPa)
#
#
# Indices 1 2 3 4 5 6 
#
# 1 0.017197 -0.006467 -0.003642 0.000000 -0.004931 0.000000
# 2 -0.006467 0.022939 -0.006827 0.000000 -0.000908 0.000000
# 3 -0.003642 -0.006827 0.011942 0.000000 -0.000219 0.000000
# 4 0.000000 0.000000 0.000000 0.026185 0.000000 0.000334
# 5 -0.004931 -0.000908 -0.000219 0.000000 0.037216 0.000000
# 6 0.000000 0.000000 0.000000 0.000334 0.000000 0.041683
#
#
# Mechanical properties :
#
#
# Convention : Reuss Voigt Hill
#
# Bulk Modulus (GPa) = 54.92452 63.60383 59.26418
# Shear Modulus (GPa) = 25.36759 27.86584 26.61672
#
# Velocity S-wave (km/s) = 3.74323 3.92322 3.83428
# Velocity P-wave (km/s) = 7.00142 7.46014 7.23441
#
# Compressibility (1/GPa) = 0.01820681
#
# Stress axis : x y z
#
# Youngs Moduli (GPa) = 58.14965 43.59453 83.73692
#
# Poissons Ratio (x) = 0.28194 0.30494
# Poissons Ratio (y) = 0.37608 0.57163
# Poissons Ratio (z) = 0.21176 0.29760
#
# Static dielectric constant tensor:
#      x y z
#    x 3.181210 0.000000 -0.000780 
#    y 0.000000 3.314090 0.000000 
#    z -0.000780 0.000000 3.548180 
# 
# 
# High freq. dielectric constant tensor:
#      x y z
#    x 1.672950 0.000000 -0.004480 
#    y 0.000000 1.707190 0.000000 
#    z -0.004480 0.000000 1.717590 
# 
# From -- ./inp_files/345963.got.cif
#   From: 2010.06.25/outbox.cif.g09.slc.cpg/sg12_173_cif.got.tgz:345963.got - 2010.06.28 00:19:55.
