data_PCOD8096849
_publ_section_title
;
Structure prediction by ZEFSAII (Michael W. Deem and Ramdas Pophale) SiO2 
 PCOD8096849
Probable space group: C 2/M
;
_chemical_formula_sum "Si O2"
_cell_formula_units_Z 64
_cell_length_a 14.081409
_cell_length_b 9.214138
_cell_length_c 31.211513
_cell_angle_alpha 90.000000
_cell_angle_beta 63.271679
_cell_angle_gamma 90.000000
_cell_volume 3616.926243
_symmetry_space_group_name_H-M "C 2/M"
_symmetry_group_IT_number 12
_symmetry_cell_setting 'monoclinic'
loop_
_space_group_symop_operation_xyz
x,y,z
-x,y,-z
-x,-y,-z
x,-y,z
1/2+x,1/2+y,z
1/2-x,1/2+y,-z
1/2-x,1/2-y,-z
1/2+x,1/2-y,z
loop_
_atom_site_type_symbol
_atom_site_label
_atom_site_fract_x
_atom_site_fract_y
_atom_site_fract_z
Si Si1 0.359633 0.668056 0.245916
Si Si2 0.099133 0.167104 0.508593
Si Si3 0.170458 0.668264 0.574507
Si Si4 0.630574 0.829852 0.260983
Si Si5 0.438693 0.168788 0.818959
Si Si6 0.670883 0.169512 0.072415
Si Si7 0.399783 0.329846 0.993538
Si Si8 0.426909 0.669858 0.327800
O O1 0.373854 0.500000 0.232450
O O2 0.244840 0.723583 0.254088
O O3 0.448890 0.750630 0.200709
O O4 0.371086 0.700388 0.293820
O O5 0.099747 0.266853 0.550476
O O6 0.205274 0.191095 0.459651
O O7 0.000000 0.216547 0.500000
O O8 0.087987 0.000000 0.525379
O O9 0.140771 0.500000 0.585962
O O10 0.147131 0.754455 0.622407
O O11 0.622503 0.791910 0.212356
O O12 0.543603 0.740568 0.305318
O O13 0.612524 0.000000 0.273420
O O14 0.364019 0.219139 0.873168
O O15 0.464389 0.000000 0.816258
O O16 0.598727 0.252161 0.052597
O O17 0.652656 0.000000 0.068940
O O18 0.794248 0.211483 0.041561
O O19 0.408086 0.500000 0.983214
O O20 0.500000 0.272490 0.000000
O O21 0.437196 0.500000 0.335635
#
# Coordination Sequence:
#
# PCOD8096849 Si02
#       8
#     8   8   8   8   8   8   8   8
#     4   9  19  34  52  74  99 128 164 205 244 287
#     4   9  19  36  55  76 103 133 166 205 248 292
#     4  10  20  34  53  76 102 133 168 205 246 292
#     4   9  18  34  53  73  98 128 163 202 245 291
#     4   9  18  32  50  71  98 130 161 198 244 295
#     4   9  18  32  48  70  99 128 160 199 245 292
#     4   9  18  32  50  71  95 126 164 203 242 287
#     4  10  20  34  51  73 102 132 164 204 246 289
#
# _framework density 17.694583000000002
#
# number of rings (size 3 to 8) (size 9 to 14) (size 15 to 20)
#    0.000    2.750    0.000    0.750    0.000    4.500 
#    0.000    5.000    0.000    0.000    0.000    0.000 
#    0.000    0.000    0.000    0.000    0.000    0.000 
#
# Total GULP energy -396893.701800 kJ/mol
# GULP energy per Si atom -12402.928181 kJ/mol
# Density = 1.765431 g / cm^3
# Si number density = 17.694583 Si / 1000 Ang^3
#
#
#
# Elastic Constant Matrix: (Units=GPa)
#
#
# Indices 1 2 3 4 5 6 
#
# 1 138.2638 41.7946 42.9475 0.0000 -0.3075 0.0000
# 2 41.7946 61.4269 46.4623 0.0000 -0.0397 0.0000
# 3 42.9475 46.4623 109.0752 0.0000 -0.0789 0.0000
# 4 0.0000 0.0000 0.0000 32.4548 0.0000 -0.3360
# 5 -0.3075 -0.0397 -0.0789 0.0000 14.1323 0.0000
# 6 0.0000 0.0000 0.0000 -0.3360 0.0000 27.5007
#
#
#
# Elastic Compliance Matrix: (Units=1/GPa)
#
#
# Indices 1 2 3 4 5 6 
#
# 1 0.009252 -0.005222 -0.001418 0.000000 0.000179 0.000000
# 2 -0.005222 0.026965 -0.009430 0.000000 -0.000090 0.000000
# 3 -0.001418 -0.009430 0.013743 0.000000 0.000019 0.000000
# 4 0.000000 0.000000 0.000000 0.030816 0.000000 0.000377
# 5 0.000179 -0.000090 0.000019 0.000000 0.070763 0.000000
# 6 0.000000 0.000000 0.000000 0.000377 0.000000 0.036367
#
#
# Mechanical properties :
#
#
# Convention : Reuss Voigt Hill
#
# Bulk Modulus (GPa) = 56.11837 63.46386 59.79112
# Shear Modulus (GPa) = 22.12499 26.65502 24.39000
#
# Velocity S-wave (km/s) = 3.53991 3.88544 3.71669
# Velocity P-wave (km/s) = 6.96361 7.48819 7.23066
#
# Compressibility (1/GPa) = 0.01781948
#
# Stress axis : x y z
#
# Youngs Moduli (GPa) = 108.08392 37.08451 72.76206
#
# Poissons Ratio (x) = 0.19366 0.10320
# Poissons Ratio (y) = 0.56443 0.68616
# Poissons Ratio (z) = 0.15330 0.34972
#
# Static dielectric constant tensor:
#      x y z
#    x 3.328290 0.000000 -0.005240 
#    y 0.000000 3.275740 0.000000 
#    z -0.005240 0.000000 3.319760 
# 
# 
# High freq. dielectric constant tensor:
#      x y z
#    x 1.684180 0.000000 -0.000430 
#    y 0.000000 1.683740 0.000000 
#    z -0.000430 0.000000 1.685090 
# 
# From -- ./inp_files/375059.got.cif
#   From: 2010.06.25/outbox.cif.g09.slc.cpg/sg12_188_cif.got.tgz:375059.got - 2010.06.28 00:19:55.
