data_PCOD8096378
_publ_section_title
;
Structure prediction by ZEFSAII (Michael W. Deem and Ramdas Pophale) SiO2 
 PCOD8096378
Probable space group: C 2/M
;
_chemical_formula_sum "Si O2"
_cell_formula_units_Z 64
_cell_length_a 14.114361
_cell_length_b 8.790747
_cell_length_c 27.958285
_cell_angle_alpha 90.000000
_cell_angle_beta 88.445708
_cell_angle_gamma 90.000000
_cell_volume 3467.669600
_symmetry_space_group_name_H-M "C 2/M"
_symmetry_group_IT_number 12
_symmetry_cell_setting 'monoclinic'
loop_
_space_group_symop_operation_xyz
x,y,z
-x,y,-z
-x,-y,-z
x,-y,z
1/2+x,1/2+y,z
1/2-x,1/2+y,-z
1/2-x,1/2-y,-z
1/2+x,1/2-y,z
loop_
_atom_site_type_symbol
_atom_site_label
_atom_site_fract_x
_atom_site_fract_y
_atom_site_fract_z
Si Si1 0.755844 0.680978 0.947767
Si Si2 0.251542 0.176853 0.698635
Si Si3 0.096754 0.679678 0.380908
Si Si4 0.236234 0.172518 0.201994
Si Si5 0.886888 0.321742 0.121202
Si Si6 0.590722 0.677503 0.121366
Si Si7 0.735091 0.679505 0.448821
Si Si8 0.114556 0.679225 0.631592
O O1 0.763639 0.500000 0.949548
O O2 0.661137 0.729139 0.921079
O O3 0.849172 0.749559 0.922065
O O4 0.750000 0.750000 0.000000
O O5 0.342113 0.228022 0.666159
O O6 0.270493 0.216832 0.753117
O O7 0.156919 0.257315 0.680446
O O8 0.234056 0.000000 0.694136
O O9 0.097674 0.500000 0.389416
O O10 0.137447 0.758941 0.427819
O O11 0.991098 0.742860 0.374239
O O12 0.330776 0.210547 0.170952
O O13 0.144499 0.200661 0.170606
O O14 0.238906 0.000000 0.220647
O O15 0.883620 0.500000 0.108406
O O16 0.992708 0.265282 0.126971
O O17 0.574798 0.500000 0.110406
O O18 0.729775 0.500000 0.453458
O O19 0.750000 0.750000 0.500000
O O20 0.821949 0.732741 0.414043
O O21 0.112783 0.500000 0.636285
#
# Coordination Sequence:
#
# PCOD8096378 Si02
#       8
#     8   8   8   8   8   8   8   8
#     4  11  22  38  59  83 112 146 183 226 272 323
#     4  10  20  33  53  79 105 133 172 219 262 304
#     4   9  19  36  54  74 101 134 172 214 255 305
#     4   9  20  37  55  76 109 145 177 215 263 320
#     4  10  21  38  58  82 110 144 184 226 271 320
#     4  10  21  38  58  83 112 144 182 226 274 324
#     4  10  20  34  53  76 102 134 169 210 257 309
#     4   9  19  36  55  73 100 138 174 208 258 315
#
# _framework density 18.456199999999999
#
# number of rings (size 3 to 8) (size 9 to 14) (size 15 to 20)
#    0.000    2.250    0.000    3.375    0.000    6.500 
#    0.000    8.750    0.000    0.000    0.000    0.000 
#    0.000    0.000    0.000    0.000    0.000    0.000 
#
# Total GULP energy -396903.060694 kJ/mol
# GULP energy per Si atom -12403.220647 kJ/mol
# Density = 1.841419 g / cm^3
# Si number density = 18.456200 Si / 1000 Ang^3
#
#
#
# Elastic Constant Matrix: (Units=GPa)
#
#
# Indices 1 2 3 4 5 6 
#
# 1 121.4474 15.7437 39.3684 0.0000 4.3671 0.0000
# 2 15.7437 47.8549 31.7252 0.0000 -1.9640 0.0000
# 3 39.3684 31.7252 113.2846 0.0000 4.7947 0.0000
# 4 0.0000 0.0000 0.0000 36.6531 0.0000 3.4034
# 5 4.3671 -1.9640 4.7947 0.0000 13.5137 0.0000
# 6 0.0000 0.0000 0.0000 3.4034 0.0000 32.1282
#
#
#
# Elastic Compliance Matrix: (Units=1/GPa)
#
#
# Indices 1 2 3 4 5 6 
#
# 1 0.009393 -0.001327 -0.002798 0.000000 -0.002236 0.000000
# 2 -0.001327 0.026401 -0.007221 0.000000 0.006828 0.000000
# 3 -0.002798 -0.007221 0.012009 0.000000 -0.004406 0.000000
# 4 0.000000 0.000000 0.000000 0.027554 0.000000 -0.002919
# 5 -0.002236 0.006828 -0.004406 0.000000 0.077277 0.000000
# 6 0.000000 0.000000 0.000000 -0.002919 0.000000 0.031434
#
#
# Mechanical properties :
#
#
# Convention : Reuss Voigt Hill
#
# Bulk Modulus (GPa) = 39.82533 50.69574 45.26053
# Shear Modulus (GPa) = 23.24165 29.50897 26.37531
#
# Velocity S-wave (km/s) = 3.55249 4.00292 3.78441
# Velocity P-wave (km/s) = 6.20097 6.99230 6.60849
#
# Compressibility (1/GPa) = 0.02510965
#
# Stress axis : x y z
#
# Youngs Moduli (GPa) = 106.45677 37.87793 83.27430
#
# Poissons Ratio (x) = 0.05027 0.23301
# Poissons Ratio (y) = 0.14128 0.60135
# Poissons Ratio (z) = 0.29788 0.27353
#
# Static dielectric constant tensor:
#      x y z
#    x 3.575040 0.000000 -0.003640 
#    y 0.000000 3.429210 0.000000 
#    z -0.003640 0.000000 3.353710 
# 
# 
# High freq. dielectric constant tensor:
#      x y z
#    x 1.720400 0.000000 0.003780 
#    y 0.000000 1.723530 0.000000 
#    z 0.003780 0.000000 1.716530 
# 
# From -- ./inp_files/338715.got.cif
#   From: 2010.06.25/outbox.cif.g09.slc.cpg/sg12_170_cif.got.tgz:338715.got - 2010.06.28 00:19:55.
