data_PCOD8096284
_publ_section_title
;
Structure prediction by ZEFSAII (Michael W. Deem and Ramdas Pophale) SiO2 
 PCOD8096284
Probable space group: C 2/M
;
_chemical_formula_sum "Si O2"
_cell_formula_units_Z 64
_cell_length_a 15.396816
_cell_length_b 8.915128
_cell_length_c 33.600737
_cell_angle_alpha 90.000000
_cell_angle_beta 133.616643
_cell_angle_gamma 90.000000
_cell_volume 3339.095069
_symmetry_space_group_name_H-M "C 2/M"
_symmetry_group_IT_number 12
_symmetry_cell_setting 'monoclinic'
loop_
_space_group_symop_operation_xyz
x,y,z
-x,y,-z
-x,-y,-z
x,-y,z
1/2+x,1/2+y,z
1/2-x,1/2+y,-z
1/2-x,1/2-y,-z
1/2+x,1/2-y,z
loop_
_atom_site_type_symbol
_atom_site_label
_atom_site_fract_x
_atom_site_fract_y
_atom_site_fract_z
Si Si1 0.799790 0.330132 0.553939
Si Si2 0.252635 0.177914 0.250169
Si Si3 0.382989 0.822748 0.941340
Si Si4 0.812814 0.178719 0.057927
Si Si5 0.364639 0.166441 0.444554
Si Si6 0.974488 0.677010 0.673444
Si Si7 0.930404 0.321824 0.867556
Si Si8 0.705256 0.670633 0.324038
O O1 0.816677 0.500000 0.546751
O O2 0.750000 0.250000 0.500000
O O3 0.699738 0.306291 0.555625
O O4 0.921784 0.268389 0.613558
O O5 0.387380 0.223724 0.280710
O O6 0.167030 0.271114 0.194813
O O7 0.225924 0.234302 0.286457
O O8 0.232436 0.000000 0.239098
O O9 0.262624 0.773158 0.926581
O O10 0.383139 0.766638 0.895800
O O11 0.393347 0.000000 0.945409
O O12 0.500000 0.753177 0.000000
O O13 0.945406 0.242946 0.104597
O O14 0.816352 0.000000 0.054095
O O15 0.750000 0.250000 0.000000
O O16 0.500000 0.183619 0.500000
O O17 0.333661 0.182677 0.387847
O O18 0.319283 0.000000 0.444149
O O19 0.956578 0.500000 0.670252
O O20 0.902859 0.745619 0.687899
O O21 0.948879 0.500000 0.872200
O O22 0.662965 0.500000 0.307562
#
# Coordination Sequence:
#
# PCOD8096284 Si02
#       8
#     8   8   8   8   8   8   8   8
#     4  10  20  33  52  79 111 144 182 233 290 348
#     4  10  22  40  60  82 112 154 195 233 283 344
#     4   9  18  36  60  84 117 157 188 224 280 338
#     4  11  21  37  62  90 122 157 192 234 285 339
#     4   9  18  32  54  80 107 141 184 231 284 350
#     4   9  20  38  59  80 111 149 190 240 291 340
#     4  11  23  40  60  87 118 152 197 239 280 336
#     4   9  19  36  58  81 110 148 190 233 286 351
#
# _framework density 19.166869999999999
#
# number of rings (size 3 to 8) (size 9 to 14) (size 15 to 20)
#    0.000    2.250    1.250    1.125    1.750    2.750 
#    0.000    6.875    0.000    0.000    0.000    0.000 
#    0.000    0.000    0.000    0.000    0.000    0.000 
#
# Total GULP energy -396541.578879 kJ/mol
# GULP energy per Si atom -12391.924340 kJ/mol
# Density = 1.912325 g / cm^3
# Si number density = 19.166870 Si / 1000 Ang^3
#
#
#
# Elastic Constant Matrix: (Units=GPa)
#
#
# Indices 1 2 3 4 5 6 
#
# 1 145.7986 39.1200 85.1229 0.0000 -0.0329 0.0000
# 2 39.1200 46.5940 40.3343 0.0000 3.7528 0.0000
# 3 85.1229 40.3343 158.5148 0.0000 -0.3800 0.0000
# 4 0.0000 0.0000 0.0000 32.1905 0.0000 -1.1503
# 5 -0.0329 3.7528 -0.3800 0.0000 35.6502 0.0000
# 6 0.0000 0.0000 0.0000 -1.1503 0.0000 28.7062
#
#
#
# Elastic Compliance Matrix: (Units=1/GPa)
#
#
# Indices 1 2 3 4 5 6 
#
# 1 0.010915 -0.005301 -0.004511 0.000000 0.000520 0.000000
# 2 -0.005301 0.030418 -0.004901 0.000000 -0.003259 0.000000
# 3 -0.004511 -0.004901 0.009980 0.000000 0.000618 0.000000
# 4 0.000000 0.000000 0.000000 0.031110 0.000000 0.001247
# 5 0.000520 -0.003259 0.000618 0.000000 0.028401 0.000000
# 6 0.000000 0.000000 0.000000 0.001247 0.000000 0.034886
#
#
# Mechanical properties :
#
#
# Convention : Reuss Voigt Hill
#
# Bulk Modulus (GPa) = 45.69142 75.56241 60.62692
# Shear Modulus (GPa) = 27.40774 31.73138 29.56956
#
# Velocity S-wave (km/s) = 3.78558 4.07324 3.93204
# Velocity P-wave (km/s) = 6.55728 7.85052 7.23286
#
# Compressibility (1/GPa) = 0.02188595
#
# Stress axis : x y z
#
# Youngs Moduli (GPa) = 91.61614 32.87566 100.20287
#
# Poissons Ratio (x) = 0.17427 0.45205
# Poissons Ratio (y) = 0.48564 0.49110
# Poissons Ratio (z) = 0.41332 0.16113
#
# Static dielectric constant tensor:
#      x y z
#    x 3.524080 0.000000 -0.373960 
#    y 0.000000 3.425460 0.000000 
#    z -0.373960 0.000000 6.371630 
# 
# 
# High freq. dielectric constant tensor:
#      x y z
#    x 1.743780 0.000000 -0.001290 
#    y 0.000000 1.730800 0.000000 
#    z -0.001290 0.000000 1.756960 
# 
# From -- ./inp_files/375575.got.cif
#   From: 2010.06.25/outbox.cif.g09.slc.cpg/sg12_188_cif.got.tgz:375575.got - 2010.06.28 00:19:55.
