data_PCOD8096282
_publ_section_title
;
Structure prediction by ZEFSAII (Michael W. Deem and Ramdas Pophale) SiO2 
 PCOD8096282
Probable space group: C 2/M
;
_chemical_formula_sum "Si O2"
_cell_formula_units_Z 48
_cell_length_a 23.541640
_cell_length_b 9.036319
_cell_length_c 17.176066
_cell_angle_alpha 90.000000
_cell_angle_beta 46.142527
_cell_angle_gamma 90.000000
_cell_volume 2634.673080
_symmetry_space_group_name_H-M "C 2/M"
_symmetry_group_IT_number 12
_symmetry_cell_setting 'monoclinic'
loop_
_space_group_symop_operation_xyz
x,y,z
-x,y,-z
-x,-y,-z
x,-y,z
1/2+x,1/2+y,z
1/2-x,1/2+y,-z
1/2-x,1/2-y,-z
1/2+x,1/2-y,z
loop_
_atom_site_type_symbol
_atom_site_label
_atom_site_fract_x
_atom_site_fract_y
_atom_site_fract_z
Si Si1 0.305328 0.327629 0.885732
Si Si2 0.573405 0.670114 0.985792
Si Si3 0.250539 0.672343 0.378672
Si Si4 0.768406 0.325584 0.205351
Si Si5 0.629825 0.172186 0.628593
Si Si6 0.029919 0.172254 0.201579
O O1 0.290392 0.500000 0.911594
O O2 0.283223 0.276641 0.819902
O O3 0.396230 0.287234 0.814024
O O4 0.250000 0.250000 0.000000
O O5 0.602062 0.500000 0.956734
O O6 0.642215 0.774541 0.890209
O O7 0.500000 0.696369 0.000000
O O8 0.550003 0.718201 0.094599
O O9 0.267018 0.500000 0.350939
O O10 0.229708 0.746820 0.316465
O O11 0.330145 0.742754 0.337639
O O12 0.177158 0.703478 0.504543
O O13 0.766573 0.500000 0.220244
O O14 0.542261 0.231529 0.698549
O O15 0.628514 0.000000 0.650739
O O16 0.007488 0.000000 0.228123
#
# Coordination Sequence:
#
# PCOD8096282 Si02
#       6
#     8   8   8   8   8   8
#     4  10  21  37  56  80 110 150 191 228 275 327
#     4  10  20  33  52  79 110 145 182 222 277 338
#     4  10  21  38  59  82 112 149 183 222 281 340
#     4  11  22  35  55  83 111 142 188 235 273 320
#     4  10  21  37  59  86 112 142 184 231 277 328
#     4  10  20  35  55  80 113 150 186 224 277 337
#
# _framework density 18.218578999999998
#
# number of rings (size 3 to 8) (size 9 to 14) (size 15 to 20)
#    0.000    1.833    1.667    2.500    0.000    5.667 
#    0.000    0.833    0.000    5.000    0.000    0.000 
#    0.000    0.000    0.000    0.000    0.000    0.000 
#
# Total GULP energy -297731.676727 kJ/mol
# GULP energy per Si atom -12405.486530 kJ/mol
# Density = 1.817711 g / cm^3
# Si number density = 18.218579 Si / 1000 Ang^3
#
#
#
# Elastic Constant Matrix: (Units=GPa)
#
#
# Indices 1 2 3 4 5 6 
#
# 1 129.9921 50.8625 60.8135 -0.0006 20.9354 0.0018
# 2 50.8625 81.3430 50.9006 0.0041 11.8744 -0.0021
# 3 60.8135 50.9006 93.1188 -0.0005 10.6360 0.0004
# 4 -0.0006 0.0041 -0.0005 36.1236 0.0005 0.4792
# 5 20.9354 11.8744 10.6360 0.0005 24.3326 -0.0009
# 6 0.0018 -0.0021 0.0004 0.4792 -0.0009 21.6582
#
#
#
# Elastic Compliance Matrix: (Units=1/GPa)
#
#
# Indices 1 2 3 4 5 6 
#
# 1 0.012810 -0.003442 -0.005702 0.000001 -0.006850 -0.000002
# 2 -0.003442 0.020181 -0.008417 -0.000002 -0.003208 0.000002
# 3 -0.005702 -0.008417 0.018982 0.000001 0.000717 -0.000001
# 4 0.000001 -0.000002 0.000001 0.027691 0.000000 -0.000613
# 5 -0.006850 -0.003208 0.000717 0.000000 0.048243 0.000002
# 6 -0.000002 0.000002 -0.000001 -0.000613 0.000002 0.046186
#
#
# Mechanical properties :
#
#
# Convention : Reuss Voigt Hill
#
# Bulk Modulus (GPa) = 59.34443 69.95632 64.65037
# Shear Modulus (GPa) = 23.27394 25.88137 24.57766
#
# Velocity S-wave (km/s) = 3.57807 3.77318 3.67692
# Velocity P-wave (km/s) = 7.05084 7.58051 7.32047
#
# Compressibility (1/GPa) = 0.01685078
#
# Stress axis : x y z
#
# Youngs Moduli (GPa) = 78.06191 49.55108 52.68103
#
# Poissons Ratio (x) = 0.17055 0.30040
# Poissons Ratio (y) = 0.26869 0.44343
# Poissons Ratio (z) = 0.44513 0.41708
#
# Static dielectric constant tensor:
#      x y z
#    x 3.521710 0.000000 0.084220 
#    y 0.000000 3.392830 0.000000 
#    z 0.084220 0.000000 3.297000 
# 
# 
# High freq. dielectric constant tensor:
#      x y z
#    x 1.710590 0.000000 0.004430 
#    y 0.000000 1.711030 0.000000 
#    z 0.004430 0.000000 1.703790 
# 
# From -- ./inp_files/280772.got.cif
#   From: 2010.06.25/outbox.cif.g09.slc.cpg/sg12_141_cif.got.tgz:280772.got - 2010.06.28 00:19:55.
