data_PCOD8096160
_publ_section_title
;
Structure prediction by ZEFSAII (Michael W. Deem and Ramdas Pophale) SiO2 
 PCOD8096160
Probable space group: C 2/M
;
_chemical_formula_sum "Si O2"
_cell_formula_units_Z 64
_cell_length_a 15.435561
_cell_length_b 15.552761
_cell_length_c 16.897136
_cell_angle_alpha 90.000000
_cell_angle_beta 77.508442
_cell_angle_gamma 90.000000
_cell_volume 3960.396887
_symmetry_space_group_name_H-M "C 2/M"
_symmetry_group_IT_number 12
_symmetry_cell_setting 'monoclinic'
loop_
_space_group_symop_operation_xyz
x,y,z
-x,y,-z
-x,-y,-z
x,-y,z
1/2+x,1/2+y,z
1/2-x,1/2+y,-z
1/2-x,1/2-y,-z
1/2+x,1/2-y,z
loop_
_atom_site_type_symbol
_atom_site_label
_atom_site_fract_x
_atom_site_fract_y
_atom_site_fract_z
Si Si1 0.681320 0.597159 0.497024
Si Si2 0.933219 0.400252 0.827498
Si Si3 0.133831 0.596439 0.467537
Si Si4 0.413582 0.248102 0.411147
Si Si5 0.901850 0.307467 0.675066
Si Si6 0.404117 0.101876 0.002974
Si Si7 0.740560 0.187570 0.665238
Si Si8 0.860951 0.599460 0.177391
O O1 0.642623 0.500000 0.505397
O O2 0.759974 0.607061 0.545669
O O3 0.604169 0.665275 0.534363
O O4 0.721904 0.616122 0.402461
O O5 0.917323 0.500000 0.810772
O O6 0.895840 0.342633 0.764751
O O7 0.877177 0.373104 0.918202
O O8 0.037525 0.382283 0.818483
O O9 0.105275 0.500000 0.498632
O O10 0.085459 0.664986 0.532791
O O11 0.101962 0.612171 0.384289
O O12 0.510382 0.251439 0.352634
O O13 0.338914 0.240457 0.359140
O O14 0.817511 0.250767 0.674053
O O15 0.413564 0.000000 0.005511
O O16 0.500000 0.143441 0.000000
O O17 0.342251 0.130800 0.089469
O O18 0.706725 0.146679 0.752503
O O19 0.839429 0.500000 0.190235
#
# Coordination Sequence:
#
# PCOD8096160 Si02
#       8
#     8   8   8   8   8   8   8   8
#     4  10  20  37  54  67  92 134 176 210 242 284
#     4   9  17  29  48  77 100 123 157 195 244 301
#     4  10  20  33  52  73  96 126 159 203 255 299
#     4  11  21  37  49  68 101 131 166 206 248 289
#     4  12  21  31  50  71 102 128 162 202 246 288
#     4   7  12  25  46  70  99 126 152 186 235 300
#     4  11  20  34  48  72 101 127 161 207 245 289
#     4   9  16  30  51  73  97 128 158 194 245 293
#
# _framework density 16.159997000000001
#
# number of rings (size 3 to 8) (size 9 to 14) (size 15 to 20)
#    0.000    2.125    3.750    3.375    0.000    2.000 
#    0.000    2.500    0.000    0.000    0.000    0.000 
#    0.000    0.000    0.000    5.625    0.000    0.000 
#
# Total GULP energy -396515.917635 kJ/mol
# GULP energy per Si atom -12391.122426 kJ/mol
# Density = 1.612322 g / cm^3
# Si number density = 16.159997 Si / 1000 Ang^3
#
#
#
# Elastic Constant Matrix: (Units=GPa)
#
#
# Indices 1 2 3 4 5 6 
#
# 1 63.2678 35.9003 48.1450 0.0000 2.9029 0.0000
# 2 35.9003 78.1706 46.7361 0.0000 -1.1235 0.0000
# 3 48.1450 46.7361 135.0825 0.0000 -2.9404 0.0000
# 4 0.0000 0.0000 0.0000 25.0755 0.0000 -1.6169
# 5 2.9029 -1.1235 -2.9404 0.0000 17.0275 0.0000
# 6 0.0000 0.0000 0.0000 -1.6169 0.0000 4.8592
#
#
#
# Elastic Compliance Matrix: (Units=1/GPa)
#
#
# Indices 1 2 3 4 5 6 
#
# 1 0.025510 -0.007928 -0.006480 0.000000 -0.005991 0.000000
# 2 -0.007928 0.018593 -0.003564 0.000000 0.001963 0.000000
# 3 -0.006480 -0.003564 0.011006 0.000000 0.002770 0.000000
# 4 0.000000 0.000000 0.000000 0.040754 0.000000 0.013561
# 5 -0.005991 0.001963 0.002770 0.000000 0.060358 0.000000
# 6 0.000000 0.000000 0.000000 0.013561 0.000000 0.210306
#
#
# Mechanical properties :
#
#
# Convention : Reuss Voigt Hill
#
# Bulk Modulus (GPa) = 52.17879 59.78706 55.98292
# Shear Modulus (GPa) = 12.22917 19.10842 15.66879
#
# Velocity S-wave (km/s) = 2.75390 3.44241 3.11722
# Velocity P-wave (km/s) = 6.51697 7.27169 6.90465
#
# Compressibility (1/GPa) = 0.01916488
#
# Stress axis : x y z
#
# Youngs Moduli (GPa) = 39.20043 53.78454 90.86092
#
# Poissons Ratio (x) = 0.42639 0.58874
# Poissons Ratio (y) = 0.31077 0.32387
# Poissons Ratio (z) = 0.25400 0.19171
#
# Static dielectric constant tensor:
#      x y z
#    x 2.864450 0.000000 0.037400 
#    y 0.000000 2.913360 0.000000 
#    z 0.037400 0.000000 3.392670 
# 
# 
# High freq. dielectric constant tensor:
#      x y z
#    x 1.598150 0.000000 0.003770 
#    y 0.000000 1.598390 0.000000 
#    z 0.003770 0.000000 1.628410 
# 
# From -- ./inp_files/269881.got.cif
#   From: 2010.06.25/outbox.cif.g09.slc.cpg/sg12_135_cif.got.tgz:269881.got - 2010.06.28 00:19:55.
