data_PCOD8096597
_publ_section_title
;
Structure prediction by ZEFSAII (Michael W. Deem and Ramdas Pophale) SiO2 
 PCOD8096597
Probable space group: C 2/M
;
_chemical_formula_sum "Si O2"
_cell_formula_units_Z 64
_cell_length_a 20.441811
_cell_length_b 8.771578
_cell_length_c 21.711520
_cell_angle_alpha 90.000000
_cell_angle_beta 61.545056
_cell_angle_gamma 90.000000
_cell_volume 3422.717757
_symmetry_space_group_name_H-M "C 2/M"
_symmetry_group_IT_number 12
_symmetry_cell_setting 'monoclinic'
loop_
_space_group_symop_operation_xyz
x,y,z
-x,y,-z
-x,-y,-z
x,-y,z
1/2+x,1/2+y,z
1/2-x,1/2+y,-z
1/2-x,1/2-y,-z
1/2+x,1/2-y,z
loop_
_atom_site_type_symbol
_atom_site_label
_atom_site_fract_x
_atom_site_fract_y
_atom_site_fract_z
Si Si1 0.912535 0.176751 0.535906
Si Si2 0.802694 0.678704 0.675702
Si Si3 0.580213 0.822713 0.819143
Si Si4 0.330901 0.179404 0.458934
Si Si5 0.349073 0.322969 0.325111
Si Si6 0.771211 0.678894 0.177094
Si Si7 0.791285 0.179509 0.039070
Si Si8 0.462759 0.677599 0.952933
O O1 0.875848 0.245599 0.613958
O O2 0.883596 0.262827 0.489099
O O3 0.000000 0.203201 0.500000
O O4 0.891271 0.000000 0.540613
O O5 0.815289 0.500000 0.678222
O O6 0.733893 0.714317 0.661253
O O7 0.788413 0.750698 0.749026
O O8 0.591035 0.726488 0.752394
O O9 0.645378 0.780873 0.838182
O O10 0.500990 0.775638 0.882253
O O11 0.581430 0.000000 0.801949
O O12 0.250000 0.250000 0.500000
O O13 0.366760 0.226543 0.377967
O O14 0.323421 0.000000 0.467883
O O15 0.358747 0.500000 0.335811
O O16 0.757517 0.500000 0.179325
O O17 0.757626 0.751258 0.116529
O O18 0.779361 0.000000 0.046065
O O19 0.750000 0.250000 0.000000
O O20 0.877217 0.224128 0.993987
O O21 0.474816 0.500000 0.933327
O O22 0.500000 0.725134 0.000000
#
# Coordination Sequence:
#
# PCOD8096597 Si02
#       8
#     8   8   8   8   8   8   8   8
#     4  11  24  41  61  87 121 159 198 243 295 351
#     4  10  20  35  59  87 116 153 195 240 289 346
#     4  10  20  33  55  87 119 150 189 241 292 342
#     4  12  23  37  60  88 119 153 194 243 292 346
#     4  10  20  35  57  86 119 154 193 240 293 348
#     4  10  20  35  57  85 117 151 191 238 289 346
#     4  11  23  39  59  84 117 154 194 239 289 346
#     4  10  20  36  58  83 113 149 189 234 285 341
#
# _framework density 18.698589999999999
#
# number of rings (size 3 to 8) (size 9 to 14) (size 15 to 20)
#    0.000    1.500    2.500    3.375    0.000    4.250 
#    0.000    1.250    0.000    7.500    0.000    0.000 
#    0.000    0.000    0.000    0.000    0.000    0.000 
#
# Total GULP energy -396990.511411 kJ/mol
# GULP energy per Si atom -12405.953482 kJ/mol
# Density = 1.865603 g / cm^3
# Si number density = 18.698590 Si / 1000 Ang^3
#
#
#
# Elastic Constant Matrix: (Units=GPa)
#
#
# Indices 1 2 3 4 5 6 
#
# 1 87.5941 57.5099 63.8792 0.0000 8.7576 -0.0007
# 2 57.5099 120.5040 73.6669 0.0002 4.0182 -0.0021
# 3 63.8792 73.6669 159.4951 0.0000 5.8355 0.0000
# 4 0.0000 0.0002 0.0000 40.8971 0.0000 1.5872
# 5 8.7576 4.0182 5.8355 0.0000 30.0365 0.0000
# 6 -0.0007 -0.0021 0.0000 1.5872 0.0000 27.9308
#
#
#
# Elastic Compliance Matrix: (Units=1/GPa)
#
#
# Indices 1 2 3 4 5 6 
#
# 1 0.019329 -0.006200 -0.004736 0.000000 -0.003886 0.000000
# 2 -0.006200 0.013560 -0.003807 0.000000 0.000733 0.000001
# 3 -0.004736 -0.003807 0.009926 0.000000 -0.000038 0.000000
# 4 0.000000 0.000000 0.000000 0.024506 0.000000 -0.001393
# 5 -0.003886 0.000733 -0.000038 0.000000 0.034335 0.000000
# 6 0.000000 0.000001 0.000000 -0.001393 0.000000 0.035882
#
#
# Mechanical properties :
#
#
# Convention : Reuss Voigt Hill
#
# Bulk Modulus (GPa) = 75.01659 84.18947 79.60303
# Shear Modulus (GPa) = 29.16024 31.27536 30.21780
#
# Velocity S-wave (km/s) = 3.95332 4.09419 4.02437
# Velocity P-wave (km/s) = 7.81308 8.21414 8.01612
#
# Compressibility (1/GPa) = 0.01333039
#
# Stress axis : x y z
#
# Youngs Moduli (GPa) = 51.73571 73.74558 100.74486
#
# Poissons Ratio (x) = 0.45723 0.47709
# Poissons Ratio (y) = 0.32077 0.38351
# Poissons Ratio (z) = 0.24500 0.28073
#
# Static dielectric constant tensor:
#      x y z
#    x 3.305460 0.000000 0.022780 
#    y 0.000000 3.535370 0.000000 
#    z 0.022780 0.000000 3.702920 
# 
# 
# High freq. dielectric constant tensor:
#      x y z
#    x 1.696100 0.000000 0.001840 
#    y 0.000000 1.741610 0.000000 
#    z 0.001840 0.000000 1.742900 
# 
# From -- ./inp_files/319882.got.cif
#   From: 2010.06.25/outbox.cif.g09.slc.cpg/sg12_160_cif.got.tgz:319882.got - 2010.06.28 00:19:55.
