data_PCOD8096081
_publ_section_title
;
Structure prediction by ZEFSAII (Michael W. Deem and Ramdas Pophale) SiO2 
 PCOD8096081
Probable space group: C 2/M
;
_chemical_formula_sum "Si O2"
_cell_formula_units_Z 48
_cell_length_a 18.786774
_cell_length_b 9.194363
_cell_length_c 17.850094
_cell_angle_alpha 90.000000
_cell_angle_beta 59.038630
_cell_angle_gamma 90.000000
_cell_volume 2643.965376
_symmetry_space_group_name_H-M "C 2/M"
_symmetry_group_IT_number 12
_symmetry_cell_setting 'monoclinic'
loop_
_space_group_symop_operation_xyz
x,y,z
-x,y,-z
-x,-y,-z
x,-y,z
1/2+x,1/2+y,z
1/2-x,1/2+y,-z
1/2-x,1/2-y,-z
1/2+x,1/2-y,z
loop_
_atom_site_type_symbol
_atom_site_label
_atom_site_fract_x
_atom_site_fract_y
_atom_site_fract_z
Si Si1 0.670278 0.830319 0.574752
Si Si2 0.831035 0.672543 0.734383
Si Si3 0.256541 0.663807 0.071809
Si Si4 0.006772 0.327437 0.580250
Si Si5 0.584054 0.667040 0.917348
Si Si6 0.817917 0.670109 0.258075
O O1 0.750000 0.750000 0.500000
O O2 0.588701 0.766990 0.577036
O O3 0.658270 0.801194 0.669028
O O4 0.681740 0.000000 0.551552
O O5 0.817280 0.500000 0.730628
O O6 0.809281 0.720285 0.830815
O O7 0.769953 0.752618 0.709729
O O8 0.924915 0.722696 0.669161
O O9 0.235291 0.500000 0.062303
O O10 0.347898 0.681006 0.055145
O O11 0.250000 0.750000 0.000000
O O12 0.011213 0.500000 0.575608
O O13 0.000000 0.263886 0.500000
O O14 0.574150 0.500000 0.896207
O O15 0.608596 0.762805 0.832195
O O16 0.500000 0.727353 0.000000
O O17 0.809770 0.500000 0.244362
#
# Coordination Sequence:
#
# PCOD8096081 Si02
#       6
#     8   8   8   8   8   8
#     4  10  21  35  52  77 105 133 169 210 253 303
#     4   9  18  34  54  73  97 133 172 206 245 299
#     4   9  18  31  49  73  99 129 164 203 246 292
#     4   9  17  31  53  76  96 126 168 206 241 291
#     4   9  19  36  55  74  99 135 177 211 244 299
#     4  10  20  33  51  77 106 132 163 210 262 303
#
# _framework density 18.15455
#
# number of rings (size 3 to 8) (size 9 to 14) (size 15 to 20)
#    0.000    2.667    0.000    2.500    0.000    7.000 
#    0.000    2.500    0.000    3.000    0.000    0.000 
#    0.000    0.000    0.000    0.000    0.000    0.000 
#
# Total GULP energy -297589.433118 kJ/mol
# GULP energy per Si atom -12399.559713 kJ/mol
# Density = 1.811323 g / cm^3
# Si number density = 18.154550 Si / 1000 Ang^3
#
#
#
# Elastic Constant Matrix: (Units=GPa)
#
#
# Indices 1 2 3 4 5 6 
#
# 1 134.3684 41.5515 95.5242 0.0000 -8.0791 -0.0001
# 2 41.5515 52.4113 44.6308 0.0000 3.2480 -0.0004
# 3 95.5242 44.6308 143.9344 0.0000 -11.3752 0.0000
# 4 0.0000 0.0000 0.0000 30.1303 0.0000 1.8487
# 5 -8.0791 3.2480 -11.3752 0.0000 41.5588 0.0000
# 6 -0.0001 -0.0004 0.0000 1.8487 0.0000 24.0981
#
#
#
# Elastic Compliance Matrix: (Units=1/GPa)
#
#
# Indices 1 2 3 4 5 6 
#
# 1 0.014902 -0.004784 -0.008328 0.000000 0.000991 0.000000
# 2 -0.004784 0.028243 -0.005960 0.000000 -0.004768 0.000000
# 3 -0.008328 -0.005960 0.014546 0.000000 0.002828 0.000000
# 4 0.000000 0.000000 0.000000 0.033346 0.000000 -0.002558
# 5 0.000991 -0.004768 0.002828 0.000000 0.025402 0.000000
# 6 0.000000 0.000000 0.000000 -0.002558 0.000000 0.041693
#
#
# Mechanical properties :
#
#
# Convention : Reuss Voigt Hill
#
# Bulk Modulus (GPa) = 51.15634 77.12524 64.14079
# Shear Modulus (GPa) = 24.65605 29.09126 26.87366
#
# Velocity S-wave (km/s) = 3.68927 4.00737 3.85160
# Velocity P-wave (km/s) = 6.81080 7.99918 7.42879
#
# Compressibility (1/GPa) = 0.01954792
#
# Stress axis : x y z
#
# Youngs Moduli (GPa) = 67.10680 35.40746 68.74715
#
# Poissons Ratio (x) = 0.16938 0.57253
# Poissons Ratio (y) = 0.32102 0.40970
# Poissons Ratio (z) = 0.55887 0.21101
#
# Static dielectric constant tensor:
#      x y z
#    x 2.822090 0.000000 0.053690 
#    y 0.000000 3.196660 0.000000 
#    z 0.053690 0.000000 3.486360 
# 
# 
# High freq. dielectric constant tensor:
#      x y z
#    x 1.703230 0.000000 -0.003280 
#    y 0.000000 1.680810 0.000000 
#    z -0.003280 0.000000 1.717160 
# 
# From -- ./inp_files/274022.got.cif
#   From: 2010.06.25/outbox.cif.g09.slc.cpg/sg12_138_cif.got.tgz:274022.got - 2010.06.28 00:19:55.
