data_PCOD8096317
_publ_section_title
;
Structure prediction by ZEFSAII (Michael W. Deem and Ramdas Pophale) SiO2 
 PCOD8096317
Probable space group: C 2/M
;
_chemical_formula_sum "Si O2"
_cell_formula_units_Z 56
_cell_length_a 23.749794
_cell_length_b 9.394374
_cell_length_c 12.825983
_cell_angle_alpha 90.000000
_cell_angle_beta 67.961882
_cell_angle_gamma 90.000000
_cell_volume 2652.573133
_symmetry_space_group_name_H-M "C 2/M"
_symmetry_group_IT_number 12
_symmetry_cell_setting 'monoclinic'
loop_
_space_group_symop_operation_xyz
x,y,z
-x,y,-z
-x,-y,-z
x,-y,z
1/2+x,1/2+y,z
1/2-x,1/2+y,-z
1/2-x,1/2-y,-z
1/2+x,1/2-y,z
loop_
_atom_site_type_symbol
_atom_site_label
_atom_site_fract_x
_atom_site_fract_y
_atom_site_fract_z
Si Si1 0.088814 0.155934 0.147473
Si Si2 0.988013 0.662672 0.670388
Si Si3 0.775162 0.829465 0.584094
Si Si4 0.666392 0.155654 0.806707
Si Si5 0.897856 0.336192 0.543952
Si Si6 0.191499 0.342425 0.032084
Si Si7 0.564316 0.656221 0.930726
O O1 0.024875 0.228332 0.225488
O O2 0.141982 0.266335 0.141233
O O3 0.096365 0.000000 0.195547
O O4 0.096206 0.135795 0.019406
O O5 0.980834 0.500000 0.712589
O O6 0.936847 0.698589 0.619496
O O7 0.056290 0.689441 0.584296
O O8 0.750000 0.750000 0.500000
O O9 0.728021 0.790328 0.709406
O O10 0.840742 0.768641 0.571771
O O11 0.780079 0.000000 0.562782
O O12 0.608353 0.256327 0.822578
O O13 0.650410 0.000000 0.772215
O O14 0.673113 0.146034 0.925174
O O15 0.875365 0.500000 0.559734
O O16 0.202455 0.500000 0.070528
O O17 0.250000 0.250000 0.000000
O O18 0.552303 0.500000 0.888036
O O19 0.500000 0.733820 0.000000
#
# Coordination Sequence:
#
# PCOD8096317 Si02
#       7
#     8   8   8   8   8   8   8
#     4  10  20  33  52  81 113 144 184 228 276 338
#     4   9  19  37  59  84 115 150 190 238 293 352
#     4  11  24  41  60  85 116 153 198 245 291 345
#     4   9  21  39  56  79 112 145 184 231 277 330
#     4   9  20  39  60  83 113 150 193 241 294 349
#     4  10  20  35  54  80 112 145 181 224 279 338
#     4   9  19  36  56  80 111 146 185 230 278 331
#
# _framework density 21.111575999999999
#
# number of rings (size 3 to 8) (size 9 to 14) (size 15 to 20)
#    0.000    2.429    0.000    2.143    2.000    4.857 
#    0.000    4.286    0.000    0.000    0.000    0.000 
#    0.000    0.000    0.000    0.000    0.000    0.000 
#
# Total GULP energy -346977.591247 kJ/mol
# GULP energy per Si atom -12392.056830 kJ/mol
# Density = 2.106353 g / cm^3
# Si number density = 21.111576 Si / 1000 Ang^3
#
#
#
# Elastic Constant Matrix: (Units=GPa)
#
#
# Indices 1 2 3 4 5 6 
#
# 1 85.3104 52.5281 18.8090 0.0000 -40.4362 0.0000
# 2 52.5281 154.3662 56.3075 0.0000 -38.7163 0.0000
# 3 18.8090 56.3075 84.3415 0.0000 -37.3568 0.0000
# 4 0.0000 0.0000 0.0000 25.4756 0.0000 -12.3594
# 5 -40.4362 -38.7163 -37.3568 0.0000 39.6725 0.0000
# 6 0.0000 0.0000 0.0000 -12.3594 0.0000 31.0542
#
#
#
# Elastic Compliance Matrix: (Units=1/GPa)
#
#
# Indices 1 2 3 4 5 6 
#
# 1 0.030729 -0.005900 0.014424 0.000000 0.039144 0.000000
# 2 -0.005900 0.010344 -0.006488 0.000000 -0.002029 0.000000
# 3 0.014424 -0.006488 0.028612 0.000000 0.035311 0.000000
# 4 0.000000 0.000000 0.000000 0.048646 0.000000 0.019361
# 5 0.039144 -0.002029 0.035311 0.000000 0.096375 0.000000
# 6 0.000000 0.000000 0.000000 0.019361 0.000000 0.039907
#
#
# Mechanical properties :
#
#
# Convention : Reuss Voigt Hill
#
# Bulk Modulus (GPa) = 13.55836 64.36748 38.96292
# Shear Modulus (GPa) = 18.17347 32.33201 25.25274
#
# Velocity S-wave (km/s) = 2.93717 3.91766 3.46230
# Velocity P-wave (km/s) = 4.23543 7.14279 5.87190
#
# Compressibility (1/GPa) = 0.07375523
#
# Stress axis : x y z
#
# Youngs Moduli (GPa) = 32.54298 96.67741 34.95054
#
# Poissons Ratio (x) = 0.57040 -0.50413
# Poissons Ratio (y) = 0.19201 0.22678
# Poissons Ratio (z) = -0.46940 0.62729
#
# Static dielectric constant tensor:
#      x y z
#    x 3.599060 0.000000 -0.386410 
#    y 0.000000 4.218800 0.000000 
#    z -0.386410 0.000000 3.771680 
# 
# 
# High freq. dielectric constant tensor:
#      x y z
#    x 1.813790 0.000000 -0.022650 
#    y 0.000000 1.834060 0.000000 
#    z -0.022650 0.000000 1.821970 
# 
# From -- ./inp_files/243687.got.cif
#   From: 2010.06.25/outbox.cif.g09.slc.cpg/sg12_122_cif.got.tgz:243687.got - 2010.06.28 00:19:55.
