data_PCOD8096046
_publ_section_title
;
Structure prediction by ZEFSAII (Michael W. Deem and Ramdas Pophale) SiO2 
 PCOD8096046
Probable space group: C 2/M
;
_chemical_formula_sum "Si O2"
_cell_formula_units_Z 64
_cell_length_a 19.358563
_cell_length_b 9.332022
_cell_length_c 21.912837
_cell_angle_alpha 90.000000
_cell_angle_beta 122.409814
_cell_angle_gamma 90.000000
_cell_volume 3342.038236
_symmetry_space_group_name_H-M "C 2/M"
_symmetry_group_IT_number 12
_symmetry_cell_setting 'monoclinic'
loop_
_space_group_symop_operation_xyz
x,y,z
-x,y,-z
-x,-y,-z
x,-y,z
1/2+x,1/2+y,z
1/2-x,1/2+y,-z
1/2-x,1/2-y,-z
1/2+x,1/2-y,z
loop_
_atom_site_type_symbol
_atom_site_label
_atom_site_fract_x
_atom_site_fract_y
_atom_site_fract_z
Si Si1 0.399603 0.339421 0.289930
Si Si2 0.724760 0.832263 0.927842
Si Si3 0.150570 0.659778 0.477111
Si Si4 0.472665 0.160937 0.422220
Si Si5 0.045258 0.333558 0.796278
Si Si6 0.217796 0.338047 0.157606
Si Si7 0.262599 0.169254 0.604455
Si Si8 0.373162 0.169780 0.767418
O O1 0.434540 0.500000 0.309877
O O2 0.406974 0.263425 0.359063
O O3 0.451802 0.254770 0.264519
O O4 0.304444 0.340232 0.231395
O O5 0.628027 0.805460 0.873453
O O6 0.779088 0.768405 0.898345
O O7 0.745040 0.000000 0.943077
O O8 0.750000 0.750000 0.000000
O O9 0.182806 0.500000 0.505388
O O10 0.053977 0.660761 0.419838
O O11 0.175776 0.753365 0.549310
O O12 0.184812 0.717456 0.429393
O O13 0.500000 0.223706 0.500000
O O14 0.436112 0.000000 0.411974
O O15 0.037213 0.500000 0.774712
O O16 0.966507 0.281146 0.797940
O O17 0.195319 0.500000 0.125133
O O18 0.152296 0.279069 0.176455
O O19 0.309415 0.229577 0.686505
O O20 0.248877 0.000000 0.603122
O O21 0.367549 0.000000 0.762551
#
# Coordination Sequence:
#
# PCOD8096046 Si02
#       8
#     8   8   8   8   8   8   8   8
#     4  10  20  33  51  76 105 136 172 219 272 320
#     4  10  20  36  60  86 111 143 177 209 250 302
#     4   9  18  32  45  64  92 125 170 217 262 311
#     4  10  21  34  48  66  93 133 178 221 265 312
#     4   9  18  35  59  82 104 138 180 213 248 305
#     4   9  19  35  55  81 111 140 173 214 264 317
#     4   9  17  29  49  69  91 126 164 209 263 313
#     4   9  17  32  55  79 103 135 176 219 260 306
#
# _framework density 19.149991
#
# number of rings (size 3 to 8) (size 9 to 14) (size 15 to 20)
#    0.000    2.625    0.000    1.500    1.750    3.750 
#    0.000    5.000    0.000    3.750    0.000    0.000 
#    0.000    0.000    0.000    0.000    0.000    0.000 
#
# Total GULP energy -396656.640492 kJ/mol
# GULP energy per Si atom -12395.520015 kJ/mol
# Density = 1.910640 g / cm^3
# Si number density = 19.149991 Si / 1000 Ang^3
#
#
#
# Elastic Constant Matrix: (Units=GPa)
#
#
# Indices 1 2 3 4 5 6 
#
# 1 75.2436 24.1824 23.8992 0.0000 -17.9162 0.0000
# 2 24.1824 83.3030 55.9388 0.0000 -11.4496 0.0000
# 3 23.8992 55.9388 107.7460 0.0000 -20.4594 0.0000
# 4 0.0000 0.0000 0.0000 31.9820 0.0000 -1.8333
# 5 -17.9162 -11.4496 -20.4594 0.0000 23.3504 0.0000
# 6 0.0000 0.0000 0.0000 -1.8333 0.0000 17.2835
#
#
#
# Elastic Compliance Matrix: (Units=1/GPa)
#
#
# Indices 1 2 3 4 5 6 
#
# 1 0.017114 -0.003537 0.000245 0.000000 0.011611 0.000000
# 2 -0.003537 0.019172 -0.009476 0.000000 -0.001615 0.000000
# 3 0.000245 -0.009476 0.015954 0.000000 0.009520 0.000000
# 4 0.000000 0.000000 0.000000 0.031459 0.000000 0.003337
# 5 0.011611 -0.001615 0.009520 0.000000 0.059285 0.000000
# 6 0.000000 0.000000 0.000000 0.003337 0.000000 0.058213
#
#
# Mechanical properties :
#
#
# Convention : Reuss Voigt Hill
#
# Bulk Modulus (GPa) = 37.44621 52.70371 45.07496
# Shear Modulus (GPa) = 21.21940 25.34131 23.28036
#
# Velocity S-wave (km/s) = 3.33237 3.64167 3.49045
# Velocity P-wave (km/s) = 5.86540 6.72783 6.31136
#
# Compressibility (1/GPa) = 0.02670497
#
# Stress axis : x y z
#
# Youngs Moduli (GPa) = 58.43240 52.15882 62.67930
#
# Poissons Ratio (x) = 0.18446 -0.01535
# Poissons Ratio (y) = 0.20665 0.59395
# Poissons Ratio (z) = -0.01431 0.49426
#
# Static dielectric constant tensor:
#      x y z
#    x 3.719160 0.000000 -0.094360 
#    y 0.000000 3.467900 0.000000 
#    z -0.094360 0.000000 3.439720 
# 
# 
# High freq. dielectric constant tensor:
#      x y z
#    x 1.744960 0.000000 -0.008510 
#    y 0.000000 1.726990 0.000000 
#    z -0.008510 0.000000 1.733910 
# 
# From -- ./inp_files/320062.got.cif
#   From: 2010.06.25/outbox.cif.g09.slc.cpg/sg12_161_cif.got.tgz:320062.got - 2010.06.28 00:19:55.
