data_PCOD8096747
_publ_section_title
;
Structure prediction by ZEFSAII (Michael W. Deem and Ramdas Pophale) SiO2 
 PCOD8096747
Probable space group: C 2/M
;
_chemical_formula_sum "Si O2"
_cell_formula_units_Z 64
_cell_length_a 26.833478
_cell_length_b 14.145389
_cell_length_c 18.663944
_cell_angle_alpha 90.000000
_cell_angle_beta 30.322185
_cell_angle_gamma 90.000000
_cell_volume 3576.579451
_symmetry_space_group_name_H-M "C 2/M"
_symmetry_group_IT_number 12
_symmetry_cell_setting 'monoclinic'
loop_
_space_group_symop_operation_xyz
x,y,z
-x,y,-z
-x,-y,-z
x,-y,z
1/2+x,1/2+y,z
1/2-x,1/2+y,-z
1/2-x,1/2-y,-z
1/2+x,1/2-y,z
loop_
_atom_site_type_symbol
_atom_site_label
_atom_site_fract_x
_atom_site_fract_y
_atom_site_fract_z
Si Si1 0.658928 0.750508 0.438334
Si Si2 0.981170 0.106939 0.907067
Si Si3 0.625556 0.107328 0.141117
Si Si4 0.486982 0.900221 0.433840
Si Si5 0.610686 0.609506 0.379109
Si Si6 0.492060 0.721012 0.748549
Si Si7 0.841811 0.890853 0.838428
Si Si8 0.338452 0.390916 0.211116
O O1 0.587056 0.817526 0.485313
O O2 0.668211 0.661025 0.373274
O O3 0.606463 0.722818 0.579164
O O4 0.759115 0.808996 0.326691
O O5 0.984135 0.173243 0.834898
O O6 0.079465 0.122131 0.830456
O O7 0.974793 0.000000 0.886925
O O8 0.885624 0.129205 0.074547
O O9 0.592408 0.117448 0.265032
O O10 0.551874 0.173408 0.186237
O O11 0.617574 0.000000 0.121164
O O12 0.738117 0.142103 0.000465
O O13 0.500000 0.911293 0.500000
O O14 0.444168 0.000000 0.456344
O O15 0.500000 0.647052 0.500000
O O16 0.606646 0.500000 0.406719
O O17 0.669551 0.626277 0.232464
O O18 0.429264 0.668682 0.765056
O O19 0.865350 0.000000 0.825656
O O20 0.297802 0.500000 0.264053
#
# Coordination Sequence:
#
# PCOD8096747 Si02
#       8
#     8   8   8   8   8   8   8   8
#     4  11  21  31  54  79 107 140 178 216 263 323
#     4   9  20  39  61  83 107 133 172 226 280 325
#     4   9  20  34  47  72 109 145 177 213 258 309
#     4   9  18  31  47  71 105 139 172 212 257 312
#     4  10  20  34  50  71 107 149 180 211 254 303
#     4  11  21  32  54  82 107 141 180 221 264 318
#     4  10  20  34  50  72 106 144 182 220 257 300
#     4   9  20  40  61  82 107 135 170 224 284 332
#
# _framework density 17.894193000000001
#
# number of rings (size 3 to 8) (size 9 to 14) (size 15 to 20)
#    0.000    2.250    1.250    2.250    3.500    2.500 
#    0.000    2.500    0.000    0.750    0.000    1.750 
#    0.000    0.000    0.000    0.000    0.000    0.000 
#
# Total GULP energy -396544.629403 kJ/mol
# GULP energy per Si atom -12392.019669 kJ/mol
# Density = 1.785346 g / cm^3
# Si number density = 17.894193 Si / 1000 Ang^3
#
#
#
# Elastic Constant Matrix: (Units=GPa)
#
#
# Indices 1 2 3 4 5 6 
#
# 1 59.0281 37.0667 37.8735 0.0000 16.6775 0.0000
# 2 37.0667 83.9896 46.4236 0.0000 8.3475 0.0000
# 3 37.8735 46.4236 115.0684 0.0000 4.9553 0.0000
# 4 0.0000 0.0000 0.0000 32.2431 0.0000 -0.7091
# 5 16.6775 8.3475 4.9553 0.0000 21.0434 0.0000
# 6 0.0000 0.0000 0.0000 -0.7091 0.0000 39.3644
#
#
#
# Elastic Compliance Matrix: (Units=1/GPa)
#
#
# Indices 1 2 3 4 5 6 
#
# 1 0.032236 -0.008756 -0.006190 0.000000 -0.020617 0.000000
# 2 -0.008756 0.018170 -0.004482 0.000000 0.000787 0.000000
# 3 -0.006190 -0.004482 0.012374 0.000000 0.003770 0.000000
# 4 0.000000 0.000000 0.000000 0.031027 0.000000 0.000559
# 5 -0.020617 0.000787 0.003770 0.000000 0.062660 0.000000
# 6 0.000000 0.000000 0.000000 0.000559 0.000000 0.025414
#
#
# Mechanical properties :
#
#
# Convention : Reuss Voigt Hill
#
# Bulk Modulus (GPa) = 41.80070 55.64595 48.72332
# Shear Modulus (GPa) = 21.86164 27.64500 24.75332
#
# Velocity S-wave (km/s) = 3.49910 3.93480 3.72333
# Velocity P-wave (km/s) = 6.30361 7.19780 6.76550
#
# Compressibility (1/GPa) = 0.02392305
#
# Stress axis : x y z
#
# Youngs Moduli (GPa) = 31.02130 55.03606 80.81604
#
# Poissons Ratio (x) = 0.48191 0.50022
# Poissons Ratio (y) = 0.27163 0.36225
# Poissons Ratio (z) = 0.19201 0.24669
#
# Static dielectric constant tensor:
#      x y z
#    x 2.902590 0.000000 0.459090 
#    y 0.000000 3.822750 0.000000 
#    z 0.459090 0.000000 1.825100 
# 
# 
# High freq. dielectric constant tensor:
#      x y z
#    x 1.654450 0.000000 0.019470 
#    y 0.000000 1.707240 0.000000 
#    z 0.019470 0.000000 1.701070 
# 
# From -- ./inp_files/290106.got.cif
#   From: 2010.06.25/outbox.cif.g09.slc.cpg/sg12_146_cif.got.tgz:290106.got - 2010.06.28 00:19:55.
