data_PCOD8096572
_publ_section_title
;
Structure prediction by ZEFSAII (Michael W. Deem and Ramdas Pophale) SiO2 
 PCOD8096572
Probable space group: C 2/M
;
_chemical_formula_sum "Si O2"
_cell_formula_units_Z 64
_cell_length_a 20.599221
_cell_length_b 8.860405
_cell_length_c 32.464375
_cell_angle_alpha 90.000000
_cell_angle_beta 144.104881
_cell_angle_gamma 90.000000
_cell_volume 3474.031809
_symmetry_space_group_name_H-M "C 2/M"
_symmetry_group_IT_number 12
_symmetry_cell_setting 'monoclinic'
loop_
_space_group_symop_operation_xyz
x,y,z
-x,y,-z
-x,-y,-z
x,-y,z
1/2+x,1/2+y,z
1/2-x,1/2+y,-z
1/2-x,1/2-y,-z
1/2+x,1/2-y,z
loop_
_atom_site_type_symbol
_atom_site_label
_atom_site_fract_x
_atom_site_fract_y
_atom_site_fract_z
Si Si1 0.135264 0.675348 0.211702
Si Si2 0.874723 0.322992 0.699439
Si Si3 0.618212 0.822560 0.795312
Si Si4 0.916183 0.177179 0.074170
Si Si5 0.924832 0.325347 0.584186
Si Si6 0.238125 0.822427 0.930090
Si Si7 0.638072 0.324350 0.717621
Si Si8 0.224290 0.824998 0.425266
O O1 0.103192 0.500000 0.192931
O O2 0.142390 0.728789 0.262543
O O3 0.251007 0.711369 0.250000
O O4 0.042353 0.768942 0.139948
O O5 0.853747 0.500000 0.682969
O O6 0.784627 0.231479 0.626230
O O7 0.996518 0.273897 0.747463
O O8 0.709041 0.744633 0.870836
O O9 0.638422 0.769721 0.759534
O O10 0.634509 0.000000 0.806816
O O11 0.856571 0.225793 0.086023
O O12 0.910624 0.000000 0.064340
O O13 0.855766 0.256222 0.004766
O O14 0.955426 0.500000 0.605720
O O15 0.860558 0.273701 0.591892
O O16 0.849588 0.297944 0.505199
O O17 0.036583 0.229200 0.636629
O O18 0.249335 0.000000 0.932015
O O19 0.625807 0.500000 0.721627
O O20 0.191475 0.000000 0.412541
#
# Coordination Sequence:
#
# PCOD8096572 Si02
#       8
#     8   8   8   8   8   8   8   8
#     4  10  22  40  58  80 113 151 187 226 276 333
#     4  10  20  35  57  83 112 145 185 230 278 327
#     4  11  21  35  58  85 114 145 184 234 278 325
#     4  10  20  34  56  85 114 147 185 228 279 328
#     4  10  20  35  54  80 113 148 183 227 280 329
#     4  10  20  34  56  85 116 147 184 230 276 327
#     4  11  23  38  58  82 112 150 188 227 275 335
#     4  10  20  33  55  84 112 142 184 233 278 327
#
# _framework density 18.422398000000001
#
# number of rings (size 3 to 8) (size 9 to 14) (size 15 to 20)
#    0.000    1.750    2.500    2.250    0.000    4.500 
#    0.000    1.250    0.000    7.500    0.000    0.000 
#    0.000    0.000    0.000    0.000    0.000    0.000 
#
# Total GULP energy -396966.244723 kJ/mol
# GULP energy per Si atom -12405.195148 kJ/mol
# Density = 1.838047 g / cm^3
# Si number density = 18.422398 Si / 1000 Ang^3
#
#
#
# Elastic Constant Matrix: (Units=GPa)
#
#
# Indices 1 2 3 4 5 6 
#
# 1 83.3647 29.1784 50.5127 0.0000 -1.0259 -0.0001
# 2 29.1784 64.6610 51.1542 -0.0001 2.3861 0.0000
# 3 50.5127 51.1542 144.6405 0.0000 -3.5399 0.0000
# 4 0.0000 -0.0001 0.0000 39.2286 0.0000 -1.8631
# 5 -1.0259 2.3861 -3.5399 0.0000 26.4053 0.0000
# 6 -0.0001 0.0000 0.0000 -1.8631 0.0000 25.5426
#
#
#
# Elastic Compliance Matrix: (Units=1/GPa)
#
#
# Indices 1 2 3 4 5 6 
#
# 1 0.015884 -0.003891 -0.004161 0.000000 0.000411 0.000000
# 2 -0.003891 0.022661 -0.006731 0.000000 -0.003101 0.000000
# 3 -0.004161 -0.006731 0.010794 0.000000 0.001894 0.000000
# 4 0.000000 0.000000 0.000000 0.025580 0.000000 0.001866
# 5 0.000411 -0.003101 0.001894 0.000000 0.038421 0.000000
# 6 0.000000 0.000000 0.000000 0.001866 0.000000 0.039286
#
#
# Mechanical properties :
#
#
# Convention : Reuss Voigt Hill
#
# Bulk Modulus (GPa) = 50.57712 61.59520 56.08616
# Shear Modulus (GPa) = 26.48544 29.02337 27.75440
#
# Velocity S-wave (km/s) = 3.79578 3.97349 3.88565
# Velocity P-wave (km/s) = 6.83552 7.38641 7.11630
#
# Compressibility (1/GPa) = 0.01977179
#
# Stress axis : x y z
#
# Youngs Moduli (GPa) = 62.95809 44.12906 92.64585
#
# Poissons Ratio (x) = 0.17170 0.38549
# Poissons Ratio (y) = 0.24497 0.62364
# Poissons Ratio (z) = 0.26196 0.29705
#
# Static dielectric constant tensor:
#      x y z
#    x 3.138710 0.000000 -0.046280 
#    y 0.000000 3.398430 0.000000 
#    z -0.046280 0.000000 3.594000 
# 
# 
# High freq. dielectric constant tensor:
#      x y z
#    x 1.682210 0.000000 -0.007390 
#    y 0.000000 1.725280 0.000000 
#    z -0.007390 0.000000 1.729690 
# 
# From -- ./inp_files/378271.got.cif
#   From: 2010.06.25/outbox.cif.g09.slc.cpg/sg12_190_cif.got.tgz:378271.got - 2010.06.28 00:19:55.
