data_PCOD8096839
_publ_section_title
;
Structure prediction by ZEFSAII (Michael W. Deem and Ramdas Pophale) SiO2 
 PCOD8096839
Probable space group: C 2/M
;
_chemical_formula_sum "Si O2"
_cell_formula_units_Z 56
_cell_length_a 19.194215
_cell_length_b 9.293538
_cell_length_c 22.217821
_cell_angle_alpha 90.000000
_cell_angle_beta 126.036166
_cell_angle_gamma 90.000000
_cell_volume 3204.876070
_symmetry_space_group_name_H-M "C 2/M"
_symmetry_group_IT_number 12
_symmetry_cell_setting 'monoclinic'
loop_
_space_group_symop_operation_xyz
x,y,z
-x,y,-z
-x,-y,-z
x,-y,z
1/2+x,1/2+y,z
1/2-x,1/2+y,-z
1/2-x,1/2-y,-z
1/2+x,1/2-y,z
loop_
_atom_site_type_symbol
_atom_site_label
_atom_site_fract_x
_atom_site_fract_y
_atom_site_fract_z
Si Si1 0.565676 0.663739 0.851223
Si Si2 0.273433 0.834793 0.572012
Si Si3 0.757444 0.667596 0.941623
Si Si4 0.580094 0.330474 0.997668
Si Si5 0.987683 0.668196 0.399124
Si Si6 0.029506 0.664229 0.293820
Si Si7 0.363530 0.831501 0.437830
O O1 0.535894 0.500000 0.833750
O O2 0.659650 0.681896 0.866749
O O3 0.561557 0.713834 0.919023
O O4 0.495374 0.752100 0.778744
O O5 0.250000 0.750000 0.500000
O O6 0.370937 0.818472 0.641040
O O7 0.221454 0.763665 0.600482
O O8 0.247525 0.000000 0.549325
O O9 0.781458 0.500000 0.963263
O O10 0.750000 0.750000 0.000000
O O11 0.831944 0.744118 0.938751
O O12 0.598914 0.500000 0.013432
O O13 0.500000 0.285157 0.000000
O O14 0.006343 0.500000 0.402974
O O15 0.899442 0.698355 0.389288
O O16 0.981153 0.730871 0.328195
O O17 0.068789 0.727929 0.478132
O O18 0.003094 0.500000 0.269039
O O19 0.343737 0.000000 0.437312
#
# Coordination Sequence:
#
# PCOD8096839 Si02
#       7
#     8   8   8   8   8   8   8
#     4   9  19  34  51  75 104 134 169 211 258 302
#     4  11  21  33  50  73 100 131 171 216 259 307
#     4   9  17  31  52  77 104 133 169 208 246 299
#     4   9  18  34  56  81 108 137 172 214 253 297
#     4   8  15  30  51  71  92 124 163 204 249 299
#     4  10  20  34  51  72  99 134 174 210 253 310
#     4   9  16  31  53  71  92 122 162 211 254 297
#
# _framework density 17.473375000000001
#
# number of rings (size 3 to 8) (size 9 to 14) (size 15 to 20)
#    0.000    2.714    1.429    2.571    0.000    4.286 
#    0.000    3.571    0.000    8.571    0.000    0.000 
#    0.000    0.000    0.000    0.000    0.000    0.000 
#
# Total GULP energy -346938.566232 kJ/mol
# GULP energy per Si atom -12390.663080 kJ/mol
# Density = 1.743360 g / cm^3
# Si number density = 17.473375 Si / 1000 Ang^3
#
#
#
# Elastic Constant Matrix: (Units=GPa)
#
#
# Indices 1 2 3 4 5 6 
#
# 1 126.9749 49.2697 31.3905 0.0000 -4.9591 0.0000
# 2 49.2697 77.1528 35.2209 0.0000 5.1710 0.0000
# 3 31.3905 35.2209 66.2082 0.0000 -8.1963 0.0000
# 4 0.0000 0.0000 0.0000 25.8650 0.0000 4.4328
# 5 -4.9591 5.1710 -8.1963 0.0000 16.9741 0.0000
# 6 0.0000 0.0000 0.0000 4.4328 0.0000 31.5814
#
#
#
# Elastic Compliance Matrix: (Units=1/GPa)
#
#
# Indices 1 2 3 4 5 6 
#
# 1 0.010977 -0.006915 -0.000923 0.000000 0.004868 0.000000
# 2 -0.006915 0.023322 -0.010910 0.000000 -0.014393 0.000000
# 3 -0.000923 -0.010910 0.023105 0.000000 0.014211 0.000000
# 4 0.000000 0.000000 0.000000 0.039615 0.000000 -0.005560
# 5 0.004868 -0.014393 0.014211 0.000000 0.071582 0.000000
# 6 0.000000 0.000000 0.000000 -0.005560 0.000000 0.032445
#
#
# Mechanical properties :
#
#
# Convention : Reuss Voigt Hill
#
# Bulk Modulus (GPa) = 50.23233 55.78867 53.01050
# Shear Modulus (GPa) = 20.39329 25.18108 22.78719
#
# Velocity S-wave (km/s) = 3.42000 3.80032 3.61516
# Velocity P-wave (km/s) = 6.66375 7.15917 6.91589
#
# Compressibility (1/GPa) = 0.01990750
#
# Stress axis : x y z
#
# Youngs Moduli (GPa) = 91.09936 42.87749 43.28096
#
# Poissons Ratio (x) = 0.29648 0.03997
# Poissons Ratio (y) = 0.62992 0.47221
# Poissons Ratio (z) = 0.08413 0.46780
#
# Static dielectric constant tensor:
#      x y z
#    x 3.202870 0.000000 0.756780 
#    y 0.000000 3.214140 0.000000 
#    z 0.756780 0.000000 1.907050 
# 
# 
# High freq. dielectric constant tensor:
#      x y z
#    x 1.683870 0.000000 0.004510 
#    y 0.000000 1.663690 0.000000 
#    z 0.004510 0.000000 1.644550 
# 
# From -- ./inp_files/345643.got.cif
#   From: 2010.06.25/outbox.cif.g09.slc.cpg/sg12_173_cif.got.tgz:345643.got - 2010.06.28 00:19:55.
