data_PCOD8096547
_publ_section_title
;
Structure prediction by ZEFSAII (Michael W. Deem and Ramdas Pophale) SiO2 
 PCOD8096547
Probable space group: C 2/M
;
_chemical_formula_sum "Si O2"
_cell_formula_units_Z 64
_cell_length_a 19.069804
_cell_length_b 15.002812
_cell_length_c 15.565552
_cell_angle_alpha 90.000000
_cell_angle_beta 136.748647
_cell_angle_gamma 90.000000
_cell_volume 3051.412338
_symmetry_space_group_name_H-M "C 2/M"
_symmetry_group_IT_number 12
_symmetry_cell_setting 'monoclinic'
loop_
_space_group_symop_operation_xyz
x,y,z
-x,y,-z
-x,-y,-z
x,-y,z
1/2+x,1/2+y,z
1/2-x,1/2+y,-z
1/2-x,1/2-y,-z
1/2+x,1/2-y,z
loop_
_atom_site_type_symbol
_atom_site_label
_atom_site_fract_x
_atom_site_fract_y
_atom_site_fract_z
Si Si1 0.778351 0.243353 0.666274
Si Si2 0.762659 0.170667 0.190428
Si Si3 0.558711 0.099208 0.975375
Si Si4 0.391335 0.599093 0.873245
Si Si5 0.213287 0.852350 0.054317
Si Si6 0.091159 0.739492 0.378243
Si Si7 0.437939 0.898522 0.208813
Si Si8 0.063230 0.106058 0.764621
O O1 0.748060 0.305377 0.719153
O O2 0.835266 0.154586 0.749462
O O3 0.854066 0.286696 0.663204
O O4 0.670891 0.224087 0.525462
O O5 0.731063 0.250354 0.097510
O O6 0.873798 0.131532 0.265799
O O7 0.679616 0.094164 0.100311
O O8 0.537071 0.141240 0.863557
O O9 0.514088 0.000000 0.932501
O O10 0.500000 0.152893 0.000000
O O11 0.410133 0.500000 0.852539
O O12 0.320431 0.591911 0.893339
O O13 0.500000 0.642202 0.000000
O O14 0.317627 0.896004 0.116108
O O15 0.128073 0.860822 0.904439
O O16 0.001893 0.669154 0.324772
O O17 0.044084 0.839874 0.333437
O O18 0.475425 0.000000 0.255240
O O19 0.041030 0.000000 0.748375
#
# Coordination Sequence:
#
# PCOD8096547 Si02
#       8
#     8   8   8   8   8   8   8   8
#     4  10  25  43  63  85 128 164 211 265 302 371
#     4  11  21  38  60  89 122 168 204 261 317 369
#     4  10  20  33  54  88 124 156 200 252 305 367
#     4  10  21  39  65  97 127 158 199 255 323 382
#     4  11  21  37  61  95 129 155 200 261 313 375
#     4  11  24  45  62  89 121 170 219 257 310 372
#     4  11  21  37  62  91 123 159 202 254 312 372
#     4  12  23  39  66  96 131 170 212 261 317 381
#
# _framework density 20.973894000000001
#
# number of rings (size 3 to 8) (size 9 to 14) (size 15 to 20)
#    0.000    1.250    2.500    4.125    0.000    5.500 
#    0.000    4.375    0.000    2.250    0.000    0.000 
#    0.000    0.000    0.000    0.000    0.000    0.000 
#
# Total GULP energy -396594.815081 kJ/mol
# GULP energy per Si atom -12393.587971 kJ/mol
# Density = 2.092616 g / cm^3
# Si number density = 20.973894 Si / 1000 Ang^3
#
#
#
# Elastic Constant Matrix: (Units=GPa)
#
#
# Indices 1 2 3 4 5 6 
#
# 1 79.7807 24.3401 29.4679 0.0000 2.0167 0.0000
# 2 24.3401 93.0568 51.0557 0.0000 0.1264 0.0000
# 3 29.4679 51.0557 137.6709 0.0000 9.6684 0.0000
# 4 0.0000 0.0000 0.0000 13.5671 0.0000 11.1403
# 5 2.0167 0.1264 9.6684 0.0000 28.4826 0.0000
# 6 0.0000 0.0000 0.0000 11.1403 0.0000 14.0118
#
#
#
# Elastic Compliance Matrix: (Units=1/GPa)
#
#
# Indices 1 2 3 4 5 6 
#
# 1 0.014078 -0.002561 -0.002043 0.000000 -0.000292 0.000000
# 2 -0.002561 0.014036 -0.004779 0.000000 0.001741 0.000000
# 3 -0.002043 -0.004779 0.009693 0.000000 -0.003124 0.000000
# 4 0.000000 0.000000 0.000000 0.212319 0.000000 -0.168807
# 5 -0.000292 0.001741 -0.003124 0.000000 0.036183 0.000000
# 6 0.000000 0.000000 0.000000 -0.168807 0.000000 0.205581
#
#
# Mechanical properties :
#
#
# Convention : Reuss Voigt Hill
#
# Bulk Modulus (GPa) = 52.52176 57.80400 55.16288
# Shear Modulus (GPa) = 9.67113 24.92195 17.29654
#
# Velocity S-wave (km/s) = 2.14966 3.45082 2.87482
# Velocity P-wave (km/s) = 5.59082 6.59525 6.11370
#
# Compressibility (1/GPa) = 0.01903973
#
# Stress axis : x y z
#
# Youngs Moduli (GPa) = 71.03461 71.24642 103.16861
#
# Poissons Ratio (x) = 0.18245 0.21078
# Poissons Ratio (y) = 0.18191 0.49308
# Poissons Ratio (z) = 0.14513 0.34051
#
# Static dielectric constant tensor:
#      x y z
#    x 4.181620 0.000000 -0.010320 
#    y 0.000000 3.622130 0.000000 
#    z -0.010320 0.000000 3.670590 
# 
# 
# High freq. dielectric constant tensor:
#      x y z
#    x 1.842850 0.000000 0.004350 
#    y 0.000000 1.814220 0.000000 
#    z 0.004350 0.000000 1.800590 
# 
# From -- ./inp_files/226881.got.cif
#   From: 2010.06.25/outbox.cif.g09.slc.cpg/sg12_114_cif.got.tgz:226881.got - 2010.06.28 00:19:55.
