data_PCOD8096324
_publ_section_title
;
Structure prediction by ZEFSAII (Michael W. Deem and Ramdas Pophale) SiO2 
 PCOD8096324
Probable space group: C 2/M
;
_chemical_formula_sum "Si O2"
_cell_formula_units_Z 56
_cell_length_a 18.625308
_cell_length_b 17.466862
_cell_length_c 9.393939
_cell_angle_alpha 90.000000
_cell_angle_beta 65.972044
_cell_angle_gamma 90.000000
_cell_volume 2791.269971
_symmetry_space_group_name_H-M "C 2/M"
_symmetry_group_IT_number 12
_symmetry_cell_setting 'monoclinic'
loop_
_space_group_symop_operation_xyz
x,y,z
-x,y,-z
-x,-y,-z
x,-y,z
1/2+x,1/2+y,z
1/2-x,1/2+y,-z
1/2-x,1/2-y,-z
1/2+x,1/2-y,z
loop_
_atom_site_type_symbol
_atom_site_label
_atom_site_fract_x
_atom_site_fract_y
_atom_site_fract_z
Si Si1 0.426951 0.141245 0.639230
Si Si2 0.774728 0.830260 0.909354
Si Si3 0.911746 0.813818 0.577257
Si Si4 0.818445 0.415201 0.246713
Si Si5 0.824115 0.913673 0.430152
Si Si6 0.248131 0.587381 0.212049
Si Si7 0.487172 0.911601 0.173911
O O1 0.500000 0.098335 0.500000
O O2 0.415124 0.222440 0.571869
O O3 0.344704 0.098883 0.694953
O O4 0.454849 0.143291 0.781854
O O5 0.858438 0.833413 0.759333
O O6 0.705347 0.856302 0.858986
O O7 0.750000 0.750000 0.000000
O O8 0.782425 0.887838 0.033499
O O9 0.877924 0.850216 0.460822
O O10 0.000000 0.847588 0.500000
O O11 0.833605 0.500000 0.165304
O O12 0.753685 0.422308 0.416920
O O13 0.895949 0.389066 0.270878
O O14 0.799466 0.875846 0.298505
O O15 0.862503 0.000000 0.389803
O O16 0.266402 0.500000 0.215373
O O17 0.505346 0.000000 0.198471
O O18 0.500000 0.893654 0.000000
#
# Coordination Sequence:
#
# PCOD8096324 Si02
#       7
#     8   8   8   8   8   8   8
#     4  11  22  37  56  90 129 165 199 237 297 364
#     4  11  21  39  60  89 120 160 202 247 300 352
#     4  10  23  43  61  87 121 160 206 244 304 366
#     4   9  18  35  58  83 117 161 203 241 289 360
#     4   9  20  39  62  87 113 153 208 256 303 355
#     4  11  22  38  63  93 122 155 201 258 305 356
#     4  10  20  33  52  81 120 162 198 236 289 353
#
# _framework density 20.062550999999999
#
# number of rings (size 3 to 8) (size 9 to 14) (size 15 to 20)
#    0.000    1.857    1.429    2.571    0.000    4.857 
#    5.143    0.714    0.000    1.714    0.000    0.000 
#    0.000    0.000    0.000    0.000    0.000    0.000 
#
# Total GULP energy -346881.681060 kJ/mol
# GULP energy per Si atom -12388.631466 kJ/mol
# Density = 2.001689 g / cm^3
# Si number density = 20.062551 Si / 1000 Ang^3
#
#
#
# Elastic Constant Matrix: (Units=GPa)
#
#
# Indices 1 2 3 4 5 6 
#
# 1 122.9108 42.7716 51.1993 0.0000 9.2431 0.0000
# 2 42.7716 54.6604 15.2368 0.0000 13.5889 0.0000
# 3 51.1993 15.2368 96.4791 0.0000 7.2643 0.0000
# 4 0.0000 0.0000 0.0000 17.8032 0.0000 -3.1155
# 5 9.2431 13.5889 7.2643 0.0000 41.2618 0.0000
# 6 0.0000 0.0000 0.0000 -3.1155 0.0000 14.5170
#
#
#
# Elastic Compliance Matrix: (Units=1/GPa)
#
#
# Indices 1 2 3 4 5 6 
#
# 1 0.013793 -0.009406 -0.005913 0.000000 0.001049 0.000000
# 2 -0.009406 0.027053 0.001248 0.000000 -0.007022 0.000000
# 3 -0.005913 0.001248 0.013415 0.000000 -0.001448 0.000000
# 4 0.000000 0.000000 0.000000 0.058362 0.000000 0.012525
# 5 0.001049 -0.007022 -0.001448 0.000000 0.026568 0.000000
# 6 0.000000 0.000000 0.000000 0.012525 0.000000 0.071573
#
#
# Mechanical properties :
#
#
# Convention : Reuss Voigt Hill
#
# Bulk Modulus (GPa) = 38.28727 54.71839 46.50283
# Shear Modulus (GPa) = 20.19283 25.70590 22.94936
#
# Velocity S-wave (km/s) = 3.17597 3.58339 3.38581
# Velocity P-wave (km/s) = 5.70740 6.66739 6.20598
#
# Compressibility (1/GPa) = 0.02611834
#
# Stress axis : x y z
#
# Youngs Moduli (GPa) = 72.49812 36.96504 74.54321
#
# Poissons Ratio (x) = 0.34768 0.44081
# Poissons Ratio (y) = 0.68189 -0.09301
# Poissons Ratio (z) = 0.42871 -0.04612
#
# Static dielectric constant tensor:
#      x y z
#    x 4.152670 0.000000 0.318620 
#    y 0.000000 3.624790 0.000000 
#    z 0.318620 0.000000 3.140080 
# 
# 
# High freq. dielectric constant tensor:
#      x y z
#    x 1.785690 0.000000 0.005070 
#    y 0.000000 1.765760 0.000000 
#    z 0.005070 0.000000 1.790650 
# 
# From -- ./inp_files/75893.got.cif
#   From: 2010.06.25/outbox.cif.g09.slc.cpg/sg12_38_cif.got.tgz:75893.got - 2010.06.28 00:19:55.
