data_PCOD8096070
_publ_section_title
;
Structure prediction by ZEFSAII (Michael W. Deem and Ramdas Pophale) SiO2 
 PCOD8096070
Probable space group: C 2/M
;
_chemical_formula_sum "Si O2"
_cell_formula_units_Z 56
_cell_length_a 25.478275
_cell_length_b 9.148260
_cell_length_c 18.238800
_cell_angle_alpha 90.000000
_cell_angle_beta 141.454108
_cell_angle_gamma 90.000000
_cell_volume 2649.056998
_symmetry_space_group_name_H-M "C 2/M"
_symmetry_group_IT_number 12
_symmetry_cell_setting 'monoclinic'
loop_
_space_group_symop_operation_xyz
x,y,z
-x,y,-z
-x,-y,-z
x,-y,z
1/2+x,1/2+y,z
1/2-x,1/2+y,-z
1/2-x,1/2-y,-z
1/2+x,1/2-y,z
loop_
_atom_site_type_symbol
_atom_site_label
_atom_site_fract_x
_atom_site_fract_y
_atom_site_fract_z
Si Si1 0.759785 0.667834 0.735173
Si Si2 0.029174 0.169457 0.222159
Si Si3 0.946323 0.661702 0.247981
Si Si4 0.293167 0.161668 0.984072
Si Si5 0.319547 0.172849 0.235657
Si Si6 0.802792 0.669087 0.618993
Si Si7 0.920406 0.835024 0.964923
O O1 0.750865 0.500000 0.749364
O O2 0.678840 0.759069 0.680741
O O3 0.752940 0.686525 0.640669
O O4 0.850064 0.721812 0.862683
O O5 0.106224 0.258481 0.272369
O O6 0.014635 0.224369 0.291228
O O7 0.949029 0.192267 0.080728
O O8 0.054051 0.000000 0.254230
O O9 0.983833 0.500000 0.307225
O O10 0.889100 0.645495 0.112755
O O11 0.896423 0.721397 0.265925
O O12 0.253188 0.000000 0.930729
O O13 0.250000 0.250000 0.000000
O O14 0.271369 0.258849 0.888921
O O15 0.313958 0.000000 0.230156
O O16 0.814174 0.500000 0.610113
O O17 0.750000 0.750000 0.500000
O O18 0.884911 0.000000 0.917535
O O19 0.000000 0.811852 0.000000
#
# Coordination Sequence:
#
# PCOD8096070 Si02
#       7
#     8   8   8   8   8   8   8
#     4  11  23  37  58  88 119 153 192 240 292 343
#     4  11  22  36  59  88 118 155 195 236 286 340
#     4   9  19  33  49  75 112 152 192 233 280 334
#     4   9  16  27  44  69 106 151 194 234 275 328
#     4  10  20  33  51  76 111 155 195 235 283 340
#     4  11  25  44  65  87 113 147 190 240 293 348
#     4  10  20  35  55  83 121 159 194 235 284 345
#
# _framework density 21.139599
#
# number of rings (size 3 to 8) (size 9 to 14) (size 15 to 20)
#    0.000    1.857    1.429    3.857    0.000    8.857 
#    0.000    0.000    0.000    0.857    0.000    6.000 
#    0.000    0.000    0.000    0.000    0.000    0.000 
#
# Total GULP energy -346888.503346 kJ/mol
# GULP energy per Si atom -12388.875120 kJ/mol
# Density = 2.109148 g / cm^3
# Si number density = 21.139599 Si / 1000 Ang^3
#
#
#
# Elastic Constant Matrix: (Units=GPa)
#
#
# Indices 1 2 3 4 5 6 
#
# 1 113.4463 56.8293 12.8479 0.0000 -26.4843 0.0000
# 2 56.8293 139.5634 25.2118 0.0000 -18.7048 0.0000
# 3 12.8479 25.2118 39.0077 0.0000 -12.3849 0.0000
# 4 0.0000 0.0000 0.0000 25.0258 0.0000 -1.4456
# 5 -26.4843 -18.7048 -12.3849 0.0000 16.9341 0.0000
# 6 0.0000 0.0000 0.0000 -1.4456 0.0000 39.1473
#
#
#
# Elastic Compliance Matrix: (Units=1/GPa)
#
#
# Indices 1 2 3 4 5 6 
#
# 1 0.015950 -0.004192 0.005087 0.000000 0.024034 0.000000
# 2 -0.004192 0.009838 -0.004701 0.000000 0.000872 0.000000
# 3 0.005087 -0.004701 0.036307 0.000000 0.029317 0.000000
# 4 0.000000 0.000000 0.000000 0.040044 0.000000 0.001479
# 5 0.024034 0.000872 0.029317 0.000000 0.119046 0.000000
# 6 0.000000 0.000000 0.000000 0.001479 0.000000 0.025599
#
#
# Mechanical properties :
#
#
# Convention : Reuss Voigt Hill
#
# Bulk Modulus (GPa) = 18.35446 53.53282 35.94364
# Shear Modulus (GPa) = 18.34474 29.36335 23.85404
#
# Velocity S-wave (km/s) = 2.94902 3.73100 3.36282
# Velocity P-wave (km/s) = 4.50522 6.62865 5.66727
#
# Compressibility (1/GPa) = 0.05448267
#
# Stress axis : x y z
#
# Youngs Moduli (GPa) = 62.69741 101.64191 27.54291
#
# Poissons Ratio (x) = 0.42612 -0.14012
# Poissons Ratio (y) = 0.26285 0.12948
# Poissons Ratio (z) = -0.31896 0.47783
#
# Static dielectric constant tensor:
#      x y z
#    x 4.205860 0.000000 -0.494010 
#    y 0.000000 3.871470 0.000000 
#    z -0.494010 0.000000 3.812950 
# 
# 
# High freq. dielectric constant tensor:
#      x y z
#    x 1.849290 0.000000 -0.020380 
#    y 0.000000 1.839680 0.000000 
#    z -0.020380 0.000000 1.771030 
# 
# From -- ./inp_files/292556.got.cif
#   From: 2010.06.25/outbox.cif.g09.slc.cpg/sg12_147_cif.got.tgz:292556.got - 2010.06.28 00:19:55.
