data_PCOD8096310
_publ_section_title
;
Structure prediction by ZEFSAII (Michael W. Deem and Ramdas Pophale) SiO2 
 PCOD8096310
Probable space group: C 2/M
;
_chemical_formula_sum "Si O2"
_cell_formula_units_Z 64
_cell_length_a 24.392393
_cell_length_b 9.149553
_cell_length_c 28.534375
_cell_angle_alpha 90.000000
_cell_angle_beta 149.708848
_cell_angle_gamma 90.000000
_cell_volume 3212.127745
_symmetry_space_group_name_H-M "C 2/M"
_symmetry_group_IT_number 12
_symmetry_cell_setting 'monoclinic'
loop_
_space_group_symop_operation_xyz
x,y,z
-x,y,-z
-x,-y,-z
x,-y,z
1/2+x,1/2+y,z
1/2-x,1/2+y,-z
1/2-x,1/2-y,-z
1/2+x,1/2-y,z
loop_
_atom_site_type_symbol
_atom_site_label
_atom_site_fract_x
_atom_site_fract_y
_atom_site_fract_z
Si Si1 0.639648 0.828900 0.228173
Si Si2 0.500928 0.665244 0.552974
Si Si3 0.521389 0.667105 0.711282
Si Si4 0.454672 0.829687 0.016625
Si Si5 0.258307 0.833325 0.146853
Si Si6 0.300108 0.165567 0.282329
Si Si7 0.366787 0.667337 0.679008
Si Si8 0.332087 0.333945 0.502551
O O1 0.539189 0.795145 0.120097
O O2 0.746130 0.761416 0.283104
O O3 0.618287 0.758486 0.262772
O O4 0.659067 0.000000 0.249627
O O5 0.500000 0.727212 0.500000
O O6 0.546218 0.500000 0.587954
O O7 0.581272 0.768980 0.641440
O O8 0.380676 0.672545 0.485791
O O9 0.548613 0.500000 0.717184
O O10 0.629431 0.761660 0.786580
O O11 0.479736 0.677319 0.734024
O O12 0.424784 0.724904 0.606210
O O13 0.427632 0.000000 0.992637
O O14 0.500000 0.772744 0.000000
O O15 0.344822 0.748260 0.951447
O O16 0.237276 0.824556 0.187008
O O17 0.260563 0.000000 0.131061
O O18 0.308175 0.000000 0.306282
O O19 0.337864 0.500000 0.669774
O O20 0.273122 0.730855 0.575378
O O21 0.298507 0.500000 0.491078
#
# Coordination Sequence:
#
# PCOD8096310 Si02
#       8
#     8   8   8   8   8   8   8   8
#     4  11  23  40  63  88 118 158 199 240 295 361
#     4  10  20  33  52  80 115 157 199 237 286 349
#     4  10  22  41  63  86 118 163 207 246 290 347
#     4  10  21  39  64  91 118 154 197 240 291 360
#     4  11  23  37  60  93 123 152 190 244 301 349
#     4  11  22  35  55  86 121 154 188 237 299 351
#     4  11  24  40  60  88 121 157 200 252 302 344
#     4  10  20  36  59  86 118 159 205 246 289 349
#
# _framework density 19.924486999999999
#
# number of rings (size 3 to 8) (size 9 to 14) (size 15 to 20)
#    0.000    1.500    2.500    2.625    0.000    5.500 
#    0.000    0.625    0.000    0.000    0.000    0.000 
#    0.000    0.000    0.000    0.000    0.000    0.000 
#
# Total GULP energy -396872.172672 kJ/mol
# GULP energy per Si atom -12402.255396 kJ/mol
# Density = 1.987914 g / cm^3
# Si number density = 19.924487 Si / 1000 Ang^3
#
#
#
# Elastic Constant Matrix: (Units=GPa)
#
#
# Indices 1 2 3 4 5 6 
#
# 1 77.3443 34.5187 21.8099 -0.0003 11.1722 -0.0003
# 2 34.5187 111.7245 56.1462 -0.0005 11.6974 -0.0010
# 3 21.8099 56.1462 88.2285 -0.0010 15.8024 -0.0003
# 4 -0.0003 -0.0005 -0.0010 30.0646 0.0001 0.7687
# 5 11.1722 11.6974 15.8024 0.0001 24.1214 0.0000
# 6 -0.0003 -0.0010 -0.0003 0.7687 0.0000 27.9620
#
#
#
# Elastic Compliance Matrix: (Units=1/GPa)
#
#
# Indices 1 2 3 4 5 6 
#
# 1 0.015586 -0.004125 -0.000332 0.000000 -0.005001 0.000000
# 2 -0.004125 0.014273 -0.008118 0.000000 0.000308 0.000000
# 3 -0.000332 -0.008118 0.017957 0.000000 -0.007673 0.000000
# 4 0.000000 0.000000 0.000000 0.033285 0.000000 -0.000915
# 5 -0.005001 0.000308 -0.007673 0.000000 0.048651 0.000000
# 6 0.000000 0.000000 0.000000 -0.000915 0.000000 0.035788
#
#
# Mechanical properties :
#
#
# Convention : Reuss Voigt Hill
#
# Bulk Modulus (GPa) = 44.12061 55.80519 49.96290
# Shear Modulus (GPa) = 25.22133 27.41778 26.31956
#
# Velocity S-wave (km/s) = 3.56173 3.71359 3.63845
# Velocity P-wave (km/s) = 6.25352 6.81592 6.54077
#
# Compressibility (1/GPa) = 0.02266514
#
# Stress axis : x y z
#
# Youngs Moduli (GPa) = 64.15907 70.06469 55.68948
#
# Poissons Ratio (x) = 0.28902 0.01849
# Poissons Ratio (y) = 0.26466 0.45209
# Poissons Ratio (z) = 0.02130 0.56879
#
# Static dielectric constant tensor:
#      x y z
#    x 3.562480 0.000000 -0.012340 
#    y 0.000000 3.605670 0.000000 
#    z -0.012340 0.000000 3.486710 
# 
# 
# High freq. dielectric constant tensor:
#      x y z
#    x 1.776410 0.000000 0.003220 
#    y 0.000000 1.777980 0.000000 
#    z 0.003220 0.000000 1.769360 
# 
# From -- ./inp_files/382551.got.cif
#   From: 2010.06.25/outbox.cif.g09.slc.cpg/sg12_192_cif.got.tgz:382551.got - 2010.06.28 00:19:55.
