data_PCOD8096627
_publ_section_title
;
Structure prediction by ZEFSAII (Michael W. Deem and Ramdas Pophale) SiO2 
 PCOD8096627
Probable space group: C 2/M
;
_chemical_formula_sum "Si O2"
_cell_formula_units_Z 56
_cell_length_a 30.197359
_cell_length_b 10.912811
_cell_length_c 10.248264
_cell_angle_alpha 90.000000
_cell_angle_beta 57.503247
_cell_angle_gamma 90.000000
_cell_volume 2848.398646
_symmetry_space_group_name_H-M "C 2/M"
_symmetry_group_IT_number 12
_symmetry_cell_setting 'monoclinic'
loop_
_space_group_symop_operation_xyz
x,y,z
-x,y,-z
-x,-y,-z
x,-y,z
1/2+x,1/2+y,z
1/2-x,1/2+y,-z
1/2-x,1/2-y,-z
1/2+x,1/2-y,z
loop_
_atom_site_type_symbol
_atom_site_label
_atom_site_fract_x
_atom_site_fract_y
_atom_site_fract_z
Si Si1 0.559262 0.500000 0.248478
Si Si2 0.848051 0.636217 0.755559
Si Si3 0.755419 0.865346 0.656244
Si Si4 0.374544 0.283653 0.944066
Si Si5 0.132938 0.213623 0.535002
Si Si6 0.564675 0.500000 0.542134
Si Si7 0.237149 0.864821 0.866076
Si Si8 0.143082 0.639049 0.761835
O O1 0.578400 0.380495 0.139117
O O2 0.580755 0.500000 0.363557
O O3 0.497143 0.500000 0.344211
O O4 0.866667 0.500000 0.693382
O O5 0.883133 0.679842 0.821340
O O6 0.857417 0.714650 0.612730
O O7 0.785416 0.640767 0.893699
O O8 0.813236 0.853362 0.501540
O O9 0.745410 0.749948 0.761353
O O10 0.706280 0.862226 0.633434
O O11 0.753268 0.000000 0.731100
O O12 0.321128 0.353906 0.983128
O O13 0.372093 0.222259 0.089770
O O14 0.114877 0.304150 0.679530
O O15 0.087018 0.117866 0.580869
O O16 0.240912 0.000000 0.790200
O O17 0.122735 0.500000 0.815976
#
# Coordination Sequence:
#
# PCOD8096627 Si02
#       8
#     4   8   8   8   8   4   8   8
#     4  11  24  43  67  91 119 153 213 277 318 350
#     4  10  20  33  56  87 119 162 203 244 298 378
#     4   9  18  33  54  85 126 168 204 239 296 371
#     4  11  20  38  59  85 121 162 195 255 313 361
#     4  11  20  38  60  87 122 165 206 254 300 358
#     4  11  24  43  67  93 115 157 215 273 312 355
#     4   9  18  31  51  84 122 159 204 244 303 375
#     4  10  22  37  58  92 130 165 196 240 304 382
#
# _framework density 19.660170000000001
#
# number of rings (size 3 to 8) (size 9 to 14) (size 15 to 20)
#    0.000    1.857    2.857    1.714    0.000    1.714 
#    1.286    4.286    0.000    5.143    0.000    0.000 
#    0.000    0.000    0.000    0.000    0.000    0.000 
#
# Total GULP energy -346872.084637 kJ/mol
# GULP energy per Si atom -12388.288737 kJ/mol
# Density = 1.961542 g / cm^3
# Si number density = 19.660170 Si / 1000 Ang^3
#
#
#
# Elastic Constant Matrix: (Units=GPa)
#
#
# Indices 1 2 3 4 5 6 
#
# 1 69.0504 44.6561 41.3004 0.0000 0.9751 0.0000
# 2 44.6561 130.4378 32.4658 0.0000 -7.0194 0.0000
# 3 41.3004 32.4658 82.3137 0.0000 6.6544 0.0000
# 4 0.0000 0.0000 0.0000 25.7261 0.0000 1.1343
# 5 0.9751 -7.0194 6.6544 0.0000 23.7222 0.0000
# 6 0.0000 0.0000 0.0000 1.1343 0.0000 24.2711
#
#
#
# Elastic Compliance Matrix: (Units=1/GPa)
#
#
# Indices 1 2 3 4 5 6 
#
# 1 0.024104 -0.005809 -0.009806 0.000000 0.000041 0.000000
# 2 -0.005809 0.010201 -0.001404 0.000000 0.003651 0.000000
# 3 -0.009806 -0.001404 0.018032 0.000000 -0.005071 0.000000
# 4 0.000000 0.000000 0.000000 0.038951 0.000000 -0.001820
# 5 0.000041 0.003651 -0.005071 0.000000 0.044656 0.000000
# 6 0.000000 0.000000 0.000000 -0.001820 0.000000 0.041286
#
#
# Mechanical properties :
#
#
# Convention : Reuss Voigt Hill
#
# Bulk Modulus (GPa) = 54.64750 57.62740 56.13745
# Shear Modulus (GPa) = 23.00246 25.63586 24.31916
#
# Velocity S-wave (km/s) = 3.42424 3.61494 3.52088
# Velocity P-wave (km/s) = 6.59472 6.84099 6.71898
#
# Compressibility (1/GPa) = 0.01829910
#
# Stress axis : x y z
#
# Youngs Moduli (GPa) = 41.48772 98.02769 55.45579
#
# Poissons Ratio (x) = 0.56945 0.54379
# Poissons Ratio (y) = 0.24101 0.07786
# Poissons Ratio (z) = 0.40682 0.13763
#
# Static dielectric constant tensor:
#      x y z
#    x 3.486020 0.000000 -0.055050 
#    y 0.000000 3.962720 0.000000 
#    z -0.055050 0.000000 3.198720 
# 
# 
# High freq. dielectric constant tensor:
#      x y z
#    x 1.733650 0.000000 0.009590 
#    y 0.000000 1.794960 0.000000 
#    z 0.009590 0.000000 1.730770 
# 
# From -- ./inp_files/110368.got.cif
#   From: 2010.06.25/outbox.cif.g09.slc.cpg/sg12_56_cif.got.tgz:110368.got - 2010.06.28 00:19:55.
