data_PCOD8096325
_publ_section_title
;
Structure prediction by ZEFSAII (Michael W. Deem and Ramdas Pophale) SiO2 
 PCOD8096325
Probable space group: C 2/M
;
_chemical_formula_sum "Si O2"
_cell_formula_units_Z 48
_cell_length_a 11.232570
_cell_length_b 17.347113
_cell_length_c 14.862149
_cell_angle_alpha 90.000000
_cell_angle_beta 59.271267
_cell_angle_gamma 90.000000
_cell_volume 2489.329614
_symmetry_space_group_name_H-M "C 2/M"
_symmetry_group_IT_number 12
_symmetry_cell_setting 'monoclinic'
loop_
_space_group_symop_operation_xyz
x,y,z
-x,y,-z
-x,-y,-z
x,-y,z
1/2+x,1/2+y,z
1/2-x,1/2+y,-z
1/2-x,1/2-y,-z
1/2+x,1/2-y,z
loop_
_atom_site_type_symbol
_atom_site_label
_atom_site_fract_x
_atom_site_fract_y
_atom_site_fract_z
Si Si1 0.741358 0.308731 0.921811
Si Si2 0.547587 0.842725 0.747182
Si Si3 0.102732 0.909426 0.104456
Si Si4 0.629606 0.909914 0.894520
Si Si5 0.840571 0.188033 0.239853
Si Si6 0.929693 0.411334 0.622878
O O1 0.892548 0.339397 0.843304
O O2 0.675303 0.275521 0.854826
O O3 0.750000 0.250000 0.000000
O O4 0.642858 0.380076 0.988974
O O5 0.630104 0.893100 0.788047
O O6 0.620465 0.758953 0.709636
O O7 0.544340 0.884665 0.651919
O O8 0.225825 0.878967 0.121719
O O9 0.962827 0.873494 0.196494
O O10 0.083690 0.000000 0.109539
O O11 0.624925 0.000000 0.912982
O O12 0.500000 0.872309 0.000000
O O13 0.702306 0.144882 0.324445
O O14 0.885585 0.500000 0.658639
O O15 0.000000 0.402813 0.500000
#
# Coordination Sequence:
#
# PCOD8096325 Si02
#       6
#     8   8   8   8   8   8
#     4  11  21  34  51  82 126 163 197 229 289 350
#     4  11  22  35  63  87 118 157 204 246 297 358
#     4  11  22  34  53  83 125 169 204 242 289 352
#     4  10  20  33  52  81 123 165 201 235 279 352
#     4  11  24  36  60  90 118 154 199 259 300 358
#     4  10  24  47  69  87 114 155 205 263 322 372
#
# _framework density 19.282301
#
# number of rings (size 3 to 8) (size 9 to 14) (size 15 to 20)
#    0.000    1.333    3.333    2.500    2.333    4.667 
#    0.000    0.000    0.000    0.000    0.000    4.667 
#    0.000    0.000    0.000    0.000    0.000    0.000 
#
# Total GULP energy -297574.413423 kJ/mol
# GULP energy per Si atom -12398.933893 kJ/mol
# Density = 1.923841 g / cm^3
# Si number density = 19.282301 Si / 1000 Ang^3
#
#
#
# Elastic Constant Matrix: (Units=GPa)
#
#
# Indices 1 2 3 4 5 6 
#
# 1 84.6282 33.1581 37.1473 0.0000 -1.0848 0.0000
# 2 33.1581 68.4557 41.2005 0.0000 3.6656 0.0000
# 3 37.1473 41.2005 95.3167 0.0000 14.6166 0.0000
# 4 0.0000 0.0000 0.0000 26.1733 0.0000 4.7011
# 5 -1.0848 3.6656 14.6166 0.0000 22.2291 0.0000
# 6 0.0000 0.0000 0.0000 4.7011 0.0000 34.4127
#
#
#
# Elastic Compliance Matrix: (Units=1/GPa)
#
#
# Indices 1 2 3 4 5 6 
#
# 1 0.015966 -0.005143 -0.004725 0.000000 0.004734 0.000000
# 2 -0.005143 0.021540 -0.007477 0.000000 0.001113 0.000000
# 3 -0.004725 -0.007477 0.017139 0.000000 -0.010268 0.000000
# 4 0.000000 0.000000 0.000000 0.039168 0.000000 -0.005351
# 5 0.004734 0.001113 -0.010268 0.000000 0.051785 0.000000
# 6 0.000000 0.000000 0.000000 -0.005351 0.000000 0.029790
#
#
# Mechanical properties :
#
#
# Convention : Reuss Voigt Hill
#
# Bulk Modulus (GPa) = 50.11393 52.37917 51.24655
# Shear Modulus (GPa) = 23.07015 25.68933 24.37974
#
# Velocity S-wave (km/s) = 3.46271 3.65399 3.55964
# Velocity P-wave (km/s) = 6.48330 6.71011 6.59768
#
# Compressibility (1/GPa) = 0.01995453
#
# Stress axis : x y z
#
# Youngs Moduli (GPa) = 62.63133 46.42631 58.34558
#
# Poissons Ratio (x) = 0.23878 0.27571
# Poissons Ratio (y) = 0.32213 0.43623
# Poissons Ratio (z) = 0.29596 0.34712
#
# Static dielectric constant tensor:
#      x y z
#    x 3.833190 0.000000 0.185810 
#    y 0.000000 3.616510 0.000000 
#    z 0.185810 0.000000 2.878780 
# 
# 
# High freq. dielectric constant tensor:
#      x y z
#    x 1.765290 0.000000 0.015650 
#    y 0.000000 1.762110 0.000000 
#    z 0.015650 0.000000 1.714750 
# 
# From -- ./inp_files/131664.got.cif
#   From: 2010.06.25/outbox.cif.g09.slc.cpg/sg12_66_cif.got.tgz:131664.got - 2010.06.28 00:19:55.
