data_PCOD8096599
_publ_section_title
;
Structure prediction by ZEFSAII (Michael W. Deem and Ramdas Pophale) SiO2 
 PCOD8096599
Probable space group: C 2/M
;
_chemical_formula_sum "Si O2"
_cell_formula_units_Z 56
_cell_length_a 24.073804
_cell_length_b 21.106230
_cell_length_c 16.890603
_cell_angle_alpha 90.000000
_cell_angle_beta 163.579107
_cell_angle_gamma 90.000000
_cell_volume 2426.123545
_symmetry_space_group_name_H-M "C 2/M"
_symmetry_group_IT_number 12
_symmetry_cell_setting 'monoclinic'
loop_
_space_group_symop_operation_xyz
x,y,z
-x,y,-z
-x,-y,-z
x,-y,z
1/2+x,1/2+y,z
1/2-x,1/2+y,-z
1/2-x,1/2-y,-z
1/2+x,1/2-y,z
loop_
_atom_site_type_symbol
_atom_site_label
_atom_site_fract_x
_atom_site_fract_y
_atom_site_fract_z
Si Si1 0.805183 0.203523 0.145729
Si Si2 0.759228 0.273771 0.773434
Si Si3 0.550958 0.573358 0.892010
Si Si4 0.856307 0.572079 0.591246
Si Si5 0.867510 0.405843 0.889727
Si Si6 0.796288 0.861867 0.758714
Si Si7 0.418935 0.571555 0.248220
O O1 0.675072 0.226366 0.043659
O O2 0.032068 0.213472 0.468969
O O3 0.785867 0.126412 0.107372
O O4 0.750000 0.250000 0.000000
O O5 0.870292 0.330386 0.881167
O O6 0.800963 0.212858 0.777785
O O7 0.573554 0.500000 0.938018
O O8 0.331271 0.596252 0.614415
O O9 0.588887 0.591639 0.853921
O O10 0.719398 0.606671 0.175904
O O11 0.827661 0.500000 0.523366
O O12 0.874538 0.615844 0.536176
O O13 0.046433 0.576440 0.906791
O O14 0.645721 0.431827 0.586059
O O15 0.000000 0.435843 0.000000
O O16 0.000000 0.886078 0.000000
O O17 0.331281 0.500000 0.142542
#
# Coordination Sequence:
#
# PCOD8096599 Si02
#       7
#     8   8   8   8   8   8   8
#     4  10  22  41  62  80 112 158 203 253 297 346
#     4  10  23  39  57  83 112 154 204 240 300 348
#     4   9  17  32  55  85 119 156 191 231 292 356
#     4  10  20  33  55  87 123 160 188 229 294 359
#     4  11  21  36  57  91 126 156 190 237 300 365
#     4  10  20  36  56  88 120 154 193 244 291 360
#     4  10  20  36  62  90 118 157 201 247 300 357
#
# _framework density 23.082090000000001
#
# number of rings (size 3 to 8) (size 9 to 14) (size 15 to 20)
#    0.000    2.000    1.429    2.143    2.000    2.286 
#    0.000    8.571    0.000    0.000    0.000    5.000 
#    0.000    0.000    0.000    0.000    0.000    0.000 
#
# Total GULP energy -346986.691866 kJ/mol
# GULP energy per Si atom -12392.381852 kJ/mol
# Density = 2.302955 g / cm^3
# Si number density = 23.082090 Si / 1000 Ang^3
#
#
#
# Elastic Constant Matrix: (Units=GPa)
#
#
# Indices 1 2 3 4 5 6 
#
# 1 75.9672 35.8576 33.6389 0.0004 -29.7838 0.0010
# 2 35.8576 126.2012 25.0897 -0.0001 -24.4678 -0.0002
# 3 33.6389 25.0897 63.6897 0.0001 -33.4613 0.0002
# 4 0.0004 -0.0001 0.0001 34.1233 0.0002 23.1424
# 5 -29.7838 -24.4678 -33.4613 0.0002 39.7796 0.0006
# 6 0.0010 -0.0002 0.0002 23.1424 0.0006 115.7455
#
#
#
# Elastic Compliance Matrix: (Units=1/GPa)
#
#
# Indices 1 2 3 4 5 6 
#
# 1 0.020347 -0.003027 -0.004531 0.000000 0.009561 0.000000
# 2 -0.003027 0.009493 -0.000473 0.000000 0.003175 0.000000
# 3 -0.004531 -0.000473 0.029289 0.000000 0.020954 0.000000
# 4 0.000000 0.000000 0.000000 0.033903 0.000000 -0.006779
# 5 0.009561 0.003175 0.020954 0.000000 0.051876 0.000000
# 6 0.000000 0.000000 0.000000 -0.006779 0.000000 0.009995
#
#
# Mechanical properties :
#
#
# Convention : Reuss Voigt Hill
#
# Bulk Modulus (GPa) = 23.21884 50.55893 36.88889
# Shear Modulus (GPa) = 26.98013 49.34783 38.16398
#
# Velocity S-wave (km/s) = 3.42259 4.62879 4.07062
# Velocity P-wave (km/s) = 5.06951 7.10768 6.17329
#
# Compressibility (1/GPa) = 0.04306848
#
# Stress axis : x y z
#
# Youngs Moduli (GPa) = 49.14670 105.33537 34.14207
#
# Poissons Ratio (x) = 0.31882 0.15470
# Poissons Ratio (y) = 0.14875 0.01615
# Poissons Ratio (z) = 0.22269 0.04982
#
# Static dielectric constant tensor:
#      x y z
#    x 4.268070 0.000000 -0.353190 
#    y 0.000000 4.032430 0.000000 
#    z -0.353190 0.000000 3.990140 
# 
# 
# High freq. dielectric constant tensor:
#      x y z
#    x 1.910050 0.000000 -0.023690 
#    y 0.000000 1.915610 0.000000 
#    z -0.023690 0.000000 1.896790 
# 
# From -- ./inp_files/293913.got.cif
#   From: 2010.06.25/outbox.cif.g09.slc.cpg/sg12_147_cif.got.tgz:293913.got - 2010.06.28 00:19:55.
