data_PCOD8096075
_publ_section_title
;
Structure prediction by ZEFSAII (Michael W. Deem and Ramdas Pophale) SiO2 
 PCOD8096075
Probable space group: C 2/M
;
_chemical_formula_sum "Si O2"
_cell_formula_units_Z 64
_cell_length_a 19.615064
_cell_length_b 9.215785
_cell_length_c 20.165626
_cell_angle_alpha 90.000000
_cell_angle_beta 90.553586
_cell_angle_gamma 90.000000
_cell_volume 3645.134020
_symmetry_space_group_name_H-M "C 2/M"
_symmetry_group_IT_number 12
_symmetry_cell_setting 'monoclinic'
loop_
_space_group_symop_operation_xyz
x,y,z
-x,y,-z
-x,-y,-z
x,-y,z
1/2+x,1/2+y,z
1/2-x,1/2+y,-z
1/2-x,1/2-y,-z
1/2+x,1/2-y,z
loop_
_atom_site_type_symbol
_atom_site_label
_atom_site_fract_x
_atom_site_fract_y
_atom_site_fract_z
Si Si1 0.307708 0.670081 0.699586
Si Si2 0.794947 0.170592 0.054568
Si Si3 0.554488 0.171677 0.306814
Si Si4 0.452319 0.669465 0.058662
Si Si5 0.703512 0.832208 0.812962
Si Si6 0.796118 0.834412 0.551094
Si Si7 0.952123 0.831662 0.558936
Si Si8 0.047498 0.667297 0.809462
O O1 0.326846 0.500000 0.700535
O O2 0.374988 0.760088 0.718116
O O3 0.249281 0.710575 0.750814
O O4 0.281133 0.715184 0.626442
O O5 0.874010 0.206245 0.040726
O O6 0.773497 0.232533 0.125787
O O7 0.780080 0.000000 0.052690
O O8 0.750000 0.250000 0.000000
O O9 0.530667 0.237390 0.376453
O O10 0.497127 0.215510 0.253372
O O11 0.562901 0.000000 0.314216
O O12 0.463175 0.500000 0.069557
O O13 0.476234 0.745157 0.126290
O O14 0.500000 0.728112 0.000000
O O15 0.625841 0.799358 0.792140
O O16 0.713669 0.000000 0.833205
O O17 0.750000 0.750000 0.500000
O O18 0.874912 0.805610 0.534942
O O19 0.776116 0.000000 0.541690
O O20 0.000000 0.777996 0.500000
O O21 0.964801 0.000000 0.576594
O O22 0.036273 0.500000 0.826451
#
# Coordination Sequence:
#
# PCOD8096075 Si02
#       8
#     8   8   8   8   8   8   8   8
#     4   9  19  35  53  72  98 134 170 202 242 295
#     4  10  20  34  52  75 102 130 163 205 249 294
#     4  10  20  33  51  77 105 130 162 206 251 295
#     4   9  19  35  53  73  97 128 168 207 241 287
#     4   9  18  35  55  72  96 132 169 204 244 292
#     4   9  18  32  50  73  99 128 163 203 246 292
#     4   9  19  36  54  72  98 133 171 206 243 294
#     4   9  19  34  51  74 102 130 162 202 249 296
#
# _framework density 17.557655
#
# number of rings (size 3 to 8) (size 9 to 14) (size 15 to 20)
#    0.000    2.750    0.000    1.500    0.000    6.500 
#    0.000    5.000    0.000    0.000    0.000    0.000 
#    0.000    0.000    0.000    0.000    0.000    0.000 
#
# Total GULP energy -396852.063378 kJ/mol
# GULP energy per Si atom -12401.626981 kJ/mol
# Density = 1.751769 g / cm^3
# Si number density = 17.557655 Si / 1000 Ang^3
#
#
#
# Elastic Constant Matrix: (Units=GPa)
#
#
# Indices 1 2 3 4 5 6 
#
# 1 100.5569 52.8546 96.9511 0.0000 -2.7681 0.0000
# 2 52.8546 70.0175 65.6202 0.0000 7.0900 0.0000
# 3 96.9511 65.6202 147.9346 0.0000 -3.4934 0.0000
# 4 0.0000 0.0000 0.0000 35.8370 0.0000 3.2218
# 5 -2.7681 7.0900 -3.4934 0.0000 42.7266 0.0000
# 6 0.0000 0.0000 0.0000 3.2218 0.0000 26.2120
#
#
#
# Elastic Compliance Matrix: (Units=1/GPa)
#
#
# Indices 1 2 3 4 5 6 
#
# 1 0.028997 -0.007365 -0.015693 0.000000 0.001818 0.000000
# 2 -0.007365 0.027407 -0.007463 0.000000 -0.005635 0.000000
# 3 -0.015693 -0.007463 0.020400 0.000000 0.001890 0.000000
# 4 0.000000 0.000000 0.000000 0.028216 0.000000 -0.003468
# 5 0.001818 -0.005635 0.001890 0.000000 0.024612 0.000000
# 6 0.000000 0.000000 0.000000 -0.003468 0.000000 0.038577
#
#
# Mechanical properties :
#
#
# Convention : Reuss Voigt Hill
#
# Bulk Modulus (GPa) = 63.45264 83.26232 73.35748
# Shear Modulus (GPa) = 21.32147 27.82732 24.57440
#
# Velocity S-wave (km/s) = 3.48856 3.98541 3.74524
# Velocity P-wave (km/s) = 7.24188 8.28874 7.78293
#
# Compressibility (1/GPa) = 0.01575979
#
# Stress axis : x y z
#
# Youngs Moduli (GPa) = 34.48690 36.48676 49.01985
#
# Poissons Ratio (x) = 0.26873 0.76929
# Poissons Ratio (y) = 0.25400 0.36586
# Poissons Ratio (z) = 0.54122 0.27232
#
# Static dielectric constant tensor:
#      x y z
#    x 3.169190 0.000000 0.190750 
#    y 0.000000 3.253700 0.000000 
#    z 0.190750 0.000000 2.828660 
# 
# 
# High freq. dielectric constant tensor:
#      x y z
#    x 1.677880 0.000000 -0.002220 
#    y 0.000000 1.678530 0.000000 
#    z -0.002220 0.000000 1.683120 
# 
# From -- ./inp_files/314164.got.cif
#   From: 2010.06.25/outbox.cif.g09.slc.cpg/sg12_158_cif.got.tgz:314164.got - 2010.06.28 00:19:55.
