data_PCOD8096924
_publ_section_title
;
Structure prediction by ZEFSAII (Michael W. Deem and Ramdas Pophale) SiO2 
 PCOD8096924
Probable space group: C 2/M
;
_chemical_formula_sum "Si O2"
_cell_formula_units_Z 64
_cell_length_a 21.487647
_cell_length_b 29.317485
_cell_length_c 18.206680
_cell_angle_alpha 90.000000
_cell_angle_beta 161.515621
_cell_angle_gamma 90.000000
_cell_volume 3636.375649
_symmetry_space_group_name_H-M "C 2/M"
_symmetry_group_IT_number 12
_symmetry_cell_setting 'monoclinic'
loop_
_space_group_symop_operation_xyz
x,y,z
-x,y,-z
-x,-y,-z
x,-y,z
1/2+x,1/2+y,z
1/2-x,1/2+y,-z
1/2-x,1/2-y,-z
1/2+x,1/2-y,z
loop_
_atom_site_type_symbol
_atom_site_label
_atom_site_fract_x
_atom_site_fract_y
_atom_site_fract_z
Si Si1 0.510305 0.240755 0.860615
Si Si2 0.650420 0.947030 0.009675
Si Si3 0.721223 0.885453 0.443393
Si Si4 0.762159 0.679440 0.672043
Si Si5 0.164707 0.692902 0.475124
Si Si6 0.219295 0.413231 0.237270
Si Si7 0.033303 0.741828 0.620376
Si Si8 0.521294 0.551485 0.339040
O O1 0.457280 0.210011 0.873677
O O2 0.383551 0.286843 0.724306
O O3 0.461768 0.215440 0.730878
O O4 0.736949 0.252016 0.111503
O O5 0.782001 0.928936 0.225851
O O6 0.790579 0.941542 0.095800
O O7 0.588775 0.000000 0.950836
O O8 0.464067 0.914637 0.791583
O O9 0.779038 0.846099 0.450561
O O10 0.684420 0.861579 0.480921
O O11 0.909720 0.919052 0.654401
O O12 0.787136 0.642304 0.764751
O O13 0.576629 0.711137 0.482913
O O14 0.047552 0.700808 0.419506
O O15 0.356406 0.434715 0.451956
O O16 0.000000 0.433045 0.000000
O O17 0.000000 0.726796 0.500000
O O18 0.569072 0.500000 0.372692
#
# Coordination Sequence:
#
# PCOD8096924 Si02
#       8
#     8   8   8   8   8   8   8   8
#     4   9  19  37  54  68 102 133 170 223 260 308
#     4  11  22  34  49  71 101 138 173 216 262 303
#     4  10  20  34  52  68  93 128 171 218 251 296
#     4   9  21  32  44  71  95 130 179 214 249 290
#     4   9  20  36  53  75  96 132 176 212 266 315
#     4  11  20  31  46  67 100 142 175 220 250 292
#     4  11  23  33  53  77 102 136 167 216 272 313
#     4  10  21  34  47  68  96 131 176 214 259 309
#
# _framework density 17.599941000000001
#
# number of rings (size 3 to 8) (size 9 to 14) (size 15 to 20)
#    0.000    2.000    2.500    2.250    1.750   10.000 
#    0.000    0.000    0.000    0.000    0.000    0.000 
#    0.000    2.000    0.000    8.500    0.000    0.750 
#
# Total GULP energy -396592.848455 kJ/mol
# GULP energy per Si atom -12393.526514 kJ/mol
# Density = 1.755988 g / cm^3
# Si number density = 17.599941 Si / 1000 Ang^3
#
#
#
# Elastic Constant Matrix: (Units=GPa)
#
#
# Indices 1 2 3 4 5 6 
#
# 1 101.5479 64.5449 41.6553 -0.0082 16.3503 0.0019
# 2 64.5449 102.9755 21.2023 -0.0072 5.4271 0.0006
# 3 41.6553 21.2023 60.8182 -0.0137 20.5783 0.0018
# 4 -0.0082 -0.0072 -0.0137 4.9809 -0.0235 4.8286
# 5 16.3503 5.4271 20.5783 -0.0235 19.5819 0.0045
# 6 0.0019 0.0006 0.0018 4.8286 0.0045 35.0924
#
#
#
# Elastic Compliance Matrix: (Units=1/GPa)
#
#
# Indices 1 2 3 4 5 6 
#
# 1 0.021720 -0.011467 -0.009028 -0.000037 -0.005470 0.000005
# 2 -0.011467 0.016543 0.000619 0.000032 0.004340 -0.000005
# 3 -0.009028 0.000619 0.030908 -0.000057 -0.025114 0.000010
# 4 -0.000037 0.000032 -0.000057 0.231673 0.000367 -0.031878
# 5 -0.005470 0.004340 -0.025114 0.000367 0.080824 -0.000059
# 6 0.000005 -0.000005 0.000010 -0.031878 -0.000059 0.032882
#
#
# Mechanical properties :
#
#
# Convention : Reuss Voigt Hill
#
# Bulk Modulus (GPa) = 33.99360 57.79406 45.89383
# Shear Modulus (GPa) = 10.77333 21.12699 15.95016
#
# Velocity S-wave (km/s) = 2.47680 3.46844 3.01368
# Velocity P-wave (km/s) = 5.24747 6.99636 6.18405
#
# Compressibility (1/GPa) = 0.02941730
#
# Stress axis : x y z
#
# Youngs Moduli (GPa) = 46.03987 60.45016 32.35451
#
# Poissons Ratio (x) = 0.69319 0.29209
# Poissons Ratio (y) = 0.52795 -0.02001
# Poissons Ratio (z) = 0.41565 -0.03739
#
# Static dielectric constant tensor:
#      x y z
#    x 3.413620 0.000000 0.268520 
#    y 0.000000 3.480910 0.000000 
#    z 0.268520 0.000000 3.082270 
# 
# 
# High freq. dielectric constant tensor:
#      x y z
#    x 1.661300 0.000000 0.038980 
#    y 0.000000 1.671710 0.000000 
#    z 0.038980 0.000000 1.663110 
# 
# From -- ./inp_files/286783.got.cif
#   From: 2010.06.25/outbox.cif.g09.slc.cpg/sg12_144_cif.got.tgz:286783.got - 2010.06.28 00:19:55.
