data_PCOD8096072
_publ_section_title
;
Structure prediction by ZEFSAII (Michael W. Deem and Ramdas Pophale) SiO2 
 PCOD8096072
Probable space group: C 2/M
;
_chemical_formula_sum "Si O2"
_cell_formula_units_Z 64
_cell_length_a 27.977894
_cell_length_b 13.858336
_cell_length_c 10.014712
_cell_angle_alpha 90.000000
_cell_angle_beta 106.328352
_cell_angle_gamma 90.000000
_cell_volume 3726.360019
_symmetry_space_group_name_H-M "C 2/M"
_symmetry_group_IT_number 12
_symmetry_cell_setting 'monoclinic'
loop_
_space_group_symop_operation_xyz
x,y,z
-x,y,-z
-x,-y,-z
x,-y,z
1/2+x,1/2+y,z
1/2-x,1/2+y,-z
1/2-x,1/2-y,-z
1/2+x,1/2-y,z
loop_
_atom_site_type_symbol
_atom_site_label
_atom_site_fract_x
_atom_site_fract_y
_atom_site_fract_z
Si Si1 0.690059 0.111271 0.607676
Si Si2 0.802022 0.892011 0.771265
Si Si3 0.636155 0.795403 0.801141
Si Si4 0.816691 0.890302 0.091533
Si Si5 0.564378 0.111003 0.181830
Si Si6 0.046899 0.611196 0.859543
Si Si7 0.295352 0.112281 0.920956
Si Si8 0.664638 0.201690 0.316217
O O1 0.742773 0.122120 0.722105
O O2 0.648219 0.158775 0.667786
O O3 0.692707 0.168009 0.470859
O O4 0.676218 0.000000 0.571112
O O5 0.819577 0.873861 0.935488
O O6 0.829513 0.816864 0.695628
O O7 0.816178 0.000000 0.734479
O O8 0.578889 0.820619 0.788061
O O9 0.643511 0.679505 0.804748
O O10 0.672354 0.835441 0.942938
O O11 0.830528 0.000000 0.139707
O O12 0.762212 0.863352 0.102492
O O13 0.510872 0.140817 0.199728
O O14 0.606135 0.177463 0.281992
O O15 0.575938 0.000000 0.224750
O O16 0.565383 0.126835 0.024462
O O17 0.054520 0.500000 0.824291
O O18 0.309928 0.146547 0.785923
O O19 0.306710 0.000000 0.944904
#
# Coordination Sequence:
#
# PCOD8096072 Si02
#       8
#     8   8   8   8   8   8   8   8
#     4  11  23  34  48  75 111 136 163 207 254 303
#     4  10  20  35  51  73 103 136 172 212 250 291
#     4  12  19  33  53  73  98 137 172 202 253 302
#     4  10  20  33  51  77 103 129 172 220 249 284
#     4   9  17  30  49  75 103 124 161 215 258 299
#     4   9  17  29  50  77  98 125 165 212 258 302
#     4  11  19  29  51  75  97 128 171 206 242 303
#     4  12  21  34  51  74 102 141 170 203 253 302
#
# _framework density 17.174937
#
# number of rings (size 3 to 8) (size 9 to 14) (size 15 to 20)
#    0.000    1.500    3.750    4.500    0.000    0.000 
#    0.000    2.500    0.000    3.000    0.000    3.500 
#    0.000    2.000    0.000    0.000    0.000    0.000 
#
# Total GULP energy -396892.432619 kJ/mol
# GULP energy per Si atom -12402.888519 kJ/mol
# Density = 1.713585 g / cm^3
# Si number density = 17.174937 Si / 1000 Ang^3
#
#
#
# Elastic Constant Matrix: (Units=GPa)
#
#
# Indices 1 2 3 4 5 6 
#
# 1 81.7982 59.5992 19.5031 0.0000 -9.4407 0.0000
# 2 59.5992 101.0586 18.3563 0.0000 -7.3931 0.0000
# 3 19.5031 18.3563 43.7037 0.0000 -16.5160 0.0000
# 4 0.0000 0.0000 0.0000 22.2957 0.0000 -2.0341
# 5 -9.4407 -7.3931 -16.5160 0.0000 19.0521 0.0000
# 6 0.0000 0.0000 0.0000 -2.0341 0.0000 26.4135
#
#
#
# Elastic Compliance Matrix: (Units=1/GPa)
#
#
# Indices 1 2 3 4 5 6 
#
# 1 0.022459 -0.012353 -0.003629 0.000000 0.003190 0.000000
# 2 -0.012353 0.017508 -0.002360 0.000000 -0.001373 0.000000
# 3 -0.003629 -0.002360 0.036387 0.000000 0.028829 0.000000
# 4 0.000000 0.000000 0.000000 0.045169 0.000000 0.003478
# 5 0.003190 -0.001373 0.028829 0.000000 0.078527 0.000000
# 6 0.000000 0.000000 0.000000 0.003478 0.000000 0.038127
#
#
# Mechanical properties :
#
#
# Convention : Reuss Voigt Hill
#
# Bulk Modulus (GPa) = 25.20730 46.83084 36.01907
# Shear Modulus (GPa) = 17.35607 22.15908 19.75757
#
# Velocity S-wave (km/s) = 3.18236 3.59583 3.39539
# Velocity P-wave (km/s) = 5.31148 6.67579 6.03233
#
# Compressibility (1/GPa) = 0.03967105
#
# Stress axis : x y z
#
# Youngs Moduli (GPa) = 44.52606 57.11536 27.48248
#
# Poissons Ratio (x) = 0.70552 0.09973
# Poissons Ratio (y) = 0.55001 0.06486
# Poissons Ratio (z) = 0.16157 0.13481
#
# Static dielectric constant tensor:
#      x y z
#    x 3.159500 0.000000 -0.100180 
#    y 0.000000 3.401980 0.000000 
#    z -0.100180 0.000000 3.046230 
# 
# 
# High freq. dielectric constant tensor:
#      x y z
#    x 1.648060 0.000000 -0.011530 
#    y 0.000000 1.661650 0.000000 
#    z -0.011530 0.000000 1.644170 
# 
# From -- ./inp_files/104504.got.cif
#   From: 2010.06.25/outbox.cif.g09.slc.cpg/sg12_53_cif.got.tgz:104504.got - 2010.06.28 00:19:55.
