data_PCOD8096275
_publ_section_title
;
Structure prediction by ZEFSAII (Michael W. Deem and Ramdas Pophale) SiO2 
 PCOD8096275
Probable space group: C 2/M
;
_chemical_formula_sum "Si O2"
_cell_formula_units_Z 56
_cell_length_a 18.765493
_cell_length_b 8.747785
_cell_length_c 22.673631
_cell_angle_alpha 90.000000
_cell_angle_beta 51.611805
_cell_angle_gamma 90.000000
_cell_volume 2917.402030
_symmetry_space_group_name_H-M "C 2/M"
_symmetry_group_IT_number 12
_symmetry_cell_setting 'monoclinic'
loop_
_space_group_symop_operation_xyz
x,y,z
-x,y,-z
-x,-y,-z
x,-y,z
1/2+x,1/2+y,z
1/2-x,1/2+y,-z
1/2-x,1/2-y,-z
1/2+x,1/2-y,z
loop_
_atom_site_type_symbol
_atom_site_label
_atom_site_fract_x
_atom_site_fract_y
_atom_site_fract_z
Si Si1 0.326432 0.318053 0.501450
Si Si2 0.153327 0.820053 0.064086
Si Si3 0.848676 0.179708 0.799887
Si Si4 0.697081 0.679886 0.802027
Si Si5 0.492512 0.180424 0.071737
Si Si6 0.479262 0.677196 0.633438
Si Si7 0.689126 0.677674 0.357229
O O1 0.327136 0.500000 0.497920
O O2 0.250000 0.250000 0.500000
O O3 0.422988 0.247352 0.430234
O O4 0.305787 0.264623 0.578490
O O5 0.129140 0.781563 0.144231
O O6 0.079728 0.743447 0.060433
O O7 0.155497 0.000000 0.051593
O O8 0.250000 0.750000 0.000000
O O9 0.754858 0.257466 0.827640
O O10 0.932070 0.243858 0.717091
O O11 0.835095 0.000000 0.795919
O O12 0.690555 0.500000 0.810946
O O13 0.596782 0.748119 0.854037
O O14 0.741118 0.724258 0.717013
O O15 0.488935 0.000000 0.080954
O O16 0.500000 0.229709 0.000000
O O17 0.496589 0.500000 0.634785
O O18 0.413691 0.706101 0.611635
O O19 0.715231 0.500000 0.337047
#
# Coordination Sequence:
#
# PCOD8096275 Si02
#       7
#     8   8   8   8   8   8   8
#     4  10  20  33  52  79 109 142 180 226 279 331
#     4  11  23  38  58  85 115 149 188 229 276 329
#     4   9  19  37  59  82 110 144 181 224 278 336
#     4  11  22  36  58  86 113 143 183 231 277 326
#     4  11  24  41  60  82 112 150 187 227 278 333
#     4   8  15  32  57  78  99 135 183 224 259 315
#     4   9  18  35  57  78 104 143 187 226 270 329
#
# _framework density 19.195160999999999
#
# number of rings (size 3 to 8) (size 9 to 14) (size 15 to 20)
#    0.000    2.143    0.000    4.286    0.000    9.143 
#    0.000    4.286    0.000    4.286    0.000    0.000 
#    0.000    0.000    0.000    0.000    0.000    0.000 
#
# Total GULP energy -347227.457704 kJ/mol
# GULP energy per Si atom -12400.980632 kJ/mol
# Density = 1.915147 g / cm^3
# Si number density = 19.195161 Si / 1000 Ang^3
#
#
#
# Elastic Constant Matrix: (Units=GPa)
#
#
# Indices 1 2 3 4 5 6 
#
# 1 147.3313 48.3437 79.0065 0.0000 -0.2752 0.0001
# 2 48.3437 62.1869 41.3609 0.0000 2.2227 0.0000
# 3 79.0065 41.3609 108.9239 0.0000 -1.4415 0.0000
# 4 0.0000 0.0000 0.0000 20.2353 0.0000 -2.9763
# 5 -0.2752 2.2227 -1.4415 0.0000 40.4840 0.0000
# 6 0.0001 0.0000 0.0000 -2.9763 0.0000 32.9927
#
#
#
# Elastic Compliance Matrix: (Units=1/GPa)
#
#
# Indices 1 2 3 4 5 6 
#
# 1 0.012080 -0.004773 -0.006948 0.000000 0.000097 0.000000
# 2 -0.004773 0.023488 -0.005477 0.000000 -0.001517 0.000000
# 3 -0.006948 -0.005477 0.016311 0.000000 0.000834 0.000000
# 4 0.000000 0.000000 0.000000 0.050083 0.000000 0.004518
# 5 0.000097 -0.001517 0.000834 0.000000 0.024815 0.000000
# 6 0.000000 0.000000 0.000000 0.004518 0.000000 0.030717
#
#
# Mechanical properties :
#
#
# Convention : Reuss Voigt Hill
#
# Bulk Modulus (GPa) = 57.19926 72.87380 65.03653
# Shear Modulus (GPa) = 25.28854 28.72447 27.00651
#
# Velocity S-wave (km/s) = 3.63360 3.87259 3.75499
# Velocity P-wave (km/s) = 6.88967 7.61859 7.26328
#
# Compressibility (1/GPa) = 0.01748274
#
# Stress axis : x y z
#
# Youngs Moduli (GPa) = 82.78361 42.57496 61.30710
#
# Poissons Ratio (x) = 0.20320 0.42597
# Poissons Ratio (y) = 0.39511 0.33578
# Poissons Ratio (z) = 0.57520 0.23319
#
# Static dielectric constant tensor:
#      x y z
#    x -23.533460 0.000010 18.486700 
#    y 0.000010 3.388460 -0.000010 
#    z 18.486700 -0.000010 -8.719120 
# 
# 
# High freq. dielectric constant tensor:
#      x y z
#    x 1.748910 0.000000 0.000500 
#    y 0.000000 1.729060 0.000000 
#    z 0.000500 0.000000 1.763490 
# 
# From -- ./inp_files/342266.got.cif
#   From: 2010.06.25/outbox.cif.g09.slc.cpg/sg12_172_cif.got.tgz:342266.got - 2010.06.28 00:19:55.
