data_PCOD8096685
_publ_section_title
;
Structure prediction by ZEFSAII (Michael W. Deem and Ramdas Pophale) SiO2 
 PCOD8096685
Probable space group: C 2/M
;
_chemical_formula_sum "Si O2"
_cell_formula_units_Z 56
_cell_length_a 11.861351
_cell_length_b 15.403008
_cell_length_c 18.235653
_cell_angle_alpha 90.000000
_cell_angle_beta 124.100320
_cell_angle_gamma 90.000000
_cell_volume 2758.807245
_symmetry_space_group_name_H-M "C 2/M"
_symmetry_group_IT_number 12
_symmetry_cell_setting 'monoclinic'
loop_
_space_group_symop_operation_xyz
x,y,z
-x,y,-z
-x,-y,-z
x,-y,z
1/2+x,1/2+y,z
1/2-x,1/2+y,-z
1/2-x,1/2-y,-z
1/2+x,1/2-y,z
loop_
_atom_site_type_symbol
_atom_site_label
_atom_site_fract_x
_atom_site_fract_y
_atom_site_fract_z
Si Si1 0.487585 0.597293 0.623889
Si Si2 0.902478 0.731247 0.538104
Si Si3 0.755023 0.833111 0.207823
Si Si4 0.476914 0.900880 0.160822
Si Si5 0.788830 0.403785 0.393389
Si Si6 0.612980 0.152745 0.716567
Si Si7 0.347395 0.904614 0.972591
O O1 0.476322 0.500000 0.584943
O O2 0.478677 0.674235 0.558754
O O3 0.629725 0.602924 0.718584
O O4 0.365496 0.613890 0.637438
O O5 0.750000 0.750000 0.500000
O O6 0.892887 0.672793 0.459487
O O7 0.967363 0.676902 0.628025
O O8 0.615912 0.846909 0.202523
O O9 0.796469 0.734819 0.232143
O O10 0.740569 0.846431 0.114912
O O11 0.418231 0.899026 0.221104
O O12 0.360124 0.867267 0.060741
O O13 0.512143 0.000000 0.152694
O O14 0.833819 0.500000 0.438321
O O15 0.799323 0.404102 0.308916
O O16 0.279552 0.000000 0.948609
O O17 0.500000 0.910018 0.000000
#
# Coordination Sequence:
#
# PCOD8096685 Si02
#       7
#     8   8   8   8   8   8   8
#     4   9  18  35  60  85 109 146 190 235 285 341
#     4   9  20  36  56  78 110 144 188 236 277 337
#     4  10  20  33  60  84 115 148 187 233 287 344
#     4  10  21  37  58  86 114 146 194 241 283 338
#     4  10  21  38  59  80 111 153 194 230 284 349
#     4  11  23  34  57  82 117 146 183 238 289 337
#     4   8  15  32  56  81 111 147 187 232 280 340
#
# _framework density 20.298627
#
# number of rings (size 3 to 8) (size 9 to 14) (size 15 to 20)
#    0.000    2.429    0.000    3.000    6.000    2.286 
#    0.000    0.000    0.000    2.571    0.000    4.000 
#    0.000    0.000    0.000    0.000    0.000    0.000 
#
# Total GULP energy -346889.782135 kJ/mol
# GULP energy per Si atom -12388.920791 kJ/mol
# Density = 2.025243 g / cm^3
# Si number density = 20.298627 Si / 1000 Ang^3
#
#
#
# Elastic Constant Matrix: (Units=GPa)
#
#
# Indices 1 2 3 4 5 6 
#
# 1 73.6692 17.7546 46.1952 0.0000 -10.9880 0.0000
# 2 17.7546 107.3385 50.0279 0.0000 2.0511 0.0000
# 3 46.1952 50.0279 130.2782 0.0000 -14.5286 0.0000
# 4 0.0000 0.0000 0.0000 25.0400 0.0000 4.9523
# 5 -10.9880 2.0511 -14.5286 0.0000 34.2646 0.0000
# 6 0.0000 0.0000 0.0000 4.9523 0.0000 -2.2931
#
#
#
# Elastic Compliance Matrix: (Units=1/GPa)
#
#
# Indices 1 2 3 4 5 6 
#
# 1 0.017786 -0.000284 -0.005836 0.000000 0.003246 0.000000
# 2 -0.000284 0.011586 -0.004656 0.000000 -0.002759 0.000000
# 3 -0.005836 -0.004656 0.011919 0.000000 0.003461 0.000000
# 4 0.000000 0.000000 0.000000 0.027984 0.000000 0.060434
# 5 0.003246 -0.002759 0.003461 0.000000 0.031858 0.000000
# 6 0.000000 0.000000 0.000000 0.060434 0.000000 -0.305569
#
#
# Mechanical properties :
#
#
# Convention : Reuss Voigt Hill
#
# Bulk Modulus (GPa) = 50.65939 59.91568 55.28753
# Shear Modulus (GPa) = -28.36008 24.55619 -1.90194
#
# Velocity S-wave (km/s) = -3.74189 3.48191 -0.96903
# Velocity P-wave (km/s) = 2.51838 6.76359 5.10335
#
# Compressibility (1/GPa) = 0.01973968
#
# Stress axis : x y z
#
# Youngs Moduli (GPa) = 56.22340 86.31010 83.89904
#
# Poissons Ratio (x) = 0.02453 0.48960
# Poissons Ratio (y) = 0.01598 0.39064
# Poissons Ratio (z) = 0.32810 0.40187
#
# Static dielectric constant tensor:
#      x y z
#    x 3.531230 0.000000 -0.125000 
#    y 0.000000 4.703110 0.000000 
#    z -0.125000 0.000000 4.162330 
# 
# 
# High freq. dielectric constant tensor:
#      x y z
#    x 1.781980 0.000000 -0.000150 
#    y 0.000000 1.793000 0.000000 
#    z -0.000150 0.000000 1.793200 
# 
# From -- ./inp_files/270388.got.cif
#   From: 2010.06.25/outbox.cif.g09.slc.cpg/sg12_136_cif.got.tgz:270388.got - 2010.06.28 00:19:55.
