data_PCOD8096388
_publ_section_title
;
Structure prediction by ZEFSAII (Michael W. Deem and Ramdas Pophale) SiO2 
 PCOD8096388
Probable space group: C 2/M
;
_chemical_formula_sum "Si O2"
_cell_formula_units_Z 56
_cell_length_a 22.178671
_cell_length_b 9.142854
_cell_length_c 29.251275
_cell_angle_alpha 90.000000
_cell_angle_beta 150.632920
_cell_angle_gamma 90.000000
_cell_volume 2908.809743
_symmetry_space_group_name_H-M "C 2/M"
_symmetry_group_IT_number 12
_symmetry_cell_setting 'monoclinic'
loop_
_space_group_symop_operation_xyz
x,y,z
-x,y,-z
-x,-y,-z
x,-y,z
1/2+x,1/2+y,z
1/2-x,1/2+y,-z
1/2-x,1/2-y,-z
1/2+x,1/2-y,z
loop_
_atom_site_type_symbol
_atom_site_label
_atom_site_fract_x
_atom_site_fract_y
_atom_site_fract_z
Si Si1 0.721963 0.331039 0.852329
Si Si2 0.732667 0.171154 0.380079
Si Si3 0.163651 0.669657 0.978299
Si Si4 0.479694 0.670230 0.588807
Si Si5 0.271617 0.826110 0.237322
Si Si6 0.380557 0.828451 0.789002
Si Si7 0.941268 0.834390 0.666841
O O1 0.744134 0.500000 0.852884
O O2 0.754609 0.229914 0.831034
O O3 0.581353 0.307770 0.774776
O O4 0.807472 0.280958 0.950738
O O5 0.875113 0.212255 0.482986
O O6 0.694467 0.227471 0.304867
O O7 0.646988 0.233329 0.362724
O O8 0.712744 0.000000 0.369804
O O9 0.193444 0.500000 0.992885
O O10 0.023027 0.705888 0.874165
O O11 0.250000 0.750000 0.000000
O O12 0.518074 0.500000 0.610930
O O13 0.599431 0.766303 0.657668
O O14 0.426660 0.705509 0.603884
O O15 0.162373 0.766326 0.196516
O O16 0.273203 0.000000 0.238772
O O17 0.358809 0.000000 0.784539
O O18 0.900809 0.000000 0.649285
#
# Coordination Sequence:
#
# PCOD8096388 Si02
#       7
#     8   8   8   8   8   8   8
#     4   9  19  37  58  80 110 149 183 217 268 326
#     4  10  20  33  53  79 108 145 185 221 264 319
#     4  10  21  37  60  87 115 147 180 216 265 320
#     4   9  19  36  55  77 108 146 181 218 269 329
#     4  11  23  38  57  81 105 137 183 234 277 315
#     4  10  22  39  56  78 110 147 182 219 266 324
#     4   9  17  30  51  78 109 141 176 222 272 316
#
# _framework density 19.251861999999999
#
# number of rings (size 3 to 8) (size 9 to 14) (size 15 to 20)
#    0.000    2.286    0.000    3.429    0.000    5.714 
#    0.000    5.714    0.000    0.000    0.000    0.000 
#    0.000    0.000    0.000    0.000    0.000    0.000 
#
# Total GULP energy -347271.093379 kJ/mol
# GULP energy per Si atom -12402.539049 kJ/mol
# Density = 1.920804 g / cm^3
# Si number density = 19.251862 Si / 1000 Ang^3
#
#
#
# Elastic Constant Matrix: (Units=GPa)
#
#
# Indices 1 2 3 4 5 6 
#
# 1 105.0147 57.4836 57.3624 -0.0002 5.3615 0.0000
# 2 57.4836 77.9774 46.2788 -0.0002 3.3692 -0.0004
# 3 57.3624 46.2788 121.4381 -0.0004 -22.0090 -0.0003
# 4 -0.0002 -0.0002 -0.0004 21.4002 -0.0002 6.7665
# 5 5.3615 3.3692 -22.0090 -0.0002 24.0342 -0.0001
# 6 0.0000 -0.0004 -0.0003 6.7665 -0.0001 34.3898
#
#
#
# Elastic Compliance Matrix: (Units=1/GPa)
#
#
# Indices 1 2 3 4 5 6 
#
# 1 0.019044 -0.009400 -0.007127 0.000000 -0.009457 0.000000
# 2 -0.009400 0.023351 -0.005601 0.000000 -0.006305 0.000000
# 3 -0.007127 -0.005601 0.016985 0.000000 0.017929 0.000000
# 4 0.000000 0.000000 0.000000 0.049828 0.000001 -0.009804
# 5 -0.009457 -0.006305 0.017929 0.000001 0.061019 0.000000
# 6 0.000000 0.000000 0.000000 -0.009804 0.000000 0.031007
#
#
# Mechanical properties :
#
#
# Convention : Reuss Voigt Hill
#
# Bulk Modulus (GPa) = 66.12690 69.63108 67.87899
# Shear Modulus (GPa) = 19.95741 25.51855 22.73798
#
# Velocity S-wave (km/s) = 3.22320 3.64471 3.44041
# Velocity P-wave (km/s) = 6.94801 7.34567 7.14961
#
# Compressibility (1/GPa) = 0.01512244
#
# Stress axis : x y z
#
# Youngs Moduli (GPa) = 52.50970 42.82527 58.87480
#
# Poissons Ratio (x) = 0.40258 0.41962
# Poissons Ratio (y) = 0.49361 0.32976
# Poissons Ratio (z) = 0.37425 0.23987
#
# Static dielectric constant tensor:
#      x y z
#    x 3.367120 0.000000 -0.180080 
#    y 0.000000 3.369520 0.000000 
#    z -0.180080 0.000000 3.830450 
# 
# 
# High freq. dielectric constant tensor:
#      x y z
#    x 1.745080 0.000000 -0.005780 
#    y 0.000000 1.734540 0.000000 
#    z -0.005780 0.000000 1.759970 
# 
# From -- ./inp_files/380796.got.cif
#   From: 2010.06.25/outbox.cif.g09.slc.cpg/sg12_191_cif.got.tgz:380796.got - 2010.06.28 00:19:55.
