data_PCOD8096807
_publ_section_title
;
Structure prediction by ZEFSAII (Michael W. Deem and Ramdas Pophale) SiO2 
 PCOD8096807
Probable space group: C 2/M
;
_chemical_formula_sum "Si O2"
_cell_formula_units_Z 64
_cell_length_a 14.085288
_cell_length_b 9.349405
_cell_length_c 28.108560
_cell_angle_alpha 90.000000
_cell_angle_beta 88.601381
_cell_angle_gamma 90.000000
_cell_volume 3700.487118
_symmetry_space_group_name_H-M "C 2/M"
_symmetry_group_IT_number 12
_symmetry_cell_setting 'monoclinic'
loop_
_space_group_symop_operation_xyz
x,y,z
-x,y,-z
-x,-y,-z
x,-y,z
1/2+x,1/2+y,z
1/2-x,1/2+y,-z
1/2-x,1/2-y,-z
1/2+x,1/2-y,z
loop_
_atom_site_type_symbol
_atom_site_label
_atom_site_fract_x
_atom_site_fract_y
_atom_site_fract_z
Si Si1 0.755021 0.666389 0.805978
Si Si2 0.739054 0.330168 0.699713
Si Si3 0.766570 0.332940 0.048161
Si Si4 0.601595 0.666217 0.885978
Si Si5 0.746150 0.664907 0.548367
Si Si6 0.603608 0.166534 0.374170
Si Si7 0.386748 0.335556 0.870554
Si Si8 0.409035 0.331449 0.374021
O O1 0.780552 0.500000 0.803906
O O2 0.738159 0.729497 0.753446
O O3 0.659646 0.695063 0.836984
O O4 0.845069 0.744591 0.827768
O O5 0.736768 0.500000 0.699112
O O6 0.834099 0.279302 0.671461
O O7 0.645800 0.276247 0.672656
O O8 0.786181 0.500000 0.038288
O O9 0.857921 0.264336 0.072487
O O10 0.673118 0.309591 0.080997
O O11 0.750000 0.250000 0.000000
O O12 0.608326 0.500000 0.901264
O O13 0.493858 0.714584 0.878794
O O14 0.740926 0.500000 0.534867
O O15 0.750000 0.750000 0.500000
O O16 0.839757 0.697081 0.578031
O O17 0.653225 0.709549 0.579249
O O18 0.508175 0.254393 0.376673
O O19 0.579466 0.000000 0.369372
O O20 0.383553 0.500000 0.854824
O O21 0.426192 0.500000 0.371316
#
# Coordination Sequence:
#
# PCOD8096807 Si02
#       8
#     8   8   8   8   8   8   8   8
#     4   9  17  31  52  73  94 125 162 195 229 279
#     4   8  16  32  50  69  97 129 157 190 236 284
#     4  10  20  34  51  71  97 127 159 197 239 282
#     4   9  18  33  51  71  96 126 159 193 234 283
#     4   9  19  34  50  69  96 128 159 196 241 288
#     4   9  18  33  50  69  96 127 158 194 238 284
#     4   9  19  34  50  71 100 128 155 196 244 282
#     4   9  18  33  51  71  96 126 161 199 238 282
#
# _framework density 17.295020000000001
#
# number of rings (size 3 to 8) (size 9 to 14) (size 15 to 20)
#    0.000    3.000    0.000    1.875    0.000    4.000 
#    0.000    9.375    0.000    0.000    0.000    0.000 
#    0.000    0.000    0.000    0.000    0.000    0.000 
#
# Total GULP energy -396775.440485 kJ/mol
# GULP energy per Si atom -12399.232515 kJ/mol
# Density = 1.725566 g / cm^3
# Si number density = 17.295020 Si / 1000 Ang^3
#
#
#
# Elastic Constant Matrix: (Units=GPa)
#
#
# Indices 1 2 3 4 5 6 
#
# 1 117.0953 35.4344 38.9389 0.0000 7.5504 0.0000
# 2 35.4344 49.5766 44.1224 0.0000 2.1972 0.0000
# 3 38.9389 44.1224 126.2334 0.0000 1.5847 0.0000
# 4 0.0000 0.0000 0.0000 27.7264 0.0000 4.3861
# 5 7.5504 2.1972 1.5847 0.0000 12.1383 0.0000
# 6 0.0000 0.0000 0.0000 4.3861 0.0000 32.6678
#
#
#
# Elastic Compliance Matrix: (Units=1/GPa)
#
#
# Indices 1 2 3 4 5 6 
#
# 1 0.011346 -0.006977 -0.000990 0.000000 -0.005665 0.000000
# 2 -0.006977 0.033762 -0.009642 0.000000 -0.000512 0.000000
# 3 -0.000990 -0.009642 0.011587 0.000000 0.000848 0.000000
# 4 0.000000 0.000000 0.000000 0.036849 0.000000 -0.004948
# 5 -0.005665 -0.000512 0.000848 0.000000 0.085890 0.000000
# 6 0.000000 0.000000 0.000000 -0.004948 0.000000 0.031275
#
#
# Mechanical properties :
#
#
# Convention : Reuss Voigt Hill
#
# Bulk Modulus (GPa) = 46.56393 58.87741 52.72067
# Shear Modulus (GPa) = 19.75611 26.13381 22.94496
#
# Velocity S-wave (km/s) = 3.38346 3.89145 3.64631
# Velocity P-wave (km/s) = 6.49965 7.36940 6.94815
#
# Compressibility (1/GPa) = 0.02147585
#
# Stress axis : x y z
#
# Youngs Moduli (GPa) = 88.13706 29.61932 86.30553
#
# Poissons Ratio (x) = 0.20666 0.08544
# Poissons Ratio (y) = 0.61496 0.83216
# Poissons Ratio (z) = 0.08725 0.28559
#
# Static dielectric constant tensor:
#      x y z
#    x 3.329670 0.000000 0.026570 
#    y 0.000000 3.077550 0.000000 
#    z 0.026570 0.000000 3.431220 
# 
# 
# High freq. dielectric constant tensor:
#      x y z
#    x 1.670650 0.000000 0.001760 
#    y 0.000000 1.654120 0.000000 
#    z 0.001760 0.000000 1.672560 
# 
# From -- ./inp_files/338695.got.cif
#   From: 2010.06.25/outbox.cif.g09.slc.cpg/sg12_170_cif.got.tgz:338695.got - 2010.06.28 00:19:55.
