data_PCOD8096479
_publ_section_title
;
Structure prediction by ZEFSAII (Michael W. Deem and Ramdas Pophale) SiO2 
 PCOD8096479
Probable space group: C 2/M
;
_chemical_formula_sum "Si O2"
_cell_formula_units_Z 56
_cell_length_a 10.503488
_cell_length_b 19.197134
_cell_length_c 18.206759
_cell_angle_alpha 90.000000
_cell_angle_beta 124.613734
_cell_angle_gamma 90.000000
_cell_volume 3021.360454
_symmetry_space_group_name_H-M "C 2/M"
_symmetry_group_IT_number 12
_symmetry_cell_setting 'monoclinic'
loop_
_space_group_symop_operation_xyz
x,y,z
-x,y,-z
-x,-y,-z
x,-y,z
1/2+x,1/2+y,z
1/2-x,1/2+y,-z
1/2-x,1/2-y,-z
1/2+x,1/2-y,z
loop_
_atom_site_type_symbol
_atom_site_label
_atom_site_fract_x
_atom_site_fract_y
_atom_site_fract_z
Si Si1 0.327805 0.916903 0.435689
Si Si2 0.389867 0.807582 0.892510
Si Si3 0.633934 0.582476 0.238087
Si Si4 0.677519 0.786236 0.907131
Si Si5 0.671849 0.420891 0.086411
Si Si6 0.158930 0.081957 0.770654
Si Si7 0.040014 0.917376 0.432880
O O1 0.500000 0.885074 0.500000
O O2 0.264371 0.889629 0.336661
O O3 0.209617 0.891004 0.460969
O O4 0.334512 0.000000 0.439546
O O5 0.492195 0.779820 0.856791
O O6 0.250488 0.752296 0.860151
O O7 0.318603 0.880421 0.842625
O O8 0.500000 0.818219 0.000000
O O9 0.633850 0.500000 0.240237
O O10 0.671057 0.608285 0.168995
O O11 0.464187 0.606635 0.208130
O O12 0.718779 0.868628 0.922341
O O13 0.750000 0.750000 0.000000
O O14 0.735930 0.500000 0.100983
O O15 0.500000 0.416795 0.000000
O O16 0.092956 0.104096 0.668922
O O17 0.191304 0.000000 0.783969
O O18 0.000000 0.885262 0.500000
O O19 0.045852 0.000000 0.439711
#
# Coordination Sequence:
#
# PCOD8096479 Si02
#       7
#     8   8   8   8   8   8   8
#     4   8  13  24  42  66  97 133 172 207 249 307
#     4  10  22  36  55  75 102 142 179 221 267 312
#     4   8  16  29  47  74 105 140 173 209 261 317
#     4  10  22  39  54  75 104 139 182 223 258 315
#     4  10  20  33  54  79 107 140 175 217 265 312
#     4   9  18  32  52  79 111 142 179 218 265 321
#     4   8  14  27  46  70 102 140 173 209 261 313
#
# _framework density 18.534696
#
# number of rings (size 3 to 8) (size 9 to 14) (size 15 to 20)
#    0.000    3.000    0.000    3.000    6.000    0.857 
#    2.571    0.000    0.000    0.000    0.000    2.000 
#    0.000    0.000    0.000    0.000    0.000    0.000 
#
# Total GULP energy -346921.826771 kJ/mol
# GULP energy per Si atom -12390.065242 kJ/mol
# Density = 1.849251 g / cm^3
# Si number density = 18.534696 Si / 1000 Ang^3
#
#
#
# Elastic Constant Matrix: (Units=GPa)
#
#
# Indices 1 2 3 4 5 6 
#
# 1 140.9576 47.7751 59.0293 0.0000 6.0922 0.0000
# 2 47.7751 63.2130 25.4463 0.0000 -0.6347 0.0000
# 3 59.0293 25.4463 88.3739 0.0000 1.9633 0.0000
# 4 0.0000 0.0000 0.0000 5.0320 0.0000 1.4859
# 5 6.0922 -0.6347 1.9633 0.0000 31.2390 0.0000
# 6 0.0000 0.0000 0.0000 1.4859 0.0000 26.8725
#
#
#
# Elastic Compliance Matrix: (Units=1/GPa)
#
#
# Indices 1 2 3 4 5 6 
#
# 1 0.011958 -0.006630 -0.006032 0.000000 -0.002088 0.000000
# 2 -0.006630 0.021585 -0.001827 0.000000 0.001846 0.000000
# 3 -0.006032 -0.001827 0.015867 0.000000 0.000142 0.000000
# 4 0.000000 0.000000 0.000000 0.202029 0.000000 -0.011171
# 5 -0.002088 0.001846 0.000142 0.000000 0.032447 0.000000
# 6 0.000000 0.000000 0.000000 -0.011171 0.000000 0.037830
#
#
# Mechanical properties :
#
#
# Convention : Reuss Voigt Hill
#
# Bulk Modulus (GPa) = 48.94483 61.89398 55.41941
# Shear Modulus (GPa) = 13.98583 23.31495 18.65039
#
# Velocity S-wave (km/s) = 2.74993 3.55055 3.17557
# Velocity P-wave (km/s) = 6.04544 7.09046 6.58870
#
# Compressibility (1/GPa) = 0.02043117
#
# Stress axis : x y z
#
# Youngs Moduli (GPa) = 83.62842 46.32905 63.02229
#
# Poissons Ratio (x) = 0.30718 0.38013
# Poissons Ratio (y) = 0.55448 0.11517
# Poissons Ratio (z) = 0.50441 0.08466
#
# Static dielectric constant tensor:
#      x y z
#    x 4.125720 0.000000 -0.258080 
#    y 0.000000 3.090690 0.000000 
#    z -0.258080 0.000000 3.375710 
# 
# 
# High freq. dielectric constant tensor:
#      x y z
#    x 1.725450 0.000000 -0.004140 
#    y 0.000000 1.678310 0.000000 
#    z -0.004140 0.000000 1.702560 
# 
# From -- ./inp_files/305997.got.cif
#   From: 2010.06.25/outbox.cif.g09.slc.cpg/sg12_153_cif.got.tgz:305997.got - 2010.06.28 00:19:55.
