data_PCOD8096346
_publ_section_title
;
Structure prediction by ZEFSAII (Michael W. Deem and Ramdas Pophale) SiO2 
 PCOD8096346
Probable space group: C 2/M
;
_chemical_formula_sum "Si O2"
_cell_formula_units_Z 64
_cell_length_a 18.589225
_cell_length_b 14.313853
_cell_length_c 15.313049
_cell_angle_alpha 90.000000
_cell_angle_beta 57.821595
_cell_angle_gamma 90.000000
_cell_volume 3448.673334
_symmetry_space_group_name_H-M "C 2/M"
_symmetry_group_IT_number 12
_symmetry_cell_setting 'monoclinic'
loop_
_space_group_symop_operation_xyz
x,y,z
-x,y,-z
-x,-y,-z
x,-y,z
1/2+x,1/2+y,z
1/2-x,1/2+y,-z
1/2-x,1/2-y,-z
1/2+x,1/2-y,z
loop_
_atom_site_type_symbol
_atom_site_label
_atom_site_fract_x
_atom_site_fract_y
_atom_site_fract_z
Si Si1 0.731384 0.607506 0.754405
Si Si2 0.716853 0.769020 0.425585
Si Si3 0.908905 0.107016 0.016254
Si Si4 0.809872 0.604770 0.307676
Si Si5 0.096393 0.609138 0.929240
Si Si6 0.846942 0.728528 0.953939
Si Si7 0.915667 0.605687 0.415287
Si Si8 0.895913 0.392310 0.759669
O O1 0.719013 0.500000 0.739686
O O2 0.721913 0.661633 0.668839
O O3 0.659377 0.640311 0.868050
O O4 0.822712 0.629881 0.737582
O O5 0.750000 0.750000 0.500000
O O6 0.724826 0.669170 0.370771
O O7 0.624203 0.817973 0.491837
O O8 0.893005 0.000000 0.996524
O O9 0.898007 0.174874 0.939918
O O10 0.000000 0.119410 0.000000
O O11 0.775278 0.500000 0.320145
O O12 0.866873 0.634719 0.188927
O O13 0.872152 0.615807 0.349434
O O14 0.100443 0.500000 0.946142
O O15 0.153182 0.660644 0.963333
O O16 0.000000 0.646195 0.000000
O O17 0.890256 0.676916 0.844815
O O18 0.750000 0.750000 0.000000
O O19 0.900356 0.500000 0.461159
O O20 0.015146 0.626659 0.345468
O O21 0.889940 0.500000 0.796329
#
# Coordination Sequence:
#
# PCOD8096346 Si02
#       8
#     8   8   8   8   8   8   8   8
#     4  10  20  36  56  79 108 140 181 229 282 337
#     4  10  20  33  53  77 105 137 181 229 279 333
#     4  10  22  39  57  79 113 157 200 236 268 325
#     4   9  18  32  51  77 110 143 181 227 276 329
#     4  10  20  34  55  83 112 146 189 236 285 335
#     4  12  22  33  55  83 116 153 187 227 276 336
#     4   9  18  34  55  81 108 138 176 229 287 333
#     4  10  21  36  55  82 116 146 179 227 287 345
#
# _framework density 18.557860000000002
#
# number of rings (size 3 to 8) (size 9 to 14) (size 15 to 20)
#    0.000    2.000    1.250    2.625    0.000    5.500 
#    0.000    1.875    0.000    0.750    0.000    0.875 
#    0.000    0.000    0.000    0.000    0.000    0.000 
#
# Total GULP energy -396695.851690 kJ/mol
# GULP energy per Si atom -12396.745365 kJ/mol
# Density = 1.851562 g / cm^3
# Si number density = 18.557860 Si / 1000 Ang^3
#
#
#
# Elastic Constant Matrix: (Units=GPa)
#
#
# Indices 1 2 3 4 5 6 
#
# 1 79.4989 39.4185 39.1223 0.0000 -18.1644 0.0000
# 2 39.4185 97.8717 69.3068 0.0000 -6.6169 0.0000
# 3 39.1223 69.3068 112.9729 0.0000 -14.8230 0.0000
# 4 0.0000 0.0000 0.0000 41.2186 0.0000 -0.5613
# 5 -18.1644 -6.6169 -14.8230 0.0000 31.7972 0.0000
# 6 0.0000 0.0000 0.0000 -0.5613 0.0000 18.3347
#
#
#
# Elastic Compliance Matrix: (Units=1/GPa)
#
#
# Indices 1 2 3 4 5 6 
#
# 1 0.018075 -0.005407 -0.001848 0.000000 0.008339 0.000000
# 2 -0.005407 0.019751 -0.010769 0.000000 -0.003999 0.000000
# 3 -0.001848 -0.010769 0.016686 0.000000 0.004482 0.000000
# 4 0.000000 0.000000 0.000000 0.024271 0.000000 0.000743
# 5 0.008339 -0.003999 0.004482 0.000000 0.037470 0.000000
# 6 0.000000 0.000000 0.000000 0.000743 0.000000 0.054564
#
#
# Mechanical properties :
#
#
# Convention : Reuss Voigt Hill
#
# Bulk Modulus (GPa) = 54.16122 65.11541 59.63831
# Shear Modulus (GPa) = 23.47203 27.76983 25.62093
#
# Velocity S-wave (km/s) = 3.56026 3.87252 3.71967
# Velocity P-wave (km/s) = 6.79331 7.42692 7.11717
#
# Compressibility (1/GPa) = 0.01846340
#
# Stress axis : x y z
#
# Youngs Moduli (GPa) = 55.32642 50.63061 59.92984
#
# Poissons Ratio (x) = 0.27378 0.11073
# Poissons Ratio (y) = 0.29918 0.64538
# Poissons Ratio (z) = 0.10223 0.54524
#
# Static dielectric constant tensor:
#      x y z
#    x 3.282190 0.000000 -0.035190 
#    y 0.000000 3.790080 0.000000 
#    z -0.035190 0.000000 3.965340 
# 
# 
# High freq. dielectric constant tensor:
#      x y z
#    x 1.699170 0.000000 -0.001310 
#    y 0.000000 1.730570 0.000000 
#    z -0.001310 0.000000 1.725580 
# 
# From -- ./inp_files/225251.got.cif
#   From: 2010.06.25/outbox.cif.g09.slc.cpg/sg12_113_cif.got.tgz:225251.got - 2010.06.28 00:19:55.
