data_PCOD8096602
_publ_section_title
;
Structure prediction by ZEFSAII (Michael W. Deem and Ramdas Pophale) SiO2 
 PCOD8096602
Probable space group: C 2/M
;
_chemical_formula_sum "Si O2"
_cell_formula_units_Z 64
_cell_length_a 12.796274
_cell_length_b 29.777084
_cell_length_c 8.537655
_cell_angle_alpha 90.000000
_cell_angle_beta 92.233098
_cell_angle_gamma 90.000000
_cell_volume 3250.681042
_symmetry_space_group_name_H-M "C 2/M"
_symmetry_group_IT_number 12
_symmetry_cell_setting 'monoclinic'
loop_
_space_group_symop_operation_xyz
x,y,z
-x,y,-z
-x,-y,-z
x,-y,z
1/2+x,1/2+y,z
1/2-x,1/2+y,-z
1/2-x,1/2-y,-z
1/2+x,1/2-y,z
loop_
_atom_site_type_symbol
_atom_site_label
_atom_site_fract_x
_atom_site_fract_y
_atom_site_fract_z
Si Si1 0.234805 0.387544 0.290885
Si Si2 0.118835 0.551313 0.045654
Si Si3 0.605125 0.640383 0.172438
Si Si4 0.605193 0.743961 0.603428
Si Si5 0.758216 0.324486 0.439842
Si Si6 0.306755 0.449961 0.828183
Si Si7 0.892661 0.825260 0.152960
Si Si8 0.618779 0.550794 0.516714
O O1 0.148973 0.414791 0.187585
O O2 0.190125 0.361888 0.442391
O O3 0.283185 0.348157 0.188922
O O4 0.324595 0.422005 0.344875
O O5 0.127374 0.500000 0.107276
O O6 0.190254 0.557206 0.893168
O O7 0.000000 0.563577 0.000000
O O8 0.695333 0.649218 0.302720
O O9 0.620908 0.590199 0.099841
O O10 0.487729 0.644669 0.232670
O O11 0.607809 0.677534 0.035031
O O12 0.500000 0.747253 0.500000
O O13 0.679343 0.708475 0.522690
O O14 0.650068 0.794050 0.625476
O O15 0.592000 0.724999 0.778472
O O16 0.347524 0.500000 0.878642
O O17 0.314502 0.445180 0.640260
O O18 0.500000 0.569571 0.500000
O O19 0.614116 0.500000 0.575661
#
# Coordination Sequence:
#
# PCOD8096602 Si02
#       8
#     8   8   8   8   8   8   8   8
#     4  11  20  36  57  89 116 158 207 257 307 367
#     4  10  22  42  63  81 120 176 221 263 307 354
#     4  11  19  38  57  93 119 163 203 243 310 380
#     4  10  20  41  58  85 113 153 199 250 317 380
#     4  10  22  35  63  84 116 154 197 257 314 375
#     4  10  20  37  58  86 127 167 205 251 303 362
#     4  10  22  33  62  85 121 159 199 244 309 391
#     4  10  20  33  55  89 128 162 198 248 310 374
#
# _framework density 19.688181
#
# number of rings (size 3 to 8) (size 9 to 14) (size 15 to 20)
#    0.000    1.750    3.750    1.125    0.000    0.500 
#    2.250    2.500    0.000    3.000    0.000    0.000 
#    0.000    0.000    0.000    0.000    0.000    0.000 
#
# Total GULP energy -396505.207878 kJ/mol
# GULP energy per Si atom -12390.787746 kJ/mol
# Density = 1.964337 g / cm^3
# Si number density = 19.688181 Si / 1000 Ang^3
#
#
#
# Elastic Constant Matrix: (Units=GPa)
#
#
# Indices 1 2 3 4 5 6 
#
# 1 90.1397 49.7558 35.5243 0.0000 8.1850 0.0000
# 2 49.7558 106.9568 40.4869 0.0000 10.0499 0.0000
# 3 35.5243 40.4869 91.3940 0.0000 9.4007 0.0000
# 4 0.0000 0.0000 0.0000 31.1700 0.0000 -5.0977
# 5 8.1850 10.0499 9.4007 0.0000 26.8480 0.0000
# 6 0.0000 0.0000 0.0000 -5.0977 0.0000 17.0421
#
#
#
# Elastic Compliance Matrix: (Units=1/GPa)
#
#
# Indices 1 2 3 4 5 6 
#
# 1 0.015841 -0.005960 -0.003371 0.000000 -0.001418 0.000000
# 2 -0.005960 0.013647 -0.003517 0.000000 -0.002060 0.000000
# 3 -0.003371 -0.003517 0.014076 0.000000 -0.002584 0.000000
# 4 0.000000 0.000000 0.000000 0.033732 0.000000 0.010090
# 5 -0.001418 -0.002060 -0.002584 0.000000 0.039355 0.000000
# 6 0.000000 0.000000 0.000000 0.010090 0.000000 0.061696
#
#
# Mechanical properties :
#
#
# Convention : Reuss Voigt Hill
#
# Bulk Modulus (GPa) = 55.96747 60.00272 57.98509
# Shear Modulus (GPa) = 23.80957 25.86026 24.83491
#
# Velocity S-wave (km/s) = 3.48132 3.62814 3.55549
# Velocity P-wave (km/s) = 6.68192 6.93498 6.80963
#
# Compressibility (1/GPa) = 0.01786752
#
# Stress axis : x y z
#
# Youngs Moduli (GPa) = 63.12738 73.27661 71.04338
#
# Poissons Ratio (x) = 0.43671 0.23951
# Poissons Ratio (y) = 0.37622 0.24987
# Poissons Ratio (z) = 0.21282 0.25772
#
# Static dielectric constant tensor:
#      x y z
#    x 3.485000 0.000000 -0.183890 
#    y 0.000000 3.877800 0.000000 
#    z -0.183890 0.000000 3.512520 
# 
# 
# High freq. dielectric constant tensor:
#      x y z
#    x 1.744470 0.000000 -0.006730 
#    y 0.000000 1.774230 0.000000 
#    z -0.006730 0.000000 1.759960 
# 
# From -- ./inp_files/54741.got.cif
#   From: 2010.06.25/outbox.cif.g09.slc.cpg/sg12_28_cif.got.tgz:54741.got - 2010.06.28 00:19:55.
