data_PCOD8096368
_publ_section_title
;
Structure prediction by ZEFSAII (Michael W. Deem and Ramdas Pophale) SiO2 
 PCOD8096368
Probable space group: C 2/M
;
_chemical_formula_sum "Si O2"
_cell_formula_units_Z 48
_cell_length_a 20.413113
_cell_length_b 9.000845
_cell_length_c 33.855948
_cell_angle_alpha 90.000000
_cell_angle_beta 155.166641
_cell_angle_gamma 90.000000
_cell_volume 2612.502236
_symmetry_space_group_name_H-M "C 2/M"
_symmetry_group_IT_number 12
_symmetry_cell_setting 'monoclinic'
loop_
_space_group_symop_operation_xyz
x,y,z
-x,y,-z
-x,-y,-z
x,-y,z
1/2+x,1/2+y,z
1/2-x,1/2+y,-z
1/2-x,1/2-y,-z
1/2+x,1/2-y,z
loop_
_atom_site_type_symbol
_atom_site_label
_atom_site_fract_x
_atom_site_fract_y
_atom_site_fract_z
Si Si1 0.235279 0.825530 0.950205
Si Si2 0.235751 0.324221 0.749906
Si Si3 0.649030 0.176630 0.558754
Si Si4 0.614767 0.325159 0.248962
Si Si5 0.884129 0.676773 0.547948
Si Si6 0.999834 0.825964 0.953958
O O1 0.063773 0.784335 0.841066
O O2 0.260046 0.000000 0.968650
O O3 0.250000 0.750000 0.000000
O O4 0.357606 0.762642 0.986354
O O5 0.232532 0.500000 0.744448
O O6 0.316886 0.256975 0.754662
O O7 0.337855 0.276280 0.844117
O O8 0.056873 0.267887 0.656158
O O9 0.500000 0.239648 0.500000
O O10 0.797194 0.237521 0.664267
O O11 0.647742 0.236528 0.513605
O O12 0.644979 0.000000 0.555343
O O13 0.640562 0.500000 0.260045
O O14 0.871396 0.500000 0.544135
O O15 0.750000 0.750000 0.500000
O O16 0.028606 0.000000 0.962854
O O17 0.000000 0.784343 0.000000
#
# Coordination Sequence:
#
# PCOD8096368 Si02
#       6
#     8   8   8   8   8   8
#     4  11  21  34  55  81 109 139 177 223 268 315
#     4   9  16  31  53  75 101 139 176 210 260 315
#     4   9  15  27  50  78  97 123 173 218 246 290
#     4   9  16  28  51  79 103 129 171 221 260 301
#     4  10  20  33  53  78 106 136 169 211 261 314
#     4  10  21  37  56  78 108 145 184 220 261 318
#
# _framework density 18.373190999999998
#
# number of rings (size 3 to 8) (size 9 to 14) (size 15 to 20)
#    0.000    2.333    3.333    0.500    0.000    1.667 
#    0.000    0.833    0.000    1.500    0.000    0.000 
#    0.000    0.000    0.000    0.000    0.000    0.000 
#
# Total GULP energy -297480.342180 kJ/mol
# GULP energy per Si atom -12395.014257 kJ/mol
# Density = 1.833137 g / cm^3
# Si number density = 18.373191 Si / 1000 Ang^3
#
#
#
# Elastic Constant Matrix: (Units=GPa)
#
#
# Indices 1 2 3 4 5 6 
#
# 1 161.1964 40.5768 107.5935 -0.0003 2.9107 0.0003
# 2 40.5768 32.0702 36.7817 -0.0013 5.7283 0.0013
# 3 107.5935 36.7817 203.5922 0.0010 -4.7583 -0.0002
# 4 -0.0003 -0.0013 0.0010 17.1037 0.0002 8.7775
# 5 2.9107 5.7283 -4.7583 0.0002 37.1595 -0.0004
# 6 0.0003 0.0013 -0.0002 8.7775 -0.0004 25.2756
#
#
#
# Elastic Compliance Matrix: (Units=1/GPa)
#
#
# Indices 1 2 3 4 5 6 
#
# 1 0.011526 -0.009587 -0.004359 -0.000001 0.000017 0.000001
# 2 -0.009587 0.049205 -0.003995 0.000006 -0.007346 -0.000005
# 3 -0.004359 -0.003995 0.007983 -0.000001 0.001979 0.000001
# 4 -0.000001 0.000006 -0.000001 0.071146 -0.000002 -0.024707
# 5 0.000017 -0.007346 0.001979 -0.000002 0.028296 0.000001
# 6 0.000001 -0.000005 0.000001 -0.024707 0.000001 0.048144
#
#
# Mechanical properties :
#
#
# Convention : Reuss Voigt Hill
#
# Bulk Modulus (GPa) = 30.45686 85.19587 57.82637
# Shear Modulus (GPa) = 19.00230 30.03489 24.51860
#
# Velocity S-wave (km/s) = 3.21945 4.04754 3.65701
# Velocity P-wave (km/s) = 5.51657 8.26522 7.02661
#
# Compressibility (1/GPa) = 0.03283332
#
# Stress axis : x y z
#
# Youngs Moduli (GPa) = 86.76112 20.32302 125.26261
#
# Poissons Ratio (x) = 0.19484 0.54599
# Poissons Ratio (y) = 0.83179 0.50039
# Poissons Ratio (z) = 0.37817 0.08119
#
# Static dielectric constant tensor:
#      x y z
#    x 2.673080 -0.000010 -0.100830 
#    y -0.000010 2.926890 0.000000 
#    z -0.100830 0.000000 3.829720 
# 
# 
# High freq. dielectric constant tensor:
#      x y z
#    x 1.713660 0.000000 -0.001830 
#    y 0.000000 1.657360 0.000000 
#    z -0.001830 0.000000 1.735350 
# 
# From -- ./inp_files/280800.got.cif
#   From: 2010.06.25/outbox.cif.g09.slc.cpg/sg12_141_cif.got.tgz:280800.got - 2010.06.28 00:19:55.
