data_PCOD8096502
_publ_section_title
;
Structure prediction by ZEFSAII (Michael W. Deem and Ramdas Pophale) SiO2 
 PCOD8096502
Probable space group: C 2/M
;
_chemical_formula_sum "Si O2"
_cell_formula_units_Z 64
_cell_length_a 20.664727
_cell_length_b 9.005711
_cell_length_c 23.500204
_cell_angle_alpha 90.000000
_cell_angle_beta 52.408828
_cell_angle_gamma 90.000000
_cell_volume 3465.411505
_symmetry_space_group_name_H-M "C 2/M"
_symmetry_group_IT_number 12
_symmetry_cell_setting 'monoclinic'
loop_
_space_group_symop_operation_xyz
x,y,z
-x,y,-z
-x,-y,-z
x,-y,z
1/2+x,1/2+y,z
1/2-x,1/2+y,-z
1/2-x,1/2-y,-z
1/2+x,1/2-y,z
loop_
_atom_site_type_symbol
_atom_site_label
_atom_site_fract_x
_atom_site_fract_y
_atom_site_fract_z
Si Si1 0.863649 0.834447 0.453766
Si Si2 0.978567 0.674543 0.075320
Si Si3 0.264395 0.825272 0.679052
Si Si4 0.230488 0.326245 0.096770
Si Si5 0.620608 0.673624 0.067016
Si Si6 0.087677 0.659063 0.475246
Si Si7 0.304097 0.167720 0.386813
Si Si8 0.710730 0.824319 0.820647
O O1 0.927312 0.772203 0.465153
O O2 0.778382 0.822668 0.532733
O O3 0.871478 0.738015 0.392300
O O4 0.886130 0.000000 0.424248
O O5 0.994276 0.500000 0.074703
O O6 0.034835 0.758957 0.091181
O O7 0.884390 0.718775 0.135291
O O8 0.000000 0.725843 0.000000
O O9 0.353294 0.782735 0.606388
O O10 0.198193 0.765001 0.669167
O O11 0.257623 0.735940 0.740776
O O12 0.251451 0.000000 0.696504
O O13 0.212696 0.500000 0.114388
O O14 0.151657 0.253222 0.108173
O O15 0.245862 0.250720 0.148970
O O16 0.311977 0.297275 0.017125
O O17 0.608388 0.500000 0.086126
O O18 0.124989 0.500000 0.477069
O O19 0.000000 0.626213 0.500000
O O20 0.327391 0.000000 0.357909
O O21 0.721074 0.000000 0.820947
#
# Coordination Sequence:
#
# PCOD8096502 Si02
#       8
#     8   8   8   8   8   8   8   8
#     4   9  16  26  45  74 102 127 160 205 253 297
#     4  10  20  35  55  80 110 144 182 226 274 323
#     4  10  20  34  53  77 106 137 172 215 262 316
#     4  10  20  34  54  80 110 145 184 225 273 326
#     4  10  20  33  54  82 111 141 180 230 277 322
#     4   9  18  33  53  76 102 135 173 212 257 311
#     4   9  16  28  47  71  99 130 164 202 249 304
#     4  11  22  36  56  80 110 146 184 224 272 329
#
# _framework density 18.468225
#
# number of rings (size 3 to 8) (size 9 to 14) (size 15 to 20)
#    0.000    2.250    1.250    2.250    0.000    6.000 
#    0.000    0.000    2.750    0.000    0.000    0.000 
#    0.000    0.000    0.000    0.000    0.000    0.000 
#
# Total GULP energy -396666.422632 kJ/mol
# GULP energy per Si atom -12395.825707 kJ/mol
# Density = 1.842619 g / cm^3
# Si number density = 18.468225 Si / 1000 Ang^3
#
#
#
# Elastic Constant Matrix: (Units=GPa)
#
#
# Indices 1 2 3 4 5 6 
#
# 1 123.0702 57.9358 50.6117 0.0000 25.9354 0.0006
# 2 57.9358 98.3916 39.6235 0.0001 19.2511 0.0004
# 3 50.6117 39.6235 79.2118 0.0000 22.6138 0.0000
# 4 0.0000 0.0001 0.0000 25.6156 0.0000 10.3445
# 5 25.9354 19.2511 22.6138 0.0000 25.1696 0.0002
# 6 0.0006 0.0004 0.0000 10.3445 0.0002 32.6845
#
#
#
# Elastic Compliance Matrix: (Units=1/GPa)
#
#
# Indices 1 2 3 4 5 6 
#
# 1 0.013616 -0.005023 -0.004409 0.000000 -0.006226 0.000000
# 2 -0.005023 0.015151 -0.003414 0.000000 -0.003344 0.000000
# 3 -0.004409 -0.003414 0.020319 0.000000 -0.011101 0.000000
# 4 0.000000 0.000000 0.000000 0.044759 0.000000 -0.014166
# 5 -0.006226 -0.003344 -0.011101 0.000000 0.058677 0.000000
# 6 0.000000 0.000000 0.000000 -0.014166 0.000000 0.035079
#
#
# Mechanical properties :
#
#
# Convention : Reuss Voigt Hill
#
# Bulk Modulus (GPa) = 42.75169 66.33506 54.54337
# Shear Modulus (GPa) = 22.61505 26.86077 24.73791
#
# Velocity S-wave (km/s) = 3.50314 3.81784 3.66387
# Velocity P-wave (km/s) = 6.28981 7.44520 6.89176
#
# Compressibility (1/GPa) = 0.02339089
#
# Stress axis : x y z
#
# Youngs Moduli (GPa) = 73.44525 66.00357 49.21589
#
# Poissons Ratio (x) = 0.33156 0.21701
# Poissons Ratio (y) = 0.36894 0.16804
# Poissons Ratio (z) = 0.32384 0.22536
#
# Static dielectric constant tensor:
#      x y z
#    x 3.366370 0.000000 0.218880 
#    y 0.000000 3.549460 0.000000 
#    z 0.218880 0.000000 3.151820 
# 
# 
# High freq. dielectric constant tensor:
#      x y z
#    x 1.709970 0.000000 0.025750 
#    y 0.000000 1.731140 0.000000 
#    z 0.025750 0.000000 1.686560 
# 
# From -- ./inp_files/319905.got.cif
#   From: 2010.06.25/outbox.cif.g09.slc.cpg/sg12_160_cif.got.tgz:319905.got - 2010.06.28 00:19:55.
