data_PCOD8096730
_publ_section_title
;
Structure prediction by ZEFSAII (Michael W. Deem and Ramdas Pophale) SiO2 
 PCOD8096730
Probable space group: C 2/M
;
_chemical_formula_sum "Si O2"
_cell_formula_units_Z 60
_cell_length_a 29.815467
_cell_length_b 12.831938
_cell_length_c 15.112325
_cell_angle_alpha 90.000000
_cell_angle_beta 33.505753
_cell_angle_gamma 90.000000
_cell_volume 3191.688702
_symmetry_space_group_name_H-M "C 2/M"
_symmetry_group_IT_number 12
_symmetry_cell_setting 'monoclinic'
loop_
_space_group_symop_operation_xyz
x,y,z
-x,y,-z
-x,-y,-z
x,-y,z
1/2+x,1/2+y,z
1/2-x,1/2+y,-z
1/2-x,1/2-y,-z
1/2+x,1/2-y,z
loop_
_atom_site_type_symbol
_atom_site_label
_atom_site_fract_x
_atom_site_fract_y
_atom_site_fract_z
Si Si1 0.366398 0.123145 0.128268
Si Si2 0.813895 0.877728 0.587827
Si Si3 0.345777 0.380595 0.731932
Si Si4 0.107459 0.251294 0.088551
Si Si5 0.000000 0.245116 0.000000
Si Si6 0.530578 0.624286 0.772672
Si Si7 0.745188 0.617244 0.943874
Si Si8 0.921409 0.690350 0.673933
O O1 0.273892 0.151703 0.308152
O O2 0.382596 0.000000 0.105081
O O3 0.381794 0.161557 0.003546
O O4 0.424390 0.181056 0.101485
O O5 0.818250 0.837813 0.681742
O O6 0.886211 0.832214 0.408608
O O7 0.824513 0.000000 0.573528
O O8 0.374785 0.500000 0.681620
O O9 0.420416 0.311294 0.644087
O O10 0.271723 0.363492 0.923521
O O11 0.044452 0.162363 0.162759
O O12 0.071886 0.313622 0.231193
O O13 0.192187 0.194331 0.970941
O O14 0.973576 0.171119 0.122958
O O15 0.528332 0.500000 0.782525
O O16 0.722068 0.500000 0.954859
O O17 0.840447 0.634660 0.770864
O O18 0.000000 0.635883 0.500000
#
# Coordination Sequence:
#
# PCOD8096730 Si02
#       8
#     8   8   8   8   4   8   8   8
#     4  10  20  36  57  78 101 129 167 212 255 301
#     4   9  17  30  52  78 102 131 165 207 253 292
#     4   9  17  31  51  74 101 133 172 215 252 286
#     4  10  20  34  54  76  99 135 175 212 253 296
#     4  10  22  36  54  78 104 136 164 196 250 318
#     4  10  20  35  54  78 105 130 164 208 257 308
#     4  10  20  34  50  70 102 141 178 212 246 291
#     4  11  21  31  47  74 107 140 175 209 247 295
#
# _framework density 18.798825999999998
#
# number of rings (size 3 to 8) (size 9 to 14) (size 15 to 20)
#    0.000    2.133    0.000    4.800    0.000    3.200 
#    0.000    0.000    0.000    0.000    0.000   10.267 
#    0.000    0.000    0.000    0.000    0.000    0.000 
#
# Total GULP energy -371941.961191 kJ/mol
# GULP energy per Si atom -12398.065373 kJ/mol
# Density = 1.875604 g / cm^3
# Si number density = 18.798826 Si / 1000 Ang^3
#
#
#
# Elastic Constant Matrix: (Units=GPa)
#
#
# Indices 1 2 3 4 5 6 
#
# 1 97.2523 24.7072 45.9030 0.0000 -6.0346 0.0000
# 2 24.7072 59.4380 25.0680 0.0000 -5.3387 0.0000
# 3 45.9030 25.0680 121.7615 0.0000 -16.3863 0.0000
# 4 0.0000 0.0000 0.0000 18.6272 0.0000 -2.3342
# 5 -6.0346 -5.3387 -16.3863 0.0000 20.3862 0.0000
# 6 0.0000 0.0000 0.0000 -2.3342 0.0000 20.0256
#
#
#
# Elastic Compliance Matrix: (Units=1/GPa)
#
#
# Indices 1 2 3 4 5 6 
#
# 1 0.013222 -0.003735 -0.004284 0.000000 -0.000508 0.000000
# 2 -0.003735 0.019551 -0.002329 0.000000 0.002143 0.000000
# 3 -0.004284 -0.002329 0.011274 0.000000 0.007184 0.000000
# 4 0.000000 0.000000 0.000000 0.054481 0.000000 0.006350
# 5 -0.000508 0.002143 0.007184 0.000000 0.055238 0.000000
# 6 0.000000 0.000000 0.000000 0.006350 0.000000 0.050676
#
#
# Mechanical properties :
#
#
# Convention : Reuss Voigt Hill
#
# Bulk Modulus (GPa) = 42.82283 52.20090 47.51187
# Shear Modulus (GPa) = 21.46641 23.99269 22.72955
#
# Velocity S-wave (km/s) = 3.38287 3.57639 3.48098
# Velocity P-wave (km/s) = 6.17150 6.69944 6.44088
#
# Compressibility (1/GPa) = 0.02335203
#
# Stress axis : x y z
#
# Youngs Moduli (GPa) = 75.63199 51.14719 88.69934
#
# Poissons Ratio (x) = 0.19103 0.37998
# Poissons Ratio (y) = 0.28248 0.20656
# Poissons Ratio (z) = 0.32400 0.11911
#
# Static dielectric constant tensor:
#      x y z
#    x 3.409940 0.000000 -0.031050 
#    y 0.000000 3.383240 0.000000 
#    z -0.031050 0.000000 3.627290 
# 
# 
# High freq. dielectric constant tensor:
#      x y z
#    x 1.723850 0.000000 -0.006840 
#    y 0.000000 1.722720 0.000000 
#    z -0.006840 0.000000 1.732190 
# 
# From -- ./inp_files/251296.got.cif
#   From: 2010.06.25/outbox.cif.g09.slc.cpg/sg12_126_cif.got.tgz:251296.got - 2010.06.28 00:19:55.
