data_PCOD8096418
_publ_section_title
;
Structure prediction by ZEFSAII (Michael W. Deem and Ramdas Pophale) SiO2 
 PCOD8096418
Probable space group: C 2/M
;
_chemical_formula_sum "Si O2"
_cell_formula_units_Z 56
_cell_length_a 28.736568
_cell_length_b 8.792815
_cell_length_c 17.520425
_cell_angle_alpha 90.000000
_cell_angle_beta 137.247499
_cell_angle_gamma 90.000000
_cell_volume 3005.178613
_symmetry_space_group_name_H-M "C 2/M"
_symmetry_group_IT_number 12
_symmetry_cell_setting 'monoclinic'
loop_
_space_group_symop_operation_xyz
x,y,z
-x,y,-z
-x,-y,-z
x,-y,z
1/2+x,1/2+y,z
1/2-x,1/2+y,-z
1/2-x,1/2-y,-z
1/2+x,1/2-y,z
loop_
_atom_site_type_symbol
_atom_site_label
_atom_site_fract_x
_atom_site_fract_y
_atom_site_fract_z
Si Si1 0.929681 0.818127 0.879487
Si Si2 0.903201 0.321519 0.262159
Si Si3 0.807351 0.820526 0.839021
Si Si4 0.116900 0.172982 0.918355
Si Si5 0.165101 0.820574 0.679378
Si Si6 0.952347 0.180858 0.577665
Si Si7 0.460630 0.326430 0.754586
O O1 0.864643 0.760203 0.848998
O O2 0.924042 0.754407 0.785245
O O3 0.932640 0.000000 0.883175
O O4 0.000000 0.753738 0.000000
O O5 0.911009 0.500000 0.279104
O O6 0.874166 0.281256 0.143632
O O7 0.848470 0.261976 0.257170
O O8 0.976372 0.245636 0.368234
O O9 0.738464 0.730792 0.736005
O O10 0.795924 0.000000 0.815979
O O11 0.829202 0.780034 0.951778
O O12 0.041959 0.189363 0.864953
O O13 0.128706 0.000000 0.905235
O O14 0.109022 0.766306 0.550159
O O15 0.162605 0.000000 0.688241
O O16 0.938918 0.248020 0.647168
O O17 0.960835 0.000000 0.590502
O O18 0.437780 0.500000 0.722820
#
# Coordination Sequence:
#
# PCOD8096418 Si02
#       7
#     8   8   8   8   8   8   8
#     4   9  14  25  51  85 109 130 168 216 261 303
#     4  11  22  35  56  82 104 130 172 224 271 310
#     4  10  20  33  53  81 110 139 177 219 258 304
#     4   9  17  32  53  78 108 140 173 211 258 315
#     4  11  23  38  53  71 104 147 182 213 259 316
#     4   9  19  36  57  78 102 139 181 215 254 311
#     4   8  13  26  51  80 105 129 169 217 254 300
#
# _framework density 18.634501
#
# number of rings (size 3 to 8) (size 9 to 14) (size 15 to 20)
#    0.000    2.429    1.429    3.000    0.000    4.000 
#    0.000    0.714    0.000    3.857    0.000    0.000 
#    0.000    0.000    0.000    0.000    0.000    0.000 
#
# Total GULP energy -347129.709797 kJ/mol
# GULP energy per Si atom -12397.489636 kJ/mol
# Density = 1.859209 g / cm^3
# Si number density = 18.634501 Si / 1000 Ang^3
#
#
#
# Elastic Constant Matrix: (Units=GPa)
#
#
# Indices 1 2 3 4 5 6 
#
# 1 124.9589 22.7549 42.4740 0.0000 0.0634 0.0000
# 2 22.7549 39.2355 18.2993 0.0000 -0.8847 0.0000
# 3 42.4740 18.2993 67.8076 0.0000 4.3956 0.0000
# 4 0.0000 0.0000 0.0000 20.6112 0.0000 6.3395
# 5 0.0634 -0.8847 4.3956 0.0000 23.7893 0.0000
# 6 0.0000 0.0000 0.0000 6.3395 0.0000 18.2407
#
#
#
# Elastic Compliance Matrix: (Units=1/GPa)
#
#
# Indices 1 2 3 4 5 6 
#
# 1 0.010586 -0.003431 -0.005764 0.000000 0.000909 0.000000
# 2 -0.003431 0.030425 -0.006210 0.000000 0.002288 0.000000
# 3 -0.005764 -0.006210 0.020291 0.000000 -0.003965 0.000000
# 4 0.000000 0.000000 0.000000 0.054324 0.000000 -0.018880
# 5 0.000909 0.002288 -0.003965 0.000000 0.042851 0.000000
# 6 0.000000 0.000000 0.000000 -0.018880 0.000000 0.061384
#
#
# Mechanical properties :
#
#
# Convention : Reuss Voigt Hill
#
# Bulk Modulus (GPa) = 32.79531 44.33980 38.56756
# Shear Modulus (GPa) = 19.16918 22.42652 20.79785
#
# Velocity S-wave (km/s) = 3.21080 3.47291 3.34442
# Velocity P-wave (km/s) = 5.60207 6.31883 5.97121
#
# Compressibility (1/GPa) = 0.03049216
#
# Stress axis : x y z
#
# Youngs Moduli (GPa) = 94.46312 32.86801 49.28246
#
# Poissons Ratio (x) = 0.11276 0.28407
# Poissons Ratio (y) = 0.32407 0.30605
# Poissons Ratio (z) = 0.54450 0.20412
#
# Static dielectric constant tensor:
#      x y z
#    x 3.611140 0.000000 -0.224740 
#    y 0.000000 3.020710 0.000000 
#    z -0.224740 0.000000 3.448910 
# 
# 
# High freq. dielectric constant tensor:
#      x y z
#    x 1.728360 0.000000 -0.014200 
#    y 0.000000 1.685040 0.000000 
#    z -0.014200 0.000000 1.717810 
# 
# From -- ./inp_files/291840.got.cif
#   From: 2010.06.25/outbox.cif.g09.slc.cpg/sg12_146_cif.got.tgz:291840.got - 2010.06.28 00:19:55.
