data_PCOD8096950
_publ_section_title
;
Structure prediction by ZEFSAII (Michael W. Deem and Ramdas Pophale) SiO2 
 PCOD8096950
Probable space group: C 2/M
;
_chemical_formula_sum "Si O2"
_cell_formula_units_Z 56
_cell_length_a 19.723839
_cell_length_b 9.157423
_cell_length_c 22.954098
_cell_angle_alpha 90.000000
_cell_angle_beta 49.818333
_cell_angle_gamma 90.000000
_cell_volume 3167.522770
_symmetry_space_group_name_H-M "C 2/M"
_symmetry_group_IT_number 12
_symmetry_cell_setting 'monoclinic'
loop_
_space_group_symop_operation_xyz
x,y,z
-x,y,-z
-x,-y,-z
x,-y,z
1/2+x,1/2+y,z
1/2-x,1/2+y,-z
1/2-x,1/2-y,-z
1/2+x,1/2-y,z
loop_
_atom_site_type_symbol
_atom_site_label
_atom_site_fract_x
_atom_site_fract_y
_atom_site_fract_z
Si Si1 0.614068 0.669383 0.270818
Si Si2 0.978343 0.832339 0.446571
Si Si3 0.024760 0.670397 0.727295
Si Si4 0.794844 0.168602 0.164552
Si Si5 0.955122 0.168623 0.165755
Si Si6 0.926550 0.827771 0.999492
Si Si7 0.342290 0.169617 0.449162
O O1 0.618992 0.500000 0.251812
O O2 0.564293 0.696461 0.359298
O O3 0.563926 0.750178 0.245930
O O4 0.712169 0.730719 0.225345
O O5 0.898150 0.729399 0.472280
O O6 0.000000 0.787847 0.500000
O O7 0.947253 0.000000 0.458937
O O8 0.003481 0.500000 0.743246
O O9 0.054563 0.729694 0.773133
O O10 0.106359 0.702968 0.639101
O O11 0.871615 0.195101 0.169621
O O12 0.764752 0.000000 0.181850
O O13 0.830281 0.214663 0.079602
O O14 0.048008 0.214229 0.081212
O O15 0.958632 0.000000 0.183608
O O16 0.936836 0.000000 0.999760
O O17 0.000000 0.752709 0.000000
O O18 0.250000 0.250000 0.500000
O O19 0.325459 0.000000 0.468041
#
# Coordination Sequence:
#
# PCOD8096950 Si02
#       7
#     8   8   8   8   8   8   8
#     4  10  20  34  52  73 100 133 167 203 245 296
#     4   9  19  36  55  74  99 131 164 202 250 297
#     4  10  21  36  52  72 101 134 166 203 248 293
#     4   9  17  31  52  76 102 131 164 204 248 294
#     4   9  17  31  53  78 101 129 167 206 245 293
#     4   7  12  26  48  72  98 129 163 200 244 291
#     4  10  21  36  54  75 100 131 166 204 245 292
#
# _framework density 17.67943
#
# number of rings (size 3 to 8) (size 9 to 14) (size 15 to 20)
#    0.000    2.857    0.000    3.000    0.000    4.286 
#    0.000    5.714    0.000    2.571    0.000    0.000 
#    0.000    0.000    0.000    0.000    0.000    0.000 
#
# Total GULP energy -347030.364184 kJ/mol
# GULP energy per Si atom -12393.941578 kJ/mol
# Density = 1.763919 g / cm^3
# Si number density = 17.679430 Si / 1000 Ang^3
#
#
#
# Elastic Constant Matrix: (Units=GPa)
#
#
# Indices 1 2 3 4 5 6 
#
# 1 89.8245 59.6630 69.6988 0.0001 -2.4149 -0.0001
# 2 59.6630 91.0341 61.3846 0.0003 -0.8855 0.0000
# 3 69.6988 61.3846 101.5070 0.0000 0.5363 0.0000
# 4 0.0001 0.0003 0.0000 27.1096 0.0000 -1.8391
# 5 -2.4149 -0.8855 0.5363 0.0000 23.2102 0.0001
# 6 -0.0001 0.0000 0.0000 -1.8391 0.0001 33.5164
#
#
#
# Elastic Compliance Matrix: (Units=1/GPa)
#
#
# Indices 1 2 3 4 5 6 
#
# 1 0.027754 -0.008952 -0.013659 0.000000 0.002862 0.000000
# 2 -0.008952 0.021458 -0.006830 0.000000 0.000045 0.000000
# 3 -0.013659 -0.006830 0.023372 0.000000 -0.002222 0.000000
# 4 0.000000 0.000000 0.000000 0.037025 0.000000 0.002032
# 5 0.002862 0.000045 -0.002222 0.000000 0.043435 0.000000
# 6 0.000000 0.000000 0.000000 0.002032 0.000000 0.029948
#
#
# Mechanical properties :
#
#
# Convention : Reuss Voigt Hill
#
# Bulk Modulus (GPa) = 72.97532 73.76204 73.36868
# Shear Modulus (GPa) = 20.28890 22.87517 21.58203
#
# Velocity S-wave (km/s) = 3.39130 3.60096 3.49770
# Velocity P-wave (km/s) = 7.53001 7.68777 7.60930
#
# Compressibility (1/GPa) = 0.01370326
#
# Stress axis : x y z
#
# Youngs Moduli (GPa) = 36.03057 46.60369 42.78622
#
# Poissons Ratio (x) = 0.41719 0.58441
# Poissons Ratio (y) = 0.32254 0.29221
# Poissons Ratio (z) = 0.49213 0.31828
#
# Static dielectric constant tensor:
#      x y z
#    x 3.119050 0.000000 -0.020190 
#    y 0.000000 3.179410 0.000000 
#    z -0.020190 0.000000 3.529620 
# 
# 
# High freq. dielectric constant tensor:
#      x y z
#    x 1.665170 0.000000 -0.002090 
#    y 0.000000 1.674720 0.000000 
#    z -0.002090 0.000000 1.694330 
# 
# From -- ./inp_files/319680.got.cif
#   From: 2010.06.25/outbox.cif.g09.slc.cpg/sg12_160_cif.got.tgz:319680.got - 2010.06.28 00:19:55.
