data_PCOD8096497
_publ_section_title
;
Structure prediction by ZEFSAII (Michael W. Deem and Ramdas Pophale) SiO2 
 PCOD8096497
Probable space group: C 2/M
;
_chemical_formula_sum "Si O2"
_cell_formula_units_Z 56
_cell_length_a 19.641874
_cell_length_b 9.013771
_cell_length_c 20.977002
_cell_angle_alpha 90.000000
_cell_angle_beta 125.133533
_cell_angle_gamma 90.000000
_cell_volume 3037.294451
_symmetry_space_group_name_H-M "C 2/M"
_symmetry_group_IT_number 12
_symmetry_cell_setting 'monoclinic'
loop_
_space_group_symop_operation_xyz
x,y,z
-x,y,-z
-x,-y,-z
x,-y,z
1/2+x,1/2+y,z
1/2-x,1/2+y,-z
1/2-x,1/2-y,-z
1/2+x,1/2-y,z
loop_
_atom_site_type_symbol
_atom_site_label
_atom_site_fract_x
_atom_site_fract_y
_atom_site_fract_z
Si Si1 0.395468 0.327678 0.726005
Si Si2 0.203774 0.327464 0.828093
Si Si3 0.435239 0.175992 0.148637
Si Si4 0.274266 0.823606 0.300538
Si Si5 0.092675 0.329183 0.526023
Si Si6 0.821528 0.173075 0.998937
Si Si7 0.337823 0.672008 0.553018
O O1 0.415889 0.500000 0.749679
O O2 0.472009 0.226306 0.787209
O O3 0.316580 0.273773 0.724778
O O4 0.377497 0.297584 0.642702
O O5 0.185720 0.500000 0.810299
O O6 0.127223 0.263681 0.829336
O O7 0.207489 0.254217 0.759735
O O8 0.294315 0.302808 0.910485
O O9 0.407724 0.247660 0.065634
O O10 0.430733 0.000000 0.139913
O O11 0.343865 0.764199 0.387021
O O12 0.278705 0.000000 0.300300
O O13 0.114501 0.500000 0.523098
O O14 0.099138 0.236918 0.464856
O O15 0.000000 0.309610 0.500000
O O16 0.827021 0.000000 0.018578
O O17 0.750000 0.250000 0.000000
O O18 0.323566 0.500000 0.532918
O O19 0.250000 0.750000 0.500000
#
# Coordination Sequence:
#
# PCOD8096497 Si02
#       7
#     8   8   8   8   8   8   8
#     4  10  21  36  54  76 106 142 176 220 271 321
#     4   8  16  30  53  80 102 134 176 221 261 307
#     4  10  20  33  54  82 107 136 179 222 266 321
#     4   9  17  34  53  75 108 138 176 223 265 314
#     4  10  21  36  58  84 110 145 186 227 275 326
#     4   9  16  30  52  79 109 139 177 219 268 317
#     4  11  22  38  58  80 110 146 187 227 275 330
#
# _framework density 18.437460999999999
#
# number of rings (size 3 to 8) (size 9 to 14) (size 15 to 20)
#    0.000    2.429    1.429    2.143    2.000    1.429 
#    0.000    0.714    0.000   11.143    0.000    0.000 
#    0.000    0.000    0.000    0.000    0.000    0.000 
#
# Total GULP energy -347093.094901 kJ/mol
# GULP energy per Si atom -12396.181961 kJ/mol
# Density = 1.839550 g / cm^3
# Si number density = 18.437461 Si / 1000 Ang^3
#
#
#
# Elastic Constant Matrix: (Units=GPa)
#
#
# Indices 1 2 3 4 5 6 
#
# 1 85.5167 22.8459 54.9085 0.0000 5.3060 0.0000
# 2 22.8459 57.2680 38.0728 0.0000 11.0448 0.0000
# 3 54.9085 38.0728 102.4002 0.0000 11.9600 0.0000
# 4 0.0000 0.0000 0.0000 29.6993 0.0000 3.9336
# 5 5.3060 11.0448 11.9600 0.0000 30.7398 0.0000
# 6 0.0000 0.0000 0.0000 3.9336 0.0000 23.8873
#
#
#
# Elastic Compliance Matrix: (Units=1/GPa)
#
#
# Indices 1 2 3 4 5 6 
#
# 1 0.017902 -0.001152 -0.009280 0.000000 0.000935 0.000000
# 2 -0.001152 0.024096 -0.007703 0.000000 -0.005462 0.000000
# 3 -0.009280 -0.007703 0.017909 0.000000 -0.002598 0.000000
# 4 0.000000 0.000000 0.000000 0.034422 0.000000 -0.005668
# 5 0.000935 -0.005462 -0.002598 0.000000 0.035343 0.000000
# 6 0.000000 0.000000 0.000000 -0.005668 0.000000 0.042797
#
#
# Mechanical properties :
#
#
# Convention : Reuss Voigt Hill
#
# Bulk Modulus (GPa) = 42.30804 52.98214 47.64509
# Shear Modulus (GPa) = 23.08205 25.48913 24.28559
#
# Velocity S-wave (km/s) = 3.54207 3.72218 3.63324
# Velocity P-wave (km/s) = 6.30278 6.87542 6.59532
#
# Compressibility (1/GPa) = 0.02363617
#
# Stress axis : x y z
#
# Youngs Moduli (GPa) = 55.85971 41.50058 55.83707
#
# Poissons Ratio (x) = 0.04782 0.51817
# Poissons Ratio (y) = 0.06437 0.43012
# Poissons Ratio (z) = 0.51838 0.31969
#
# Static dielectric constant tensor:
#      x y z
#    x 3.404440 0.000000 -0.189380 
#    y 0.000000 3.332070 0.000000 
#    z -0.189380 0.000000 3.775330 
# 
# 
# High freq. dielectric constant tensor:
#      x y z
#    x 1.701760 0.000000 0.002230 
#    y 0.000000 1.691160 0.000000 
#    z 0.002230 0.000000 1.730790 
# 
# From -- ./inp_files/319707.got.cif
#   From: 2010.06.25/outbox.cif.g09.slc.cpg/sg12_160_cif.got.tgz:319707.got - 2010.06.28 00:19:55.
