data_PCOD8096185
_publ_section_title
;
Structure prediction by ZEFSAII (Michael W. Deem and Ramdas Pophale) SiO2 
 PCOD8096185
Probable space group: C 2/M
;
_chemical_formula_sum "Si O2"
_cell_formula_units_Z 64
_cell_length_a 19.631813
_cell_length_b 9.203084
_cell_length_c 22.388224
_cell_angle_alpha 90.000000
_cell_angle_beta 64.296676
_cell_angle_gamma 90.000000
_cell_volume 3644.712080
_symmetry_space_group_name_H-M "C 2/M"
_symmetry_group_IT_number 12
_symmetry_cell_setting 'monoclinic'
loop_
_space_group_symop_operation_xyz
x,y,z
-x,y,-z
-x,-y,-z
x,-y,z
1/2+x,1/2+y,z
1/2-x,1/2+y,-z
1/2-x,1/2-y,-z
1/2+x,1/2-y,z
loop_
_atom_site_type_symbol
_atom_site_label
_atom_site_fract_x
_atom_site_fract_y
_atom_site_fract_z
Si Si1 0.153097 0.328967 0.806783
Si Si2 0.178685 0.170985 0.555108
Si Si3 0.019979 0.830472 0.558162
Si Si4 0.771372 0.166305 0.050543
Si Si5 0.888694 0.667902 0.311860
Si Si6 0.545198 0.168246 0.310108
Si Si7 0.577504 0.669441 0.940728
Si Si8 0.205457 0.329041 0.199325
O O1 0.158214 0.500000 0.816609
O O2 0.125315 0.292093 0.751124
O O3 0.092309 0.260382 0.875177
O O4 0.235484 0.258630 0.782785
O O5 0.250000 0.250000 0.500000
O O6 0.106777 0.206383 0.540577
O O7 0.164817 0.233133 0.626607
O O8 0.194305 0.000000 0.553609
O O9 0.000000 0.772235 0.500000
O O10 0.962994 0.753173 0.625021
O O11 0.003774 0.000000 0.569612
O O12 0.857343 0.200557 0.035918
O O13 0.716699 0.212591 0.125731
O O14 0.759916 0.000000 0.039072
O O15 0.750000 0.250000 0.000000
O O16 0.869608 0.500000 0.332731
O O17 0.976236 0.703016 0.291915
O O18 0.621612 0.219609 0.248938
O O19 0.548903 0.000000 0.325112
O O20 0.574989 0.500000 0.924035
O O21 0.500000 0.722471 0.000000
O O22 0.220670 0.500000 0.203141
#
# Coordination Sequence:
#
# PCOD8096185 Si02
#       8
#     8   8   8   8   8   8   8   8
#     4  10  20  33  52  77 102 130 165 207 250 291
#     4  10  20  34  53  75 100 132 167 204 248 296
#     4   9  19  35  52  72 100 130 160 200 248 291
#     4   9  18  32  50  72  99 130 163 201 244 290
#     4   9  19  35  52  73 102 132 165 206 249 293
#     4   9  18  34  54  73  96 129 167 203 240 288
#     4   9  19  36  54  72  99 134 168 204 248 297
#     4   9  19  35  52  72 101 134 165 201 247 296
#
# _framework density 17.559685999999999
#
# number of rings (size 3 to 8) (size 9 to 14) (size 15 to 20)
#    0.000    2.750    0.000    1.500    0.000    6.500 
#    0.000    5.000    0.000    0.000    0.000    0.000 
#    0.000    0.000    0.000    0.000    0.000    0.000 
#
# Total GULP energy -396850.186194 kJ/mol
# GULP energy per Si atom -12401.568319 kJ/mol
# Density = 1.751972 g / cm^3
# Si number density = 17.559686 Si / 1000 Ang^3
#
#
#
# Elastic Constant Matrix: (Units=GPa)
#
#
# Indices 1 2 3 4 5 6 
#
# 1 103.9308 53.7625 101.0357 -0.0001 -2.9775 -0.0002
# 2 53.7625 68.0633 66.6342 -0.0004 0.7165 -0.0007
# 3 101.0357 66.6342 152.2152 0.0000 -5.5278 -0.0001
# 4 -0.0001 -0.0004 0.0000 35.2693 0.0000 2.9434
# 5 -2.9775 0.7165 -5.5278 0.0000 42.5125 -0.0001
# 6 -0.0002 -0.0007 -0.0001 2.9434 -0.0001 25.6224
#
#
#
# Elastic Compliance Matrix: (Units=1/GPa)
#
#
# Indices 1 2 3 4 5 6 
#
# 1 0.028961 -0.007103 -0.016112 0.000000 0.000053 0.000000
# 2 -0.007103 0.027608 -0.007441 0.000000 -0.001930 0.000001
# 3 -0.016112 -0.007441 0.020583 0.000000 0.001673 0.000000
# 4 0.000000 0.000000 0.000000 0.028628 0.000000 -0.003289
# 5 0.000053 -0.001930 0.001673 0.000000 0.023776 0.000000
# 6 0.000000 0.000001 0.000000 -0.003289 0.000000 0.039406
#
#
# Mechanical properties :
#
#
# Convention : Reuss Voigt Hill
#
# Bulk Modulus (GPa) = 63.13423 85.23045 74.18234
# Shear Modulus (GPa) = 21.22669 27.53263 24.37966
#
# Velocity S-wave (km/s) = 3.48060 3.96402 3.73015
# Velocity P-wave (km/s) = 7.22391 8.34232 7.80318
#
# Compressibility (1/GPa) = 0.01583927
#
# Stress axis : x y z
#
# Youngs Moduli (GPa) = 34.52978 36.22157 48.58491
#
# Poissons Ratio (x) = 0.25727 0.78280
# Poissons Ratio (y) = 0.24525 0.36154
# Poissons Ratio (z) = 0.55634 0.26954
#
# Static dielectric constant tensor:
#      x y z
#    x 3.205750 0.000000 -0.013380 
#    y 0.000000 3.255940 0.000000 
#    z -0.013380 0.000000 3.319440 
# 
# 
# High freq. dielectric constant tensor:
#      x y z
#    x 1.678190 0.000000 -0.002350 
#    y 0.000000 1.678880 0.000000 
#    z -0.002350 0.000000 1.683270 
# 
# From -- ./inp_files/319979.got.cif
#   From: 2010.06.25/outbox.cif.g09.slc.cpg/sg12_160_cif.got.tgz:319979.got - 2010.06.28 00:19:55.
