data_PCOD8096752
_publ_section_title
;
Structure prediction by ZEFSAII (Michael W. Deem and Ramdas Pophale) SiO2 
 PCOD8096752
Probable space group: C 2/M
;
_chemical_formula_sum "Si O2"
_cell_formula_units_Z 64
_cell_length_a 33.423351
_cell_length_b 8.907463
_cell_length_c 18.254494
_cell_angle_alpha 90.000000
_cell_angle_beta 140.193141
_cell_angle_gamma 90.000000
_cell_volume 3479.289906
_symmetry_space_group_name_H-M "C 2/M"
_symmetry_group_IT_number 12
_symmetry_cell_setting 'monoclinic'
loop_
_space_group_symop_operation_xyz
x,y,z
-x,y,-z
-x,-y,-z
x,-y,z
1/2+x,1/2+y,z
1/2-x,1/2+y,-z
1/2-x,1/2-y,-z
1/2+x,1/2-y,z
loop_
_atom_site_type_symbol
_atom_site_label
_atom_site_fract_x
_atom_site_fract_y
_atom_site_fract_z
Si Si1 0.500997 0.323111 0.819553
Si Si2 0.771590 0.170856 0.603041
Si Si3 0.636851 0.176638 0.632491
Si Si4 0.104899 0.324403 0.047459
Si Si5 0.915397 0.169799 0.834006
Si Si6 0.024656 0.323254 0.366918
Si Si7 0.057344 0.168884 0.635712
Si Si8 0.253015 0.823176 0.725826
O O1 0.502317 0.500000 0.807933
O O2 0.459464 0.275757 0.830602
O O3 0.469772 0.244618 0.705889
O O4 0.570965 0.261821 0.932990
O O5 0.750000 0.250000 0.500000
O O6 0.845606 0.181259 0.707060
O O7 0.741443 0.255184 0.629452
O O8 0.747681 0.000000 0.571089
O O9 0.587905 0.218200 0.499445
O O10 0.613851 0.240338 0.678084
O O11 0.703271 0.252432 0.710889
O O12 0.645561 0.000000 0.651950
O O13 0.094631 0.500000 0.022860
O O14 0.074110 0.274670 0.081083
O O15 0.177979 0.280809 0.148159
O O16 0.931666 0.000000 0.881014
O O17 0.014624 0.500000 0.349147
O O18 0.963837 0.252019 0.320149
O O19 0.000000 0.166551 0.500000
O O20 0.079249 0.000000 0.685416
O O21 0.243370 0.000000 0.707572
#
# Coordination Sequence:
#
# PCOD8096752 Si02
#       8
#     8   8   8   8   8   8   8   8
#     4  11  22  35  54  78 105 140 178 221 267 317
#     4  10  20  34  50  72 104 141 176 217 267 316
#     4  10  20  34  55  83 111 141 175 216 261 313
#     4  10  21  37  55  76 102 137 180 226 269 310
#     4   9  20  36  52  73 101 137 179 221 265 315
#     4  10  21  35  52  80 113 141 172 216 265 313
#     4   9  17  32  54  79 108 143 175 209 256 315
#     4  10  21  36  54  76 103 139 180 220 262 315
#
# _framework density 18.394558
#
# number of rings (size 3 to 8) (size 9 to 14) (size 15 to 20)
#    0.000    2.125    0.000    3.000    1.750    7.500 
#    0.000    0.000    0.000    0.750    0.000    0.000 
#    0.000    0.000    0.000    0.000    0.000    0.000 
#
# Total GULP energy -396900.451134 kJ/mol
# GULP energy per Si atom -12403.139098 kJ/mol
# Density = 1.835269 g / cm^3
# Si number density = 18.394558 Si / 1000 Ang^3
#
#
#
# Elastic Constant Matrix: (Units=GPa)
#
#
# Indices 1 2 3 4 5 6 
#
# 1 108.7719 42.7771 21.7570 0.0000 9.5620 0.0000
# 2 42.7771 98.5120 27.7395 0.0000 3.0726 0.0000
# 3 21.7570 27.7395 47.0151 0.0000 -1.1694 0.0000
# 4 0.0000 0.0000 0.0000 27.9414 0.0000 -5.5757
# 5 9.5620 3.0726 -1.1694 0.0000 10.1104 0.0000
# 6 0.0000 0.0000 0.0000 -5.5757 0.0000 35.5662
#
#
#
# Elastic Compliance Matrix: (Units=1/GPa)
#
#
# Indices 1 2 3 4 5 6 
#
# 1 0.012485 -0.004047 -0.003664 0.000000 -0.011002 0.000000
# 2 -0.004047 0.013697 -0.006235 0.000000 -0.001057 0.000000
# 3 -0.003664 -0.006235 0.026854 0.000000 0.008466 0.000000
# 4 0.000000 0.000000 0.000000 0.036945 0.000000 0.005792
# 5 -0.011002 -0.001057 0.008466 0.000000 0.110614 0.000000
# 6 0.000000 0.000000 0.000000 0.005792 0.000000 0.029025
#
#
# Mechanical properties :
#
#
# Convention : Reuss Voigt Hill
#
# Bulk Modulus (GPa) = 39.76817 48.76069 44.26443
# Shear Modulus (GPa) = 18.80464 25.52529 22.16497
#
# Velocity S-wave (km/s) = 3.20080 3.72916 3.47504
# Velocity P-wave (km/s) = 5.94362 6.71625 6.34171
#
# Compressibility (1/GPa) = 0.02514574
#
# Stress axis : x y z
#
# Youngs Moduli (GPa) = 80.09666 73.00967 37.23773
#
# Poissons Ratio (x) = 0.29544 0.13643
# Poissons Ratio (y) = 0.32412 0.23218
# Poissons Ratio (z) = 0.29345 0.45521
#
# Static dielectric constant tensor:
#      x y z
#    x 3.525230 0.000000 0.089860 
#    y 0.000000 3.533410 0.000000 
#    z 0.089860 0.000000 3.248340 
# 
# 
# High freq. dielectric constant tensor:
#      x y z
#    x 1.711790 0.000000 0.003100 
#    y 0.000000 1.728720 0.000000 
#    z 0.003100 0.000000 1.693170 
# 
# From -- ./inp_files/249899.got.cif
#   From: 2010.06.25/outbox.cif.g09.slc.cpg/sg12_125_cif.got.tgz:249899.got - 2010.06.28 00:19:55.
