data_PCOD8096872
_publ_section_title
;
Structure prediction by ZEFSAII (Michael W. Deem and Ramdas Pophale) SiO2 
 PCOD8096872
Probable space group: C 2/M
;
_chemical_formula_sum "Si O2"
_cell_formula_units_Z 56
_cell_length_a 21.136465
_cell_length_b 9.800701
_cell_length_c 24.468578
_cell_angle_alpha 90.000000
_cell_angle_beta 140.991808
_cell_angle_gamma 90.000000
_cell_volume 3190.411473
_symmetry_space_group_name_H-M "C 2/M"
_symmetry_group_IT_number 12
_symmetry_cell_setting 'monoclinic'
loop_
_space_group_symop_operation_xyz
x,y,z
-x,y,-z
-x,-y,-z
x,-y,z
1/2+x,1/2+y,z
1/2-x,1/2+y,-z
1/2-x,1/2-y,-z
1/2+x,1/2-y,z
loop_
_atom_site_type_symbol
_atom_site_label
_atom_site_fract_x
_atom_site_fract_y
_atom_site_fract_z
Si Si1 0.948327 0.340637 0.784287
Si Si2 0.886019 0.349130 0.625716
Si Si3 0.889115 0.161138 0.423596
Si Si4 0.291173 0.837272 0.766522
Si Si5 0.654688 0.649522 0.487224
Si Si6 0.610455 0.838123 0.058222
Si Si7 0.333234 0.839267 0.025099
O O1 0.924547 0.500000 0.765418
O O2 0.921409 0.280659 0.706477
O O3 0.877444 0.277600 0.784011
O O4 0.063579 0.310206 0.874238
O O5 0.934431 0.500000 0.650106
O O6 0.766714 0.362292 0.540479
O O7 0.916628 0.248160 0.596900
O O8 0.818039 0.217582 0.326892
O O9 0.836889 0.202398 0.445217
O O10 0.000000 0.227919 0.500000
O O11 0.897709 0.000000 0.421816
O O12 0.312347 0.788478 0.842725
O O13 0.295651 0.000000 0.767325
O O14 0.602721 0.500000 0.450934
O O15 0.601798 0.000000 0.049155
O O16 0.500000 0.779807 0.000000
O O17 0.652029 0.786838 0.027559
O O18 0.304662 0.000000 0.007897
O O19 0.250000 0.750000 0.000000
#
# Coordination Sequence:
#
# PCOD8096872 Si02
#       7
#     8   8   8   8   8   8   8
#     4   9  15  27  48  68  89 123 164 198 231 282
#     4   9  16  27  45  66  86 117 158 191 221 267
#     4   9  16  26  40  61  93 126 152 187 243 292
#     4   9  14  24  44  68  90 117 160 207 237 271
#     4   9  16  27  43  65  92 118 148 190 233 271
#     4   9  15  26  48  75  95 116 159 211 244 274
#     4  10  20  34  51  74 103 130 157 198 251 299
#
# _framework density 17.552596000000001
#
# number of rings (size 3 to 8) (size 9 to 14) (size 15 to 20)
#    0.000    2.857    2.857    0.000    0.000    0.000 
#    2.571    0.714    0.000    0.857    0.000    1.000 
#    0.000    0.000    0.000    0.000    0.000    0.000 
#
# Total GULP energy -346900.155448 kJ/mol
# GULP energy per Si atom -12389.291266 kJ/mol
# Density = 1.751265 g / cm^3
# Si number density = 17.552596 Si / 1000 Ang^3
#
#
#
# Elastic Constant Matrix: (Units=GPa)
#
#
# Indices 1 2 3 4 5 6 
#
# 1 88.2678 27.0134 59.7841 0.0000 -9.2796 0.0000
# 2 27.0134 30.7743 29.4149 0.0000 -8.7552 -0.0001
# 3 59.7841 29.4149 141.2352 0.0000 -21.8724 0.0000
# 4 0.0000 0.0000 0.0000 14.8608 0.0000 -1.6347
# 5 -9.2796 -8.7552 -21.8724 0.0000 35.5224 0.0000
# 6 0.0000 -0.0001 0.0000 -1.6347 0.0000 17.2309
#
#
#
# Elastic Compliance Matrix: (Units=1/GPa)
#
#
# Indices 1 2 3 4 5 6 
#
# 1 0.018462 -0.011154 -0.005716 0.000000 -0.001446 0.000000
# 2 -0.011154 0.048234 -0.004349 0.000000 0.006296 0.000000
# 3 -0.005716 -0.004349 0.011063 0.000000 0.004247 0.000000
# 4 0.000000 0.000000 0.000000 0.068001 0.000000 0.006451
# 5 -0.001446 0.006296 0.004247 0.000000 0.031941 0.000000
# 6 0.000000 0.000000 0.000000 0.006451 0.000000 0.058647
#
#
# Mechanical properties :
#
#
# Convention : Reuss Voigt Hill
#
# Bulk Modulus (GPa) = 28.31120 54.74468 41.52794
# Shear Modulus (GPa) = 17.20821 23.12715 20.16768
#
# Velocity S-wave (km/s) = 3.13450 3.63380 3.39335
# Velocity P-wave (km/s) = 5.40966 6.99018 6.25009
#
# Compressibility (1/GPa) = 0.03532171
#
# Stress axis : x y z
#
# Youngs Moduli (GPa) = 54.16543 20.73238 90.38866
#
# Poissons Ratio (x) = 0.23124 0.51664
# Poissons Ratio (y) = 0.60415 0.39311
# Poissons Ratio (z) = 0.30960 0.09017
#
# Static dielectric constant tensor:
#      x y z
#    x 3.224070 0.000000 -0.206270 
#    y 0.000000 2.879490 0.000000 
#    z -0.206270 0.000000 3.536240 
# 
# 
# High freq. dielectric constant tensor:
#      x y z
#    x 1.668160 0.000000 -0.016840 
#    y 0.000000 1.604420 0.000000 
#    z -0.016840 0.000000 1.690960 
# 
# From -- ./inp_files/342983.got.cif
#   From: 2010.06.25/outbox.cif.g09.slc.cpg/sg12_172_cif.got.tgz:342983.got - 2010.06.28 00:19:55.
