data_PCOD8096204
_publ_section_title
;
Structure prediction by ZEFSAII (Michael W. Deem and Ramdas Pophale) SiO2 
 PCOD8096204
Probable space group: C 2/M
;
_chemical_formula_sum "Si O2"
_cell_formula_units_Z 64
_cell_length_a 14.088008
_cell_length_b 9.393319
_cell_length_c 29.019907
_cell_angle_alpha 90.000000
_cell_angle_beta 75.236985
_cell_angle_gamma 90.000000
_cell_volume 3713.520262
_symmetry_space_group_name_H-M "C 2/M"
_symmetry_group_IT_number 12
_symmetry_cell_setting 'monoclinic'
loop_
_space_group_symop_operation_xyz
x,y,z
-x,y,-z
-x,-y,-z
x,-y,z
1/2+x,1/2+y,z
1/2-x,1/2+y,-z
1/2-x,1/2-y,-z
1/2+x,1/2-y,z
loop_
_atom_site_type_symbol
_atom_site_label
_atom_site_fract_x
_atom_site_fract_y
_atom_site_fract_z
Si Si1 0.519061 0.335174 0.254940
Si Si2 0.039524 0.831587 0.924758
Si Si3 0.652450 0.331724 0.000022
Si Si4 0.211307 0.664376 0.254385
Si Si5 0.396958 0.664669 0.491439
Si Si6 0.176223 0.838513 0.666471
Si Si7 0.403995 0.330156 0.181509
Si Si8 0.704611 0.165598 0.572565
O O1 0.547181 0.500000 0.248137
O O2 0.613275 0.250835 0.259195
O O3 0.434015 0.310480 0.302782
O O4 0.482832 0.277628 0.209604
O O5 0.067415 0.764729 0.871773
O O6 0.930580 0.783742 0.953120
O O7 0.041558 0.000000 0.921238
O O8 0.118407 0.783472 0.953250
O O9 0.670742 0.500000 0.999970
O O10 0.750000 0.250000 0.000000
O O11 0.188769 0.500000 0.247495
O O12 0.247522 0.687377 0.301847
O O13 0.294934 0.721343 0.208869
O O14 0.500000 0.714604 0.500000
O O15 0.400639 0.500000 0.476059
O O16 0.376910 0.757053 0.448512
O O17 0.313120 0.692716 0.539488
O O18 0.202655 0.727746 0.623769
O O19 0.185980 0.000000 0.646761
O O20 0.404374 0.500000 0.181612
O O21 0.678076 0.000000 0.577470
#
# Coordination Sequence:
#
# PCOD8096204 Si02
#       8
#     8   8   8   8   8   8   8   8
#     4   9  18  32  50  70  92 122 158 193 233 281
#     4   8  15  29  47  65  90 126 161 188 226 289
#     4   9  17  29  46  68  92 121 157 195 235 280
#     4   9  18  32  50  71  94 122 157 196 236 277
#     4   9  19  36  54  72  99 132 160 189 232 284
#     4   9  19  35  50  66  95 131 158 185 231 287
#     4   8  15  30  49  67  91 125 160 191 230 285
#     4  10  20  33  52  77  99 123 160 201 234 268
#
# _framework density 17.23432
#
# number of rings (size 3 to 8) (size 9 to 14) (size 15 to 20)
#    0.000    3.125    0.000    2.625    0.000    3.750 
#    0.000    6.875    0.000    1.500    0.000    0.000 
#    0.000    0.000    0.000    0.000    0.000    0.000 
#
# Total GULP energy -396732.126985 kJ/mol
# GULP energy per Si atom -12397.878968 kJ/mol
# Density = 1.719509 g / cm^3
# Si number density = 17.234320 Si / 1000 Ang^3
#
#
#
# Elastic Constant Matrix: (Units=GPa)
#
#
# Indices 1 2 3 4 5 6 
#
# 1 149.1564 55.4660 50.8556 0.0000 7.2113 0.0000
# 2 55.4660 59.1146 45.9749 0.0000 2.9271 0.0000
# 3 50.8556 45.9749 118.4542 0.0000 2.7209 0.0000
# 4 0.0000 0.0000 0.0000 19.5046 0.0000 1.0437
# 5 7.2113 2.9271 2.7209 0.0000 11.6671 0.0000
# 6 0.0000 0.0000 0.0000 1.0437 0.0000 33.0443
#
#
#
# Elastic Compliance Matrix: (Units=1/GPa)
#
#
# Indices 1 2 3 4 5 6 
#
# 1 0.010560 -0.008958 -0.000964 0.000000 -0.004055 0.000000
# 2 -0.008958 0.032008 -0.008566 0.000000 -0.000496 0.000000
# 3 -0.000964 -0.008566 0.012183 0.000000 -0.000096 0.000000
# 4 0.000000 0.000000 0.000000 0.051357 0.000000 -0.001622
# 5 -0.004055 -0.000496 -0.000096 0.000000 0.088364 0.000000
# 6 0.000000 0.000000 0.000000 -0.001622 0.000000 0.030314
#
#
# Mechanical properties :
#
#
# Convention : Reuss Voigt Hill
#
# Bulk Modulus (GPa) = 56.25715 70.14649 63.20182
# Shear Modulus (GPa) = 18.67867 24.47178 21.57522
#
# Velocity S-wave (km/s) = 3.29569 3.77230 3.54202
# Velocity P-wave (km/s) = 6.86990 7.73070 7.31297
#
# Compressibility (1/GPa) = 0.01777552
#
# Stress axis : x y z
#
# Youngs Moduli (GPa) = 94.69492 31.24248 82.08427
#
# Poissons Ratio (x) = 0.27987 0.07911
# Poissons Ratio (y) = 0.84829 0.70310
# Poissons Ratio (z) = 0.09127 0.26761
#
# Static dielectric constant tensor:
#      x y z
#    x 3.169370 0.000000 -0.007570 
#    y 0.000000 2.936400 0.000000 
#    z -0.007570 0.000000 3.483710 
# 
# 
# High freq. dielectric constant tensor:
#      x y z
#    x 1.668520 0.000000 0.001270 
#    y 0.000000 1.638950 0.000000 
#    z 0.001270 0.000000 1.670770 
# 
# From -- ./inp_files/374802.got.cif
#   From: 2010.06.25/outbox.cif.g09.slc.cpg/sg12_188_cif.got.tgz:374802.got - 2010.06.28 00:19:55.
