data_PCOD8096175
_publ_section_title
;
Structure prediction by ZEFSAII (Michael W. Deem and Ramdas Pophale) SiO2 
 PCOD8096175
Probable space group: C 2/M
;
_chemical_formula_sum "Si O2"
_cell_formula_units_Z 64
_cell_length_a 22.212677
_cell_length_b 9.031023
_cell_length_c 23.579181
_cell_angle_alpha 90.000000
_cell_angle_beta 133.570546
_cell_angle_gamma 90.000000
_cell_volume 3427.052106
_symmetry_space_group_name_H-M "C 2/M"
_symmetry_group_IT_number 12
_symmetry_cell_setting 'monoclinic'
loop_
_space_group_symop_operation_xyz
x,y,z
-x,y,-z
-x,-y,-z
x,-y,z
1/2+x,1/2+y,z
1/2-x,1/2+y,-z
1/2-x,1/2-y,-z
1/2+x,1/2-y,z
loop_
_atom_site_type_symbol
_atom_site_label
_atom_site_fract_x
_atom_site_fract_y
_atom_site_fract_z
Si Si1 0.407399 0.173891 0.459435
Si Si2 0.938829 0.664278 0.011565
Si Si3 0.715773 0.673181 0.535079
Si Si4 0.763291 0.331112 0.853555
Si Si5 0.150374 0.329742 0.281721
Si Si6 0.768972 0.672625 0.278742
Si Si7 0.510271 0.674440 0.846812
Si Si8 0.815551 0.166954 0.080329
O O1 0.500000 0.228165 0.500000
O O2 0.367765 0.255039 0.489860
O O3 0.350754 0.210140 0.368253
O O4 0.409091 0.000000 0.475201
O O5 0.922075 0.500000 0.027223
O O6 0.983848 0.772501 0.084627
O O7 0.851747 0.731898 0.932790
O O8 0.000000 0.647426 0.000000
O O9 0.696912 0.500000 0.511181
O O10 0.750000 0.750000 0.500000
O O11 0.791755 0.694917 0.626898
O O12 0.773597 0.500000 0.838503
O O13 0.720855 0.230391 0.778255
O O14 0.699176 0.319993 0.862925
O O15 0.135220 0.500000 0.258029
O O16 0.189382 0.255558 0.251705
O O17 0.063051 0.251122 0.236142
O O18 0.750212 0.500000 0.266757
O O19 0.496399 0.500000 0.835846
O O20 0.593124 0.731103 0.869944
O O21 0.811873 0.000000 0.056038
O O22 0.750000 0.250000 0.000000
#
# Coordination Sequence:
#
# PCOD8096175 Si02
#       8
#     8   8   8   8   8   8   8   8
#     4   9  19  38  62  87 121 157 190 233 285 344
#     4  10  20  33  52  76 102 138 181 221 270 327
#     4  10  21  38  62  90 119 153 193 237 287 344
#     4  10  20  35  53  75 109 147 182 222 273 331
#     4  10  21  38  59  82 111 148 184 222 276 336
#     4  10  20  35  58  86 112 143 182 229 278 322
#     4  11  22  35  54  80 108 138 182 232 275 319
#     4  10  21  37  55  75 104 146 186 226 276 325
#
# _framework density 18.674942000000001
#
# number of rings (size 3 to 8) (size 9 to 14) (size 15 to 20)
#    0.000    2.000    1.250    2.250    0.000    5.000 
#    2.250    0.000    0.000    0.000    0.000    0.000 
#    0.000    0.000    0.000    0.000    0.000    0.000 
#
# Total GULP energy -396726.919821 kJ/mol
# GULP energy per Si atom -12397.716244 kJ/mol
# Density = 1.863244 g / cm^3
# Si number density = 18.674942 Si / 1000 Ang^3
#
#
#
# Elastic Constant Matrix: (Units=GPa)
#
#
# Indices 1 2 3 4 5 6 
#
# 1 126.0543 52.9364 47.7516 0.0000 15.0514 0.0000
# 2 52.9364 94.1757 45.0354 0.0000 4.5033 0.0000
# 3 47.7516 45.0354 75.3084 0.0000 10.6861 0.0000
# 4 0.0000 0.0000 0.0000 36.7290 0.0000 -6.8881
# 5 15.0514 4.5033 10.6861 0.0000 33.5834 0.0000
# 6 0.0000 0.0000 0.0000 -6.8881 0.0000 37.9331
#
#
#
# Elastic Compliance Matrix: (Units=1/GPa)
#
#
# Indices 1 2 3 4 5 6 
#
# 1 0.011844 -0.004387 -0.004416 0.000000 -0.003315 0.000000
# 2 -0.004387 0.016521 -0.007396 0.000000 0.002104 0.000000
# 3 -0.004416 -0.007396 0.021030 0.000000 -0.003721 0.000000
# 4 0.000000 0.000000 0.000000 0.028186 0.000000 0.005118
# 5 -0.003315 0.002104 -0.003721 0.000000 0.032164 0.000000
# 6 0.000000 0.000000 0.000000 0.005118 0.000000 0.027292
#
#
# Mechanical properties :
#
#
# Convention : Reuss Voigt Hill
#
# Bulk Modulus (GPa) = 58.83952 65.22060 62.03006
# Shear Modulus (GPa) = 28.55475 31.63676 30.09576
#
# Velocity S-wave (km/s) = 3.91454 4.12038 4.01878
# Velocity P-wave (km/s) = 7.21159 7.59188 7.40418
#
# Compressibility (1/GPa) = 0.01699538
#
# Stress axis : x y z
#
# Youngs Moduli (GPa) = 84.42893 60.52910 47.55099
#
# Poissons Ratio (x) = 0.26556 0.20999
# Poissons Ratio (y) = 0.37042 0.35171
# Poissons Ratio (z) = 0.37285 0.44770
#
# Static dielectric constant tensor:
#      x y z
#    x 3.620880 0.000000 0.097760 
#    y 0.000000 3.555940 0.000000 
#    z 0.097760 0.000000 3.355200 
# 
# 
# High freq. dielectric constant tensor:
#      x y z
#    x 1.731150 0.000000 0.005760 
#    y 0.000000 1.727800 0.000000 
#    z 0.005760 0.000000 1.718380 
# 
# From -- ./inp_files/345979.got.cif
#   From: 2010.06.25/outbox.cif.g09.slc.cpg/sg12_173_cif.got.tgz:345979.got - 2010.06.28 00:19:55.
