data_PCOD8096706
_publ_section_title
;
Structure prediction by ZEFSAII (Michael W. Deem and Ramdas Pophale) SiO2 
 PCOD8096706
Probable space group: C 2/M
;
_chemical_formula_sum "Si O2"
_cell_formula_units_Z 56
_cell_length_a 15.773868
_cell_length_b 17.553782
_cell_length_c 13.891837
_cell_angle_alpha 90.000000
_cell_angle_beta 63.863589
_cell_angle_gamma 90.000000
_cell_volume 3453.209597
_symmetry_space_group_name_H-M "C 2/M"
_symmetry_group_IT_number 12
_symmetry_cell_setting 'monoclinic'
loop_
_space_group_symop_operation_xyz
x,y,z
-x,y,-z
-x,-y,-z
x,-y,z
1/2+x,1/2+y,z
1/2-x,1/2+y,-z
1/2-x,1/2-y,-z
1/2+x,1/2-y,z
loop_
_atom_site_type_symbol
_atom_site_label
_atom_site_fract_x
_atom_site_fract_y
_atom_site_fract_z
Si Si1 0.044561 0.409981 0.123821
Si Si2 0.993888 0.816828 0.614318
Si Si3 0.294304 0.333788 0.488898
Si Si4 0.817673 0.910060 0.680292
Si Si5 0.042429 0.652072 0.330840
Si Si6 0.860163 0.589930 0.112649
Si Si7 0.368111 0.910698 0.528816
O O1 0.043979 0.500000 0.128062
O O2 0.074203 0.381281 0.213384
O O3 0.940767 0.378877 0.145293
O O4 0.120342 0.380601 0.005922
O O5 0.922297 0.887509 0.664998
O O6 0.954226 0.742570 0.687097
O O7 0.000000 0.793590 0.500000
O O8 0.097637 0.837456 0.602032
O O9 0.250000 0.250000 0.500000
O O10 0.289215 0.361879 0.601119
O O11 0.237999 0.392866 0.450345
O O12 0.743424 0.885830 0.799900
O O13 0.815532 0.000000 0.658324
O O14 0.116921 0.625889 0.374041
O O15 0.938068 0.625150 0.414409
O O16 0.869430 0.500000 0.107912
O O17 0.387017 0.000000 0.525117
#
# Coordination Sequence:
#
# PCOD8096706 Si02
#       7
#     8   8   8   8   8   8   8
#     4   9  16  28  49  74 102 128 158 203 250 292
#     4  10  20  34  49  67  99 135 162 197 246 291
#     4  11  20  33  48  70 100 131 161 195 246 294
#     4  10  20  34  53  73  96 129 171 210 242 286
#     4  11  18  32  45  71 102 131 158 190 250 297
#     4   8  16  30  48  75  99 122 161 208 251 284
#     4  11  20  29  47  72  99 127 163 195 231 297
#
# _framework density 16.216798000000001
#
# number of rings (size 3 to 8) (size 9 to 14) (size 15 to 20)
#    0.000    2.000    2.857    4.714    0.000    4.286 
#    0.000    0.714    0.000    0.000    0.000    0.000 
#    0.000    4.571    0.000    0.000    0.000    0.000 
#
# Total GULP energy -347114.034631 kJ/mol
# GULP energy per Si atom -12396.929808 kJ/mol
# Density = 1.617989 g / cm^3
# Si number density = 16.216798 Si / 1000 Ang^3
#
#
#
# Elastic Constant Matrix: (Units=GPa)
#
#
# Indices 1 2 3 4 5 6 
#
# 1 110.3678 27.9859 50.8304 0.0000 -9.7072 0.0000
# 2 27.9859 66.7410 32.1752 0.0000 -6.4653 0.0000
# 3 50.8304 32.1752 105.9278 0.0000 2.2321 0.0000
# 4 0.0000 0.0000 0.0000 11.1944 0.0000 -1.1056
# 5 -9.7072 -6.4653 2.2321 0.0000 22.1829 0.0000
# 6 0.0000 0.0000 0.0000 -1.1056 0.0000 26.6559
#
#
#
# Elastic Compliance Matrix: (Units=1/GPa)
#
#
# Indices 1 2 3 4 5 6 
#
# 1 0.012622 -0.002094 -0.005536 0.000000 0.005470 0.000000
# 2 -0.002094 0.018641 -0.004763 0.000000 0.004996 0.000000
# 3 -0.005536 -0.004763 0.013653 0.000000 -0.005185 0.000000
# 4 0.000000 0.000000 0.000000 0.089698 0.000000 0.003721
# 5 0.005470 0.004996 -0.005185 0.000000 0.049451 0.000000
# 6 0.000000 0.000000 0.000000 0.003721 0.000000 0.037669
#
#
# Mechanical properties :
#
#
# Convention : Reuss Voigt Hill
#
# Bulk Modulus (GPa) = 49.67489 56.11328 52.89409
# Shear Modulus (GPa) = 19.74478 23.47633 21.61055
#
# Velocity S-wave (km/s) = 3.49313 3.80893 3.65444
# Velocity P-wave (km/s) = 6.85328 7.34990 7.10593
#
# Compressibility (1/GPa) = 0.02013089
#
# Stress axis : x y z
#
# Youngs Moduli (GPa) = 79.22402 53.64411 73.24455
#
# Poissons Ratio (x) = 0.11233 0.40550
# Poissons Ratio (y) = 0.16589 0.34884
# Poissons Ratio (z) = 0.43860 0.25549
#
# Static dielectric constant tensor:
#      x y z
#    x 3.198660 0.000000 -0.082730 
#    y 0.000000 2.955470 0.000000 
#    z -0.082730 0.000000 3.089870 
# 
# 
# High freq. dielectric constant tensor:
#      x y z
#    x 1.622210 0.000000 -0.002510 
#    y 0.000000 1.612620 0.000000 
#    z -0.002510 0.000000 1.603370 
# 
# From -- ./inp_files/215846.got.cif
#   From: 2010.06.25/outbox.cif.g09.slc.cpg/sg12_108_cif.got.tgz:215846.got - 2010.06.28 00:19:55.
