data_PCOD8096986
_publ_section_title
;
Structure prediction by ZEFSAII (Michael W. Deem and Ramdas Pophale) SiO2 
 PCOD8096986
Probable space group: C 2/M
;
_chemical_formula_sum "Si O2"
_cell_formula_units_Z 56
_cell_length_a 19.922658
_cell_length_b 9.259744
_cell_length_c 30.399993
_cell_angle_alpha 90.000000
_cell_angle_beta 35.025123
_cell_angle_gamma 90.000000
_cell_volume 3218.717630
_symmetry_space_group_name_H-M "C 2/M"
_symmetry_group_IT_number 12
_symmetry_cell_setting 'monoclinic'
loop_
_space_group_symop_operation_xyz
x,y,z
-x,y,-z
-x,-y,-z
x,-y,z
1/2+x,1/2+y,z
1/2-x,1/2+y,-z
1/2-x,1/2-y,-z
1/2+x,1/2-y,z
loop_
_atom_site_type_symbol
_atom_site_label
_atom_site_fract_x
_atom_site_fract_y
_atom_site_fract_z
Si Si1 0.242339 0.830139 0.549860
Si Si2 0.524907 0.332743 0.725755
Si Si3 0.606217 0.168820 0.852256
Si Si4 0.761873 0.168407 0.850918
Si Si5 0.419208 0.337088 0.000833
Si Si6 0.871856 0.832691 0.552913
Si Si7 0.345894 0.166972 0.271767
O O1 0.250000 0.750000 0.500000
O O2 0.116281 0.793817 0.638377
O O3 0.343659 0.767460 0.526545
O O4 0.261760 0.000000 0.532952
O O5 0.530816 0.500000 0.734477
O O6 0.397544 0.287368 0.776693
O O7 0.554559 0.249828 0.754635
O O8 0.706649 0.209988 0.833431
O O9 0.486374 0.254731 0.925749
O O10 0.653116 0.216315 0.779433
O O11 0.576662 0.000000 0.870546
O O12 0.744115 0.000000 0.870448
O O13 0.701140 0.255829 0.923131
O O14 0.391021 0.500000 0.000863
O O15 0.500000 0.334453 0.000000
O O16 0.782721 0.798989 0.640438
O O17 0.000000 0.790023 0.500000
O O18 0.864816 0.000000 0.542200
O O19 0.376933 0.000000 0.259471
#
# Coordination Sequence:
#
# PCOD8096986 Si02
#       7
#     8   8   8   8   8   8   8
#     4  10  20  34  52  74 101 132 166 204 246 292
#     4   9  19  34  51  71  97 129 160 195 240 287
#     4   9  17  30  49  71  94 123 160 198 235 280
#     4   9  17  31  51  72  94 123 160 198 236 281
#     4   9  17  29  46  70  98 124 153 194 242 284
#     4   9  18  33  53  75 100 131 165 203 248 295
#     4   9  18  32  50  72  98 128 160 196 239 287
#
# _framework density 17.398233000000001
#
# number of rings (size 3 to 8) (size 9 to 14) (size 15 to 20)
#    0.000    2.857    0.000    0.857    0.000    4.857 
#    0.000    5.000    0.000    3.429    0.000    0.000 
#    0.000    0.000    0.000    0.000    0.000    0.000 
#
# Total GULP energy -347230.025634 kJ/mol
# GULP energy per Si atom -12401.072344 kJ/mol
# Density = 1.735863 g / cm^3
# Si number density = 17.398233 Si / 1000 Ang^3
#
#
#
# Elastic Constant Matrix: (Units=GPa)
#
#
# Indices 1 2 3 4 5 6 
#
# 1 112.4942 58.8998 84.1512 0.0005 2.8770 -0.0166
# 2 58.8998 76.0880 59.4307 0.0032 2.1743 0.0031
# 3 84.1512 59.4307 115.8189 -0.0011 1.6049 0.0010
# 4 0.0005 0.0032 -0.0011 24.3438 0.0013 0.6843
# 5 2.8770 2.1743 1.6049 0.0013 31.1471 0.0017
# 6 -0.0166 0.0031 0.0010 0.6843 0.0017 29.1609
#
#
#
# Elastic Compliance Matrix: (Units=1/GPa)
#
#
# Indices 1 2 3 4 5 6 
#
# 1 0.021795 -0.007488 -0.011981 0.000000 -0.000873 0.000014
# 2 -0.007488 0.024535 -0.007140 -0.000003 -0.000653 -0.000007
# 3 -0.011981 -0.007140 0.020996 0.000002 0.000523 -0.000007
# 4 0.000000 -0.000003 0.000002 0.041105 -0.000002 -0.000965
# 5 -0.000873 -0.000653 0.000523 -0.000002 0.032205 -0.000002
# 6 0.000014 -0.000007 -0.000007 -0.000965 -0.000002 0.034315
#
#
# Mechanical properties :
#
#
# Convention : Reuss Voigt Hill
#
# Bulk Modulus (GPa) = 70.88614 78.81827 74.85221
# Shear Modulus (GPa) = 21.47114 23.72500 22.59807
#
# Velocity S-wave (km/s) = 3.51679 3.69676 3.60790
# Velocity P-wave (km/s) = 7.57114 7.97635 7.77638
#
# Compressibility (1/GPa) = 0.01410713
#
# Stress axis : x y z
#
# Youngs Moduli (GPa) = 45.88266 40.75849 47.62917
#
# Poissons Ratio (x) = 0.30522 0.57064
# Poissons Ratio (y) = 0.34359 0.34006
# Poissons Ratio (z) = 0.54971 0.29100
#
# Static dielectric constant tensor:
#      x y z
#    x 3.155730 -0.000010 -0.002880 
#    y -0.000010 3.288010 0.000000 
#    z -0.002880 0.000000 3.361350 
# 
# 
# High freq. dielectric constant tensor:
#      x y z
#    x 1.655790 0.000000 0.000720 
#    y 0.000000 1.672800 0.000000 
#    z 0.000720 0.000000 1.675530 
# 
# From -- ./inp_files/342613.got.cif
#   From: 2010.06.25/outbox.cif.g09.slc.cpg/sg12_172_cif.got.tgz:342613.got - 2010.06.28 00:19:55.
