data_PCOD8096632
_publ_section_title
;
Structure prediction by ZEFSAII (Michael W. Deem and Ramdas Pophale) SiO2 
 PCOD8096632
Probable space group: C 2/M
;
_chemical_formula_sum "Si O2"
_cell_formula_units_Z 40
_cell_length_a 25.516260
_cell_length_b 18.924508
_cell_length_c 8.885840
_cell_angle_alpha 90.000000
_cell_angle_beta 28.800558
_cell_angle_gamma 90.000000
_cell_volume 2067.154010
_symmetry_space_group_name_H-M "C 2/M"
_symmetry_group_IT_number 12
_symmetry_cell_setting 'monoclinic'
loop_
_space_group_symop_operation_xyz
x,y,z
-x,y,-z
-x,-y,-z
x,-y,z
1/2+x,1/2+y,z
1/2-x,1/2+y,-z
1/2-x,1/2-y,-z
1/2+x,1/2-y,z
loop_
_atom_site_type_symbol
_atom_site_label
_atom_site_fract_x
_atom_site_fract_y
_atom_site_fract_z
Si Si1 0.667442 0.320211 0.945798
Si Si2 0.887975 0.680495 0.723862
Si Si3 0.024697 0.867982 0.780993
Si Si4 0.700161 0.580168 0.131915
Si Si5 0.100828 0.719083 0.648075
O O1 0.783599 0.305769 0.572995
O O2 0.635483 0.254569 0.133818
O O3 0.580877 0.333930 0.033307
O O4 0.674999 0.389416 0.030611
O O5 0.905102 0.690915 0.505112
O O6 0.000000 0.646663 0.500000
O O7 0.790797 0.625177 0.993450
O O8 0.088664 0.919041 0.507972
O O9 0.100276 0.803504 0.645173
O O10 0.000000 0.909619 0.000000
O O11 0.740331 0.500000 0.012905
O O12 0.000000 0.688543 0.000000
#
# Coordination Sequence:
#
# PCOD8096632 Si02
#       5
#     8   8   8   8   8
#     4  11  20  39  61  86 114 150 195 235 285 336
#     4  11  19  37  62  84 114 149 194 242 280 330
#     4  11  22  35  58  90 116 147 185 240 292 337
#     4  11  23  39  58  83 118 157 193 229 281 346
#     4  10  20  33  56  89 118 142 180 237 292 333
#
# _framework density 19.350276000000001
#
# number of rings (size 3 to 8) (size 9 to 14) (size 15 to 20)
#    0.000    1.200    6.000    1.800    0.000    7.200 
#    0.000    0.000    0.000    9.600    0.000    0.000 
#    0.000    0.800    0.000    0.000    0.000    0.000 
#
# Total GULP energy -247943.527458 kJ/mol
# GULP energy per Si atom -12397.176373 kJ/mol
# Density = 1.930623 g / cm^3
# Si number density = 19.350276 Si / 1000 Ang^3
#
#
#
# Elastic Constant Matrix: (Units=GPa)
#
#
# Indices 1 2 3 4 5 6 
#
# 1 86.8607 31.9168 38.1252 0.0000 -8.5617 0.0000
# 2 31.9168 87.0079 25.3803 0.0000 -4.8531 0.0000
# 3 38.1252 25.3803 132.0732 0.0000 -5.4623 0.0000
# 4 0.0000 0.0000 0.0000 15.5202 0.0000 -1.6016
# 5 -8.5617 -4.8531 -5.4623 0.0000 27.6729 0.0000
# 6 0.0000 0.0000 0.0000 -1.6016 0.0000 5.1293
#
#
#
# Elastic Compliance Matrix: (Units=1/GPa)
#
#
# Indices 1 2 3 4 5 6 
#
# 1 0.014872 -0.004305 -0.003334 0.000000 0.003188 0.000000
# 2 -0.004305 0.013501 -0.001320 0.000000 0.000775 0.000000
# 3 -0.003334 -0.001320 0.008807 0.000000 0.000476 0.000000
# 4 0.000000 0.000000 0.000000 0.066577 0.000000 0.020789
# 5 0.003188 0.000775 0.000476 0.000000 0.037353 0.000000
# 6 0.000000 0.000000 0.000000 0.020789 0.000000 0.201449
#
#
# Mechanical properties :
#
#
# Convention : Reuss Voigt Hill
#
# Bulk Modulus (GPa) = 51.91389 55.19848 53.55618
# Shear Modulus (GPa) = 13.62779 23.69913 18.66346
#
# Velocity S-wave (km/s) = 2.65668 3.50343 3.10902
# Velocity P-wave (km/s) = 6.02473 6.70472 6.37380
#
# Compressibility (1/GPa) = 0.01926267
#
# Stress axis : x y z
#
# Youngs Moduli (GPa) = 67.23947 74.07062 113.54335
#
# Poissons Ratio (x) = 0.31889 0.37855
# Poissons Ratio (y) = 0.28948 0.14983
# Poissons Ratio (z) = 0.22417 0.09774
#
# Static dielectric constant tensor:
#      x y z
#    x 3.704970 0.000000 -0.164240 
#    y 0.000000 3.160410 0.000000 
#    z -0.164240 0.000000 4.161280 
# 
# 
# High freq. dielectric constant tensor:
#      x y z
#    x 1.758700 0.000000 -0.005810 
#    y 0.000000 1.710670 0.000000 
#    z -0.005810 0.000000 1.768580 
# 
# From -- ./inp_files/62568.got.cif
#   From: 2010.06.25/outbox.cif.g09.slc.cpg/sg12_32_cif.got.tgz:62568.got - 2010.06.28 00:19:55.
