data_PCOD8096889
_publ_section_title
;
Structure prediction by ZEFSAII (Michael W. Deem and Ramdas Pophale) SiO2 
 PCOD8096889
Probable space group: C 2/M
;
_chemical_formula_sum "Si O2"
_cell_formula_units_Z 64
_cell_length_a 28.015050
_cell_length_b 8.773157
_cell_length_c 13.043193
_cell_angle_alpha 90.000000
_cell_angle_beta 86.201552
_cell_angle_gamma 90.000000
_cell_volume 3198.719396
_symmetry_space_group_name_H-M "C 2/M"
_symmetry_group_IT_number 12
_symmetry_cell_setting 'monoclinic'
loop_
_space_group_symop_operation_xyz
x,y,z
-x,y,-z
-x,-y,-z
x,-y,z
1/2+x,1/2+y,z
1/2-x,1/2+y,-z
1/2-x,1/2-y,-z
1/2+x,1/2-y,z
loop_
_atom_site_type_symbol
_atom_site_label
_atom_site_fract_x
_atom_site_fract_y
_atom_site_fract_z
Si Si1 0.053114 0.318753 0.523116
Si Si2 0.910099 0.179906 0.273153
Si Si3 0.368338 0.169652 0.645637
Si Si4 0.923190 0.666168 0.847894
Si Si5 0.689878 0.320094 0.808640
Si Si6 0.988625 0.176796 0.110925
Si Si7 0.669925 0.179507 0.030444
Si Si8 0.712614 0.320326 0.228239
O O1 0.051780 0.500000 0.518265
O O2 0.069033 0.265621 0.632241
O O3 0.094243 0.256451 0.440132
O O4 0.000000 0.256007 0.500000
O O5 0.855649 0.223367 0.255347
O O6 0.941315 0.240184 0.172235
O O7 0.916700 0.000000 0.289385
O O8 0.394276 0.157086 0.748904
O O9 0.321588 0.273445 0.671386
O O10 0.352352 0.000000 0.611977
O O11 0.945831 0.500000 0.867857
O O12 0.886377 0.712596 0.943389
O O13 0.964768 0.789864 0.826961
O O14 0.698338 0.500000 0.808035
O O15 0.734234 0.234412 0.749523
O O16 0.684485 0.265862 0.925949
O O17 0.981395 0.000000 0.094721
O O18 0.000000 0.257752 0.000000
O O19 0.700011 0.241899 0.122071
O O20 0.680494 0.000000 0.018435
O O21 0.710206 0.500000 0.214169
#
# Coordination Sequence:
#
# PCOD8096889 Si02
#       8
#     8   8   8   8   8   8   8   8
#     4  10  21  39  64  89 114 146 183 228 281 336
#     4  10  23  39  56  82 114 148 187 234 284 336
#     4   9  19  37  58  82 111 141 179 227 277 328
#     4   9  18  32  52  78 107 139 178 224 271 323
#     4  11  22  38  57  78 111 152 192 235 283 332
#     4  10  20  34  51  74 108 147 183 219 266 325
#     4  10  20  35  55  82 116 152 191 232 276 330
#     4  11  22  36  57  85 114 147 189 233 280 332
#
# _framework density 20.008006999999999
#
# number of rings (size 3 to 8) (size 9 to 14) (size 15 to 20)
#    0.000    2.000    0.000    4.500    0.000    7.000 
#    0.000    0.625    0.000    0.000    0.000    0.000 
#    0.000    0.000    0.000    0.000    0.000    0.000 
#
# Total GULP energy -396674.403950 kJ/mol
# GULP energy per Si atom -12396.075123 kJ/mol
# Density = 1.996247 g / cm^3
# Si number density = 20.008007 Si / 1000 Ang^3
#
#
#
# Elastic Constant Matrix: (Units=GPa)
#
#
# Indices 1 2 3 4 5 6 
#
# 1 133.5176 20.2222 55.7461 0.0000 -13.4484 0.0000
# 2 20.2222 35.0602 19.3877 0.0000 -3.9022 0.0000
# 3 55.7461 19.3877 91.2440 0.0000 -19.1360 0.0000
# 4 0.0000 0.0000 0.0000 27.4739 0.0000 2.6392
# 5 -13.4484 -3.9022 -19.1360 0.0000 30.7461 0.0000
# 6 0.0000 0.0000 0.0000 2.6392 0.0000 24.0840
#
#
#
# Elastic Compliance Matrix: (Units=1/GPa)
#
#
# Indices 1 2 3 4 5 6 
#
# 1 0.010302 -0.002793 -0.005555 0.000000 0.000694 0.000000
# 2 -0.002793 0.033078 -0.005403 0.000000 -0.000386 0.000000
# 3 -0.005555 -0.005403 0.017077 0.000000 0.007513 0.000000
# 4 0.000000 0.000000 0.000000 0.036785 0.000000 -0.004031
# 5 0.000694 -0.000386 0.007513 0.000000 0.037455 0.000000
# 6 0.000000 0.000000 0.000000 -0.004031 0.000000 0.041963
#
#
# Mechanical properties :
#
#
# Convention : Reuss Voigt Hill
#
# Bulk Modulus (GPa) = 30.34424 50.05930 40.20177
# Shear Modulus (GPa) = 23.23980 27.42518 25.33249
#
# Velocity S-wave (km/s) = 3.41181 3.70633 3.56212
# Velocity P-wave (km/s) = 5.54253 6.58709 6.08726
#
# Compressibility (1/GPa) = 0.03295518
#
# Stress axis : x y z
#
# Youngs Moduli (GPa) = 97.06960 30.23140 58.55750
#
# Poissons Ratio (x) = 0.08443 0.32528
# Poissons Ratio (y) = 0.27111 0.31640
# Poissons Ratio (z) = 0.53922 0.16335
#
# Static dielectric constant tensor:
#      x y z
#    x 4.045580 0.000000 -0.373490 
#    y 0.000000 3.570360 0.000000 
#    z -0.373490 0.000000 3.643490 
# 
# 
# High freq. dielectric constant tensor:
#      x y z
#    x 1.793130 0.000000 -0.015260 
#    y 0.000000 1.771310 0.000000 
#    z -0.015260 0.000000 1.765850 
# 
# From -- ./inp_files/187567.got.cif
#   From: 2010.06.25/outbox.cif.g09.slc.cpg/sg12_94_cif.got.tgz:187567.got - 2010.06.28 00:19:55.
