data_PCOD8096777
_publ_section_title
;
Structure prediction by ZEFSAII (Michael W. Deem and Ramdas Pophale) SiO2 
 PCOD8096777
Probable space group: C 2/M
;
_chemical_formula_sum "Si O2"
_cell_formula_units_Z 64
_cell_length_a 24.359025
_cell_length_b 13.481703
_cell_length_c 11.265577
_cell_angle_alpha 90.000000
_cell_angle_beta 106.022600
_cell_angle_gamma 90.000000
_cell_volume 3555.908493
_symmetry_space_group_name_H-M "C 2/M"
_symmetry_group_IT_number 12
_symmetry_cell_setting 'monoclinic'
loop_
_space_group_symop_operation_xyz
x,y,z
-x,y,-z
-x,-y,-z
x,-y,z
1/2+x,1/2+y,z
1/2-x,1/2+y,-z
1/2-x,1/2-y,-z
1/2+x,1/2-y,z
loop_
_atom_site_type_symbol
_atom_site_label
_atom_site_fract_x
_atom_site_fract_y
_atom_site_fract_z
Si Si1 0.019475 0.882864 0.886684
Si Si2 0.589648 0.617768 0.327032
Si Si3 0.777852 0.260666 0.144570
Si Si4 0.878084 0.112441 0.201056
Si Si5 0.695331 0.279329 0.313985
Si Si6 0.288622 0.889793 0.510571
Si Si7 0.933217 0.206745 0.441900
Si Si8 0.636901 0.889332 0.677518
O O1 0.081901 0.843017 0.881762
O O2 0.972711 0.856671 0.759908
O O3 0.024425 0.000000 0.905027
O O4 0.000000 0.834228 0.000000
O O5 0.597912 0.500000 0.349880
O O6 0.636090 0.660950 0.261267
O O7 0.598084 0.679295 0.453770
O O8 0.818087 0.165939 0.185649
O O9 0.726409 0.265254 0.207272
O O10 0.818879 0.356161 0.191449
O O11 0.750000 0.250000 0.000000
O O12 0.916248 0.118683 0.342520
O O13 0.862480 0.000000 0.163746
O O14 0.685162 0.170625 0.363353
O O15 0.729751 0.343030 0.431091
O O16 0.332377 0.891477 0.429435
O O17 0.276113 0.000000 0.550024
O O18 0.914180 0.310891 0.369955
O O19 0.000000 0.210319 0.500000
O O20 0.614009 0.000000 0.695910
#
# Coordination Sequence:
#
# PCOD8096777 Si02
#       8
#     8   8   8   8   8   8   8   8
#     4   9  19  34  52  77 108 145 185 217 265 336
#     4  11  21  33  54  83 112 145 179 221 278 340
#     4  10  23  38  54  78 108 147 195 234 275 328
#     4  10  21  36  54  80 114 146 177 228 287 335
#     4  10  20  34  50  78 107 138 184 221 270 334
#     4   9  17  32  52  72 102 136 171 219 269 319
#     4  11  20  34  55  84 116 140 181 226 277 338
#     4   9  19  37  56  76 107 145 182 229 278 323
#
# _framework density 17.998211999999999
#
# number of rings (size 3 to 8) (size 9 to 14) (size 15 to 20)
#    0.000    2.125    2.500    0.750    3.500    2.250 
#    0.000    0.000    0.000    0.000    0.000    0.000 
#    0.000    4.500    0.000    0.000    0.000    0.000 
#
# Total GULP energy -396592.571662 kJ/mol
# GULP energy per Si atom -12393.517864 kJ/mol
# Density = 1.795725 g / cm^3
# Si number density = 17.998212 Si / 1000 Ang^3
#
#
#
# Elastic Constant Matrix: (Units=GPa)
#
#
# Indices 1 2 3 4 5 6 
#
# 1 98.4816 28.9617 25.4479 0.0000 -2.8552 0.0000
# 2 28.9617 95.4293 30.4028 0.0000 0.9065 0.0000
# 3 25.4479 30.4028 90.8921 0.0000 -3.2783 0.0000
# 4 0.0000 0.0000 0.0000 12.4774 0.0000 -5.0435
# 5 -2.8552 0.9065 -3.2783 0.0000 25.5518 0.0000
# 6 0.0000 0.0000 0.0000 -5.0435 0.0000 21.0025
#
#
#
# Elastic Compliance Matrix: (Units=1/GPa)
#
#
# Indices 1 2 3 4 5 6 
#
# 1 0.011598 -0.002808 -0.002268 0.000000 0.001105 0.000000
# 2 -0.002808 0.012430 -0.003415 0.000000 -0.001193 0.000000
# 3 -0.002268 -0.003415 0.012834 0.000000 0.001514 0.000000
# 4 0.000000 0.000000 0.000000 0.088760 0.000000 0.021315
# 5 0.001105 -0.001193 0.001514 0.000000 0.039496 0.000000
# 6 0.000000 0.000000 0.000000 0.021315 0.000000 0.052732
#
#
# Mechanical properties :
#
#
# Convention : Reuss Voigt Hill
#
# Bulk Modulus (GPa) = 50.29963 50.49199 50.39581
# Shear Modulus (GPa) = 20.70745 25.13906 22.92325
#
# Velocity S-wave (km/s) = 3.39562 3.74137 3.57268
# Velocity P-wave (km/s) = 6.58645 6.83949 6.71416
#
# Compressibility (1/GPa) = 0.01988086
#
# Stress axis : x y z
#
# Youngs Moduli (GPa) = 86.22167 80.44841 77.91839
#
# Poissons Ratio (x) = 0.22588 0.17673
# Poissons Ratio (y) = 0.24209 0.26607
# Poissons Ratio (z) = 0.19557 0.27471
#
# Static dielectric constant tensor:
#      x y z
#    x 3.415070 0.000000 -0.040390 
#    y 0.000000 3.423870 0.000000 
#    z -0.040390 0.000000 3.372700 
# 
# 
# High freq. dielectric constant tensor:
#      x y z
#    x 1.700950 0.000000 -0.004040 
#    y 0.000000 1.680950 0.000000 
#    z -0.004040 0.000000 1.683930 
# 
# From -- ./inp_files/176150.got.cif
#   From: 2010.06.25/outbox.cif.g09.slc.cpg/sg12_89_cif.got.tgz:176150.got - 2010.06.28 00:19:55.
