data_PCOD8096249
_publ_section_title
;
Structure prediction by ZEFSAII (Michael W. Deem and Ramdas Pophale) SiO2 
 PCOD8096249
Probable space group: C 2/M
;
_chemical_formula_sum "Si O2"
_cell_formula_units_Z 56
_cell_length_a 24.297872
_cell_length_b 13.892860
_cell_length_c 24.076880
_cell_angle_alpha 90.000000
_cell_angle_beta 158.768065
_cell_angle_gamma 90.000000
_cell_volume 2943.347901
_symmetry_space_group_name_H-M "C 2/M"
_symmetry_group_IT_number 12
_symmetry_cell_setting 'monoclinic'
loop_
_space_group_symop_operation_xyz
x,y,z
-x,y,-z
-x,-y,-z
x,-y,z
1/2+x,1/2+y,z
1/2-x,1/2+y,-z
1/2-x,1/2-y,-z
1/2+x,1/2-y,z
loop_
_atom_site_type_symbol
_atom_site_label
_atom_site_fract_x
_atom_site_fract_y
_atom_site_fract_z
Si Si1 0.937112 0.109960 0.002514
Si Si2 0.113108 0.802267 0.479798
Si Si3 0.925570 0.219417 0.768839
Si Si4 0.827094 0.896198 0.354632
Si Si5 0.956503 0.110131 0.225946
Si Si6 0.851077 0.610982 0.005740
Si Si7 0.704905 0.270209 0.774197
O O1 0.052922 0.159113 0.154418
O O2 0.906504 0.000000 0.991479
O O3 0.779102 0.167260 0.855691
O O4 0.000000 0.116116 0.000000
O O5 0.244873 0.726338 0.587828
O O6 0.189487 0.875727 0.595475
O O7 0.057307 0.853845 0.372016
O O8 0.972396 0.751864 0.379244
O O9 0.005113 0.166224 0.793287
O O10 0.000770 0.325364 0.842496
O O11 0.759199 0.807978 0.254501
O O12 0.000000 0.907005 0.500000
O O13 0.746573 0.000000 0.267508
O O14 0.999184 0.000000 0.256799
O O15 0.776321 0.123481 0.066318
O O16 0.901685 0.500000 0.047902
O O17 0.772568 0.644516 0.875140
#
# Coordination Sequence:
#
# PCOD8096249 Si02
#       7
#     8   8   8   8   8   8   8
#     4  10  21  38  57  76 101 137 179 220 260 303
#     4  10  20  33  52  78 110 139 168 212 264 311
#     4  11  21  35  55  78 105 136 174 217 262 310
#     4   9  16  28  50  78 106 136 167 200 249 311
#     4  10  20  36  54  73 102 141 179 214 256 306
#     4   9  19  34  54  79 106 136 172 214 259 309
#     4   9  18  34  55  79 108 139 171 211 259 313
#
# _framework density 19.025953000000001
#
# number of rings (size 3 to 8) (size 9 to 14) (size 15 to 20)
#    0.000    2.286    0.000    3.000    0.000    4.571 
#    0.000    1.429    0.000   10.286    0.000    0.000 
#    0.000    0.000    0.000    0.000    0.000    0.000 
#
# Total GULP energy -347094.796476 kJ/mol
# GULP energy per Si atom -12396.242731 kJ/mol
# Density = 1.898265 g / cm^3
# Si number density = 19.025953 Si / 1000 Ang^3
#
#
#
# Elastic Constant Matrix: (Units=GPa)
#
#
# Indices 1 2 3 4 5 6 
#
# 1 82.0261 35.0223 21.2406 0.0064 -8.1779 0.0017
# 2 35.0223 131.6916 45.3341 0.0394 4.0896 0.0208
# 3 21.2406 45.3341 80.5085 0.0105 5.1523 0.0077
# 4 0.0064 0.0394 0.0105 15.6188 0.0059 -7.2290
# 5 -8.1779 4.0896 5.1523 0.0059 22.8987 0.0029
# 6 0.0017 0.0208 0.0077 -7.2290 0.0029 14.8463
#
#
#
# Elastic Compliance Matrix: (Units=1/GPa)
#
#
# Indices 1 2 3 4 5 6 
#
# 1 0.014890 -0.003307 -0.002480 0.000004 0.006466 0.000005
# 2 -0.003307 0.010159 -0.004725 -0.000033 -0.001932 -0.000027
# 3 -0.002480 -0.004725 0.015968 0.000004 -0.003635 0.000001
# 4 0.000004 -0.000033 0.000004 0.082653 -0.000020 0.040245
# 5 0.006466 -0.001932 -0.003635 -0.000020 0.047143 -0.000015
# 6 0.000005 -0.000027 0.000001 0.040245 -0.000015 0.086953
#
#
# Mechanical properties :
#
#
# Convention : Reuss Voigt Hill
#
# Bulk Modulus (GPa) = 50.01366 55.26893 52.64129
# Shear Modulus (GPa) = 17.51588 23.51468 20.51528
#
# Velocity S-wave (km/s) = 3.03748 3.51939 3.28728
# Velocity P-wave (km/s) = 6.21658 6.75478 6.49126
#
# Compressibility (1/GPa) = 0.01999454
#
# Stress axis : x y z
#
# Youngs Moduli (GPa) = 67.15864 98.43120 62.62361
#
# Poissons Ratio (x) = 0.32551 0.15532
# Poissons Ratio (y) = 0.22209 0.29587
# Poissons Ratio (z) = 0.16657 0.46505
#
# Static dielectric constant tensor:
#      x y z
#    x 3.610340 -0.000050 -0.004050 
#    y -0.000050 3.498050 -0.000020 
#    z -0.004050 -0.000020 3.412780 
# 
# 
# High freq. dielectric constant tensor:
#      x y z
#    x 1.747450 0.000000 -0.003840 
#    y 0.000000 1.731600 0.000000 
#    z -0.003840 0.000000 1.729400 
# 
# From -- ./inp_files/104425.got.cif
#   From: 2010.06.25/outbox.cif.g09.slc.cpg/sg12_53_cif.got.tgz:104425.got - 2010.06.28 00:19:55.
