data_PCOD8096550
_publ_section_title
;
Structure prediction by ZEFSAII (Michael W. Deem and Ramdas Pophale) SiO2 
 PCOD8096550
Probable space group: C 2/M
;
_chemical_formula_sum "Si O2"
_cell_formula_units_Z 64
_cell_length_a 9.989835
_cell_length_b 27.503715
_cell_length_c 19.110718
_cell_angle_alpha 90.000000
_cell_angle_beta 130.398764
_cell_angle_gamma 90.000000
_cell_volume 3998.769823
_symmetry_space_group_name_H-M "C 2/M"
_symmetry_group_IT_number 12
_symmetry_cell_setting 'monoclinic'
loop_
_space_group_symop_operation_xyz
x,y,z
-x,y,-z
-x,-y,-z
x,-y,z
1/2+x,1/2+y,z
1/2-x,1/2+y,-z
1/2-x,1/2-y,-z
1/2+x,1/2-y,z
loop_
_atom_site_type_symbol
_atom_site_label
_atom_site_fract_x
_atom_site_fract_y
_atom_site_fract_z
Si Si1 0.840256 0.204491 0.995235
Si Si2 0.542987 0.150795 0.807471
Si Si3 0.046738 0.238810 0.438659
Si Si4 0.180794 0.696051 0.719871
Si Si5 0.957072 0.945463 0.099115
Si Si6 0.802743 0.802665 0.250241
Si Si7 0.714842 0.054652 0.888451
Si Si8 0.461713 0.649855 0.171458
O O1 0.914686 0.168944 0.079059
O O2 0.750000 0.250000 0.000000
O O3 0.696385 0.175513 0.903250
O O4 0.000000 0.221446 0.000000
O O5 0.566198 0.164449 0.734369
O O6 0.352059 0.168423 0.764925
O O7 0.556552 0.092581 0.822369
O O8 0.250000 0.250000 0.500000
O O9 0.000000 0.220257 0.500000
O O10 0.942607 0.289125 0.387347
O O11 0.977016 0.197976 0.359392
O O12 0.252475 0.746110 0.781695
O O13 0.340485 0.665219 0.742832
O O14 0.130810 0.933161 0.113757
O O15 0.943829 0.908632 0.160402
O O16 0.966482 0.000000 0.132997
O O17 0.787964 0.940392 0.991872
O O18 0.834976 0.828908 0.187629
O O19 0.642881 0.000000 0.852030
#
# Coordination Sequence:
#
# PCOD8096550 Si02
#       8
#     8   8   8   8   8   8   8   8
#     4  12  24  32  47  67 104 152 185 204 241 307
#     4  12  20  35  48  74 107 139 183 216 254 290
#     4  10  20  38  56  73 102 139 169 201 260 322
#     4  10  20  33  55  74 103 134 170 218 244 302
#     4   9  17  32  52  71  94 137 191 230 252 286
#     4  10  24  33  51  78 107 138 161 220 254 310
#     4   9  17  32  52  71  94 137 192 230 250 285
#     4  12  20  35  48  74 107 139 182 212 258 290
#
# _framework density 16.004922000000001
#
# number of rings (size 3 to 8) (size 9 to 14) (size 15 to 20)
#    0.750    0.750    3.750    4.500    1.750    0.000 
#    0.000    0.625    0.000    1.500    0.000    0.000 
#    0.000   20.000    0.000    0.000    0.000    0.000 
#
# Total GULP energy -396683.900804 kJ/mol
# GULP energy per Si atom -12396.371900 kJ/mol
# Density = 1.596849 g / cm^3
# Si number density = 16.004922 Si / 1000 Ang^3
#
#
#
# Elastic Constant Matrix: (Units=GPa)
#
#
# Indices 1 2 3 4 5 6 
#
# 1 75.1855 26.8610 12.4805 0.0000 7.0859 0.0000
# 2 26.8610 110.0196 19.0058 0.0000 3.3744 0.0000
# 3 12.4805 19.0058 57.2960 0.0000 5.5287 0.0000
# 4 0.0000 0.0000 0.0000 10.7208 0.0000 1.2477
# 5 7.0859 3.3744 5.5287 0.0000 26.8210 0.0000
# 6 0.0000 0.0000 0.0000 1.2477 0.0000 15.9755
#
#
#
# Elastic Compliance Matrix: (Units=1/GPa)
#
#
# Indices 1 2 3 4 5 6 
#
# 1 0.015079 -0.003256 -0.001897 0.000000 -0.003183 0.000000
# 2 -0.003256 0.010353 -0.002737 0.000000 0.000122 0.000000
# 3 -0.001897 -0.002737 0.019072 0.000000 -0.003086 0.000000
# 4 0.000000 0.000000 0.000000 0.094133 0.000000 -0.007352
# 5 -0.003183 0.000122 -0.003086 0.000000 0.038746 0.000000
# 6 0.000000 0.000000 0.000000 -0.007352 0.000000 0.063170
#
#
# Mechanical properties :
#
#
# Convention : Reuss Voigt Hill
#
# Bulk Modulus (GPa) = 34.81443 39.91061 37.36252
# Shear Modulus (GPa) = 18.80356 22.98039 20.89197
#
# Velocity S-wave (km/s) = 3.43134 3.79335 3.61688
# Velocity P-wave (km/s) = 6.12359 6.64655 6.39042
#
# Compressibility (1/GPa) = 0.02872372
#
# Stress axis : x y z
#
# Youngs Moduli (GPa) = 66.31914 96.58770 52.43256
#
# Poissons Ratio (x) = 0.31449 0.09948
# Poissons Ratio (y) = 0.21594 0.14350
# Poissons Ratio (z) = 0.12583 0.26434
#
# Static dielectric constant tensor:
#      x y z
#    x 2.904570 0.000000 0.012370 
#    y 0.000000 3.089460 0.000000 
#    z 0.012370 0.000000 2.858850 
# 
# 
# High freq. dielectric constant tensor:
#      x y z
#    x 1.611080 0.000000 0.001940 
#    y 0.000000 1.602570 0.000000 
#    z 0.001940 0.000000 1.592530 
# 
# From -- ./inp_files/302651.got.cif
#   From: 2010.06.25/outbox.cif.g09.slc.cpg/sg12_152_cif.got.tgz:302651.got - 2010.06.28 00:19:55.
