data_PCOD8096157
_publ_section_title
;
Structure prediction by ZEFSAII (Michael W. Deem and Ramdas Pophale) SiO2 
 PCOD8096157
Probable space group: C 2/M
;
_chemical_formula_sum "Si O2"
_cell_formula_units_Z 64
_cell_length_a 14.178374
_cell_length_b 25.132194
_cell_length_c 9.602050
_cell_angle_alpha 90.000000
_cell_angle_beta 91.868397
_cell_angle_gamma 90.000000
_cell_volume 3419.714432
_symmetry_space_group_name_H-M "C 2/M"
_symmetry_group_IT_number 12
_symmetry_cell_setting 'monoclinic'
loop_
_space_group_symop_operation_xyz
x,y,z
-x,y,-z
-x,-y,-z
x,-y,z
1/2+x,1/2+y,z
1/2-x,1/2+y,-z
1/2-x,1/2-y,-z
1/2+x,1/2-y,z
loop_
_atom_site_type_symbol
_atom_site_label
_atom_site_fract_x
_atom_site_fract_y
_atom_site_fract_z
Si Si1 0.725506 0.364709 0.562652
Si Si2 0.387750 0.355688 0.017068
Si Si3 0.180456 0.228173 0.764783
Si Si4 0.984651 0.253276 0.660633
Si Si5 0.328280 0.677977 0.733293
Si Si6 0.566340 0.865403 0.373658
Si Si7 0.931119 0.438111 0.869467
Si Si8 0.711721 0.562678 0.809797
O O1 0.703778 0.308610 0.633713
O O2 0.693477 0.359243 0.401103
O O3 0.833738 0.380722 0.560923
O O4 0.684849 0.412880 0.655780
O O5 0.334407 0.307633 0.097682
O O6 0.364880 0.411652 0.090035
O O7 0.500000 0.347066 0.000000
O O8 0.336462 0.360394 0.865691
O O9 0.084446 0.259902 0.738579
O O10 0.258065 0.274240 0.770720
O O11 0.000000 0.243628 0.500000
O O12 0.931525 0.202616 0.718209
O O13 0.926853 0.306749 0.693829
O O14 0.500000 0.863716 0.500000
O O15 0.527037 0.907348 0.260684
O O16 0.942700 0.500000 0.841755
O O17 0.818557 0.423452 0.872239
O O18 0.000000 0.420899 0.000000
O O19 0.695557 0.500000 0.802464
#
# Coordination Sequence:
#
# PCOD8096157 Si02
#       8
#     8   8   8   8   8   8   8   8
#     4  10  20  36  60  80 110 155 195 232 289 342
#     4  11  24  39  58  85 115 154 196 235 292 344
#     4  11  21  37  54  80 119 158 191 228 284 341
#     4  11  20  32  55  81 114 153 188 230 277 333
#     4  12  21  36  57  84 118 153 193 234 275 342
#     4  10  20  33  51  85 115 145 192 233 276 334
#     4   9  19  38  61  83 112 151 190 231 289 343
#     4   9  21  42  64  84 114 150 191 244 294 343
#
# _framework density 18.715014
#
# number of rings (size 3 to 8) (size 9 to 14) (size 15 to 20)
#    0.000    1.625    3.750    2.250    0.000    2.500 
#    2.250    0.625    0.000    0.750    0.000    0.000 
#    0.000    0.000    0.000    0.000    0.000    0.000 
#
# Total GULP energy -396470.628085 kJ/mol
# GULP energy per Si atom -12389.707128 kJ/mol
# Density = 1.867242 g / cm^3
# Si number density = 18.715014 Si / 1000 Ang^3
#
#
#
# Elastic Constant Matrix: (Units=GPa)
#
#
# Indices 1 2 3 4 5 6 
#
# 1 57.6882 27.3302 35.4173 0.0000 0.9268 0.0000
# 2 27.3302 81.6409 55.0101 0.0000 -2.8868 0.0000
# 3 35.4173 55.0101 135.9908 0.0000 11.7652 0.0000
# 4 0.0000 0.0000 0.0000 21.6149 0.0000 5.4274
# 5 0.9268 -2.8868 11.7652 0.0000 25.3827 0.0000
# 6 0.0000 0.0000 0.0000 5.4274 0.0000 9.6315
#
#
#
# Elastic Compliance Matrix: (Units=1/GPa)
#
#
# Indices 1 2 3 4 5 6 
#
# 1 0.021926 -0.004745 -0.003829 0.000000 0.000434 0.000000
# 2 -0.004745 0.018574 -0.006746 0.000000 0.005413 0.000000
# 3 -0.003829 -0.006746 0.011599 0.000000 -0.006004 0.000000
# 4 0.000000 0.000000 0.000000 0.053889 0.000000 -0.030367
# 5 0.000434 0.005413 -0.006004 0.000000 0.042779 0.000000
# 6 0.000000 0.000000 0.000000 -0.030367 0.000000 0.120938
#
#
# Mechanical properties :
#
#
# Convention : Reuss Voigt Hill
#
# Bulk Modulus (GPa) = 46.59839 56.75946 51.67892
# Shear Modulus (GPa) = 16.26027 21.82995 19.04511
#
# Velocity S-wave (km/s) = 2.95080 3.41902 3.19350
# Velocity P-wave (km/s) = 6.04670 6.78089 6.42429
#
# Compressibility (1/GPa) = 0.02145997
#
# Stress axis : x y z
#
# Youngs Moduli (GPa) = 45.60780 53.83862 86.21592
#
# Poissons Ratio (x) = 0.25546 0.33009
# Poissons Ratio (y) = 0.21640 0.58161
# Poissons Ratio (z) = 0.17461 0.36319
#
# Static dielectric constant tensor:
#      x y z
#    x 3.535600 0.000000 -0.059480 
#    y 0.000000 3.368000 0.000000 
#    z -0.059480 0.000000 3.521680 
# 
# 
# High freq. dielectric constant tensor:
#      x y z
#    x 1.731400 0.000000 -0.005310 
#    y 0.000000 1.709150 0.000000 
#    z -0.005310 0.000000 1.728040 
# 
# From -- ./inp_files/65872.got.cif
#   From: 2010.06.25/outbox.cif.g09.slc.cpg/sg12_33_cif.got.tgz:65872.got - 2010.06.28 00:19:55.
