data_PCOD8096790
_publ_section_title
;
Structure prediction by ZEFSAII (Michael W. Deem and Ramdas Pophale) SiO2 
 PCOD8096790
Probable space group: C 2/M
;
_chemical_formula_sum "Si O2"
_cell_formula_units_Z 64
_cell_length_a 20.069229
_cell_length_b 9.701665
_cell_length_c 20.129516
_cell_angle_alpha 90.000000
_cell_angle_beta 79.149232
_cell_angle_gamma 90.000000
_cell_volume 3849.242026
_symmetry_space_group_name_H-M "C 2/M"
_symmetry_group_IT_number 12
_symmetry_cell_setting 'monoclinic'
loop_
_space_group_symop_operation_xyz
x,y,z
-x,y,-z
-x,-y,-z
x,-y,z
1/2+x,1/2+y,z
1/2-x,1/2+y,-z
1/2-x,1/2-y,-z
1/2+x,1/2-y,z
loop_
_atom_site_type_symbol
_atom_site_label
_atom_site_fract_x
_atom_site_fract_y
_atom_site_fract_z
Si Si1 0.385042 0.163271 0.823967
Si Si2 0.214069 0.841084 0.690108
Si Si3 0.241604 0.661714 0.067008
Si Si4 0.508316 0.163921 0.424491
Si Si5 0.850477 0.842925 0.156977
Si Si6 0.899885 0.658706 0.338496
Si Si7 0.635007 0.163716 0.319386
Si Si8 0.964175 0.341529 0.184357
O O1 0.326277 0.216039 0.883857
O O2 0.374770 0.227304 0.752434
O O3 0.458157 0.207124 0.839468
O O4 0.380385 0.000000 0.818342
O O5 0.195821 0.814184 0.770234
O O6 0.168059 0.749295 0.650382
O O7 0.291760 0.794877 0.665148
O O8 0.202874 0.000000 0.673002
O O9 0.236170 0.500000 0.050757
O O10 0.306297 0.691800 0.100944
O O11 0.250000 0.750000 0.000000
O O12 0.500000 0.225229 0.500000
O O13 0.443890 0.209363 0.392797
O O14 0.577295 0.223656 0.379079
O O15 0.512799 0.000000 0.425642
O O16 0.917100 0.747752 0.144549
O O17 0.875621 0.000000 0.151466
O O18 0.878229 0.500000 0.349717
O O19 0.944865 0.681960 0.264614
O O20 0.628826 0.000000 0.315480
O O21 0.954663 0.500000 0.165586
#
# Coordination Sequence:
#
# PCOD8096790 Si02
#       8
#     8   8   8   8   8   8   8   8
#     4   9  15  28  49  70  90 117 158 199 228 263
#     4   9  16  27  47  70  90 118 157 194 225 269
#     4  10  20  34  51  70  94 124 155 190 233 278
#     4   9  16  26  43  69  98 125 155 193 235 275
#     4   9  17  30  47  68  94 122 151 186 231 278
#     4   9  16  27  44  68  97 122 147 190 240 273
#     4   9  14  25  46  69  90 118 161 199 224 263
#     4   9  16  27  48  73  92 115 152 197 234 265
#
# _framework density 16.626650000000001
#
# number of rings (size 3 to 8) (size 9 to 14) (size 15 to 20)
#    0.000    2.875    2.500    0.000    0.000    0.500 
#    0.000    1.875    0.000    5.625    0.000    0.000 
#    0.000    0.000    0.000    0.000    0.000    0.000 
#
# Total GULP energy -396737.037380 kJ/mol
# GULP energy per Si atom -12398.032418 kJ/mol
# Density = 1.658881 g / cm^3
# Si number density = 16.626650 Si / 1000 Ang^3
#
#
#
# Elastic Constant Matrix: (Units=GPa)
#
#
# Indices 1 2 3 4 5 6 
#
# 1 156.1318 55.1579 80.4821 0.0000 4.9428 0.0000
# 2 55.1579 44.7994 37.3568 0.0000 8.5835 0.0000
# 3 80.4821 37.3568 107.9131 0.0000 4.5784 0.0000
# 4 0.0000 0.0000 0.0000 15.6981 0.0000 4.9781
# 5 4.9428 8.5835 4.5784 0.0000 25.5287 0.0000
# 6 0.0000 0.0000 0.0000 4.9781 0.0000 26.2389
#
#
#
# Elastic Compliance Matrix: (Units=1/GPa)
#
#
# Indices 1 2 3 4 5 6 
#
# 1 0.013911 -0.012489 -0.006162 0.000000 0.002611 0.000000
# 2 -0.012489 0.044619 -0.005641 0.000000 -0.011573 0.000000
# 3 -0.006162 -0.005641 0.015804 0.000000 0.000255 0.000000
# 4 0.000000 0.000000 0.000000 0.067780 0.000000 -0.012859
# 5 0.002611 -0.011573 0.000255 0.000000 0.042511 0.000000
# 6 0.000000 0.000000 0.000000 -0.012859 0.000000 0.040551
#
#
# Mechanical properties :
#
#
# Convention : Reuss Voigt Hill
#
# Bulk Modulus (GPa) = 38.83395 72.75977 55.79686
# Shear Modulus (GPa) = 17.70894 22.54965 20.12929
#
# Velocity S-wave (km/s) = 3.26712 3.68671 3.48324
# Velocity P-wave (km/s) = 6.13508 7.87263 7.05753
#
# Compressibility (1/GPa) = 0.02575067
#
# Stress axis : x y z
#
# Youngs Moduli (GPa) = 71.88743 22.41182 63.27410
#
# Poissons Ratio (x) = 0.27990 0.38990
# Poissons Ratio (y) = 0.89780 0.35691
# Poissons Ratio (z) = 0.44297 0.12642
#
# Static dielectric constant tensor:
#      x y z
#    x 3.332430 0.000000 -0.013500 
#    y 0.000000 2.781430 0.000000 
#    z -0.013500 0.000000 3.038930 
# 
# 
# High freq. dielectric constant tensor:
#      x y z
#    x 1.654350 0.000000 0.006480 
#    y 0.000000 1.596720 0.000000 
#    z 0.006480 0.000000 1.620970 
# 
# From -- ./inp_files/276460.got.cif
#   From: 2010.06.25/outbox.cif.g09.slc.cpg/sg12_139_cif.got.tgz:276460.got - 2010.06.28 00:19:55.
