data_PCOD8096270
_publ_section_title
;
Structure prediction by ZEFSAII (Michael W. Deem and Ramdas Pophale) SiO2 
 PCOD8096270
Probable space group: C 2/M
;
_chemical_formula_sum "Si O2"
_cell_formula_units_Z 64
_cell_length_a 30.566680
_cell_length_b 9.002440
_cell_length_c 19.233409
_cell_angle_alpha 90.000000
_cell_angle_beta 140.190477
_cell_angle_gamma 90.000000
_cell_volume 3388.486839
_symmetry_space_group_name_H-M "C 2/M"
_symmetry_group_IT_number 12
_symmetry_cell_setting 'monoclinic'
loop_
_space_group_symop_operation_xyz
x,y,z
-x,y,-z
-x,-y,-z
x,-y,z
1/2+x,1/2+y,z
1/2-x,1/2+y,-z
1/2-x,1/2-y,-z
1/2+x,1/2-y,z
loop_
_atom_site_type_symbol
_atom_site_label
_atom_site_fract_x
_atom_site_fract_y
_atom_site_fract_z
Si Si1 0.733764 0.323749 0.053676
Si Si2 0.082488 0.176207 0.902951
Si Si3 0.199034 0.326203 0.528937
Si Si4 0.985729 0.176923 0.905421
Si Si5 0.144624 0.172368 0.731209
Si Si6 0.348504 0.325878 0.663251
Si Si7 0.472401 0.676464 0.309078
Si Si8 0.116257 0.827883 0.537844
O O1 0.735510 0.500000 0.046481
O O2 0.787699 0.269802 0.176503
O O3 0.750000 0.250000 0.000000
O O4 0.660457 0.269137 0.993041
O O5 0.041214 0.234775 0.785341
O O6 0.045402 0.237361 0.927040
O O7 0.080093 0.000000 0.900500
O O8 0.186800 0.500000 0.511103
O O9 0.278748 0.285787 0.617954
O O10 0.151909 0.253246 0.411927
O O11 0.177571 0.262426 0.577297
O O12 0.912032 0.231796 0.787134
O O13 0.986575 0.000000 0.909030
O O14 0.000000 0.241789 0.000000
O O15 0.087534 0.234825 0.713997
O O16 0.117224 0.197356 0.620835
O O17 0.161472 0.000000 0.766705
O O18 0.355603 0.500000 0.657250
O O19 0.473248 0.500000 0.314700
O O20 0.544894 0.738775 0.422952
O O21 0.124790 0.000000 0.528794
#
# Coordination Sequence:
#
# PCOD8096270 Si02
#       8
#     8   8   8   8   8   8   8   8
#     4  11  21  35  55  78 106 141 179 222 270 320
#     4   9  17  29  51  78 102 134 176 221 263 308
#     4  10  20  33  52  79 109 138 170 217 269 322
#     4   9  17  30  51  80 107 131 171 225 268 305
#     4  10  20  35  54  78 106 139 180 224 266 313
#     4   9  18  34  56  77 101 138 180 219 263 316
#     4   9  16  31  54  77 101 134 182 228 260 303
#     4  10  20  33  54  80 106 139 178 219 266 321
#
# _framework density 18.887487
#
# number of rings (size 3 to 8) (size 9 to 14) (size 15 to 20)
#    0.000    2.375    1.250    1.875    0.000    5.500 
#    0.000    3.125    0.000    2.625    0.000    0.000 
#    0.000    0.000    0.000    0.000    0.000    0.000 
#
# Total GULP energy -396812.271517 kJ/mol
# GULP energy per Si atom -12400.383485 kJ/mol
# Density = 1.884450 g / cm^3
# Si number density = 18.887487 Si / 1000 Ang^3
#
#
#
# Elastic Constant Matrix: (Units=GPa)
#
#
# Indices 1 2 3 4 5 6 
#
# 1 150.1427 25.7341 73.6383 0.0000 -3.3019 0.0000
# 2 25.7341 30.2294 25.4190 0.0000 2.5012 0.0000
# 3 73.6383 25.4190 125.0262 0.0000 7.3914 0.0000
# 4 0.0000 0.0000 0.0000 22.8919 0.0000 0.3600
# 5 -3.3019 2.5012 7.3914 0.0000 31.5367 0.0000
# 6 0.0000 0.0000 0.0000 0.3600 0.0000 24.4941
#
#
#
# Elastic Compliance Matrix: (Units=1/GPa)
#
#
# Indices 1 2 3 4 5 6 
#
# 1 0.009996 -0.004396 -0.005147 0.000000 0.002602 0.000000
# 2 -0.004396 0.041887 -0.005783 0.000000 -0.002427 0.000000
# 3 -0.005147 -0.005783 0.012382 0.000000 -0.002982 0.000000
# 4 0.000000 0.000000 0.000000 0.043694 0.000000 -0.000642
# 5 0.002602 -0.002427 -0.002982 0.000000 0.032873 0.000000
# 6 0.000000 0.000000 0.000000 -0.000642 0.000000 0.040836
#
#
# Mechanical properties :
#
#
# Convention : Reuss Voigt Hill
#
# Bulk Modulus (GPa) = 29.75223 61.66458 45.70840
# Shear Modulus (GPa) = 22.36906 27.82500 25.09703
#
# Velocity S-wave (km/s) = 3.44515 3.84239 3.64918
# Velocity P-wave (km/s) = 5.62245 7.23910 6.48138
#
# Compressibility (1/GPa) = 0.03361093
#
# Stress axis : x y z
#
# Youngs Moduli (GPa) = 100.04489 23.87399 80.76240
#
# Poissons Ratio (x) = 0.10496 0.41570
# Poissons Ratio (y) = 0.43982 0.46706
# Poissons Ratio (z) = 0.51495 0.13807
#
# Static dielectric constant tensor:
#      x y z
#    x 3.686730 0.000000 0.078280 
#    y 0.000000 3.086330 0.000000 
#    z 0.078280 0.000000 3.635550 
# 
# 
# High freq. dielectric constant tensor:
#      x y z
#    x 1.745710 0.000000 0.004070 
#    y 0.000000 1.687490 0.000000 
#    z 0.004070 0.000000 1.740810 
# 
# From -- ./inp_files/295742.got.cif
#   From: 2010.06.25/outbox.cif.g09.slc.cpg/sg12_148_cif.got.tgz:295742.got - 2010.06.28 00:19:55.
