data_PCOD8096349
_publ_section_title
;
Structure prediction by ZEFSAII (Michael W. Deem and Ramdas Pophale) SiO2 
 PCOD8096349
Probable space group: C 2/M
;
_chemical_formula_sum "Si O2"
_cell_formula_units_Z 56
_cell_length_a 13.280219
_cell_length_b 21.481895
_cell_length_c 11.686844
_cell_angle_alpha 90.000000
_cell_angle_beta 116.891305
_cell_angle_gamma 90.000000
_cell_volume 2973.546734
_symmetry_space_group_name_H-M "C 2/M"
_symmetry_group_IT_number 12
_symmetry_cell_setting 'monoclinic'
loop_
_space_group_symop_operation_xyz
x,y,z
-x,y,-z
-x,-y,-z
x,-y,z
1/2+x,1/2+y,z
1/2-x,1/2+y,-z
1/2-x,1/2-y,-z
1/2+x,1/2-y,z
loop_
_atom_site_type_symbol
_atom_site_label
_atom_site_fract_x
_atom_site_fract_y
_atom_site_fract_z
Si Si1 0.380317 0.930202 0.877750
Si Si2 0.015359 0.648195 0.258036
Si Si3 0.777162 0.828677 0.142175
Si Si4 0.410971 0.744451 0.045671
Si Si5 0.134076 0.795468 0.572740
Si Si6 0.703912 0.168640 0.530925
Si Si7 0.610293 0.069491 0.633965
O O1 0.396724 0.893948 0.767682
O O2 0.288601 0.894177 0.909269
O O3 0.336658 0.000000 0.832425
O O4 0.500000 0.930437 0.000000
O O5 0.090856 0.677512 0.396631
O O6 0.959970 0.702373 0.154518
O O7 0.916831 0.605068 0.261285
O O8 0.874895 0.816870 0.098612
O O9 0.830802 0.831132 0.294993
O O10 0.691120 0.771486 0.082032
O O11 0.500000 0.720089 0.000000
O O12 0.182250 0.832255 0.486399
O O13 0.195908 0.728383 0.609729
O O14 0.000000 0.790838 0.500000
O O15 0.704357 0.106828 0.609385
O O16 0.500000 0.064998 0.500000
O O17 0.655306 0.000000 0.685197
#
# Coordination Sequence:
#
# PCOD8096349 Si02
#       7
#     8   8   8   8   8   8   8
#     4  11  21  36  58  84 114 145 183 227 276 339
#     4  11  17  35  54  85 114 140 178 224 284 337
#     4  11  21  36  54  81 114 146 185 228 282 333
#     4  11  20  33  56  84 117 143 176 231 286 339
#     4  11  21  35  53  78 105 147 189 229 274 328
#     4  10  20  33  53  77 113 143 179 230 276 326
#     4   9  18  30  49  79 111 143 173 211 270 332
#
# _framework density 18.832730000000002
#
# number of rings (size 3 to 8) (size 9 to 14) (size 15 to 20)
#    0.000    1.429    4.286    3.429    0.000    1.714 
#    0.000    0.000    0.000    2.143    0.000    0.000 
#    0.000    0.000    0.000    0.000    0.000    0.000 
#
# Total GULP energy -347135.213394 kJ/mol
# GULP energy per Si atom -12397.686193 kJ/mol
# Density = 1.878987 g / cm^3
# Si number density = 18.832730 Si / 1000 Ang^3
#
#
#
# Elastic Constant Matrix: (Units=GPa)
#
#
# Indices 1 2 3 4 5 6 
#
# 1 150.0969 66.1647 22.6550 0.0000 -22.8813 0.0000
# 2 66.1647 111.8615 11.5821 0.0000 -16.9430 0.0000
# 3 22.6550 11.5821 42.1348 0.0000 -5.6803 0.0000
# 4 0.0000 0.0000 0.0000 8.2230 0.0000 -3.7136
# 5 -22.8813 -16.9430 -5.6803 0.0000 21.3966 0.0000
# 6 0.0000 0.0000 0.0000 -3.7136 0.0000 28.3326
#
#
#
# Elastic Compliance Matrix: (Units=1/GPa)
#
#
# Indices 1 2 3 4 5 6 
#
# 1 0.010216 -0.004745 -0.003342 0.000000 0.006280 0.000000
# 2 -0.004745 0.012491 -0.000241 0.000000 0.004753 0.000000
# 3 -0.003342 -0.000241 0.026020 0.000000 0.003143 0.000000
# 4 0.000000 0.000000 0.000000 0.129262 0.000000 0.016943
# 5 0.006280 0.004753 0.003143 0.000000 0.058050 0.000000
# 6 0.000000 0.000000 0.000000 0.016943 0.000000 0.037516
#
#
# Mechanical properties :
#
#
# Convention : Reuss Voigt Hill
#
# Bulk Modulus (GPa) = 31.18168 56.09965 43.64066
# Shear Modulus (GPa) = 16.61671 25.16987 20.89329
#
# Velocity S-wave (km/s) = 2.97363 3.65978 3.33440
# Velocity P-wave (km/s) = 5.32758 6.90736 6.16826
#
# Compressibility (1/GPa) = 0.03207012
#
# Stress axis : x y z
#
# Youngs Moduli (GPa) = 97.88624 80.05566 38.43159
#
# Poissons Ratio (x) = 0.37990 0.12843
# Poissons Ratio (y) = 0.46451 0.00928
# Poissons Ratio (z) = 0.32712 0.01933
#
# Static dielectric constant tensor:
#      x y z
#    x 3.641410 0.000000 -0.211940 
#    y 0.000000 3.539420 0.000000 
#    z -0.211940 0.000000 3.400680 
# 
# 
# High freq. dielectric constant tensor:
#      x y z
#    x 1.728120 0.000000 -0.022620 
#    y 0.000000 1.708170 0.000000 
#    z -0.022620 0.000000 1.721440 
# 
# From -- ./inp_files/135505.got.cif
#   From: 2010.06.25/outbox.cif.g09.slc.cpg/sg12_68_cif.got.tgz:135505.got - 2010.06.28 00:19:55.
