data_PCOD8096488
_publ_section_title
;
Structure prediction by ZEFSAII (Michael W. Deem and Ramdas Pophale) SiO2 
 PCOD8096488
Probable space group: C 2/M
;
_chemical_formula_sum "Si O2"
_cell_formula_units_Z 64
_cell_length_a 23.413446
_cell_length_b 17.061385
_cell_length_c 8.396264
_cell_angle_alpha 90.000000
_cell_angle_beta 89.429256
_cell_angle_gamma 90.000000
_cell_volume 3353.854047
_symmetry_space_group_name_H-M "C 2/M"
_symmetry_group_IT_number 12
_symmetry_cell_setting 'monoclinic'
loop_
_space_group_symop_operation_xyz
x,y,z
-x,y,-z
-x,-y,-z
x,-y,z
1/2+x,1/2+y,z
1/2-x,1/2+y,-z
1/2-x,1/2-y,-z
1/2+x,1/2-y,z
loop_
_atom_site_type_symbol
_atom_site_label
_atom_site_fract_x
_atom_site_fract_y
_atom_site_fract_z
Si Si1 0.988476 0.914539 0.687361
Si Si2 0.114572 0.090925 0.722360
Si Si3 0.324760 0.264884 0.151680
Si Si4 0.993663 0.590598 0.816116
Si Si5 0.194906 0.729124 0.209340
Si Si6 0.127890 0.589037 0.332904
Si Si7 0.392489 0.319740 0.585895
Si Si8 0.408831 0.176132 0.372999
O O1 0.937891 0.851644 0.716522
O O2 0.000000 0.918924 0.500000
O O3 0.048110 0.891677 0.770439
O O4 0.968481 0.000000 0.750245
O O5 0.152830 0.145957 0.833109
O O6 0.125770 0.111889 0.536361
O O7 0.130345 0.000000 0.749792
O O8 0.262068 0.259332 0.229418
O O9 0.363557 0.202037 0.241425
O O10 0.325193 0.242563 0.968752
O O11 0.010731 0.500000 0.786555
O O12 0.033626 0.646209 0.710096
O O13 0.929240 0.606956 0.765086
O O14 0.000000 0.613464 0.000000
O O15 0.178595 0.641262 0.260365
O O16 0.164171 0.791464 0.324345
O O17 0.147636 0.500000 0.313294
O O18 0.117807 0.606733 0.519709
O O19 0.422811 0.249548 0.487337
#
# Coordination Sequence:
#
# PCOD8096488 Si02
#       8
#     8   8   8   8   8   8   8   8
#     4   8  14  28  50  77 107 133 159 198 252 309
#     4   9  18  33  55  81 107 138 174 213 263 319
#     4  10  22  39  55  73 105 145 182 223 271 322
#     4  10  20  34  53  79 112 144 173 212 267 328
#     4  10  22  39  55  74 104 143 184 225 270 320
#     4  10  21  36  57  83 108 138 179 226 273 321
#     4   9  18  31  54  80 106 138 175 217 261 311
#     4  10  20  33  54  80 108 139 177 222 268 316
#
# _framework density 19.082525
#
# number of rings (size 3 to 8) (size 9 to 14) (size 15 to 20)
#    0.000    2.500    0.000    2.625    0.000   15.000 
#    0.000    3.750    0.000    6.750    0.000    0.000 
#    0.000    0.500    0.000    0.000    0.000    0.000 
#
# Total GULP energy -396750.647975 kJ/mol
# GULP energy per Si atom -12398.457749 kJ/mol
# Density = 1.903909 g / cm^3
# Si number density = 19.082525 Si / 1000 Ang^3
#
#
#
# Elastic Constant Matrix: (Units=GPa)
#
#
# Indices 1 2 3 4 5 6 
#
# 1 49.9279 26.3961 2.1114 0.0000 -5.5362 0.0000
# 2 26.3961 71.3850 9.2123 0.0000 -7.7442 0.0000
# 3 2.1114 9.2123 36.1498 0.0000 -6.1052 0.0000
# 4 0.0000 0.0000 0.0000 15.9141 0.0000 3.9119
# 5 -5.5362 -7.7442 -6.1052 0.0000 27.4266 0.0000
# 6 0.0000 0.0000 0.0000 3.9119 0.0000 25.2946
#
#
#
# Elastic Compliance Matrix: (Units=1/GPa)
#
#
# Indices 1 2 3 4 5 6 
#
# 1 0.025124 -0.009161 0.001337 0.000000 0.002782 0.000000
# 2 -0.009161 0.018136 -0.003672 0.000000 0.002454 0.000000
# 3 0.001337 -0.003672 0.029500 0.000000 0.005800 0.000000
# 4 0.000000 0.000000 0.000000 0.065320 0.000000 -0.010102
# 5 0.002782 0.002454 0.005800 0.000000 0.039007 0.000000
# 6 0.000000 0.000000 0.000000 -0.010102 0.000000 0.041096
#
#
# Mechanical properties :
#
#
# Convention : Reuss Voigt Hill
#
# Bulk Modulus (GPa) = 20.09323 25.87804 22.98564
# Shear Modulus (GPa) = 19.39751 21.70991 20.55371
#
# Velocity S-wave (km/s) = 3.19173 3.37662 3.28547
# Velocity P-wave (km/s) = 4.91277 5.36588 5.14432
#
# Compressibility (1/GPa) = 0.04976800
#
# Stress axis : x y z
#
# Youngs Moduli (GPa) = 39.80248 55.13860 33.89841
#
# Poissons Ratio (x) = 0.50512 -0.04532
# Poissons Ratio (y) = 0.36462 0.12448
# Poissons Ratio (z) = -0.05322 0.20248
#
# Static dielectric constant tensor:
#      x y z
#    x 3.485430 0.000000 0.102470 
#    y 0.000000 3.640430 0.000000 
#    z 0.102470 0.000000 3.401800 
# 
# 
# High freq. dielectric constant tensor:
#      x y z
#    x 1.733910 0.000000 0.006150 
#    y 0.000000 1.747710 0.000000 
#    z 0.006150 0.000000 1.727800 
# 
# From -- ./inp_files/87985.got.cif
#   From: 2010.06.25/outbox.cif.g09.slc.cpg/sg12_44_cif.got.tgz:87985.got - 2010.06.28 00:19:55.
