data_PCOD8096818
_publ_section_title
;
Structure prediction by ZEFSAII (Michael W. Deem and Ramdas Pophale) SiO2 
 PCOD8096818
Probable space group: C 2/M
;
_chemical_formula_sum "Si O2"
_cell_formula_units_Z 56
_cell_length_a 18.275035
_cell_length_b 8.943626
_cell_length_c 29.235628
_cell_angle_alpha 90.000000
_cell_angle_beta 140.982324
_cell_angle_gamma 90.000000
_cell_volume 3008.302328
_symmetry_space_group_name_H-M "C 2/M"
_symmetry_group_IT_number 12
_symmetry_cell_setting 'monoclinic'
loop_
_space_group_symop_operation_xyz
x,y,z
-x,y,-z
-x,-y,-z
x,-y,z
1/2+x,1/2+y,z
1/2-x,1/2+y,-z
1/2-x,1/2-y,-z
1/2+x,1/2-y,z
loop_
_atom_site_type_symbol
_atom_site_label
_atom_site_fract_x
_atom_site_fract_y
_atom_site_fract_z
Si Si1 0.973059 0.676678 0.344547
Si Si2 0.825962 0.326466 0.499254
Si Si3 0.215658 0.822084 0.208759
Si Si4 0.294622 0.822339 0.067932
Si Si5 0.959263 0.823454 0.798409
Si Si6 0.372834 0.325676 0.657624
Si Si7 0.629624 0.677711 0.069705
O O1 0.966944 0.500000 0.335018
O O2 0.842819 0.742276 0.283546
O O3 0.039703 0.720754 0.424989
O O4 0.039180 0.738916 0.332436
O O5 0.816682 0.500000 0.504092
O O6 0.750000 0.250000 0.500000
O O7 0.764494 0.287652 0.420694
O O8 0.122405 0.765780 0.200359
O O9 0.180320 0.759095 0.141898
O O10 0.217463 0.000000 0.209686
O O11 0.422290 0.766884 0.141776
O O12 0.210080 0.767132 0.067349
O O13 0.293338 0.000000 0.062343
O O14 0.250000 0.750000 0.000000
O O15 0.894107 0.779716 0.720043
O O16 0.984816 0.000000 0.814406
O O17 0.397272 0.500000 0.661942
O O18 0.626265 0.500000 0.069702
O O19 0.500000 0.742107 0.000000
#
# Coordination Sequence:
#
# PCOD8096818 Si02
#       7
#     8   8   8   8   8   8   8
#     4   9  16  28  48  70  92 125 170 211 242 284
#     4   8  14  25  42  66  94 123 159 202 246 291
#     4   9  17  30  48  70  95 126 166 205 239 281
#     4  11  22  36  56  79 101 126 158 196 237 282
#     4  10  20  34  51  71  99 132 162 196 241 290
#     4   9  17  29  46  70  99 128 158 199 253 299
#     4   9  17  30  50  73  94 120 156 194 230 275
#
# _framework density 18.61515
#
# number of rings (size 3 to 8) (size 9 to 14) (size 15 to 20)
#    0.000    2.714    0.000    2.143    0.000    4.000 
#    0.000    1.429    0.000   13.714    0.000    0.000 
#    0.000   12.571    0.000    0.000    0.000    0.000 
#
# Total GULP energy -346932.460831 kJ/mol
# GULP energy per Si atom -12390.445030 kJ/mol
# Density = 1.857278 g / cm^3
# Si number density = 18.615150 Si / 1000 Ang^3
#
#
#
# Elastic Constant Matrix: (Units=GPa)
#
#
# Indices 1 2 3 4 5 6 
#
# 1 142.8874 24.6128 95.2002 0.0000 4.2094 0.0000
# 2 24.6128 22.6974 30.5591 0.0001 -0.7090 -0.0002
# 3 95.2002 30.5591 207.0055 0.0000 5.1751 0.0000
# 4 0.0000 0.0001 0.0000 21.7099 0.0000 0.9156
# 5 4.2094 -0.7090 5.1751 0.0000 33.1812 0.0000
# 6 0.0000 -0.0002 0.0000 0.9156 0.0000 20.2683
#
#
#
# Elastic Compliance Matrix: (Units=1/GPa)
#
#
# Indices 1 2 3 4 5 6 
#
# 1 0.010781 -0.006331 -0.004002 0.000000 -0.000879 0.000000
# 2 -0.006331 0.058904 -0.005859 0.000000 0.002976 0.000001
# 3 -0.004002 -0.005859 0.007556 0.000000 -0.000796 0.000000
# 4 0.000000 0.000000 0.000000 0.046150 0.000000 -0.002085
# 5 -0.000879 0.002976 -0.000796 0.000000 0.030437 0.000000
# 6 0.000000 0.000001 0.000000 -0.002085 0.000000 0.049432
#
#
# Mechanical properties :
#
#
# Convention : Reuss Voigt Hill
#
# Bulk Modulus (GPa) = 22.29213 74.81495 48.55354
# Shear Modulus (GPa) = 19.95260 29.84643 24.89951
#
# Velocity S-wave (km/s) = 3.27746 4.00852 3.66128
# Velocity P-wave (km/s) = 5.13065 7.85506 6.63421
#
# Compressibility (1/GPa) = 0.04485887
#
# Stress axis : x y z
#
# Youngs Moduli (GPa) = 92.75625 16.97687 132.34789
#
# Poissons Ratio (x) = 0.10747 0.52960
# Poissons Ratio (y) = 0.58721 0.77538
# Poissons Ratio (z) = 0.37117 0.09946
#
# Static dielectric constant tensor:
#      x y z
#    x 3.346100 0.000000 0.012630 
#    y 0.000000 3.090370 0.000000 
#    z 0.012630 0.000000 4.261790 
# 
# 
# High freq. dielectric constant tensor:
#      x y z
#    x 1.703250 0.000000 0.000700 
#    y 0.000000 1.686530 0.000000 
#    z 0.000700 0.000000 1.755180 
# 
# From -- ./inp_files/275183.got.cif
#   From: 2010.06.25/outbox.cif.g09.slc.cpg/sg12_138_cif.got.tgz:275183.got - 2010.06.28 00:19:55.
