data_PCOD8096125
_publ_section_title
;
Structure prediction by ZEFSAII (Michael W. Deem and Ramdas Pophale) SiO2 
 PCOD8096125
Probable space group: C 2/M
;
_chemical_formula_sum "Si O2"
_cell_formula_units_Z 56
_cell_length_a 26.540701
_cell_length_b 13.511033
_cell_length_c 13.047223
_cell_angle_alpha 90.000000
_cell_angle_beta 38.748990
_cell_angle_gamma 90.000000
_cell_volume 2928.402227
_symmetry_space_group_name_H-M "C 2/M"
_symmetry_group_IT_number 12
_symmetry_cell_setting 'monoclinic'
loop_
_space_group_symop_operation_xyz
x,y,z
-x,y,-z
-x,-y,-z
x,-y,z
1/2+x,1/2+y,z
1/2-x,1/2+y,-z
1/2-x,1/2-y,-z
1/2+x,1/2-y,z
loop_
_atom_site_type_symbol
_atom_site_label
_atom_site_fract_x
_atom_site_fract_y
_atom_site_fract_z
Si Si1 0.588077 0.697408 0.834991
Si Si2 0.211636 0.253268 0.801208
Si Si3 0.123875 0.610303 0.679067
Si Si4 0.046237 0.613641 0.589537
Si Si5 0.371655 0.884332 0.903724
Si Si6 0.291549 0.387054 0.510956
Si Si7 0.181789 0.615648 0.232234
O O1 0.647755 0.689660 0.836915
O O2 0.575792 0.813057 0.826132
O O3 0.625692 0.639875 0.678072
O O4 0.500000 0.652316 0.000000
O O5 0.277250 0.311032 0.627339
O O6 0.249654 0.177911 0.821359
O O7 0.165157 0.336896 0.937417
O O8 0.096325 0.500000 0.754869
O O9 0.106944 0.631066 0.587376
O O10 0.219345 0.625434 0.543546
O O11 0.024733 0.500000 0.607022
O O12 0.093945 0.650976 0.413343
O O13 0.959883 0.665406 0.744129
O O14 0.315714 0.864903 0.893212
O O15 0.378692 0.000000 0.916540
O O16 0.296748 0.500000 0.543386
O O17 0.195344 0.500000 0.236848
#
# Coordination Sequence:
#
# PCOD8096125 Si02
#       7
#     8   8   8   8   8   8   8
#     4  11  22  34  51  77 105 132 170 212 254 304
#     4  11  21  35  55  75 102 139 173 208 250 302
#     4   9  17  31  52  77 106 136 164 199 249 310
#     4   9  16  29  51  77 105 133 161 201 254 305
#     4  10  20  33  51  79 108 134 169 210 252 297
#     4  10  21  37  54  74 102 136 172 209 252 303
#     4  10  20  34  53  76 104 137 172 211 253 298
#
# _framework density 19.123055999999998
#
# number of rings (size 3 to 8) (size 9 to 14) (size 15 to 20)
#    0.000    2.000    0.000    5.571    0.000    4.571 
#    0.000    0.000    0.000    0.000    0.000    0.000 
#    0.000   11.429    0.000    0.000    0.000    0.000 
#
# Total GULP energy -347132.701479 kJ/mol
# GULP energy per Si atom -12397.596481 kJ/mol
# Density = 1.907953 g / cm^3
# Si number density = 19.123056 Si / 1000 Ang^3
#
#
#
# Elastic Constant Matrix: (Units=GPa)
#
#
# Indices 1 2 3 4 5 6 
#
# 1 35.5300 14.4788 10.3258 0.0000 1.1241 0.0000
# 2 14.4788 47.3597 5.9213 0.0000 -3.3956 0.0000
# 3 10.3258 5.9213 89.5106 0.0000 -6.2645 0.0000
# 4 0.0000 0.0000 0.0000 26.4350 0.0000 6.1345
# 5 1.1241 -3.3956 -6.2645 0.0000 25.2136 0.0000
# 6 0.0000 0.0000 0.0000 6.1345 0.0000 25.3675
#
#
#
# Elastic Compliance Matrix: (Units=1/GPa)
#
#
# Indices 1 2 3 4 5 6 
#
# 1 0.033350 -0.010030 -0.003442 0.000000 -0.003693 0.000000
# 2 -0.010030 0.024472 -0.000203 0.000000 0.003692 0.000000
# 3 -0.003442 -0.000203 0.011796 0.000000 0.003057 0.000000
# 4 0.000000 0.000000 0.000000 0.040078 0.000000 -0.009692
# 5 -0.003693 0.003692 0.003057 0.000000 0.041083 0.000000
# 6 0.000000 0.000000 0.000000 -0.009692 0.000000 0.041764
#
#
# Mechanical properties :
#
#
# Convention : Reuss Voigt Hill
#
# Bulk Modulus (GPa) = 23.65939 25.98356 24.82147
# Shear Modulus (GPa) = 21.36917 24.84819 23.10868
#
# Velocity S-wave (km/s) = 3.34646 3.60861 3.48000
# Velocity P-wave (km/s) = 5.22789 5.56595 5.39956
#
# Compressibility (1/GPa) = 0.04226651
#
# Stress axis : x y z
#
# Youngs Moduli (GPa) = 29.98527 40.86378 84.77209
#
# Poissons Ratio (x) = 0.40987 0.29179
# Poissons Ratio (y) = 0.30075 0.01724
# Poissons Ratio (z) = 0.10321 0.00831
#
# Static dielectric constant tensor:
#      x y z
#    x 3.446300 0.000000 0.027480 
#    y 0.000000 3.366140 0.000000 
#    z 0.027480 0.000000 3.479550 
# 
# 
# High freq. dielectric constant tensor:
#      x y z
#    x 1.737910 0.000000 0.006520 
#    y 0.000000 1.719810 0.000000 
#    z 0.006520 0.000000 1.744300 
# 
# From -- ./inp_files/183443.got.cif
#   From: 2010.06.25/outbox.cif.g09.slc.cpg/sg12_92_cif.got.tgz:183443.got - 2010.06.28 00:19:55.
