data_PCOD8096870
_publ_section_title
;
Structure prediction by ZEFSAII (Michael W. Deem and Ramdas Pophale) SiO2 
 PCOD8096870
Probable space group: C 2/M
;
_chemical_formula_sum "Si O2"
_cell_formula_units_Z 48
_cell_length_a 20.584991
_cell_length_b 9.112981
_cell_length_c 14.922951
_cell_angle_alpha 90.000000
_cell_angle_beta 108.850013
_cell_angle_gamma 90.000000
_cell_volume 2649.266946
_symmetry_space_group_name_H-M "C 2/M"
_symmetry_group_IT_number 12
_symmetry_cell_setting 'monoclinic'
loop_
_space_group_symop_operation_xyz
x,y,z
-x,y,-z
-x,-y,-z
x,-y,z
1/2+x,1/2+y,z
1/2-x,1/2+y,-z
1/2-x,1/2-y,-z
1/2+x,1/2-y,z
loop_
_atom_site_type_symbol
_atom_site_label
_atom_site_fract_x
_atom_site_fract_y
_atom_site_fract_z
Si Si1 0.401929 0.671848 0.102446
Si Si2 0.658812 0.331596 0.404588
Si Si3 0.055509 0.167818 0.212093
Si Si4 0.290819 0.673917 0.191952
Si Si5 0.135677 0.325986 0.093710
Si Si6 0.712176 0.327839 0.612555
O O1 0.390752 0.500000 0.078828
O O2 0.475166 0.703355 0.180553
O O3 0.344163 0.737833 0.143292
O O4 0.399633 0.756841 0.008483
O O5 0.682148 0.500000 0.407448
O O6 0.584812 0.306301 0.325821
O O7 0.657549 0.286279 0.509741
O O8 0.713869 0.237734 0.375657
O O9 0.094154 0.274367 0.161606
O O10 0.068094 0.000000 0.186688
O O11 0.294695 0.500000 0.189932
O O12 0.214335 0.728826 0.134541
O O13 0.312405 0.730567 0.301122
O O14 0.131121 0.500000 0.085635
O O15 0.723839 0.500000 0.624759
#
# Coordination Sequence:
#
# PCOD8096870 Si02
#       6
#     8   8   8   8   8   8
#     4  10  21  36  51  69 101 137 165 199 247 297
#     4   9  17  29  49  76 100 124 160 201 240 288
#     4  10  20  34  51  74 102 132 164 200 245 295
#     4   9  18  33  52  74  99 130 164 202 247 291
#     4  11  21  34  53  75  97 127 171 212 244 284
#     4   9  16  30  51  74  99 126 159 200 244 287
#
# _framework density 18.118220000000001
#
# number of rings (size 3 to 8) (size 9 to 14) (size 15 to 20)
#    0.000    2.333    1.667    1.500    0.000    2.667 
#    0.000    2.500    0.000    5.000    0.000    0.000 
#    0.000    8.000    0.000    0.000    0.000    0.000 
#
# Total GULP energy -297522.359122 kJ/mol
# GULP energy per Si atom -12396.764963 kJ/mol
# Density = 1.807698 g / cm^3
# Si number density = 18.118220 Si / 1000 Ang^3
#
#
#
# Elastic Constant Matrix: (Units=GPa)
#
#
# Indices 1 2 3 4 5 6 
#
# 1 81.1379 22.9906 32.0715 0.0000 16.8389 0.0000
# 2 22.9906 36.2394 26.8480 0.0000 6.1118 0.0000
# 3 32.0715 26.8480 124.1720 0.0000 20.0652 0.0000
# 4 0.0000 0.0000 0.0000 18.2142 0.0000 0.5617
# 5 16.8389 6.1118 20.0652 0.0000 23.3455 0.0000
# 6 0.0000 0.0000 0.0000 0.5617 0.0000 20.9597
#
#
#
# Elastic Compliance Matrix: (Units=1/GPa)
#
#
# Indices 1 2 3 4 5 6 
#
# 1 0.017054 -0.008465 -0.001097 0.000000 -0.009142 0.000000
# 2 -0.008465 0.037228 -0.006126 0.000000 0.001624 0.000000
# 3 -0.001097 -0.006126 0.010770 0.000000 -0.006861 0.000000
# 4 0.000000 0.000000 0.000000 0.054948 0.000000 -0.001473
# 5 -0.009142 0.001624 -0.006861 0.000000 0.054901 0.000000
# 6 0.000000 0.000000 0.000000 -0.001473 0.000000 0.047750
#
#
# Mechanical properties :
#
#
# Convention : Reuss Voigt Hill
#
# Bulk Modulus (GPa) = 29.69330 45.04106 37.36718
# Shear Modulus (GPa) = 18.85000 23.14651 20.99826
#
# Velocity S-wave (km/s) = 3.22901 3.57813 3.40804
# Velocity P-wave (km/s) = 5.50692 6.47952 6.01292
#
# Compressibility (1/GPa) = 0.03367763
#
# Stress axis : x y z
#
# Youngs Moduli (GPa) = 58.63669 26.86116 92.85070
#
# Poissons Ratio (x) = 0.22737 0.10189
# Poissons Ratio (y) = 0.49633 0.56876
# Poissons Ratio (z) = 0.06435 0.16454
#
# Static dielectric constant tensor:
#      x y z
#    x 3.335350 0.000000 0.010050 
#    y 0.000000 3.176400 0.000000 
#    z 0.010050 0.000000 3.759540 
# 
# 
# High freq. dielectric constant tensor:
#      x y z
#    x 1.680570 0.000000 0.005860 
#    y 0.000000 1.682010 0.000000 
#    z 0.005860 0.000000 1.722870 
# 
# From -- ./inp_files/229899.got.cif
#   From: 2010.06.25/outbox.cif.g09.slc.cpg/sg12_115_cif.got.tgz:229899.got - 2010.06.28 00:19:55.
