data_PCOD8096637
_publ_section_title
;
Structure prediction by ZEFSAII (Michael W. Deem and Ramdas Pophale) SiO2 
 PCOD8096637
Probable space group: C 2/M
;
_chemical_formula_sum "Si O2"
_cell_formula_units_Z 56
_cell_length_a 17.202622
_cell_length_b 14.659162
_cell_length_c 14.065639
_cell_angle_alpha 90.000000
_cell_angle_beta 126.216681
_cell_angle_gamma 90.000000
_cell_volume 2861.691841
_symmetry_space_group_name_H-M "C 2/M"
_symmetry_group_IT_number 12
_symmetry_cell_setting 'monoclinic'
loop_
_space_group_symop_operation_xyz
x,y,z
-x,y,-z
-x,-y,-z
x,-y,z
1/2+x,1/2+y,z
1/2-x,1/2+y,-z
1/2-x,1/2-y,-z
1/2+x,1/2-y,z
loop_
_atom_site_type_symbol
_atom_site_label
_atom_site_fract_x
_atom_site_fract_y
_atom_site_fract_z
Si Si1 0.215335 0.720894 0.710710
Si Si2 0.742763 0.350618 0.458753
Si Si3 0.909368 0.400769 0.699465
Si Si4 0.470244 0.603140 0.736581
Si Si5 0.452046 0.107083 0.366001
Si Si6 0.070773 0.754615 0.136155
Si Si7 0.912654 0.105744 0.365110
O O1 0.215951 0.656900 0.617477
O O2 0.144796 0.663401 0.727231
O O3 0.324269 0.719446 0.830188
O O4 0.174671 0.825007 0.671004
O O5 0.750000 0.250000 0.500000
O O6 0.806069 0.413095 0.573708
O O7 0.634978 0.388355 0.386193
O O8 0.942161 0.500000 0.759993
O O9 0.908062 0.334257 0.786801
O O10 0.980018 0.361866 0.670452
O O11 0.485654 0.500000 0.783468
O O12 0.478319 0.667578 0.834702
O O13 0.550058 0.627424 0.714836
O O14 0.500000 0.138629 0.500000
O O15 0.430673 0.000000 0.350838
O O16 0.000000 0.730121 0.000000
O O17 0.000000 0.123232 0.500000
O O18 0.876953 0.000000 0.346599
#
# Coordination Sequence:
#
# PCOD8096637 Si02
#       7
#     8   8   8   8   8   8   8
#     4  11  21  34  61  83 119 153 185 241 288 348
#     4  11  19  33  54  92 121 154 184 227 296 355
#     4  11  22  38  60  85 120 155 190 238 293 352
#     4  10  21  38  61  86 121 155 191 240 290 350
#     4  10  20  33  56  92 125 149 176 224 296 368
#     4  11  26  44  59  81 111 157 215 252 284 325
#     4  10  21  34  55  92 127 152 178 222 294 369
#
# _framework density 19.568843000000001
#
# number of rings (size 3 to 8) (size 9 to 14) (size 15 to 20)
#    0.000    1.429    4.286    2.571    0.000    3.429 
#    0.000    2.857    0.000    3.429    0.000    0.000 
#    0.000    0.000    0.000    0.000    0.000    0.000 
#
# Total GULP energy -347057.126221 kJ/mol
# GULP energy per Si atom -12394.897365 kJ/mol
# Density = 1.952430 g / cm^3
# Si number density = 19.568843 Si / 1000 Ang^3
#
#
#
# Elastic Constant Matrix: (Units=GPa)
#
#
# Indices 1 2 3 4 5 6 
#
# 1 62.5238 13.4408 32.0125 0.0000 7.4290 0.0000
# 2 13.4408 61.3841 17.9095 0.0000 1.5027 0.0000
# 3 32.0125 17.9095 100.2286 0.0000 11.4570 0.0000
# 4 0.0000 0.0000 0.0000 -0.8096 0.0000 8.2361
# 5 7.4290 1.5027 11.4570 0.0000 16.3948 0.0000
# 6 0.0000 0.0000 0.0000 8.2361 0.0000 9.3991
#
#
#
# Elastic Compliance Matrix: (Units=1/GPa)
#
#
# Indices 1 2 3 4 5 6 
#
# 1 0.019882 -0.002686 -0.005291 0.000000 -0.005065 0.000000
# 2 -0.002686 0.017555 -0.002428 0.000000 0.001305 0.000000
# 3 -0.005291 -0.002428 0.012826 0.000000 -0.006343 0.000000
# 4 0.000000 0.000000 0.000000 -0.124587 0.000000 0.109171
# 5 -0.005065 0.001305 -0.006343 0.000000 0.067603 0.000000
# 6 0.000000 0.000000 0.000000 0.109171 0.000000 0.010731
#
#
# Mechanical properties :
#
#
# Convention : Reuss Voigt Hill
#
# Bulk Modulus (GPa) = 33.95205 38.98469 36.46837
# Shear Modulus (GPa) = 144.34222 15.71510 80.02866
#
# Velocity S-wave (km/s) = 8.59775 2.83692 6.40193
# Velocity P-wave (km/s) = 10.76799 5.54039 8.56287
#
# Compressibility (1/GPa) = 0.02945330
#
# Stress axis : x y z
#
# Youngs Moduli (GPa) = 50.29587 56.96235 77.96541
#
# Poissons Ratio (x) = 0.15298 0.41255
# Poissons Ratio (y) = 0.13508 0.18932
# Poissons Ratio (z) = 0.26614 0.13832
#
# Static dielectric constant tensor:
#      x y z
#    x 3.662240 0.000000 0.113580 
#    y 0.000000 3.472440 0.000000 
#    z 0.113580 0.000000 3.006100 
# 
# 
# High freq. dielectric constant tensor:
#      x y z
#    x 1.777040 0.000000 0.002490 
#    y 0.000000 1.777770 0.000000 
#    z 0.002490 0.000000 1.706260 
# 
# From -- ./inp_files/225377.got.cif
#   From: 2010.06.25/outbox.cif.g09.slc.cpg/sg12_113_cif.got.tgz:225377.got - 2010.06.28 00:19:55.
