data_PCOD8096476
_publ_section_title
;
Structure prediction by ZEFSAII (Michael W. Deem and Ramdas Pophale) SiO2 
 PCOD8096476
Probable space group: C 2/M
;
_chemical_formula_sum "Si O2"
_cell_formula_units_Z 56
_cell_length_a 19.067769
_cell_length_b 17.375354
_cell_length_c 9.790591
_cell_angle_alpha 90.000000
_cell_angle_beta 99.533529
_cell_angle_gamma 90.000000
_cell_volume 3198.913812
_symmetry_space_group_name_H-M "C 2/M"
_symmetry_group_IT_number 12
_symmetry_cell_setting 'monoclinic'
loop_
_space_group_symop_operation_xyz
x,y,z
-x,y,-z
-x,-y,-z
x,-y,z
1/2+x,1/2+y,z
1/2-x,1/2+y,-z
1/2-x,1/2-y,-z
1/2+x,1/2-y,z
loop_
_atom_site_type_symbol
_atom_site_label
_atom_site_fract_x
_atom_site_fract_y
_atom_site_fract_z
Si Si1 0.191055 0.184321 0.108904
Si Si2 0.555832 0.409881 0.132450
Si Si3 0.986964 0.328800 0.150940
Si Si4 0.816381 0.266774 0.613959
Si Si5 0.464040 0.302011 0.633042
Si Si6 0.834493 0.659999 0.031212
Si Si7 0.870853 0.411252 0.763119
O O1 0.132068 0.120022 0.109025
O O2 0.204582 0.233134 0.247696
O O3 0.263316 0.139499 0.091512
O O4 0.165362 0.247236 0.989698
O O5 0.560013 0.500000 0.149144
O O6 0.534266 0.378381 0.274388
O O7 0.500000 0.383876 0.000000
O O8 0.906459 0.360759 0.138503
O O9 0.996770 0.262884 0.265730
O O10 0.044285 0.395865 0.198779
O O11 0.000000 0.296827 0.000000
O O12 0.750000 0.250000 0.500000
O O13 0.883902 0.223053 0.573375
O O14 0.834936 0.357775 0.634741
O O15 0.500000 0.318600 0.500000
O O16 0.833498 0.609516 0.893864
O O17 0.857661 0.500000 0.720844
#
# Coordination Sequence:
#
# PCOD8096476 Si02
#       7
#     8   8   8   8   8   8   8
#     4   9  18  32  50  75 103 132 172 220 256 302
#     4  10  20  36  54  71 101 139 170 213 275 323
#     4   9  17  31  53  79 104 137 171 206 258 313
#     4   9  19  35  52  74 103 141 178 207 253 308
#     4  10  20  33  54  79 101 130 178 225 251 302
#     4   9  17  29  52  80 105 129 169 218 255 303
#     4   9  18  33  52  77 109 136 167 213 260 308
#
# _framework density 17.505942000000001
#
# number of rings (size 3 to 8) (size 9 to 14) (size 15 to 20)
#    0.000    2.714    0.000    3.857    2.000    3.429 
#    2.571    2.857    0.000    6.857    0.000    0.000 
#    0.000    0.000    0.000    0.000    0.000    0.000 
#
# Total GULP energy -347070.783764 kJ/mol
# GULP energy per Si atom -12395.385134 kJ/mol
# Density = 1.746610 g / cm^3
# Si number density = 17.505942 Si / 1000 Ang^3
#
#
#
# Elastic Constant Matrix: (Units=GPa)
#
#
# Indices 1 2 3 4 5 6 
#
# 1 131.9287 56.2773 71.6784 0.0000 2.0785 0.0000
# 2 56.2773 93.2467 41.1048 0.0000 4.0038 0.0000
# 3 71.6784 41.1048 84.8581 0.0000 -0.7802 0.0000
# 4 0.0000 0.0000 0.0000 12.5834 0.0000 2.2799
# 5 2.0785 4.0038 -0.7802 0.0000 36.4065 0.0000
# 6 0.0000 0.0000 0.0000 2.2799 0.0000 15.7757
#
#
#
# Elastic Compliance Matrix: (Units=1/GPa)
#
#
# Indices 1 2 3 4 5 6 
#
# 1 0.015387 -0.004486 -0.010830 0.000000 -0.000617 0.000000
# 2 -0.004486 0.015043 -0.003511 0.000000 -0.001473 0.000000
# 3 -0.010830 -0.003511 0.022647 0.000000 0.001490 0.000000
# 4 0.000000 0.000000 0.000000 0.081606 0.000000 -0.011793
# 5 -0.000617 -0.001473 0.001490 0.000000 0.027697 0.000000
# 6 0.000000 0.000000 0.000000 -0.011793 0.000000 0.065093
#
#
# Mechanical properties :
#
#
# Convention : Reuss Voigt Hill
#
# Bulk Modulus (GPa) = 64.83935 72.01715 68.42825
# Shear Modulus (GPa) = 18.50018 22.35133 20.42576
#
# Velocity S-wave (km/s) = 3.25436 3.57709 3.41954
# Velocity P-wave (km/s) = 7.15822 7.63471 7.40030
#
# Compressibility (1/GPa) = 0.01542273
#
# Stress axis : x y z
#
# Youngs Moduli (GPa) = 64.98840 66.47771 44.15664
#
# Poissons Ratio (x) = 0.29823 0.47822
# Poissons Ratio (y) = 0.29155 0.15502
# Poissons Ratio (z) = 0.70383 0.23338
#
# Static dielectric constant tensor:
#      x y z
#    x 3.432580 0.000000 0.034970 
#    y 0.000000 3.033590 0.000000 
#    z 0.034970 0.000000 2.881970 
# 
# 
# High freq. dielectric constant tensor:
#      x y z
#    x 1.687790 0.000000 0.001600 
#    y 0.000000 1.656140 0.000000 
#    z 0.001600 0.000000 1.658640 
# 
# From -- ./inp_files/87310.got.cif
#   From: 2010.06.25/outbox.cif.g09.slc.cpg/sg12_44_cif.got.tgz:87310.got - 2010.06.28 00:19:55.
