data_PCOD8096229
_publ_section_title
;
Structure prediction by ZEFSAII (Michael W. Deem and Ramdas Pophale) SiO2 
 PCOD8096229
Probable space group: C 2/M
;
_chemical_formula_sum "Si O2"
_cell_formula_units_Z 64
_cell_length_a 8.904787
_cell_length_b 18.756681
_cell_length_c 20.592598
_cell_angle_alpha 90.000000
_cell_angle_beta 89.650318
_cell_angle_gamma 90.000000
_cell_volume 3439.399163
_symmetry_space_group_name_H-M "C 2/M"
_symmetry_group_IT_number 12
_symmetry_cell_setting 'monoclinic'
loop_
_space_group_symop_operation_xyz
x,y,z
-x,y,-z
-x,-y,-z
x,-y,z
1/2+x,1/2+y,z
1/2-x,1/2+y,-z
1/2-x,1/2-y,-z
1/2+x,1/2-y,z
loop_
_atom_site_type_symbol
_atom_site_label
_atom_site_fract_x
_atom_site_fract_y
_atom_site_fract_z
Si Si1 0.570684 0.081502 0.314831
Si Si2 0.918923 0.081803 0.307347
Si Si3 0.421907 0.181601 0.566729
Si Si4 0.416083 0.684020 0.940090
Si Si5 0.925402 0.181015 0.796446
Si Si6 0.577553 0.832975 0.795218
Si Si7 0.931299 0.335480 0.061234
Si Si8 0.068296 0.169670 0.567181
O O1 0.743177 0.091115 0.294757
O O2 0.530583 0.125137 0.379252
O O3 0.470625 0.107793 0.255632
O O4 0.530391 0.000000 0.329607
O O5 0.961629 0.110627 0.378314
O O6 0.003561 0.124799 0.252028
O O7 0.969986 0.000000 0.303770
O O8 0.500000 0.157000 0.500000
O O9 0.243700 0.186140 0.557463
O O10 0.483004 0.258462 0.588600
O O11 0.457662 0.651495 0.869425
O O12 0.240083 0.681889 0.953644
O O13 0.467471 0.765190 0.938230
O O14 0.500000 0.643631 0.000000
O O15 0.749567 0.186813 0.783769
O O16 0.987183 0.260149 0.784831
O O17 0.551915 0.868749 0.866833
O O18 0.000000 0.381967 0.000000
O O19 0.000000 0.140331 0.500000
#
# Coordination Sequence:
#
# PCOD8096229 Si02
#       8
#     8   8   8   8   8   8   8   8
#     4  10  22  38  54  75 105 139 174 214 259 306
#     4  10  22  38  54  75 105 139 174 214 259 306
#     4  10  20  35  56  80 105 133 168 209 253 303
#     4   9  16  26  43  70 101 130 164 207 255 304
#     4  10  20  33  52  78 105 136 174 215 258 307
#     4  10  20  33  52  78 105 136 174 215 258 307
#     4   9  16  26  43  70 101 130 164 207 255 304
#     4  10  20  35  56  80 105 133 168 209 253 303
#
# _framework density 18.607903
#
# number of rings (size 3 to 8) (size 9 to 14) (size 15 to 20)
#    0.000    2.250    0.000    4.500    0.000    8.000 
#    0.000    0.000    0.000    0.750    0.000    0.000 
#    0.000    0.000    0.000    0.000    0.000    0.000 
#
# Total GULP energy -396652.002592 kJ/mol
# GULP energy per Si atom -12395.375081 kJ/mol
# Density = 1.856555 g / cm^3
# Si number density = 18.607903 Si / 1000 Ang^3
#
#
#
# Elastic Constant Matrix: (Units=GPa)
#
#
# Indices 1 2 3 4 5 6 
#
# 1 65.8720 10.9568 36.5469 0.0000 10.2630 0.0000
# 2 10.9568 54.5838 37.6815 0.0000 4.6795 0.0000
# 3 36.5469 37.6815 116.0048 0.0000 10.3943 0.0000
# 4 0.0000 0.0000 0.0000 -0.0844 0.0000 1.7637
# 5 10.2630 4.6795 10.3943 0.0000 35.8623 0.0000
# 6 0.0000 0.0000 0.0000 1.7637 0.0000 19.8175
#
#
#
# Elastic Compliance Matrix: (Units=1/GPa)
#
#
# Indices 1 2 3 4 5 6 
#
# 1 0.018894 0.000525 -0.005783 0.000000 -0.003800 0.000000
# 2 0.000525 0.023658 -0.007762 0.000000 -0.000988 0.000000
# 3 -0.005783 -0.007762 0.013064 0.000000 -0.001119 0.000000
# 4 0.000000 0.000000 0.000000 -4.142904 0.000000 0.368702
# 5 -0.003800 -0.000988 -0.001119 0.000000 0.029425 0.000000
# 6 0.000000 0.000000 0.000000 0.368702 0.000000 0.017647
#
#
# Mechanical properties :
#
#
# Convention : Reuss Voigt Hill
#
# Bulk Modulus (GPa) = 33.81005 45.20343 39.50674
# Shear Modulus (GPa) = -1.24865 21.20410 9.97773
#
# Velocity S-wave (km/s) = -0.82005 3.37934 2.31813
# Velocity P-wave (km/s) = 4.16083 6.29062 5.33313
#
# Compressibility (1/GPa) = 0.02957701
#
# Stress axis : x y z
#
# Youngs Moduli (GPa) = 52.92734 42.26908 76.54888
#
# Poissons Ratio (x) = -0.02219 0.44265
# Poissons Ratio (y) = -0.02779 0.59415
# Poissons Ratio (z) = 0.30605 0.32808
#
# Static dielectric constant tensor:
#      x y z
#    x 3.518420 0.000000 0.014070 
#    y 0.000000 3.045250 0.000000 
#    z 0.014070 0.000000 4.122840 
# 
# 
# High freq. dielectric constant tensor:
#      x y z
#    x 1.735800 0.000000 0.000220 
#    y 0.000000 1.675820 0.000000 
#    z 0.000220 0.000000 1.748310 
# 
# From -- ./inp_files/300818.got.cif
#   From: 2010.06.25/outbox.cif.g09.slc.cpg/sg12_151_cif.got.tgz:300818.got - 2010.06.28 00:19:55.
