data_PCOD8096954
_publ_section_title
;
Structure prediction by ZEFSAII (Michael W. Deem and Ramdas Pophale) SiO2 
 PCOD8096954
Probable space group: C 2/M
;
_chemical_formula_sum "Si O2"
_cell_formula_units_Z 56
_cell_length_a 19.468817
_cell_length_b 9.393780
_cell_length_c 20.556570
_cell_angle_alpha 90.000000
_cell_angle_beta 124.156372
_cell_angle_gamma 90.000000
_cell_volume 3111.021236
_symmetry_space_group_name_H-M "C 2/M"
_symmetry_group_IT_number 12
_symmetry_cell_setting 'monoclinic'
loop_
_space_group_symop_operation_xyz
x,y,z
-x,y,-z
-x,-y,-z
x,-y,z
1/2+x,1/2+y,z
1/2-x,1/2+y,-z
1/2-x,1/2-y,-z
1/2+x,1/2-y,z
loop_
_atom_site_type_symbol
_atom_site_label
_atom_site_fract_x
_atom_site_fract_y
_atom_site_fract_z
Si Si1 0.555191 0.667535 0.089970
Si Si2 0.314845 0.337774 0.493673
Si Si3 0.966306 0.665672 0.791105
Si Si4 0.279613 0.156974 0.687649
Si Si5 0.740469 0.333272 0.200362
Si Si6 0.916019 0.667056 0.258719
Si Si7 0.977767 0.666311 0.562143
O O1 0.547148 0.500000 0.099418
O O2 0.522403 0.749684 0.135630
O O3 0.650848 0.709478 0.123067
O O4 0.500000 0.716208 0.000000
O O5 0.321404 0.500000 0.522937
O O6 0.250000 0.250000 0.500000
O O7 0.285365 0.334978 0.404290
O O8 0.402462 0.261762 0.546295
O O9 0.984787 0.500000 0.814943
O O10 0.873566 0.688546 0.713602
O O11 0.028673 0.732931 0.770285
O O12 0.249991 0.271895 0.722988
O O13 0.277983 0.000000 0.719097
O O14 0.747927 0.500000 0.212982
O O15 0.819914 0.279913 0.200313
O O16 0.922701 0.500000 0.252627
O O17 0.948196 0.705502 0.348426
O O18 0.953591 0.500000 0.553869
O O19 0.000000 0.707747 0.500000
#
# Coordination Sequence:
#
# PCOD8096954 Si02
#       7
#     8   8   8   8   8   8   8
#     4   9  18  33  52  75 102 126 152 194 244 291
#     4  11  22  34  49  70  98 131 169 214 260 302
#     4   9  17  31  51  71  94 126 162 198 237 285
#     4   9  18  32  48  67  93 124 158 202 249 286
#     4   9  17  31  53  74  92 124 165 195 230 290
#     4   9  17  31  50  72  98 128 165 207 245 284
#     4  10  20  34  52  73 100 135 173 214 259 303
#
# _framework density 18.000519000000001
#
# number of rings (size 3 to 8) (size 9 to 14) (size 15 to 20)
#    0.000    2.571    0.000    2.143    0.000    5.143 
#    0.000    5.714    0.000    0.000    0.000    0.000 
#    0.000    0.000    0.000    0.000    0.000    0.000 
#
# Total GULP energy -347052.708659 kJ/mol
# GULP energy per Si atom -12394.739595 kJ/mol
# Density = 1.795955 g / cm^3
# Si number density = 18.000519 Si / 1000 Ang^3
#
#
#
# Elastic Constant Matrix: (Units=GPa)
#
#
# Indices 1 2 3 4 5 6 
#
# 1 138.1866 32.5739 47.7169 0.0000 10.8992 0.0000
# 2 32.5739 40.7068 21.7019 0.0000 6.4215 0.0000
# 3 47.7169 21.7019 91.2842 0.0000 5.5045 0.0000
# 4 0.0000 0.0000 0.0000 20.6443 0.0000 -1.4803
# 5 10.8992 6.4215 5.5045 0.0000 21.9223 0.0000
# 6 0.0000 0.0000 0.0000 -1.4803 0.0000 27.1486
#
#
#
# Elastic Compliance Matrix: (Units=1/GPa)
#
#
# Indices 1 2 3 4 5 6 
#
# 1 0.010062 -0.005665 -0.003769 0.000000 -0.002397 0.000000
# 2 -0.005665 0.032312 -0.004386 0.000000 -0.005547 0.000000
# 3 -0.003769 -0.004386 0.013989 0.000000 -0.000354 0.000000
# 4 0.000000 0.000000 0.000000 0.048630 0.000000 0.002652
# 5 -0.002397 -0.005547 -0.000354 0.000000 0.048521 0.000000
# 6 0.000000 0.000000 0.000000 0.002652 0.000000 0.036979
#
#
# Mechanical properties :
#
#
# Convention : Reuss Voigt Hill
#
# Bulk Modulus (GPa) = 34.81362 52.68478 43.74920
# Shear Modulus (GPa) = 21.95802 25.15538 23.55670
#
# Velocity S-wave (km/s) = 3.49643 3.74234 3.62148
# Velocity P-wave (km/s) = 5.97347 6.92860 6.46869
#
# Compressibility (1/GPa) = 0.02872439
#
# Stress axis : x y z
#
# Youngs Moduli (GPa) = 99.38119 30.94791 71.48522
#
# Poissons Ratio (x) = 0.17531 0.26940
# Poissons Ratio (y) = 0.56296 0.31356
# Poissons Ratio (z) = 0.37453 0.13575
#
# Static dielectric constant tensor:
#      x y z
#    x 3.558610 0.000000 0.148140 
#    y 0.000000 3.350710 0.000000 
#    z 0.148140 0.000000 3.209560 
# 
# 
# High freq. dielectric constant tensor:
#      x y z
#    x 1.703280 0.000000 0.011350 
#    y 0.000000 1.682550 0.000000 
#    z 0.011350 0.000000 1.682750 
# 
# From -- ./inp_files/320237.got.cif
#   From: 2010.06.25/outbox.cif.g09.slc.cpg/sg12_161_cif.got.tgz:320237.got - 2010.06.28 00:19:55.
