data_PCOD8096026
_publ_section_title
;
Structure prediction by ZEFSAII (Michael W. Deem and Ramdas Pophale) SiO2 
 PCOD8096026
Probable space group: C 2/M
;
_chemical_formula_sum "Si O2"
_cell_formula_units_Z 64
_cell_length_a 14.348239
_cell_length_b 9.315790
_cell_length_c 26.843452
_cell_angle_alpha 90.000000
_cell_angle_beta 104.100180
_cell_angle_gamma 90.000000
_cell_volume 3479.931875
_symmetry_space_group_name_H-M "C 2/M"
_symmetry_group_IT_number 12
_symmetry_cell_setting 'monoclinic'
loop_
_space_group_symop_operation_xyz
x,y,z
-x,y,-z
-x,-y,-z
x,-y,z
1/2+x,1/2+y,z
1/2-x,1/2+y,-z
1/2-x,1/2-y,-z
1/2+x,1/2-y,z
loop_
_atom_site_type_symbol
_atom_site_label
_atom_site_fract_x
_atom_site_fract_y
_atom_site_fract_z
Si Si1 0.629509 0.667258 0.308806
Si Si2 0.534012 0.166839 0.760133
Si Si3 0.049214 0.833044 0.057446
Si Si4 0.276858 0.667043 0.576045
Si Si5 0.745331 0.335744 0.225986
Si Si6 0.712542 0.833189 0.126279
Si Si7 0.390831 0.332371 0.492608
Si Si8 0.066858 0.835757 0.859833
O O1 0.602083 0.500000 0.307259
O O2 0.533029 0.758633 0.289520
O O3 0.678756 0.718100 0.366120
O O4 0.702664 0.702642 0.273901
O O5 0.641856 0.195565 0.756146
O O6 0.516115 0.237568 0.811794
O O7 0.509009 0.000000 0.760719
O O8 0.145286 0.740648 0.076534
O O9 0.975811 0.797724 0.092228
O O10 0.077450 0.000000 0.059534
O O11 0.000000 0.783812 0.000000
O O12 0.250791 0.500000 0.573336
O O13 0.355300 0.702555 0.543810
O O14 0.177587 0.751278 0.555194
O O15 0.724784 0.500000 0.208217
O O16 0.694564 0.237855 0.177870
O O17 0.820340 0.804318 0.122235
O O18 0.687732 0.000000 0.127082
O O19 0.500000 0.277183 0.500000
O O20 0.384102 0.500000 0.479507
O O21 0.046481 0.000000 0.841956
#
# Coordination Sequence:
#
# PCOD8096026 Si02
#       8
#     8   8   8   8   8   8   8   8
#     4  10  20  34  51  72 103 137 164 199 247 294
#     4  10  20  33  51  76 101 128 166 205 241 288
#     4  10  21  36  53  73  98 130 165 199 243 299
#     4   9  19  34  51  74 101 131 169 205 242 294
#     4   9  19  35  52  71  99 134 166 197 241 296
#     4  10  20  34  53  76 100 127 163 206 246 287
#     4   9  18  34  54  74  99 131 166 207 252 292
#     4   9  19  36  54  72  99 133 164 198 245 296
#
# _framework density 18.391165000000001
#
# number of rings (size 3 to 8) (size 9 to 14) (size 15 to 20)
#    0.000    2.500    0.000    1.500    0.000    7.500 
#    0.000    0.000    0.000    0.000    0.000    0.000 
#    0.000    0.000    0.000    0.000    0.000    0.000 
#
# Total GULP energy -396939.198952 kJ/mol
# GULP energy per Si atom -12404.349967 kJ/mol
# Density = 1.834931 g / cm^3
# Si number density = 18.391165 Si / 1000 Ang^3
#
#
#
# Elastic Constant Matrix: (Units=GPa)
#
#
# Indices 1 2 3 4 5 6 
#
# 1 91.8826 44.9972 52.7075 0.0000 19.5106 0.0000
# 2 44.9972 73.0402 53.9732 0.0000 20.1421 0.0000
# 3 52.7075 53.9732 131.6320 0.0000 28.2989 0.0000
# 4 0.0000 0.0000 0.0000 30.0316 0.0000 10.1427
# 5 19.5106 20.1421 28.2989 0.0000 27.7030 0.0000
# 6 0.0000 0.0000 0.0000 10.1427 0.0000 30.8467
#
#
#
# Elastic Compliance Matrix: (Units=1/GPa)
#
#
# Indices 1 2 3 4 5 6 
#
# 1 0.016910 -0.007169 -0.003065 0.000000 -0.003566 0.000000
# 2 -0.007169 0.024076 -0.005540 0.000000 -0.006796 0.000000
# 3 -0.003065 -0.005540 0.012514 0.000000 -0.006597 0.000000
# 4 0.000000 0.000000 0.000000 0.037458 0.000000 -0.012317
# 5 -0.003566 -0.006796 -0.006597 0.000000 0.050289 0.000000
# 6 0.000000 0.000000 0.000000 -0.012317 0.000000 0.036468
#
#
# Mechanical properties :
#
#
# Convention : Reuss Voigt Hill
#
# Bulk Modulus (GPa) = 45.55518 66.65672 56.10595
# Shear Modulus (GPa) = 23.08623 27.37473 25.23048
#
# Velocity S-wave (km/s) = 3.54685 3.86226 3.70791
# Velocity P-wave (km/s) = 6.44961 7.49746 6.99319
#
# Compressibility (1/GPa) = 0.02195140
#
# Stress axis : x y z
#
# Youngs Moduli (GPa) = 59.13773 41.53525 79.91184
#
# Poissons Ratio (x) = 0.29779 0.24490
# Poissons Ratio (y) = 0.42399 0.44271
# Poissons Ratio (z) = 0.18123 0.23010
#
# Static dielectric constant tensor:
#      x y z
#    x 3.447180 0.000000 0.032680 
#    y 0.000000 3.370570 0.000000 
#    z 0.032680 0.000000 3.381260 
# 
# 
# High freq. dielectric constant tensor:
#      x y z
#    x 1.719880 0.000000 0.003840 
#    y 0.000000 1.710630 0.000000 
#    z 0.003840 0.000000 1.708760 
# 
# From -- ./inp_files/359701.got.cif
#   From: 2010.06.25/outbox.cif.g09.slc.cpg/sg12_180_cif.got.tgz:359701.got - 2010.06.28 00:19:55.
