data_PCOD8096945
_publ_section_title
;
Structure prediction by ZEFSAII (Michael W. Deem and Ramdas Pophale) SiO2 
 PCOD8096945
Probable space group: C 2/M
;
_chemical_formula_sum "Si O2"
_cell_formula_units_Z 56
_cell_length_a 14.316075
_cell_length_b 9.327992
_cell_length_c 31.221169
_cell_angle_alpha 90.000000
_cell_angle_beta 133.033633
_cell_angle_gamma 90.000000
_cell_volume 3047.550314
_symmetry_space_group_name_H-M "C 2/M"
_symmetry_group_IT_number 12
_symmetry_cell_setting 'monoclinic'
loop_
_space_group_symop_operation_xyz
x,y,z
-x,y,-z
-x,-y,-z
x,-y,z
1/2+x,1/2+y,z
1/2-x,1/2+y,-z
1/2-x,1/2-y,-z
1/2+x,1/2-y,z
loop_
_atom_site_type_symbol
_atom_site_label
_atom_site_fract_x
_atom_site_fract_y
_atom_site_fract_z
Si Si1 0.601101 0.166113 0.737597
Si Si2 0.067032 0.333647 0.924478
Si Si3 0.821920 0.167199 0.559568
Si Si4 0.381635 0.334875 0.342065
Si Si5 0.713979 0.164418 0.147724
Si Si6 0.272876 0.835268 0.945496
Si Si7 0.805699 0.665964 0.639985
O O1 0.649013 0.241045 0.709131
O O2 0.674877 0.233154 0.800765
O O3 0.451519 0.190551 0.700011
O O4 0.635035 0.000000 0.744271
O O5 0.094053 0.500000 0.926844
O O6 0.142202 0.250305 0.911439
O O7 0.918553 0.299293 0.870258
O O8 0.116265 0.284466 0.987056
O O9 0.750000 0.250000 0.500000
O O10 0.776248 0.234751 0.590098
O O11 0.972267 0.189347 0.598254
O O12 0.784743 0.000000 0.547650
O O13 0.356083 0.500000 0.322060
O O14 0.288629 0.286040 0.351390
O O15 0.682160 0.194328 0.088350
O O16 0.755915 0.000000 0.168320
O O17 0.240213 0.000000 0.942899
O O18 0.781859 0.500000 0.619988
#
# Coordination Sequence:
#
# PCOD8096945 Si02
#       7
#     8   8   8   8   8   8   8
#     4  10  21  35  52  76 103 129 166 217 259 293
#     4   9  18  33  52  73  98 130 166 204 250 304
#     4  10  20  34  54  81 111 139 170 209 249 295
#     4   9  19  37  58  76 100 139 177 206 248 304
#     4  10  20  34  52  72  99 135 169 202 248 309
#     4   9  18  33  52  74  99 128 165 208 252 300
#     4   9  19  37  57  75 100 136 174 211 252 297
#
# _framework density 18.375413999999999
#
# number of rings (size 3 to 8) (size 9 to 14) (size 15 to 20)
#    0.000    2.571    0.000    1.286    0.000    6.286 
#    0.000    7.143    0.000    4.286    0.000    0.000 
#    0.000    0.000    0.000    0.000    0.000    0.000 
#
# Total GULP energy -347223.292305 kJ/mol
# GULP energy per Si atom -12400.831868 kJ/mol
# Density = 1.833359 g / cm^3
# Si number density = 18.375414 Si / 1000 Ang^3
#
#
#
# Elastic Constant Matrix: (Units=GPa)
#
#
# Indices 1 2 3 4 5 6 
#
# 1 105.2362 38.9523 19.4583 0.0000 -1.9946 0.0000
# 2 38.9523 73.4374 35.0955 0.0000 2.3353 0.0000
# 3 19.4583 35.0955 60.8390 0.0000 7.4281 0.0000
# 4 0.0000 0.0000 0.0000 36.2770 0.0000 -1.5529
# 5 -1.9946 2.3353 7.4281 0.0000 12.7909 0.0000
# 6 0.0000 0.0000 0.0000 -1.5529 0.0000 29.4070
#
#
#
# Elastic Compliance Matrix: (Units=1/GPa)
#
#
# Indices 1 2 3 4 5 6 
#
# 1 0.011961 -0.006110 -0.000715 0.000000 0.003396 0.000000
# 2 -0.006110 0.022035 -0.010924 0.000000 0.001368 0.000000
# 3 -0.000715 -0.010924 0.024472 0.000000 -0.012329 0.000000
# 4 0.000000 0.000000 0.000000 0.027628 0.000000 0.001459
# 5 0.003396 0.001368 -0.012329 0.000000 0.085620 0.000000
# 6 0.000000 0.000000 0.000000 0.001459 0.000000 0.034083
#
#
# Mechanical properties :
#
#
# Convention : Reuss Voigt Hill
#
# Bulk Modulus (GPa) = 43.53642 47.39166 45.46404
# Shear Modulus (GPa) = 20.08401 25.42874 22.75638
#
# Velocity S-wave (km/s) = 3.30962 3.72404 3.52293
# Velocity P-wave (km/s) = 6.19265 6.65869 6.42989
#
# Compressibility (1/GPa) = 0.02296927
#
# Stress axis : x y z
#
# Youngs Moduli (GPa) = 83.60692 45.38236 40.86236
#
# Poissons Ratio (x) = 0.27730 0.02923
# Poissons Ratio (y) = 0.51086 0.44637
# Poissons Ratio (z) = 0.05980 0.49575
#
# Static dielectric constant tensor:
#      x y z
#    x 3.663120 0.000000 0.124000 
#    y 0.000000 3.421140 0.000000 
#    z 0.124000 0.000000 3.323770 
# 
# 
# High freq. dielectric constant tensor:
#      x y z
#    x 1.712860 0.000000 0.001740 
#    y 0.000000 1.712230 0.000000 
#    z 0.001740 0.000000 1.707970 
# 
# From -- ./inp_files/337892.got.cif
#   From: 2010.06.25/outbox.cif.g09.slc.cpg/sg12_169_cif.got.tgz:337892.got - 2010.06.28 00:19:55.
