data_PCOD8096495
_publ_section_title
;
Structure prediction by ZEFSAII (Michael W. Deem and Ramdas Pophale) SiO2 
 PCOD8096495
Probable space group: C 2/M
;
_chemical_formula_sum "Si O2"
_cell_formula_units_Z 64
_cell_length_a 19.408943
_cell_length_b 22.391414
_cell_length_c 9.047125
_cell_angle_alpha 90.000000
_cell_angle_beta 61.115713
_cell_angle_gamma 90.000000
_cell_volume 3442.692834
_symmetry_space_group_name_H-M "C 2/M"
_symmetry_group_IT_number 12
_symmetry_cell_setting 'monoclinic'
loop_
_space_group_symop_operation_xyz
x,y,z
-x,y,-z
-x,-y,-z
x,-y,z
1/2+x,1/2+y,z
1/2-x,1/2+y,-z
1/2-x,1/2-y,-z
1/2+x,1/2-y,z
loop_
_atom_site_type_symbol
_atom_site_label
_atom_site_fract_x
_atom_site_fract_y
_atom_site_fract_z
Si Si1 0.591149 0.375958 0.539900
Si Si2 0.402201 0.930558 0.438703
Si Si3 0.495983 0.838449 0.179361
Si Si4 0.368051 0.856206 0.744150
Si Si5 0.565393 0.569597 0.255899
Si Si6 0.077775 0.262127 0.509622
Si Si7 0.217669 0.067773 0.923420
Si Si8 0.223327 0.933971 0.578842
O O1 0.511340 0.391611 0.714158
O O2 0.587417 0.418541 0.402349
O O3 0.595680 0.307279 0.490197
O O4 0.670635 0.387202 0.545840
O O5 0.459931 0.902983 0.256705
O O6 0.414431 0.903641 0.591031
O O7 0.314211 0.915982 0.473781
O O8 0.419072 0.000000 0.432868
O O9 0.583095 0.837364 0.160812
O O10 0.437969 0.787651 0.308830
O O11 0.500000 0.828564 0.000000
O O12 0.353703 0.798161 0.651260
O O13 0.287222 0.885445 0.886117
O O14 0.547100 0.500000 0.249527
O O15 0.639790 0.591144 0.084758
O O16 0.000000 0.277754 0.500000
O O17 0.195801 0.067212 0.775441
O O18 0.241156 0.000000 0.949905
O O19 0.209955 0.000000 0.525860
#
# Coordination Sequence:
#
# PCOD8096495 Si02
#       8
#     8   8   8   8   8   8   8   8
#     4  11  19  34  55  76 104 142 184 216 268 319
#     4   9  18  34  55  79 107 143 180 213 263 328
#     4  10  21  35  53  79 110 135 176 229 272 310
#     4   9  18  35  59  74 103 147 182 213 264 318
#     4  10  20  33  54  81 110 137 176 224 272 326
#     4   9  18  37  56  73 100 147 184 222 254 316
#     4   9  19  36  54  80 112 139 172 220 268 318
#     4   9  18  33  53  77 109 139 172 219 266 315
#
# _framework density 18.5901
#
# number of rings (size 3 to 8) (size 9 to 14) (size 15 to 20)
#    0.000    2.500    1.250    3.750    0.000    3.250 
#    2.250    9.375    0.000    0.000    0.000    0.000 
#    0.000    0.000    0.000    0.000    0.000    0.000 
#
# Total GULP energy -396635.276328 kJ/mol
# GULP energy per Si atom -12394.852385 kJ/mol
# Density = 1.854779 g / cm^3
# Si number density = 18.590100 Si / 1000 Ang^3
#
#
#
# Elastic Constant Matrix: (Units=GPa)
#
#
# Indices 1 2 3 4 5 6 
#
# 1 51.9985 26.8260 19.0883 0.0000 11.0259 0.0000
# 2 26.8260 95.0788 27.4256 0.0000 -8.7564 0.0000
# 3 19.0883 27.4256 79.1216 0.0000 -0.4624 0.0000
# 4 0.0000 0.0000 0.0000 15.0144 0.0000 -1.2007
# 5 11.0259 -8.7564 -0.4624 0.0000 25.6620 0.0000
# 6 0.0000 0.0000 0.0000 -1.2007 0.0000 26.8573
#
#
#
# Elastic Compliance Matrix: (Units=1/GPa)
#
#
# Indices 1 2 3 4 5 6 
#
# 1 0.028068 -0.008126 -0.004042 0.000000 -0.014905 0.000000
# 2 -0.008126 0.014446 -0.002998 0.000000 0.008366 0.000000
# 3 -0.004042 -0.002998 0.014659 0.000000 0.000978 0.000000
# 4 0.000000 0.000000 0.000000 0.066842 0.000000 0.002988
# 5 -0.014905 0.008366 0.000978 0.000000 0.048245 0.000000
# 6 0.000000 0.000000 0.000000 0.002988 0.000000 0.037367
#
#
# Mechanical properties :
#
#
# Convention : Reuss Voigt Hill
#
# Bulk Modulus (GPa) = 37.25700 41.43095 39.34398
# Shear Modulus (GPa) = 20.08803 23.69733 21.89268
#
# Velocity S-wave (km/s) = 3.29078 3.57421 3.43542
# Velocity P-wave (km/s) = 5.87569 6.27441 6.07832
#
# Compressibility (1/GPa) = 0.02684059
#
# Stress axis : x y z
#
# Youngs Moduli (GPa) = 35.62805 69.22541 68.21863
#
# Poissons Ratio (x) = 0.56253 0.27573
# Poissons Ratio (y) = 0.28951 0.20451
# Poissons Ratio (z) = 0.14400 0.20753
#
# Static dielectric constant tensor:
#      x y z
#    x 3.296160 0.000000 -0.117750 
#    y 0.000000 3.369920 0.000000 
#    z -0.117750 0.000000 3.322690 
# 
# 
# High freq. dielectric constant tensor:
#      x y z
#    x 1.709270 0.000000 -0.007550 
#    y 0.000000 1.720570 0.000000 
#    z -0.007550 0.000000 1.707090 
# 
# From -- ./inp_files/89588.got.cif
#   From: 2010.06.25/outbox.cif.g09.slc.cpg/sg12_45_cif.got.tgz:89588.got - 2010.06.28 00:19:55.
