data_PCOD8096865
_publ_section_title
;
Structure prediction by ZEFSAII (Michael W. Deem and Ramdas Pophale) SiO2 
 PCOD8096865
Probable space group: C 2/M
;
_chemical_formula_sum "Si O2"
_cell_formula_units_Z 64
_cell_length_a 14.279891
_cell_length_b 9.017251
_cell_length_c 27.096679
_cell_angle_alpha 90.000000
_cell_angle_beta 103.784690
_cell_angle_gamma 90.000000
_cell_volume 3388.620156
_symmetry_space_group_name_H-M "C 2/M"
_symmetry_group_IT_number 12
_symmetry_cell_setting 'monoclinic'
loop_
_space_group_symop_operation_xyz
x,y,z
-x,y,-z
-x,-y,-z
x,-y,z
1/2+x,1/2+y,z
1/2-x,1/2+y,-z
1/2-x,1/2-y,-z
1/2+x,1/2-y,z
loop_
_atom_site_type_symbol
_atom_site_label
_atom_site_fract_x
_atom_site_fract_y
_atom_site_fract_z
Si Si1 0.842517 0.674197 0.988183
Si Si2 0.820352 0.326794 0.361789
Si Si3 0.709853 0.325604 0.446552
Si Si4 0.462227 0.825368 0.625422
Si Si5 0.217419 0.176085 0.110372
Si Si6 0.577459 0.827540 0.901838
Si Si7 0.891760 0.324505 0.823437
Si Si8 0.649716 0.827752 0.291807
O O1 0.824887 0.500000 0.977746
O O2 0.928382 0.699109 0.039274
O O3 0.750000 0.750000 0.000000
O O4 0.861207 0.752796 0.937812
O O5 0.816777 0.500000 0.351172
O O6 0.783874 0.286747 0.411916
O O7 0.751200 0.253292 0.312685
O O8 0.928985 0.267428 0.368450
O O9 0.700244 0.500000 0.453699
O O10 0.750000 0.250000 0.500000
O O11 0.604622 0.259732 0.421974
O O12 0.428818 0.784313 0.676650
O O13 0.453820 0.000000 0.613795
O O14 0.322999 0.235107 0.108159
O O15 0.197450 0.240092 0.162239
O O16 0.208297 0.000000 0.107909
O O17 0.487473 0.757147 0.861542
O O18 0.576089 0.000000 0.889877
O O19 0.880390 0.500000 0.829781
O O20 0.894315 0.281304 0.766297
O O21 0.673352 0.000000 0.296849
#
# Coordination Sequence:
#
# PCOD8096865 Si02
#       8
#     8   8   8   8   8   8   8   8
#     4   9  16  30  51  73  98 131 166 204 249 304
#     4   9  19  35  56  78 103 137 176 212 254 303
#     4  10  20  34  52  79 113 145 174 213 257 300
#     4   9  18  35  56  77 101 137 179 215 252 302
#     4  10  20  34  51  74 100 130 166 207 253 305
#     4   8  17  33  52  71  96 130 166 199 245 308
#     4  10  20  35  52  73  99 130 166 206 252 306
#     4   9  19  34  53  75 100 128 166 214 259 300
#
# _framework density 18.886744
#
# number of rings (size 3 to 8) (size 9 to 14) (size 15 to 20)
#    0.000    2.750    0.000    1.875    0.000    3.500 
#    0.000   11.250    0.000    0.000    0.000    0.000 
#    0.000    0.000    0.000    0.000    0.000    0.000 
#
# Total GULP energy -396700.494022 kJ/mol
# GULP energy per Si atom -12396.890438 kJ/mol
# Density = 1.884376 g / cm^3
# Si number density = 18.886744 Si / 1000 Ang^3
#
#
#
# Elastic Constant Matrix: (Units=GPa)
#
#
# Indices 1 2 3 4 5 6 
#
# 1 107.5093 30.1788 51.4641 0.0000 10.7593 0.0000
# 2 30.1788 56.7527 44.1457 0.0000 4.9398 0.0000
# 3 51.4641 44.1457 132.3450 0.0000 12.8649 0.0000
# 4 0.0000 0.0000 0.0000 31.6068 0.0000 -0.0248
# 5 10.7593 4.9398 12.8649 0.0000 22.3171 0.0000
# 6 0.0000 0.0000 0.0000 -0.0248 0.0000 24.7727
#
#
#
# Elastic Compliance Matrix: (Units=1/GPa)
#
#
# Indices 1 2 3 4 5 6 
#
# 1 0.012195 -0.003726 -0.003186 0.000000 -0.003218 0.000000
# 2 -0.003726 0.024944 -0.006896 0.000000 0.000250 0.000000
# 3 -0.003186 -0.006896 0.011439 0.000000 -0.003531 0.000000
# 4 0.000000 0.000000 0.000000 0.031639 0.000000 0.000032
# 5 -0.003218 0.000250 -0.003531 0.000000 0.048340 0.000000
# 6 0.000000 0.000000 0.000000 0.000032 0.000000 0.040367
#
#
# Mechanical properties :
#
#
# Convention : Reuss Voigt Hill
#
# Bulk Modulus (GPa) = 47.70849 60.90936 54.30893
# Shear Modulus (GPa) = 24.56678 27.12720 25.84699
#
# Velocity S-wave (km/s) = 3.61049 3.79398 3.70337
# Velocity P-wave (km/s) = 6.53422 7.17720 6.86324
#
# Compressibility (1/GPa) = 0.02096063
#
# Stress axis : x y z
#
# Youngs Moduli (GPa) = 82.00221 40.09000 87.42342
#
# Poissons Ratio (x) = 0.14938 0.27857
# Poissons Ratio (y) = 0.30554 0.60286
# Poissons Ratio (z) = 0.26130 0.27645
#
# Static dielectric constant tensor:
#      x y z
#    x 3.536230 0.000000 0.090140 
#    y 0.000000 3.334380 0.000000 
#    z 0.090140 0.000000 3.622220 
# 
# 
# High freq. dielectric constant tensor:
#      x y z
#    x 1.729320 0.000000 -0.000130 
#    y 0.000000 1.720510 0.000000 
#    z -0.000130 0.000000 1.737120 
# 
# From -- ./inp_files/359907.got.cif
#   From: 2010.06.25/outbox.cif.g09.slc.cpg/sg12_180_cif.got.tgz:359907.got - 2010.06.28 00:19:55.
