data_PCOD8096311
_publ_section_title
;
Structure prediction by ZEFSAII (Michael W. Deem and Ramdas Pophale) SiO2 
 PCOD8096311
Probable space group: C 2/M
;
_chemical_formula_sum "Si O2"
_cell_formula_units_Z 48
_cell_length_a 23.545630
_cell_length_b 8.451148
_cell_length_c 26.938634
_cell_angle_alpha 90.000000
_cell_angle_beta 151.974945
_cell_angle_gamma 90.000000
_cell_volume 2518.650289
_symmetry_space_group_name_H-M "C 2/M"
_symmetry_group_IT_number 12
_symmetry_cell_setting 'monoclinic'
loop_
_space_group_symop_operation_xyz
x,y,z
-x,y,-z
-x,-y,-z
x,-y,z
1/2+x,1/2+y,z
1/2-x,1/2+y,-z
1/2-x,1/2-y,-z
1/2+x,1/2-y,z
loop_
_atom_site_type_symbol
_atom_site_label
_atom_site_fract_x
_atom_site_fract_y
_atom_site_fract_z
Si Si1 0.675199 0.683018 0.822280
Si Si2 0.284303 0.183238 0.600406
Si Si3 0.440204 0.818380 0.625664
Si Si4 0.574125 0.681611 0.205458
Si Si5 0.872890 0.317489 0.113397
Si Si6 0.447839 0.813045 0.011306
O O1 0.684463 0.500000 0.845485
O O2 0.557181 0.713515 0.696685
O O3 0.631026 0.802127 0.830966
O O4 0.806698 0.740719 0.904913
O O5 0.395624 0.220115 0.648176
O O6 0.168337 0.283648 0.495719
O O7 0.316190 0.226821 0.682363
O O8 0.250784 0.000000 0.571238
O O9 0.475749 0.000000 0.647748
O O10 0.610036 0.500000 0.225945
O O11 0.465661 0.699221 0.159962
O O12 0.533410 0.750262 0.121058
O O13 0.897555 0.500000 0.116631
O O14 0.750000 0.250000 0.000000
O O15 0.455494 0.000000 0.018749
O O16 0.500000 0.745680 0.000000
#
# Coordination Sequence:
#
# PCOD8096311 Si02
#       6
#     8   8   8   8   8   8
#     4  11  21  34  56  82 113 149 186 228 279 337
#     4  10  20  34  53  79 116 154 188 224 271 333
#     4  10  20  33  52  80 117 153 187 225 272 331
#     4  12  23  35  56  83 115 150 186 230 281 337
#     4  12  22  33  50  79 114 148 183 224 278 338
#     4  10  23  42  61  81 109 148 193 238 284 335
#
# _framework density 19.057827
#
# number of rings (size 3 to 8) (size 9 to 14) (size 15 to 20)
#    0.000    1.167    3.333    4.500    0.000    2.333 
#    0.000    0.000    0.000    1.000    0.000    7.000 
#    0.000    0.000    0.000    0.000    0.000    0.000 
#
# Total GULP energy -297366.925523 kJ/mol
# GULP energy per Si atom -12390.288563 kJ/mol
# Density = 1.901445 g / cm^3
# Si number density = 19.057827 Si / 1000 Ang^3
#
#
#
# Elastic Constant Matrix: (Units=GPa)
#
#
# Indices 1 2 3 4 5 6 
#
# 1 91.5133 17.2033 50.7480 0.0000 -11.9584 0.0000
# 2 17.2033 55.3183 28.1902 0.0001 -3.9151 0.0009
# 3 50.7480 28.1902 110.3244 0.0000 -10.7692 0.0000
# 4 0.0000 0.0001 0.0000 34.5281 0.0000 -2.5770
# 5 -11.9584 -3.9151 -10.7692 0.0000 17.9603 0.0000
# 6 0.0000 0.0009 0.0000 -2.5770 0.0000 18.4679
#
#
#
# Elastic Compliance Matrix: (Units=1/GPa)
#
#
# Indices 1 2 3 4 5 6 
#
# 1 0.015391 -0.001203 -0.006158 0.000000 0.006293 0.000000
# 2 -0.001203 0.020912 -0.004698 0.000000 0.000940 -0.000001
# 3 -0.006158 -0.004698 0.013380 0.000000 0.002899 0.000000
# 4 0.000000 0.000000 0.000000 0.029267 0.000000 0.004084
# 5 0.006293 0.000940 0.002899 0.000000 0.061811 0.000000
# 6 0.000000 -0.000001 0.000000 0.004084 0.000000 0.054718
#
#
# Mechanical properties :
#
#
# Convention : Reuss Voigt Hill
#
# Bulk Modulus (GPa) = 39.11643 49.93767 44.52705
# Shear Modulus (GPa) = 21.91841 24.92556 23.42199
#
# Velocity S-wave (km/s) = 3.39499 3.62040 3.50951
# Velocity P-wave (km/s) = 5.99480 6.61336 6.31166
#
# Compressibility (1/GPa) = 0.02556471
#
# Stress axis : x y z
#
# Youngs Moduli (GPa) = 64.97463 47.81914 74.73721
#
# Poissons Ratio (x) = 0.05752 0.46022
# Poissons Ratio (y) = 0.07816 0.35114
# Poissons Ratio (z) = 0.40011 0.22467
#
# Static dielectric constant tensor:
#      x y z
#    x 3.308640 0.000000 0.007970 
#    y 0.000000 3.465370 0.000000 
#    z 0.007970 0.000000 3.803430 
# 
# 
# High freq. dielectric constant tensor:
#      x y z
#    x 1.684270 0.000000 0.000030 
#    y 0.000000 1.746090 0.000000 
#    z 0.000030 0.000000 1.768050 
# 
# From -- ./inp_files/367120.got.cif
#   From: 2010.06.25/outbox.cif.g09.slc.cpg/sg12_184_cif.got.tgz:367120.got - 2010.06.28 00:19:55.
