data_PCOD8096643
_publ_section_title
;
Structure prediction by ZEFSAII (Michael W. Deem and Ramdas Pophale) SiO2 
 PCOD8096643
Probable space group: C 2/M
;
_chemical_formula_sum "Si O2"
_cell_formula_units_Z 48
_cell_length_a 13.412523
_cell_length_b 13.422411
_cell_length_c 14.971665
_cell_angle_alpha 90.000000
_cell_angle_beta 68.138766
_cell_angle_gamma 90.000000
_cell_volume 2501.499725
_symmetry_space_group_name_H-M "C 2/M"
_symmetry_group_IT_number 12
_symmetry_cell_setting 'monoclinic'
loop_
_space_group_symop_operation_xyz
x,y,z
-x,y,-z
-x,-y,-z
x,-y,z
1/2+x,1/2+y,z
1/2-x,1/2+y,-z
1/2-x,1/2-y,-z
1/2+x,1/2-y,z
loop_
_atom_site_type_symbol
_atom_site_label
_atom_site_fract_x
_atom_site_fract_y
_atom_site_fract_z
Si Si1 0.703440 0.887584 0.249111
Si Si2 0.172670 0.884641 0.541254
Si Si3 0.581898 0.306018 0.049637
Si Si4 0.188947 0.388876 0.049927
Si Si5 0.933512 0.886090 0.238725
Si Si6 0.878865 0.296431 0.554675
O O1 0.664258 0.870798 0.162195
O O2 0.830818 0.870736 0.209537
O O3 0.645063 0.807892 0.332264
O O4 0.677368 0.000000 0.291441
O O5 0.096746 0.853991 0.650181
O O6 0.136102 0.819082 0.468834
O O7 0.297168 0.864452 0.524347
O O8 0.159323 0.000000 0.520030
O O9 0.617270 0.191423 0.021133
O O10 0.527631 0.318688 0.165427
O O11 0.500000 0.339496 0.000000
O O12 0.685467 0.376513 0.012580
O O13 0.154539 0.500000 0.032123
O O14 0.972175 0.000000 0.224924
O O15 0.000000 0.333314 0.500000
#
# Coordination Sequence:
#
# PCOD8096643 Si02
#       6
#     8   8   8   8   8   8
#     4   9  18  34  55  80 108 137 179 226 262 306
#     4   9  20  37  53  79 112 141 176 225 269 311
#     4  11  21  34  59  83 105 141 180 218 263 322
#     4  10  22  37  54  82 113 139 174 221 266 317
#     4   9  17  32  57  80 105 139 179 222 263 308
#     4  10  20  33  57  79 103 144 180 223 259 320
#
# _framework density 19.188490000000002
#
# number of rings (size 3 to 8) (size 9 to 14) (size 15 to 20)
#    0.000    2.333    1.667    2.000    2.333    2.667 
#    0.000    0.000    0.000    1.000    0.000    0.000 
#    0.000    0.000    0.000    0.000    0.000    0.000 
#
# Total GULP energy -297566.537824 kJ/mol
# GULP energy per Si atom -12398.605743 kJ/mol
# Density = 1.914482 g / cm^3
# Si number density = 19.188490 Si / 1000 Ang^3
#
#
#
# Elastic Constant Matrix: (Units=GPa)
#
#
# Indices 1 2 3 4 5 6 
#
# 1 57.0439 13.0616 32.7008 0.0000 -23.3324 0.0000
# 2 13.0616 83.7480 39.0405 0.0000 -14.6990 0.0000
# 3 32.7008 39.0405 89.0074 0.0000 -23.2419 0.0000
# 4 0.0000 0.0000 0.0000 33.4321 0.0000 2.3921
# 5 -23.3324 -14.6990 -23.2419 0.0000 23.4747 0.0000
# 6 0.0000 0.0000 0.0000 2.3921 0.0000 15.7174
#
#
#
# Elastic Compliance Matrix: (Units=1/GPa)
#
#
# Indices 1 2 3 4 5 6 
#
# 1 0.031194 0.002435 -0.005441 0.000000 0.027142 0.000000
# 2 0.002435 0.015467 -0.006093 0.000000 0.006073 0.000000
# 3 -0.005441 -0.006093 0.018205 0.000000 0.008801 0.000000
# 4 0.000000 0.000000 0.000000 0.030241 0.000000 -0.004602
# 5 0.027142 0.006073 0.008801 0.000000 0.082093 0.000000
# 6 0.000000 0.000000 0.000000 -0.004602 0.000000 0.064324
#
#
# Mechanical properties :
#
#
# Convention : Reuss Voigt Hill
#
# Bulk Modulus (GPa) = 21.42809 44.37835 32.90322
# Shear Modulus (GPa) = 18.16352 24.19127 21.17740
#
# Velocity S-wave (km/s) = 3.08000 3.55451 3.32573
# Velocity P-wave (km/s) = 4.88261 6.32644 5.65083
#
# Compressibility (1/GPa) = 0.04666771
#
# Stress axis : x y z
#
# Youngs Moduli (GPa) = 32.05766 64.65360 54.93087
#
# Poissons Ratio (x) = -0.15745 0.29888
# Poissons Ratio (y) = -0.07807 0.33470
# Poissons Ratio (z) = 0.17443 0.39394
#
# Static dielectric constant tensor:
#      x y z
#    x 3.275800 0.000000 -0.112930 
#    y 0.000000 3.408630 0.000000 
#    z -0.112930 0.000000 3.458890 
# 
# 
# High freq. dielectric constant tensor:
#      x y z
#    x 1.729280 0.000000 -0.011960 
#    y 0.000000 1.738640 0.000000 
#    z -0.011960 0.000000 1.743680 
# 
# From -- ./inp_files/204265.got.cif
#   From: 2010.06.25/outbox.cif.g09.slc.cpg/sg12_103_cif.got.tgz:204265.got - 2010.06.28 00:19:55.
