data_PCOD8096083
_publ_section_title
;
Structure prediction by ZEFSAII (Michael W. Deem and Ramdas Pophale) SiO2 
 PCOD8096083
Probable space group: C 2/M
;
_chemical_formula_sum "Si O2"
_cell_formula_units_Z 48
_cell_length_a 19.872677
_cell_length_b 8.714879
_cell_length_c 21.312661
_cell_angle_alpha 90.000000
_cell_angle_beta 45.199424
_cell_angle_gamma 90.000000
_cell_volume 2619.067993
_symmetry_space_group_name_H-M "C 2/M"
_symmetry_group_IT_number 12
_symmetry_cell_setting 'monoclinic'
loop_
_space_group_symop_operation_xyz
x,y,z
-x,y,-z
-x,-y,-z
x,-y,z
1/2+x,1/2+y,z
1/2-x,1/2+y,-z
1/2-x,1/2-y,-z
1/2+x,1/2-y,z
loop_
_atom_site_type_symbol
_atom_site_label
_atom_site_fract_x
_atom_site_fract_y
_atom_site_fract_z
Si Si1 0.901001 0.677197 0.900042
Si Si2 0.751385 0.680896 0.430699
Si Si3 0.235755 0.179516 0.913728
Si Si4 0.891922 0.318183 0.569144
Si Si5 0.753237 0.180186 0.233406
Si Si6 0.896856 0.820119 0.243386
O O1 0.929716 0.500000 0.886675
O O2 0.835136 0.708309 0.883156
O O3 0.993591 0.779056 0.830905
O O4 0.847896 0.727587 0.998001
O O5 0.749822 0.500000 0.436084
O O6 0.750000 0.750000 0.500000
O O7 0.657784 0.738610 0.456846
O O8 0.847315 0.732662 0.333088
O O9 0.244451 0.250312 0.837997
O O10 0.208953 0.000000 0.932285
O O11 0.883167 0.500000 0.565824
O O12 0.840253 0.264763 0.667386
O O13 0.000000 0.262691 0.500000
O O14 0.846909 0.228807 0.210677
O O15 0.748333 0.000000 0.227983
O O16 0.883252 0.000000 0.263823
#
# Coordination Sequence:
#
# PCOD8096083 Si02
#       6
#     8   8   8   8   8   8
#     4  10  20  33  51  77 106 135 171 217 265 311
#     4  11  22  37  56  79 109 142 179 221 265 314
#     4   9  18  34  53  72 100 139 179 215 255 310
#     4   9  18  34  56  81 109 141 178 220 268 322
#     4   8  16  32  53  75  98 132 177 216 252 303
#     4  10  20  36  56  77 103 135 173 216 264 318
#
# _framework density 18.32713
#
# number of rings (size 3 to 8) (size 9 to 14) (size 15 to 20)
#    0.000    2.500    0.000    3.500    0.000    3.000 
#    0.000   10.833    0.000    0.000    0.000    0.000 
#    0.000    0.000    0.000    0.000    0.000    0.000 
#
# Total GULP energy -297610.817979 kJ/mol
# GULP energy per Si atom -12400.450749 kJ/mol
# Density = 1.828542 g / cm^3
# Si number density = 18.327130 Si / 1000 Ang^3
#
#
#
# Elastic Constant Matrix: (Units=GPa)
#
#
# Indices 1 2 3 4 5 6 
#
# 1 113.5564 39.7381 95.0005 0.0000 10.5454 0.0000
# 2 39.7381 64.0098 35.8203 0.0000 3.3472 -0.0001
# 3 95.0005 35.8203 115.7299 0.0000 12.6817 -0.0001
# 4 0.0000 0.0000 0.0000 29.8014 0.0000 -2.2582
# 5 10.5454 3.3472 12.6817 0.0000 44.4560 0.0000
# 6 0.0000 -0.0001 -0.0001 -2.2582 0.0000 28.3094
#
#
#
# Elastic Compliance Matrix: (Units=1/GPa)
#
#
# Indices 1 2 3 4 5 6 
#
# 1 0.029804 -0.005821 -0.022645 0.000000 -0.000172 0.000000
# 2 -0.005821 0.020035 -0.001454 0.000000 0.000287 0.000000
# 3 -0.022645 -0.001454 0.027952 0.000000 -0.002493 0.000000
# 4 0.000000 0.000000 0.000000 0.033759 0.000000 0.002693
# 5 -0.000172 0.000287 -0.002493 0.000000 0.023224 0.000000
# 6 0.000000 0.000000 0.000000 0.002693 0.000000 0.035539
#
#
# Mechanical properties :
#
#
# Convention : Reuss Voigt Hill
#
# Bulk Modulus (GPa) = 55.70600 70.49041 63.09820
# Shear Modulus (GPa) = 21.17409 28.69584 24.93497
#
# Velocity S-wave (km/s) = 3.40272 3.96126 3.69256
# Velocity P-wave (km/s) = 6.77491 7.71154 7.25835
#
# Compressibility (1/GPa) = 0.01795139
#
# Stress axis : x y z
#
# Youngs Moduli (GPa) = 33.55309 49.91193 35.77500
#
# Poissons Ratio (x) = 0.29056 0.81011
# Poissons Ratio (y) = 0.19533 0.05202
# Poissons Ratio (z) = 0.75979 0.07257
#
# Static dielectric constant tensor:
#      x y z
#    x 4.224560 0.000000 -0.348290 
#    y 0.000000 3.249590 0.000000 
#    z -0.348290 0.000000 3.715880 
# 
# 
# High freq. dielectric constant tensor:
#      x y z
#    x 1.712380 0.000000 0.001960 
#    y 0.000000 1.699510 0.000000 
#    z 0.001960 0.000000 1.716960 
# 
# From -- ./inp_files/249344.got.cif
#   From: 2010.06.25/outbox.cif.g09.slc.cpg/sg12_125_cif.got.tgz:249344.got - 2010.06.28 00:19:55.
