data_PCOD8096791
_publ_section_title
;
Structure prediction by ZEFSAII (Michael W. Deem and Ramdas Pophale) SiO2 
 PCOD8096791
Probable space group: C 2/M
;
_chemical_formula_sum "Si O2"
_cell_formula_units_Z 56
_cell_length_a 20.502921
_cell_length_b 9.252955
_cell_length_c 19.172886
_cell_angle_alpha 90.000000
_cell_angle_beta 67.499549
_cell_angle_gamma 90.000000
_cell_volume 3360.451318
_symmetry_space_group_name_H-M "C 2/M"
_symmetry_group_IT_number 12
_symmetry_cell_setting 'monoclinic'
loop_
_space_group_symop_operation_xyz
x,y,z
-x,y,-z
-x,-y,-z
x,-y,z
1/2+x,1/2+y,z
1/2-x,1/2+y,-z
1/2-x,1/2-y,-z
1/2+x,1/2-y,z
loop_
_atom_site_type_symbol
_atom_site_label
_atom_site_fract_x
_atom_site_fract_y
_atom_site_fract_z
Si Si1 0.076933 0.837898 0.002549
Si Si2 0.295809 0.671787 0.539854
Si Si3 0.045471 0.329258 0.692636
Si Si4 0.868812 0.661609 0.139262
Si Si5 0.941372 0.668988 0.467473
Si Si6 0.022650 0.661651 0.144366
Si Si7 0.812089 0.329726 0.302625
O O1 0.075851 0.760810 0.078376
O O2 0.103255 0.000000 0.003475
O O3 0.133163 0.760932 0.928543
O O4 0.000000 0.832889 0.000000
O O5 0.296487 0.500000 0.525399
O O6 0.250000 0.750000 0.500000
O O7 0.373940 0.734035 0.511169
O O8 0.260970 0.709074 0.629338
O O9 0.048329 0.500000 0.700650
O O10 0.026413 0.287093 0.621149
O O11 0.122906 0.263873 0.678753
O O12 0.986911 0.274071 0.772762
O O13 0.846917 0.500000 0.125290
O O14 0.815445 0.725612 0.220679
O O15 0.946251 0.659262 0.140473
O O16 0.919813 0.500000 0.477837
O O17 0.000000 0.706670 0.500000
O O18 0.054493 0.500000 0.132354
O O19 0.823358 0.500000 0.294345
#
# Coordination Sequence:
#
# PCOD8096791 Si02
#       7
#     8   8   8   8   8   8   8
#     4   9  15  21  29  47  79 110 134 170 218 265
#     4  11  20  32  51  72  96 124 159 201 240 284
#     4   8  13  25  43  62  84 112 152 192 226 266
#     4   8  13  22  36  52  72 105 145 178 211 260
#     4  10  20  34  51  70  96 128 160 198 243 286
#     4   8  13  21  36  52  70 105 148 182 208 255
#     4   8  14  25  43  63  84 112 150 192 227 264
#
# _framework density 16.664428999999998
#
# number of rings (size 3 to 8) (size 9 to 14) (size 15 to 20)
#    0.000    3.143    1.429    2.571    0.000    2.000 
#    0.000    2.143    0.000    0.000    0.000    0.000 
#    0.000    1.143    0.000    2.286    0.000    3.571 
#
# Total GULP energy -346915.382861 kJ/mol
# GULP energy per Si atom -12389.835102 kJ/mol
# Density = 1.662650 g / cm^3
# Si number density = 16.664429 Si / 1000 Ang^3
#
#
#
# Elastic Constant Matrix: (Units=GPa)
#
#
# Indices 1 2 3 4 5 6 
#
# 1 45.7480 29.2262 47.1154 0.0000 -1.5570 0.0000
# 2 29.2262 79.6635 64.3582 -0.0001 -8.0218 -0.0002
# 3 47.1154 64.3582 190.7952 0.0000 -15.8061 0.0000
# 4 0.0000 -0.0001 0.0000 18.3805 0.0000 -4.7688
# 5 -1.5570 -8.0218 -15.8061 0.0000 14.2046 0.0000
# 6 0.0000 -0.0002 0.0000 -4.7688 0.0000 14.1785
#
#
#
# Elastic Compliance Matrix: (Units=1/GPa)
#
#
# Indices 1 2 3 4 5 6 
#
# 1 0.032941 -0.007934 -0.006092 0.000000 -0.007649 0.000000
# 2 -0.007934 0.019334 -0.004109 0.000000 0.005477 0.000000
# 3 -0.006092 -0.004109 0.008685 0.000000 0.006676 0.000000
# 4 0.000000 0.000000 0.000000 0.059607 0.000000 0.020048
# 5 -0.007649 0.005477 0.006676 0.000000 0.080083 0.000000
# 6 0.000000 0.000000 0.000000 0.020048 0.000000 0.077272
#
#
# Mechanical properties :
#
#
# Convention : Reuss Voigt Hill
#
# Bulk Modulus (GPa) = 40.50073 66.40069 53.45071
# Shear Modulus (GPa) = 15.50762 21.05317 18.28040
#
# Velocity S-wave (km/s) = 3.05385 3.55823 3.31565
# Velocity P-wave (km/s) = 6.06557 7.53748 6.84123
#
# Compressibility (1/GPa) = 0.02469092
#
# Stress axis : x y z
#
# Youngs Moduli (GPa) = 30.35710 51.72109 115.14598
#
# Poissons Ratio (x) = 0.41034 0.70147
# Poissons Ratio (y) = 0.24085 0.47312
# Poissons Ratio (z) = 0.18494 0.21252
#
# Static dielectric constant tensor:
#      x y z
#    x 2.578790 0.000000 -0.173750 
#    y 0.000000 3.000990 0.000000 
#    z -0.173750 0.000000 3.725090 
# 
# 
# High freq. dielectric constant tensor:
#      x y z
#    x 1.565700 0.000000 -0.016570 
#    y 0.000000 1.618350 0.000000 
#    z -0.016570 0.000000 1.668300 
# 
# From -- ./inp_files/280154.got.cif
#   From: 2010.06.25/outbox.cif.g09.slc.cpg/sg12_141_cif.got.tgz:280154.got - 2010.06.28 00:19:55.
