data_PCOD8096140
_publ_section_title
;
Structure prediction by ZEFSAII (Michael W. Deem and Ramdas Pophale) SiO2 
 PCOD8096140
Probable space group: C 2/M
;
_chemical_formula_sum "Si O2"
_cell_formula_units_Z 64
_cell_length_a 19.047602
_cell_length_b 9.029763
_cell_length_c 21.226137
_cell_angle_alpha 90.000000
_cell_angle_beta 70.653784
_cell_angle_gamma 90.000000
_cell_volume 3444.650765
_symmetry_space_group_name_H-M "C 2/M"
_symmetry_group_IT_number 12
_symmetry_cell_setting 'monoclinic'
loop_
_space_group_symop_operation_xyz
x,y,z
-x,y,-z
-x,-y,-z
x,-y,z
1/2+x,1/2+y,z
1/2-x,1/2+y,-z
1/2-x,1/2-y,-z
1/2+x,1/2-y,z
loop_
_atom_site_type_symbol
_atom_site_label
_atom_site_fract_x
_atom_site_fract_y
_atom_site_fract_z
Si Si1 0.233275 0.826873 0.182800
Si Si2 0.666770 0.669575 0.676176
Si Si3 0.673610 0.831160 0.317556
Si Si4 0.881338 0.822896 0.178490
Si Si5 0.826674 0.174766 0.462361
Si Si6 0.085886 0.664813 0.461351
Si Si7 0.684531 0.326500 0.057695
Si Si8 0.023797 0.824038 0.061151
O O1 0.178005 0.771678 0.254592
O O2 0.312605 0.743919 0.159530
O O3 0.192719 0.791937 0.129137
O O4 0.247840 0.000000 0.187522
O O5 0.643875 0.500000 0.682480
O O6 0.754447 0.692336 0.660168
O O7 0.622627 0.740154 0.748566
O O8 0.645172 0.736615 0.614388
O O9 0.604210 0.787363 0.383556
O O10 0.667847 0.000000 0.295308
O O11 0.960139 0.769066 0.128113
O O12 0.871996 0.000000 0.178029
O O13 0.750000 0.250000 0.500000
O O14 0.884575 0.215244 0.498700
O O15 0.815120 0.000000 0.462837
O O16 0.120843 0.500000 0.461752
O O17 0.000000 0.658342 0.500000
O O18 0.689609 0.500000 0.042416
O O19 0.604478 0.262787 0.058309
O O20 0.750000 0.250000 0.000000
O O21 0.026633 0.000000 0.059379
O O22 0.000000 0.761927 0.000000
#
# Coordination Sequence:
#
# PCOD8096140 Si02
#       8
#     8   8   8   8   8   8   8   8
#     4  10  20  33  51  80 111 135 167 216 267 312
#     4   8  15  29  50  76 100 130 173 217 257 307
#     4   9  17  34  56  75 101 140 183 216 258 324
#     4   9  17  33  56  76 100 139 179 212 253 308
#     4  11  20  33  54  80 108 138 182 229 273 326
#     4  10  21  38  56  76 106 143 184 231 279 326
#     4  10  21  36  54  80 109 137 173 216 257 304
#     4   9  17  31  54  80 102 130 175 216 246 294
#
# _framework density 18.579533000000001
#
# number of rings (size 3 to 8) (size 9 to 14) (size 15 to 20)
#    0.000    2.500    1.250    2.250    0.000    2.750 
#    2.250    1.250    0.000    2.250    0.000    0.000 
#    0.000    0.000    0.000    0.000    0.000    0.000 
#
# Total GULP energy -396613.647362 kJ/mol
# GULP energy per Si atom -12394.176480 kJ/mol
# Density = 1.853724 g / cm^3
# Si number density = 18.579533 Si / 1000 Ang^3
#
#
#
# Elastic Constant Matrix: (Units=GPa)
#
#
# Indices 1 2 3 4 5 6 
#
# 1 107.6479 32.5831 79.0337 0.0000 -1.4063 -0.0002
# 2 32.5831 49.0845 41.3905 0.0000 5.7969 -0.0001
# 3 79.0337 41.3905 169.2494 0.0000 -6.0732 -0.0001
# 4 0.0000 0.0000 0.0000 26.8450 0.0000 2.2040
# 5 -1.4063 5.7969 -6.0732 0.0000 34.9037 -0.0001
# 6 -0.0002 -0.0001 -0.0001 2.2040 -0.0001 21.2685
#
#
#
# Elastic Compliance Matrix: (Units=1/GPa)
#
#
# Indices 1 2 3 4 5 6 
#
# 1 0.015106 -0.005228 -0.005758 0.000000 0.000475 0.000000
# 2 -0.005228 0.028523 -0.004741 0.000000 -0.005773 0.000000
# 3 -0.005758 -0.004741 0.009838 0.000000 0.002267 0.000000
# 4 0.000000 0.000000 0.000000 0.037570 0.000000 -0.003893
# 5 0.000475 -0.005773 0.002267 0.000000 0.030023 0.000000
# 6 0.000000 0.000000 0.000000 -0.003893 0.000000 0.047421
#
#
# Mechanical properties :
#
#
# Convention : Reuss Voigt Hill
#
# Bulk Modulus (GPa) = 45.42930 70.22180 57.82555
# Shear Modulus (GPa) = 24.12257 28.13507 26.12882
#
# Velocity S-wave (km/s) = 3.60716 3.89563 3.75417
# Velocity P-wave (km/s) = 6.46940 7.62311 7.06983
#
# Compressibility (1/GPa) = 0.02201223
#
# Stress axis : x y z
#
# Youngs Moduli (GPa) = 66.19944 35.05902 101.64359
#
# Poissons Ratio (x) = 0.18328 0.58530
# Poissons Ratio (y) = 0.34608 0.48193
# Poissons Ratio (z) = 0.38120 0.16623
#
# Static dielectric constant tensor:
#      x y z
#    x 3.285500 0.000000 0.020850 
#    y 0.000000 3.594330 0.000000 
#    z 0.020850 0.000000 3.852530 
# 
# 
# High freq. dielectric constant tensor:
#      x y z
#    x 1.702110 0.000000 0.001890 
#    y 0.000000 1.690760 0.000000 
#    z 0.001890 0.000000 1.743820 
# 
# From -- ./inp_files/345541.got.cif
#   From: 2010.06.25/outbox.cif.g09.slc.cpg/sg12_173_cif.got.tgz:345541.got - 2010.06.28 00:19:55.
