data_PCOD8096025
_publ_section_title
;
Structure prediction by ZEFSAII (Michael W. Deem and Ramdas Pophale) SiO2 
 PCOD8096025
Probable space group: C 2/M
;
_chemical_formula_sum "Si O2"
_cell_formula_units_Z 56
_cell_length_a 14.674716
_cell_length_b 9.240139
_cell_length_c 28.548310
_cell_angle_alpha 90.000000
_cell_angle_beta 50.822659
_cell_angle_gamma 90.000000
_cell_volume 3000.815046
_symmetry_space_group_name_H-M "C 2/M"
_symmetry_group_IT_number 12
_symmetry_cell_setting 'monoclinic'
loop_
_space_group_symop_operation_xyz
x,y,z
-x,y,-z
-x,-y,-z
x,-y,z
1/2+x,1/2+y,z
1/2-x,1/2+y,-z
1/2-x,1/2-y,-z
1/2+x,1/2-y,z
loop_
_atom_site_type_symbol
_atom_site_label
_atom_site_fract_x
_atom_site_fract_y
_atom_site_fract_z
Si Si1 0.613098 0.328336 0.407986
Si Si2 0.216699 0.328777 0.726570
Si Si3 0.452637 0.172649 0.812697
Si Si4 0.347516 0.328486 0.499817
Si Si5 0.102565 0.160005 0.934546
Si Si6 0.244166 0.171756 0.181018
Si Si7 0.194578 0.655642 0.058040
O O1 0.614374 0.500000 0.406380
O O2 0.696370 0.260824 0.340617
O O3 0.478841 0.278711 0.441796
O O4 0.663852 0.279798 0.442079
O O5 0.219086 0.500000 0.722338
O O6 0.258658 0.280403 0.764116
O O7 0.084563 0.274694 0.759913
O O8 0.372393 0.260398 0.802953
O O9 0.422173 0.214060 0.877389
O O10 0.435953 0.000000 0.811064
O O11 0.330354 0.500000 0.499596
O O12 0.250000 0.250000 0.500000
O O13 0.135477 0.265616 0.881093
O O14 0.217099 0.140192 0.927982
O O15 0.061926 0.000000 0.929528
O O16 0.000000 0.229989 0.000000
O O17 0.244818 0.000000 0.173788
O O18 0.169401 0.500000 0.042963
O O19 0.250000 0.750000 0.000000
#
# Coordination Sequence:
#
# PCOD8096025 Si02
#       7
#     8   8   8   8   8   8   8
#     4   8  16  32  51  75 106 141 178 207 245 309
#     4   9  18  33  54  75 101 139 175 210 254 304
#     4   9  19  36  52  68  97 134 168 203 253 316
#     4   9  17  31  54  80 107 140 176 212 250 295
#     4   9  19  35  51  68  94 128 161 199 256 317
#     4  10  20  33  51  76 100 125 166 217 258 298
#     4   9  18  30  46  67  90 117 153 198 247 300
#
# _framework density 18.661595999999999
#
# number of rings (size 3 to 8) (size 9 to 14) (size 15 to 20)
#    0.000    3.000    0.000    2.143    2.000    3.714 
#    0.000    2.857    0.000    3.429    0.000    0.000 
#    0.000    0.000    0.000    0.000    0.000    0.000 
#
# Total GULP energy -346926.709415 kJ/mol
# GULP energy per Si atom -12390.239622 kJ/mol
# Density = 1.861912 g / cm^3
# Si number density = 18.661596 Si / 1000 Ang^3
#
#
#
# Elastic Constant Matrix: (Units=GPa)
#
#
# Indices 1 2 3 4 5 6 
#
# 1 114.8087 39.9928 80.5989 0.0000 -2.5801 0.0000
# 2 39.9928 53.0318 48.3411 0.0001 3.2086 0.0001
# 3 80.5989 48.3411 199.4625 0.0000 -10.8257 0.0000
# 4 0.0000 0.0001 0.0000 18.3592 0.0000 0.3562
# 5 -2.5801 3.2086 -10.8257 0.0000 27.6839 0.0000
# 6 0.0000 0.0001 0.0000 0.3562 0.0000 26.5183
#
#
#
# Elastic Compliance Matrix: (Units=1/GPa)
#
#
# Indices 1 2 3 4 5 6 
#
# 1 0.013877 -0.006953 -0.003891 0.000000 0.000578 0.000000
# 2 -0.006953 0.028446 -0.004392 0.000000 -0.005662 0.000000
# 3 -0.003891 -0.004392 0.007824 0.000000 0.003206 0.000000
# 4 0.000000 0.000000 0.000000 0.054483 0.000000 -0.000732
# 5 0.000578 -0.005662 0.003206 0.000000 0.038086 0.000000
# 6 0.000000 0.000000 0.000000 -0.000732 0.000000 0.037720
#
#
# Mechanical properties :
#
#
# Convention : Reuss Voigt Hill
#
# Bulk Modulus (GPa) = 50.82489 78.35207 64.58848
# Shear Modulus (GPa) = 22.99222 27.73696 25.36459
#
# Velocity S-wave (km/s) = 3.51388 3.85945 3.69071
# Velocity P-wave (km/s) = 6.61493 7.87003 7.26962
#
# Compressibility (1/GPa) = 0.01967540
#
# Stress axis : x y z
#
# Youngs Moduli (GPa) = 72.06362 35.15421 127.81086
#
# Poissons Ratio (x) = 0.24443 0.49729
# Poissons Ratio (y) = 0.50106 0.56132
# Poissons Ratio (z) = 0.28038 0.15439
#
# Static dielectric constant tensor:
#      x y z
#    x 3.355830 0.000000 -0.214030 
#    y 0.000000 3.232450 0.000000 
#    z -0.214030 0.000000 4.069910 
# 
# 
# High freq. dielectric constant tensor:
#      x y z
#    x 1.721880 0.000000 -0.008700 
#    y 0.000000 1.689240 0.000000 
#    z -0.008700 0.000000 1.732830 
# 
# From -- ./inp_files/359656.got.cif
#   From: 2010.06.25/outbox.cif.g09.slc.cpg/sg12_180_cif.got.tgz:359656.got - 2010.06.28 00:19:55.
