data_PCOD8096052
_publ_section_title
;
Structure prediction by ZEFSAII (Michael W. Deem and Ramdas Pophale) SiO2 
 PCOD8096052
Probable space group: C 2/M
;
_chemical_formula_sum "Si O2"
_cell_formula_units_Z 48
_cell_length_a 20.805868
_cell_length_b 8.796164
_cell_length_c 27.028556
_cell_angle_alpha 90.000000
_cell_angle_beta 30.022683
_cell_angle_gamma 90.000000
_cell_volume 2474.968455
_symmetry_space_group_name_H-M "C 2/M"
_symmetry_group_IT_number 12
_symmetry_cell_setting 'monoclinic'
loop_
_space_group_symop_operation_xyz
x,y,z
-x,y,-z
-x,-y,-z
x,-y,z
1/2+x,1/2+y,z
1/2-x,1/2+y,-z
1/2-x,1/2-y,-z
1/2+x,1/2-y,z
loop_
_atom_site_type_symbol
_atom_site_label
_atom_site_fract_x
_atom_site_fract_y
_atom_site_fract_z
Si Si1 0.373105 0.679390 0.782672
Si Si2 0.124266 0.681022 0.777088
Si Si3 0.869189 0.320066 0.892394
Si Si4 0.124095 0.818730 0.445916
Si Si5 0.371477 0.679259 0.445312
Si Si6 0.123976 0.319329 0.888670
O O1 0.367647 0.500000 0.796740
O O2 0.370341 0.768493 0.835398
O O3 0.500251 0.727942 0.668660
O O4 0.252138 0.734175 0.831036
O O5 0.128049 0.500000 0.775521
O O6 0.248705 0.744938 0.665619
O O7 0.124162 0.746322 0.832902
O O8 0.998209 0.739787 0.832831
O O9 0.859625 0.500000 0.901698
O O10 0.750000 0.250000 0.000000
O O11 0.120402 0.757402 0.504350
O O12 0.000000 0.754665 0.500000
O O13 0.122953 0.000000 0.446004
O O14 0.354581 0.500000 0.456917
O O15 0.250000 0.750000 0.500000
O O16 0.117848 0.500000 0.890879
O O17 0.000000 0.253991 0.000000
#
# Coordination Sequence:
#
# PCOD8096052 Si02
#       6
#     8   8   8   8   8   8
#     4  10  20  34  53  78 106 135 170 213 262 312
#     4   9  17  29  48  74 101 133 173 215 257 300
#     4  11  22  36  55  78 106 138 172 211 255 306
#     4   9  16  28  48  75 104 131 167 216 262 301
#     4  10  20  33  51  76 106 139 173 213 260 309
#     4   9  16  28  48  73 100 130 169 218 265 306
#
# _framework density 19.394186999999999
#
# number of rings (size 3 to 8) (size 9 to 14) (size 15 to 20)
#    0.000    2.333    0.000    3.500    0.000    8.667 
#    0.000    0.000    0.000    6.000    0.000    0.000 
#    0.000    0.000    0.000    0.000    0.000    0.000 
#
# Total GULP energy -297637.276477 kJ/mol
# GULP energy per Si atom -12401.553187 kJ/mol
# Density = 1.935005 g / cm^3
# Si number density = 19.394187 Si / 1000 Ang^3
#
#
#
# Elastic Constant Matrix: (Units=GPa)
#
#
# Indices 1 2 3 4 5 6 
#
# 1 201.6646 27.3103 112.4424 -0.0014 -0.4460 0.0050
# 2 27.3103 20.2270 29.5595 -0.0004 0.0679 0.0014
# 3 112.4424 29.5595 212.4812 0.0010 -2.2487 0.0011
# 4 -0.0014 -0.0004 0.0010 20.8381 -0.0003 -1.0738
# 5 -0.4460 0.0679 -2.2487 -0.0003 48.7744 -0.0010
# 6 0.0050 0.0014 0.0011 -1.0738 -0.0010 26.9655
#
#
#
# Elastic Compliance Matrix: (Units=1/GPa)
#
#
# Indices 1 2 3 4 5 6 
#
# 1 0.007479 -0.005413 -0.003205 0.000001 -0.000072 -0.000001
# 2 -0.005413 0.065984 -0.006319 0.000001 -0.000433 -0.000002
# 3 -0.003205 -0.006319 0.007285 -0.000001 0.000315 0.000001
# 4 0.000001 0.000001 -0.000001 0.048088 0.000000 0.001915
# 5 -0.000072 -0.000433 0.000315 0.000000 0.020517 0.000001
# 6 -0.000001 -0.000002 0.000001 0.001915 0.000001 0.037161
#
#
# Mechanical properties :
#
#
# Convention : Reuss Voigt Hill
#
# Bulk Modulus (GPa) = 19.65719 85.88856 52.77287
# Shear Modulus (GPa) = 21.42729 36.98631 29.20680
#
# Velocity S-wave (km/s) = 3.32751 4.37175 3.88488
# Velocity P-wave (km/s) = 4.99206 8.35852 6.88424
#
# Compressibility (1/GPa) = 0.05087197
#
# Stress axis : x y z
#
# Youngs Moduli (GPa) = 133.70913 15.15513 137.26772
#
# Poissons Ratio (x) = 0.08204 0.44000
# Poissons Ratio (y) = 0.72381 0.86744
# Poissons Ratio (z) = 0.42860 0.09577
#
# Static dielectric constant tensor:
#      x y z
#    x 3.750590 0.000010 -0.082220 
#    y 0.000010 2.989730 0.000010 
#    z -0.082220 0.000010 3.700080 
# 
# 
# High freq. dielectric constant tensor:
#      x y z
#    x 1.776550 0.000000 0.000330 
#    y 0.000000 1.694080 0.000000 
#    z 0.000330 0.000000 1.778290 
# 
# From -- ./inp_files/320316.got.cif
#   From: 2010.06.25/outbox.cif.g09.slc.cpg/sg12_161_cif.got.tgz:320316.got - 2010.06.28 00:19:55.
