data_PCOD8096728
_publ_section_title
;
Structure prediction by ZEFSAII (Michael W. Deem and Ramdas Pophale) SiO2 
 PCOD8096728
Probable space group: C 2/M
;
_chemical_formula_sum "Si O2"
_cell_formula_units_Z 56
_cell_length_a 18.830285
_cell_length_b 9.253182
_cell_length_c 22.860327
_cell_angle_alpha 90.000000
_cell_angle_beta 127.449014
_cell_angle_gamma 90.000000
_cell_volume 3162.229342
_symmetry_space_group_name_H-M "C 2/M"
_symmetry_group_IT_number 12
_symmetry_cell_setting 'monoclinic'
loop_
_space_group_symop_operation_xyz
x,y,z
-x,y,-z
-x,-y,-z
x,-y,z
1/2+x,1/2+y,z
1/2-x,1/2+y,-z
1/2-x,1/2-y,-z
1/2+x,1/2-y,z
loop_
_atom_site_type_symbol
_atom_site_label
_atom_site_fract_x
_atom_site_fract_y
_atom_site_fract_z
Si Si1 0.020562 0.830731 0.641251
Si Si2 0.366121 0.168052 0.221246
Si Si3 0.750064 0.164605 0.940686
Si Si4 0.209947 0.331957 0.209034
Si Si5 0.323179 0.330257 0.498698
Si Si6 0.903811 0.169563 0.928627
Si Si7 0.171447 0.166592 0.628667
O O1 0.919821 0.796628 0.573660
O O2 0.041212 0.743193 0.712045
O O3 0.087450 0.771216 0.623890
O O4 0.037413 0.000000 0.661053
O O5 0.344728 0.184140 0.141176
O O6 0.288818 0.252890 0.215213
O O7 0.365369 0.000000 0.238859
O O8 0.831860 0.217323 0.941124
O O9 0.766129 0.000000 0.965892
O O10 0.750000 0.250000 0.000000
O O11 0.206650 0.500000 0.190231
O O12 0.117455 0.255097 0.142757
O O13 0.233527 0.312938 0.289770
O O14 0.301623 0.500000 0.488514
O O15 0.250000 0.250000 0.500000
O O16 0.320663 0.263499 0.431677
O O17 0.899050 0.000000 0.912513
O O18 0.000000 0.217692 0.000000
O O19 0.148667 0.000000 0.607207
#
# Coordination Sequence:
#
# PCOD8096728 Si02
#       7
#     8   8   8   8   8   8   8
#     4   9  17  31  53  75  91 119 165 204 232 272
#     4   9  17  30  48  71  98 125 154 194 244 285
#     4   9  18  31  48  70  95 126 159 192 236 284
#     4   9  16  28  49  74  95 120 159 201 238 278
#     4  10  20  34  50  70 100 131 157 191 237 287
#     4   9  18  33  50  69  97 130 160 194 240 286
#     4   8  15  30  52  73  92 120 159 200 238 276
#
# _framework density 17.709026000000001
#
# number of rings (size 3 to 8) (size 9 to 14) (size 15 to 20)
#    0.000    3.000    0.000    3.000    0.000    5.429 
#    0.000    5.000    0.000   11.143    0.000    0.000 
#    0.000    0.000    0.000    0.000    0.000    0.000 
#
# Total GULP energy -346948.369839 kJ/mol
# GULP energy per Si atom -12391.013209 kJ/mol
# Density = 1.766872 g / cm^3
# Si number density = 17.709026 Si / 1000 Ang^3
#
#
#
# Elastic Constant Matrix: (Units=GPa)
#
#
# Indices 1 2 3 4 5 6 
#
# 1 73.0413 31.0998 63.7205 0.0000 6.4932 0.0000
# 2 31.0998 69.6030 68.5362 0.0000 6.4838 0.0000
# 3 63.7205 68.5362 162.9475 0.0000 12.7839 0.0000
# 4 0.0000 0.0000 0.0000 32.8462 0.0000 3.8303
# 5 6.4932 6.4838 12.7839 0.0000 24.8251 0.0000
# 6 0.0000 0.0000 0.0000 3.8303 0.0000 23.6184
#
#
#
# Elastic Compliance Matrix: (Units=1/GPa)
#
#
# Indices 1 2 3 4 5 6 
#
# 1 0.021013 -0.002182 -0.007204 0.000000 -0.001216 0.000000
# 2 -0.002182 0.024782 -0.009490 0.000000 -0.001015 0.000000
# 3 -0.007204 -0.009490 0.013134 0.000000 -0.002401 0.000000
# 4 0.000000 0.000000 0.000000 0.031032 0.000000 -0.005032
# 5 -0.001216 -0.001015 -0.002401 0.000000 0.042101 0.000000
# 6 0.000000 0.000000 0.000000 -0.005032 0.000000 0.043156
#
#
# Mechanical properties :
#
#
# Convention : Reuss Voigt Hill
#
# Bulk Modulus (GPa) = 47.22376 70.25610 58.73993
# Shear Modulus (GPa) = 22.72441 25.74031 24.23236
#
# Velocity S-wave (km/s) = 3.58608 3.81663 3.70315
# Velocity P-wave (km/s) = 6.62352 7.69291 7.17816
#
# Compressibility (1/GPa) = 0.02117578
#
# Stress axis : x y z
#
# Youngs Moduli (GPa) = 47.59055 40.35256 76.13884
#
# Poissons Ratio (x) = 0.08806 0.54848
# Poissons Ratio (y) = 0.10385 0.72258
# Poissons Ratio (z) = 0.34283 0.38296
#
# Static dielectric constant tensor:
#      x y z
#    x 3.014940 0.000000 0.168190 
#    y 0.000000 3.298780 0.000000 
#    z 0.168190 0.000000 4.041890 
# 
# 
# High freq. dielectric constant tensor:
#      x y z
#    x 1.640050 0.000000 0.010030 
#    y 0.000000 1.673420 0.000000 
#    z 0.010030 0.000000 1.707890 
# 
# From -- ./inp_files/314392.got.cif
#   From: 2010.06.25/outbox.cif.g09.slc.cpg/sg12_158_cif.got.tgz:314392.got - 2010.06.28 00:19:55.
