data_PCOD8096975
_publ_section_title
;
Structure prediction by ZEFSAII (Michael W. Deem and Ramdas Pophale) SiO2 
 PCOD8096975
Probable space group: C 2/M
;
_chemical_formula_sum "Si O2"
_cell_formula_units_Z 64
_cell_length_a 19.924889
_cell_length_b 9.195036
_cell_length_c 19.884566
_cell_angle_alpha 90.000000
_cell_angle_beta 90.204259
_cell_angle_gamma 90.000000
_cell_volume 3643.029612
_symmetry_space_group_name_H-M "C 2/M"
_symmetry_group_IT_number 12
_symmetry_cell_setting 'monoclinic'
loop_
_space_group_symop_operation_xyz
x,y,z
-x,y,-z
-x,-y,-z
x,-y,z
1/2+x,1/2+y,z
1/2-x,1/2+y,-z
1/2-x,1/2-y,-z
1/2+x,1/2-y,z
loop_
_atom_site_type_symbol
_atom_site_label
_atom_site_fract_x
_atom_site_fract_y
_atom_site_fract_z
Si Si1 0.308356 0.668923 0.698951
Si Si2 0.795747 0.171348 0.054367
Si Si3 0.558192 0.168916 0.299625
Si Si4 0.450305 0.669810 0.057876
Si Si5 0.702323 0.830838 0.809609
Si Si6 0.804262 0.828857 0.545095
Si Si7 0.938667 0.331249 0.546821
Si Si8 0.049367 0.669071 0.807327
O O1 0.324559 0.500000 0.704852
O O2 0.374615 0.751072 0.723636
O O3 0.247149 0.715251 0.746360
O O4 0.288957 0.710327 0.622662
O O5 0.873507 0.207012 0.038226
O O6 0.775977 0.233974 0.127027
O O7 0.781515 0.000000 0.053154
O O8 0.750000 0.250000 0.000000
O O9 0.540135 0.203555 0.376702
O O10 0.496264 0.224450 0.254393
O O11 0.571282 0.000000 0.288524
O O12 0.459555 0.500000 0.070378
O O13 0.472778 0.748434 0.125786
O O14 0.500000 0.726139 0.000000
O O15 0.626070 0.796548 0.788325
O O16 0.711900 0.000000 0.828645
O O17 0.750000 0.750000 0.500000
O O18 0.876630 0.767792 0.524376
O O19 0.801993 0.000000 0.531545
O O20 0.918836 0.500000 0.537633
O O21 0.000000 0.286828 0.500000
O O22 0.038590 0.500000 0.821246
#
# Coordination Sequence:
#
# PCOD8096975 Si02
#       8
#     8   8   8   8   8   8   8   8
#     4   9  19  34  52  73  98 131 167 203 245 295
#     4  10  20  34  52  74 100 129 162 201 244 290
#     4   9  18  32  50  74 102 129 161 203 246 290
#     4   9  19  35  52  70  94 125 160 197 236 282
#     4   9  18  34  53  72  97 129 165 203 242 288
#     4  10  20  34  52  75 103 134 170 212 256 303
#     4   9  18  33  53  75 101 135 171 207 250 300
#     4   9  18  32  50  72  97 125 158 198 241 284
#
# _framework density 17.567795
#
# number of rings (size 3 to 8) (size 9 to 14) (size 15 to 20)
#    0.000    2.750    0.000    0.750    0.000    4.500 
#    0.000    7.500    0.000    3.000    0.000    0.000 
#    0.000    0.000    0.000    0.000    0.000    0.000 
#
# Total GULP energy -396862.115645 kJ/mol
# GULP energy per Si atom -12401.941114 kJ/mol
# Density = 1.752781 g / cm^3
# Si number density = 17.567795 Si / 1000 Ang^3
#
#
#
# Elastic Constant Matrix: (Units=GPa)
#
#
# Indices 1 2 3 4 5 6 
#
# 1 132.6664 59.9842 101.8626 0.0000 1.7090 0.0000
# 2 59.9842 64.4485 57.5387 0.0000 5.6932 0.0000
# 3 101.8626 57.5387 125.2597 0.0000 1.3520 0.0000
# 4 0.0000 0.0000 0.0000 28.8223 0.0000 0.7645
# 5 1.7090 5.6932 1.3520 0.0000 41.9065 0.0000
# 6 0.0000 0.0000 0.0000 0.7645 0.0000 31.0133
#
#
#
# Elastic Compliance Matrix: (Units=1/GPa)
#
#
# Indices 1 2 3 4 5 6 
#
# 1 0.022114 -0.007756 -0.014427 0.000000 0.000617 0.000000
# 2 -0.007756 0.029456 -0.007186 0.000000 -0.003454 0.000000
# 3 -0.014427 -0.007186 0.023008 0.000000 0.000822 0.000000
# 4 0.000000 0.000000 0.000000 0.034718 0.000000 -0.000856
# 5 0.000617 -0.003454 0.000822 0.000000 0.024280 0.000000
# 6 0.000000 0.000000 0.000000 -0.000856 0.000000 0.032265
#
#
# Mechanical properties :
#
#
# Convention : Reuss Voigt Hill
#
# Bulk Modulus (GPa) = 63.13575 84.57175 73.85375
# Shear Modulus (GPa) = 21.75243 27.21437 24.48340
#
# Velocity S-wave (km/s) = 3.52262 3.94014 3.73722
# Velocity P-wave (km/s) = 7.24993 8.30327 7.79442
#
# Compressibility (1/GPa) = 0.01583889
#
# Stress axis : x y z
#
# Youngs Moduli (GPa) = 45.22012 33.94907 43.46380
#
# Poissons Ratio (x) = 0.26332 0.62706
# Poissons Ratio (y) = 0.35075 0.31232
# Poissons Ratio (z) = 0.65239 0.24395
#
# Static dielectric constant tensor:
#      x y z
#    x 3.453820 0.000000 -0.059010 
#    y 0.000000 3.261950 0.000000 
#    z -0.059010 0.000000 3.416410 
# 
# 
# High freq. dielectric constant tensor:
#      x y z
#    x 1.680950 0.000000 0.000590 
#    y 0.000000 1.678720 0.000000 
#    z 0.000590 0.000000 1.680130 
# 
# From -- ./inp_files/314162.got.cif
#   From: 2010.06.25/outbox.cif.g09.slc.cpg/sg12_158_cif.got.tgz:314162.got - 2010.06.28 00:19:55.
