data_PCOD8096925
_publ_section_title
;
Structure prediction by ZEFSAII (Michael W. Deem and Ramdas Pophale) SiO2 
 PCOD8096925
Probable space group: C 2/M
;
_chemical_formula_sum "Si O2"
_cell_formula_units_Z 56
_cell_length_a 32.508957
_cell_length_b 9.170125
_cell_length_c 18.608324
_cell_angle_alpha 90.000000
_cell_angle_beta 37.119028
_cell_angle_gamma 90.000000
_cell_volume 3347.674891
_symmetry_space_group_name_H-M "C 2/M"
_symmetry_group_IT_number 12
_symmetry_cell_setting 'monoclinic'
loop_
_space_group_symop_operation_xyz
x,y,z
-x,y,-z
-x,-y,-z
x,-y,z
1/2+x,1/2+y,z
1/2-x,1/2+y,-z
1/2-x,1/2-y,-z
1/2+x,1/2-y,z
loop_
_atom_site_type_symbol
_atom_site_label
_atom_site_fract_x
_atom_site_fract_y
_atom_site_fract_z
Si Si1 0.759054 0.669392 0.752651
Si Si2 0.105664 0.165512 0.013080
Si Si3 0.144826 0.829951 0.660357
Si Si4 0.168712 0.834285 0.067268
Si Si5 0.777793 0.670104 0.565573
Si Si6 0.294814 0.666522 0.834051
Si Si7 0.511927 0.829579 0.900572
O O1 0.773304 0.500000 0.737560
O O2 0.777262 0.726992 0.648075
O O3 0.809495 0.743566 0.740869
O O4 0.680578 0.705633 0.879247
O O5 0.104811 0.181959 0.101662
O O6 0.053369 0.279355 0.053285
O O7 0.086205 0.000000 0.017657
O O8 0.164908 0.760745 0.555978
O O9 0.203446 0.798725 0.636645
O O10 0.077011 0.757150 0.783448
O O11 0.131577 0.000000 0.667382
O O12 0.149267 0.810773 0.179111
O O13 0.198412 0.000000 0.016443
O O14 0.223713 0.715002 0.967915
O O15 0.795884 0.500000 0.534520
O O16 0.290181 0.500000 0.816591
O O17 0.523722 0.000000 0.871340
O O18 0.500000 0.792195 0.000000
#
# Coordination Sequence:
#
# PCOD8096925 Si02
#       7
#     8   8   8   8   8   8   8
#     4   9  17  29  45  67  96 126 152 183 227 273
#     4   9  17  30  47  66  91 124 159 189 222 270
#     4  10  20  34  52  70  89 119 156 190 227 270
#     4   8  15  27  40  58  88 122 152 185 227 271
#     4   9  18  33  51  70  93 120 151 189 229 268
#     4   9  15  23  39  63  90 119 151 187 224 266
#     4  11  23  35  47  67  95 123 152 189 229 268
#
# _framework density 16.728027999999998
#
# number of rings (size 3 to 8) (size 9 to 14) (size 15 to 20)
#    0.000    2.714    0.000    3.000    0.000    6.286 
#    0.000    0.000    0.000    0.000    0.000    1.000 
#    0.000    8.000    0.000    0.000    0.000    0.000 
#
# Total GULP energy -347013.083170 kJ/mol
# GULP energy per Si atom -12393.324399 kJ/mol
# Density = 1.668995 g / cm^3
# Si number density = 16.728028 Si / 1000 Ang^3
#
#
#
# Elastic Constant Matrix: (Units=GPa)
#
#
# Indices 1 2 3 4 5 6 
#
# 1 117.9140 49.7106 53.6502 -0.0006 33.3523 0.0004
# 2 49.7106 67.5093 45.0390 -0.0119 12.9467 -0.0050
# 3 53.6502 45.0390 82.0832 -0.0113 22.2765 -0.0011
# 4 -0.0006 -0.0119 -0.0113 11.3918 0.0017 -4.7962
# 5 33.3523 12.9467 22.2765 0.0017 28.7774 0.0001
# 6 0.0004 -0.0050 -0.0011 -4.7962 0.0001 23.8803
#
#
#
# Elastic Compliance Matrix: (Units=1/GPa)
#
#
# Indices 1 2 3 4 5 6 
#
# 1 0.017164 -0.007895 -0.003104 -0.000010 -0.013938 -0.000004
# 2 -0.007895 0.027010 -0.011198 0.000020 0.005667 0.000009
# 3 -0.003104 -0.011198 0.022803 0.000013 -0.009016 0.000001
# 4 -0.000010 0.000020 0.000013 0.095891 -0.000013 0.019259
# 5 -0.013938 0.005667 -0.009016 -0.000013 0.055333 -0.000002
# 6 -0.000004 0.000009 0.000001 0.019259 -0.000002 0.045744
#
#
# Mechanical properties :
#
#
# Convention : Reuss Voigt Hill
#
# Bulk Modulus (GPa) = 44.28127 62.70068 53.49097
# Shear Modulus (GPa) = 15.82947 20.75034 18.28990
#
# Velocity S-wave (km/s) = 3.07951 3.52583 3.31020
# Velocity P-wave (km/s) = 6.25886 7.35793 6.83053
#
# Compressibility (1/GPa) = 0.02258291
#
# Stress axis : x y z
#
# Youngs Moduli (GPa) = 58.26271 37.02277 43.85397
#
# Poissons Ratio (x) = 0.29229 0.13612
# Poissons Ratio (y) = 0.45997 0.49109
# Poissons Ratio (z) = 0.18084 0.41459
#
# Static dielectric constant tensor:
#      x y z
#    x 3.506080 0.000000 0.370520 
#    y 0.000000 3.190840 0.000000 
#    z 0.370520 0.000000 2.881630 
# 
# 
# High freq. dielectric constant tensor:
#      x y z
#    x 1.651210 0.000000 0.031120 
#    y 0.000000 1.652670 0.000000 
#    z 0.031120 0.000000 1.599860 
# 
# From -- ./inp_files/287867.got.cif
#   From: 2010.06.25/outbox.cif.g09.slc.cpg/sg12_144_cif.got.tgz:287867.got - 2010.06.28 00:19:55.
