data_PCOD8096855
_publ_section_title
;
Structure prediction by ZEFSAII (Michael W. Deem and Ramdas Pophale) SiO2 
 PCOD8096855
Probable space group: C 2/M
;
_chemical_formula_sum "Si O2"
_cell_formula_units_Z 64
_cell_length_a 27.823312
_cell_length_b 8.919925
_cell_length_c 14.392044
_cell_angle_alpha 90.000000
_cell_angle_beta 105.014352
_cell_angle_gamma 90.000000
_cell_volume 3449.904880
_symmetry_space_group_name_H-M "C 2/M"
_symmetry_group_IT_number 12
_symmetry_cell_setting 'monoclinic'
loop_
_space_group_symop_operation_xyz
x,y,z
-x,y,-z
-x,-y,-z
x,-y,z
1/2+x,1/2+y,z
1/2-x,1/2+y,-z
1/2-x,1/2-y,-z
1/2+x,1/2-y,z
loop_
_atom_site_type_symbol
_atom_site_label
_atom_site_fract_x
_atom_site_fract_y
_atom_site_fract_z
Si Si1 0.036320 0.172346 0.854944
Si Si2 0.863421 0.821898 0.617774
Si Si3 0.624374 0.321502 0.772819
Si Si4 0.161080 0.825758 0.599239
Si Si5 0.067325 0.675586 0.211343
Si Si6 0.611036 0.671325 0.060485
Si Si7 0.303269 0.323914 0.033365
Si Si8 0.767239 0.325451 0.602396
O O1 0.070146 0.223913 0.784325
O O2 0.989099 0.278923 0.836708
O O3 0.019124 0.000000 0.835429
O O4 0.067236 0.192992 0.964291
O O5 0.857626 0.758947 0.508960
O O6 0.914407 0.759631 0.686179
O O7 0.817875 0.757854 0.658774
O O8 0.862207 0.000000 0.620753
O O9 0.628620 0.500000 0.775120
O O10 0.631908 0.254404 0.672649
O O11 0.667623 0.259224 0.862153
O O12 0.220357 0.801678 0.648077
O O13 0.148728 0.000000 0.588240
O O14 0.070991 0.500000 0.229501
O O15 0.102085 0.720196 0.142417
O O16 0.611126 0.500000 0.096154
O O17 0.664036 0.713471 0.041593
O O18 0.295993 0.500000 0.039424
O O19 0.250000 0.250000 0.000000
O O20 0.778648 0.500000 0.593177
O O21 0.750000 0.250000 0.500000
#
# Coordination Sequence:
#
# PCOD8096855 Si02
#       8
#     8   8   8   8   8   8   8   8
#     4   9  18  35  58  77  97 129 166 208 256 306
#     4  10  20  34  51  73 103 136 171 214 259 304
#     4   8  15  31  54  77  99 129 171 209 244 294
#     4   8  15  29  52  78 101 130 170 210 245 292
#     4  12  24  35  51  75 102 132 167 214 266 310
#     4   9  19  36  55  76 103 136 173 207 247 305
#     4   9  18  32  52  79 111 141 167 203 247 294
#     4   9  16  28  47  72 102 135 170 207 248 292
#
# _framework density 18.551235999999999
#
# number of rings (size 3 to 8) (size 9 to 14) (size 15 to 20)
#    0.000    2.750    0.000    4.500    0.000    3.500 
#    0.000    3.750    0.000   12.000    0.000    0.000 
#    0.000    0.000    0.000    0.000    0.000    0.000 
#
# Total GULP energy -396606.752776 kJ/mol
# GULP energy per Si atom -12393.961024 kJ/mol
# Density = 1.850901 g / cm^3
# Si number density = 18.551236 Si / 1000 Ang^3
#
#
#
# Elastic Constant Matrix: (Units=GPa)
#
#
# Indices 1 2 3 4 5 6 
#
# 1 108.7883 37.4144 49.8007 0.0000 -2.4689 0.0000
# 2 37.4144 71.9599 29.1756 0.0000 -0.6519 0.0000
# 3 49.8007 29.1756 79.6464 0.0000 -11.4292 0.0000
# 4 0.0000 0.0000 0.0000 20.3252 0.0000 7.5741
# 5 -2.4689 -0.6519 -11.4292 0.0000 29.4079 0.0000
# 6 0.0000 0.0000 0.0000 7.5741 0.0000 28.4314
#
#
#
# Elastic Compliance Matrix: (Units=1/GPa)
#
#
# Indices 1 2 3 4 5 6 
#
# 1 0.014047 -0.004290 -0.007473 0.000000 -0.001820 0.000000
# 2 -0.004290 0.017752 -0.004041 0.000000 -0.001537 0.000000
# 3 -0.007473 -0.004041 0.019704 0.000000 0.006941 0.000000
# 4 0.000000 0.000000 0.000000 0.054622 0.000000 -0.014551
# 5 -0.001820 -0.001537 0.006941 0.000000 0.036515 0.000000
# 6 0.000000 0.000000 0.000000 -0.014551 0.000000 0.039049
#
#
# Mechanical properties :
#
#
# Convention : Reuss Voigt Hill
#
# Bulk Modulus (GPa) = 50.26278 54.79730 52.53004
# Shear Modulus (GPa) = 22.73455 25.23315 23.98385
#
# Velocity S-wave (km/s) = 3.50451 3.69207 3.59951
# Velocity P-wave (km/s) = 6.59760 6.91214 6.75670
#
# Compressibility (1/GPa) = 0.01989544
#
# Stress axis : x y z
#
# Youngs Moduli (GPa) = 71.18786 56.33288 50.75022
#
# Poissons Ratio (x) = 0.24168 0.37926
# Poissons Ratio (y) = 0.30542 0.20506
# Poissons Ratio (z) = 0.53199 0.22762
#
# Static dielectric constant tensor:
#      x y z
#    x 3.719130 0.000000 -0.145700 
#    y 0.000000 3.180180 0.000000 
#    z -0.145700 0.000000 3.583440 
# 
# 
# High freq. dielectric constant tensor:
#      x y z
#    x 1.723570 0.000000 -0.001150 
#    y 0.000000 1.692480 0.000000 
#    z -0.001150 0.000000 1.710490 
# 
# From -- ./inp_files/244144.got.cif
#   From: 2010.06.25/outbox.cif.g09.slc.cpg/sg12_123_cif.got.tgz:244144.got - 2010.06.28 00:19:55.
