data_PCOD8096288
_publ_section_title
;
Structure prediction by ZEFSAII (Michael W. Deem and Ramdas Pophale) SiO2 
 PCOD8096288
Probable space group: C 2/M
;
_chemical_formula_sum "Si O2"
_cell_formula_units_Z 64
_cell_length_a 30.153007
_cell_length_b 9.146243
_cell_length_c 16.095465
_cell_angle_alpha 90.000000
_cell_angle_beta 46.522327
_cell_angle_gamma 90.000000
_cell_volume 3221.066086
_symmetry_space_group_name_H-M "C 2/M"
_symmetry_group_IT_number 12
_symmetry_cell_setting 'monoclinic'
loop_
_space_group_symop_operation_xyz
x,y,z
-x,y,-z
-x,-y,-z
x,-y,z
1/2+x,1/2+y,z
1/2-x,1/2+y,-z
1/2-x,1/2-y,-z
1/2+x,1/2-y,z
loop_
_atom_site_type_symbol
_atom_site_label
_atom_site_fract_x
_atom_site_fract_y
_atom_site_fract_z
Si Si1 0.852033 0.837506 0.298578
Si Si2 0.934702 0.665310 0.322070
Si Si3 0.141110 0.331778 0.418146
Si Si4 0.567067 0.167390 0.208959
Si Si5 0.765071 0.673970 0.294937
Si Si6 0.442614 0.659256 0.033687
Si Si7 0.360035 0.835270 0.037140
Si Si8 0.933638 0.828142 0.620254
O O1 0.894536 0.769202 0.315037
O O2 0.796484 0.732997 0.339846
O O3 0.889765 0.858736 0.167414
O O4 0.829117 0.000000 0.357167
O O5 0.925575 0.500000 0.301343
O O6 0.911737 0.681708 0.445788
O O7 0.006647 0.707235 0.231835
O O8 0.158157 0.500000 0.377761
O O9 0.199540 0.247102 0.376952
O O10 0.118184 0.256575 0.363665
O O11 0.572372 0.279541 0.277106
O O12 0.559919 0.000000 0.250177
O O13 0.631722 0.180468 0.073325
O O14 0.758976 0.500000 0.310124
O O15 0.799282 0.721036 0.163399
O O16 0.464029 0.500000 0.973162
O O17 0.420522 0.751182 0.985440
O O18 0.500000 0.743143 0.000000
O O19 0.368314 0.000000 0.056020
O O20 0.000000 0.786140 0.500000
O O21 0.921049 0.000000 0.629768
#
# Coordination Sequence:
#
# PCOD8096288 Si02
#       8
#     8   8   8   8   8   8   8   8
#     4  10  20  33  52  79 112 152 194 233 278 335
#     4  10  21  35  55  84 115 147 187 235 286 336
#     4  11  23  40  62  85 111 149 192 233 283 340
#     4  10  20  37  60  87 118 149 185 232 286 341
#     4  10  21  39  59  81 114 153 194 238 280 327
#     4   9  17  29  46  72 108 147 186 229 278 330
#     4   9  19  34  55  81 109 146 188 230 278 331
#     4  11  23  39  61  90 119 146 181 226 283 343
#
# _framework density 19.869197
#
# number of rings (size 3 to 8) (size 9 to 14) (size 15 to 20)
#    0.000    2.000    1.250    2.250    0.000    4.250 
#    0.000    0.625    0.000    0.000    0.000    0.000 
#    0.000    0.000    0.000    0.000    0.000    0.000 
#
# Total GULP energy -396505.700888 kJ/mol
# GULP energy per Si atom -12390.803153 kJ/mol
# Density = 1.982397 g / cm^3
# Si number density = 19.869197 Si / 1000 Ang^3
#
#
#
# Elastic Constant Matrix: (Units=GPa)
#
#
# Indices 1 2 3 4 5 6 
#
# 1 80.1776 35.3266 0.1201 0.0001 5.8456 0.0000
# 2 35.3266 86.4446 15.1506 -0.0002 7.2476 0.0000
# 3 0.1201 15.1506 51.4331 0.0000 6.5353 -0.0001
# 4 0.0001 -0.0002 0.0000 8.2320 0.0000 -3.0790
# 5 5.8456 7.2476 6.5353 0.0000 26.2169 0.0000
# 6 0.0000 0.0000 -0.0001 -3.0790 0.0000 37.7729
#
#
#
# Elastic Compliance Matrix: (Units=1/GPa)
#
#
# Indices 1 2 3 4 5 6 
#
# 1 0.015507 -0.006533 0.002167 0.000000 -0.002192 0.000000
# 2 -0.006533 0.015119 -0.004226 0.000000 -0.001669 0.000000
# 3 0.002167 -0.004226 0.021269 0.000000 -0.004617 0.000000
# 4 0.000000 0.000000 0.000000 0.125297 0.000000 0.010213
# 5 -0.002192 -0.001669 -0.004617 0.000000 0.040244 0.000000
# 6 0.000000 0.000000 0.000000 0.010213 0.000000 0.027306
#
#
# Mechanical properties :
#
#
# Convention : Reuss Voigt Hill
#
# Bulk Modulus (GPa) = 28.81014 35.47221 32.14117
# Shear Modulus (GPa) = 18.28166 25.60824 21.94495
#
# Velocity S-wave (km/s) = 3.03661 3.59394 3.32696
# Velocity P-wave (km/s) = 5.17938 5.92566 5.56505
#
# Compressibility (1/GPa) = 0.03471001
#
# Stress axis : x y z
#
# Youngs Moduli (GPa) = 64.48509 66.14345 47.01642
#
# Poissons Ratio (x) = 0.43214 -0.10187
# Poissons Ratio (y) = 0.42130 0.19870
# Poissons Ratio (z) = -0.13973 0.27953
#
# Static dielectric constant tensor:
#      x y z
#    x 3.559950 0.000000 -0.075660 
#    y 0.000000 3.930300 0.000000 
#    z -0.075660 0.000000 3.640700 
# 
# 
# High freq. dielectric constant tensor:
#      x y z
#    x 1.757620 0.000000 -0.000680 
#    y 0.000000 1.781030 0.000000 
#    z -0.000680 0.000000 1.774870 
# 
# From -- ./inp_files/249796.got.cif
#   From: 2010.06.25/outbox.cif.g09.slc.cpg/sg12_125_cif.got.tgz:249796.got - 2010.06.28 00:19:55.
