data_PCOD8096922
_publ_section_title
;
Structure prediction by ZEFSAII (Michael W. Deem and Ramdas Pophale) SiO2 
 PCOD8096922
Probable space group: C 2/M
;
_chemical_formula_sum "Si O2"
_cell_formula_units_Z 44
_cell_length_a 18.434258
_cell_length_b 20.640288
_cell_length_c 4.905812
_cell_angle_alpha 90.000000
_cell_angle_beta 71.230675
_cell_angle_gamma 90.000000
_cell_volume 1767.341598
_symmetry_space_group_name_H-M "C 2/M"
_symmetry_group_IT_number 12
_symmetry_cell_setting 'monoclinic'
loop_
_space_group_symop_operation_xyz
x,y,z
-x,y,-z
-x,-y,-z
x,-y,z
1/2+x,1/2+y,z
1/2-x,1/2+y,-z
1/2-x,1/2-y,-z
1/2+x,1/2-y,z
loop_
_atom_site_type_symbol
_atom_site_label
_atom_site_fract_x
_atom_site_fract_y
_atom_site_fract_z
Si Si1 0.660775 0.119616 0.270910
Si Si2 0.556848 0.734338 0.142398
Si Si3 0.000000 0.356085 0.500000
Si Si4 0.821102 0.926915 0.115768
Si Si5 0.689738 0.800273 0.725926
Si Si6 0.646016 0.657631 0.434061
O O1 0.573505 0.095579 0.442341
O O2 0.728734 0.071856 0.286803
O O3 0.665175 0.184875 0.446753
O O4 0.671471 0.138075 0.941825
O O5 0.522400 0.806562 0.227378
O O6 0.570631 0.696484 0.414414
O O7 0.500000 0.697403 0.000000
O O8 0.640554 0.738059 0.889207
O O9 0.867860 0.881067 0.268265
O O10 0.852139 0.000000 0.097953
O O11 0.834168 0.899004 0.801580
O O12 0.782744 0.790383 0.621309
#
# Coordination Sequence:
#
# PCOD8096922 Si02
#       6
#     8   8   4   8   8   8
#     4   9  18  32  54  79 110 144 180 217 267 329
#     4  11  21  33  54  82 120 151 174 212 275 340
#     4  10  20  34  51  84 123 150 168 206 276 346
#     4  10  21  40  60  79 103 142 194 244 274 299
#     4   9  18  34  50  80 111 146 178 217 266 326
#     4  10  22  35  59  83 108 141 190 230 270 325
#
# _framework density 24.896146999999999
#
# number of rings (size 3 to 8) (size 9 to 14) (size 15 to 20)
#    0.000    2.182    1.818    1.091    2.545    0.000 
#    0.000    7.727    0.000    3.273    0.000   10.182 
#    0.000    0.000    0.000    0.000    0.000    0.000 
#
# Total GULP energy -272583.593775 kJ/mol
# GULP energy per Si atom -12390.163353 kJ/mol
# Density = 2.483948 g / cm^3
# Si number density = 24.896147 Si / 1000 Ang^3
#
#
#
# Elastic Constant Matrix: (Units=GPa)
#
#
# Indices 1 2 3 4 5 6 
#
# 1 98.8365 -0.6102 -3.0028 0.0000 14.4871 0.0000
# 2 -0.6102 73.7254 -6.7357 0.0000 14.6730 0.0000
# 3 -3.0028 -6.7357 60.1526 0.0000 1.8950 0.0000
# 4 0.0000 0.0000 0.0000 18.1307 0.0000 -0.2438
# 5 14.4871 14.6730 1.8950 0.0000 33.4767 0.0000
# 6 0.0000 0.0000 0.0000 -0.2438 0.0000 18.0202
#
#
#
# Elastic Compliance Matrix: (Units=1/GPa)
#
#
# Indices 1 2 3 4 5 6 
#
# 1 0.010930 0.001226 0.000850 0.000000 -0.005316 0.000000
# 2 0.001226 0.015211 0.001995 0.000000 -0.007311 0.000000
# 3 0.000850 0.001995 0.016960 0.000000 -0.002202 0.000000
# 4 0.000000 0.000000 0.000000 0.055165 0.000000 0.000746
# 5 -0.005316 -0.007311 -0.002202 0.000000 0.035501 0.000000
# 6 0.000000 0.000000 0.000000 0.000746 0.000000 0.055503
#
#
# Mechanical properties :
#
#
# Convention : Reuss Voigt Hill
#
# Bulk Modulus (GPa) = 19.51460 23.55746 21.53603
# Shear Modulus (GPa) = 25.22590 30.12973 27.67782
#
# Velocity S-wave (km/s) = 3.18660 3.48259 3.33788
# Velocity P-wave (km/s) = 4.62544 5.06499 4.85019
#
# Compressibility (1/GPa) = 0.05124369
#
# Stress axis : x y z
#
# Youngs Moduli (GPa) = 91.48906 65.74087 58.96370
#
# Poissons Ratio (x) = -0.08060 -0.05014
# Poissons Ratio (y) = -0.11217 -0.11762
# Poissons Ratio (z) = -0.07780 -0.13114
#
# Static dielectric constant tensor:
#      x y z
#    x 4.907690 0.000000 -0.082750 
#    y 0.000000 3.651990 0.000000 
#    z -0.082750 0.000000 4.776280 
# 
# 
# High freq. dielectric constant tensor:
#      x y z
#    x 2.005710 0.000000 0.000820 
#    y 0.000000 1.916450 0.000000 
#    z 0.000820 0.000000 2.020410 
# 
# From -- ./inp_files/16080.got.cif
#   From: 2010.06.25/outbox.cif.g09.slc.cpg/sg12_9_cif.got.tgz:16080.got - 2010.06.28 00:19:55.
