data_PCOD8096076
_publ_section_title
;
Structure prediction by ZEFSAII (Michael W. Deem and Ramdas Pophale) SiO2 
 PCOD8096076
Probable space group: C 2/M
;
_chemical_formula_sum "Si O2"
_cell_formula_units_Z 64
_cell_length_a 22.195118
_cell_length_b 9.284893
_cell_length_c 22.180951
_cell_angle_alpha 90.000000
_cell_angle_beta 130.295380
_cell_angle_gamma 90.000000
_cell_volume 3486.421830
_symmetry_space_group_name_H-M "C 2/M"
_symmetry_group_IT_number 12
_symmetry_cell_setting 'monoclinic'
loop_
_space_group_symop_operation_xyz
x,y,z
-x,y,-z
-x,-y,-z
x,-y,z
1/2+x,1/2+y,z
1/2-x,1/2+y,-z
1/2-x,1/2-y,-z
1/2+x,1/2-y,z
loop_
_atom_site_type_symbol
_atom_site_label
_atom_site_fract_x
_atom_site_fract_y
_atom_site_fract_z
Si Si1 0.575475 0.330693 0.008377
Si Si2 0.031263 0.669269 0.861570
Si Si3 0.394709 0.832521 0.216811
Si Si4 0.581687 0.332125 0.521224
Si Si5 0.390213 0.333822 0.717115
Si Si6 0.227879 0.331396 0.670760
Si Si7 0.964597 0.166708 0.640161
Si Si8 0.734863 0.329918 0.172343
O O1 0.581048 0.500000 0.997333
O O2 0.652393 0.270987 0.093036
O O3 0.500000 0.294874 0.000000
O O4 0.572035 0.243710 0.944389
O O5 0.022062 0.500000 0.866887
O O6 0.087282 0.704087 0.840897
O O7 0.944910 0.736009 0.794856
O O8 0.453968 0.751628 0.299821
O O9 0.305857 0.781804 0.174104
O O10 0.406032 0.000000 0.237729
O O11 0.500000 0.290429 0.500000
O O12 0.600243 0.500000 0.540285
O O13 0.650554 0.245856 0.597491
O O14 0.577987 0.285497 0.448813
O O15 0.409432 0.500000 0.745153
O O16 0.299530 0.297182 0.671717
O O17 0.405150 0.299260 0.656588
O O18 0.209498 0.500000 0.662131
O O19 0.250308 0.269066 0.751063
O O20 0.987886 0.000000 0.652461
O O21 0.728212 0.500000 0.172074
#
# Coordination Sequence:
#
# PCOD8096076 Si02
#       8
#     8   8   8   8   8   8   8   8
#     4  10  20  35  55  75  98 133 172 206 245 296
#     4  10  20  33  51  77 105 131 162 203 250 297
#     4   9  18  33  52  74 101 131 164 204 248 294
#     4  10  21  35  50  72 104 137 167 204 253 304
#     4   9  18  34  54  75 100 132 170 207 245 295
#     4  10  20  34  54  77  98 126 169 214 249 290
#     4   9  18  33  52  73 100 134 168 203 246 298
#     4   9  18  33  52  73  98 129 166 208 250 292
#
# _framework density 18.356929999999998
#
# number of rings (size 3 to 8) (size 9 to 14) (size 15 to 20)
#    0.000    2.500    0.000    1.875    0.000    5.000 
#    0.000    1.250    0.000    0.000    0.000    0.000 
#    0.000    0.000    0.000    0.000    0.000    0.000 
#
# Total GULP energy -396869.361711 kJ/mol
# GULP energy per Si atom -12402.167553 kJ/mol
# Density = 1.831515 g / cm^3
# Si number density = 18.356930 Si / 1000 Ang^3
#
#
#
# Elastic Constant Matrix: (Units=GPa)
#
#
# Indices 1 2 3 4 5 6 
#
# 1 125.1728 45.9446 84.5616 0.0000 13.6851 0.0000
# 2 45.9446 51.7195 59.7803 0.0000 4.5400 0.0000
# 3 84.5616 59.7803 177.9348 0.0000 6.1491 0.0000
# 4 0.0000 0.0000 0.0000 31.3047 0.0000 3.6170
# 5 13.6851 4.5400 6.1491 0.0000 29.9297 0.0000
# 6 0.0000 0.0000 0.0000 3.6170 0.0000 20.2875
#
#
#
# Elastic Compliance Matrix: (Units=1/GPa)
#
#
# Indices 1 2 3 4 5 6 
#
# 1 0.013835 -0.007324 -0.003962 0.000000 -0.004401 0.000000
# 2 -0.007324 0.035695 -0.008500 0.000000 -0.000319 0.000000
# 3 -0.003962 -0.008500 0.010325 0.000000 0.000980 0.000000
# 4 0.000000 0.000000 0.000000 0.032616 0.000000 -0.005815
# 5 -0.004401 -0.000319 0.000980 0.000000 0.035271 0.000000
# 6 0.000000 0.000000 0.000000 -0.005815 0.000000 0.050328
#
#
# Mechanical properties :
#
#
# Convention : Reuss Voigt Hill
#
# Bulk Modulus (GPa) = 49.30696 81.71113 65.50904
# Shear Modulus (GPa) = 22.28119 27.27377 24.77748
#
# Velocity S-wave (km/s) = 3.48771 3.85872 3.67790
# Velocity P-wave (km/s) = 6.56789 8.02882 7.33482
#
# Compressibility (1/GPa) = 0.02028111
#
# Stress axis : x y z
#
# Youngs Moduli (GPa) = 72.27939 28.01522 96.85181
#
# Poissons Ratio (x) = 0.20519 0.38375
# Poissons Ratio (y) = 0.52940 0.82329
# Poissons Ratio (z) = 0.28639 0.23814
#
# Static dielectric constant tensor:
#      x y z
#    x 3.565690 0.000000 -0.081990 
#    y 0.000000 3.223020 0.000000 
#    z -0.081990 0.000000 3.436550 
# 
# 
# High freq. dielectric constant tensor:
#      x y z
#    x 1.722980 0.000000 -0.006150 
#    y 0.000000 1.693300 0.000000 
#    z -0.006150 0.000000 1.714780 
# 
# From -- ./inp_files/324278.got.cif
#   From: 2010.06.25/outbox.cif.g09.slc.cpg/sg12_163_cif.got.tgz:324278.got - 2010.06.28 00:19:55.
