data_PCOD8096878
_publ_section_title
;
Structure prediction by ZEFSAII (Michael W. Deem and Ramdas Pophale) SiO2 
 PCOD8096878
Probable space group: C 2/M
;
_chemical_formula_sum "Si O2"
_cell_formula_units_Z 56
_cell_length_a 14.494193
_cell_length_b 9.395091
_cell_length_c 24.095359
_cell_angle_alpha 90.000000
_cell_angle_beta 53.682360
_cell_angle_gamma 90.000000
_cell_volume 2643.787703
_symmetry_space_group_name_H-M "C 2/M"
_symmetry_group_IT_number 12
_symmetry_cell_setting 'monoclinic'
loop_
_space_group_symop_operation_xyz
x,y,z
-x,y,-z
-x,-y,-z
x,-y,z
1/2+x,1/2+y,z
1/2-x,1/2+y,-z
1/2-x,1/2-y,-z
1/2+x,1/2-y,z
loop_
_atom_site_type_symbol
_atom_site_label
_atom_site_fract_x
_atom_site_fract_y
_atom_site_fract_z
Si Si1 0.238055 0.164854 0.175293
Si Si2 0.315079 0.333167 0.929509
Si Si3 0.026473 0.165187 0.713158
Si Si4 0.696465 0.846389 0.473640
Si Si5 0.424171 0.667057 0.180642
Si Si6 0.892342 0.158752 0.580193
Si Si7 0.999153 0.343530 0.376482
O O1 0.245370 0.204604 0.107500
O O2 0.108837 0.199919 0.239350
O O3 0.328576 0.253748 0.178805
O O4 0.266789 0.000000 0.174121
O O5 0.305176 0.500000 0.944358
O O6 0.448457 0.287647 0.883624
O O7 0.250000 0.250000 0.000000
O O8 0.085789 0.205722 0.750332
O O9 0.074786 0.267682 0.646657
O O10 0.048265 0.000000 0.691829
O O11 0.750000 0.750000 0.500000
O O12 0.700703 0.763998 0.413968
O O13 0.569958 0.873178 0.542396
O O14 0.758554 0.000000 0.444014
O O15 0.406014 0.500000 0.178521
O O16 0.909251 0.225822 0.635564
O O17 0.000000 0.149457 0.500000
O O18 0.842580 0.000000 0.606355
O O19 0.047365 0.500000 0.340199
#
# Coordination Sequence:
#
# PCOD8096878 Si02
#       7
#     8   8   8   8   8   8   8
#     4   9  19  36  56  78 107 143 181 223 269 316
#     4   9  19  35  54  80 113 146 181 220 266 318
#     4   9  19  37  56  75 104 143 181 221 270 323
#     4  10  20  34  51  74 104 134 168 212 262 318
#     4   9  19  36  56  78 108 144 183 225 268 316
#     4   9  17  31  52  73  95 128 164 201 254 312
#     4  10  20  34  53  77 102 130 170 217 260 314
#
# _framework density 21.181730999999999
#
# number of rings (size 3 to 8) (size 9 to 14) (size 15 to 20)
#    0.000    2.714    0.000    3.000    0.000    6.286 
#    2.571    5.714    0.000    0.000    0.000    0.000 
#    0.000    0.000    0.000    0.000    0.000    0.000 
#
# Total GULP energy -346871.350526 kJ/mol
# GULP energy per Si atom -12388.262519 kJ/mol
# Density = 2.113352 g / cm^3
# Si number density = 21.181731 Si / 1000 Ang^3
#
#
#
# Elastic Constant Matrix: (Units=GPa)
#
#
# Indices 1 2 3 4 5 6 
#
# 1 115.3070 48.2601 21.2738 0.0000 31.1721 0.0000
# 2 48.2601 136.4589 17.1337 0.0000 30.0440 0.0000
# 3 21.2738 17.1337 69.2106 0.0000 20.6035 0.0000
# 4 0.0000 0.0000 0.0000 29.5694 0.0000 11.7714
# 5 31.1721 30.0440 20.6035 0.0000 30.5640 0.0000
# 6 0.0000 0.0000 0.0000 11.7714 0.0000 40.2118
#
#
#
# Elastic Compliance Matrix: (Units=1/GPa)
#
#
# Indices 1 2 3 4 5 6 
#
# 1 0.012407 -0.002049 -0.000174 0.000000 -0.010522 0.000000
# 2 -0.002049 0.009706 0.000557 0.000000 -0.007826 0.000000
# 3 -0.000174 0.000557 0.018108 0.000000 -0.012577 0.000000
# 4 0.000000 0.000000 0.000000 0.038280 0.000000 -0.011206
# 5 -0.010522 -0.007826 -0.012577 0.000000 0.059621 0.000000
# 6 0.000000 0.000000 0.000000 -0.011206 0.000000 0.028149
#
#
# Mechanical properties :
#
#
# Convention : Reuss Voigt Hill
#
# Bulk Modulus (GPa) = 27.10864 54.92354 41.01609
# Shear Modulus (GPa) = 27.48767 35.68964 31.58865
#
# Velocity S-wave (km/s) = 3.60628 4.10924 3.86595
# Velocity P-wave (km/s) = 5.49238 6.96422 6.27163
#
# Compressibility (1/GPa) = 0.03688861
#
# Stress axis : x y z
#
# Youngs Moduli (GPa) = 80.60081 103.02703 55.22316
#
# Poissons Ratio (x) = 0.21114 0.00961
# Poissons Ratio (y) = 0.16518 -0.03076
# Poissons Ratio (z) = 0.01402 -0.05738
#
# Static dielectric constant tensor:
#      x y z
#    x 3.617590 0.000000 -0.037220 
#    y 0.000000 3.950580 0.000000 
#    z -0.037220 0.000000 4.177640 
# 
# 
# High freq. dielectric constant tensor:
#      x y z
#    x 1.824580 0.000000 0.019450 
#    y 0.000000 1.837190 0.000000 
#    z 0.019450 0.000000 1.814770 
# 
# From -- ./inp_files/337913.got.cif
#   From: 2010.06.25/outbox.cif.g09.slc.cpg/sg12_169_cif.got.tgz:337913.got - 2010.06.28 00:19:55.
