data_PCOD8096808
_publ_section_title
;
Structure prediction by ZEFSAII (Michael W. Deem and Ramdas Pophale) SiO2 
 PCOD8096808
Probable space group: C 2/M
;
_chemical_formula_sum "Si O2"
_cell_formula_units_Z 64
_cell_length_a 28.325512
_cell_length_b 9.100146
_cell_length_c 15.595827
_cell_angle_alpha 90.000000
_cell_angle_beta 115.421076
_cell_angle_gamma 90.000000
_cell_volume 3630.844283
_symmetry_space_group_name_H-M "C 2/M"
_symmetry_group_IT_number 12
_symmetry_cell_setting 'monoclinic'
loop_
_space_group_symop_operation_xyz
x,y,z
-x,y,-z
-x,-y,-z
x,-y,z
1/2+x,1/2+y,z
1/2-x,1/2+y,-z
1/2-x,1/2-y,-z
1/2+x,1/2-y,z
loop_
_atom_site_type_symbol
_atom_site_label
_atom_site_fract_x
_atom_site_fract_y
_atom_site_fract_z
Si Si1 0.841029 0.672431 0.393262
Si Si2 0.401723 0.171123 0.602576
Si Si3 0.630300 0.828068 0.235108
Si Si4 0.120629 0.329005 0.762898
Si Si5 0.510541 0.826325 0.754711
Si Si6 0.973517 0.171277 0.888941
Si Si7 0.258006 0.829042 0.743565
Si Si8 0.280701 0.328220 0.099020
O O1 0.832179 0.500000 0.397558
O O2 0.873186 0.742764 0.498037
O O3 0.873266 0.709217 0.332440
O O4 0.784134 0.745166 0.346954
O O5 0.368791 0.205342 0.662567
O O6 0.460976 0.230280 0.660225
O O7 0.405016 0.000000 0.586323
O O8 0.584258 0.739641 0.153250
O O9 0.684686 0.773013 0.237762
O O10 0.620791 0.000000 0.210370
O O11 0.131457 0.500000 0.789237
O O12 0.062556 0.282548 0.744607
O O13 0.160910 0.235956 0.851044
O O14 0.509868 0.747426 0.845949
O O15 0.506361 0.000000 0.768026
O O16 0.969056 0.000000 0.864502
O O17 0.000000 0.202009 0.000000
O O18 0.249868 0.793912 0.837120
O O19 0.251450 0.000000 0.718515
O O20 0.284215 0.500000 0.082399
O O21 0.250000 0.250000 0.000000
#
# Coordination Sequence:
#
# PCOD8096808 Si02
#       8
#     8   8   8   8   8   8   8   8
#     4   9  17  30  49  73 101 129 159 198 240 281
#     4   8  15  29  49  73  98 125 160 200 238 277
#     4   9  18  34  53  71  95 128 164 199 235 283
#     4   9  18  32  50  73  99 129 164 198 236 284
#     4   9  18  33  52  72  97 130 165 198 234 283
#     4  10  21  35  50  72 100 125 155 199 247 290
#     4   9  19  34  50  70  97 128 162 199 239 285
#     4  10  20  34  51  71  97 128 162 202 245 288
#
# _framework density 17.626753999999998
#
# number of rings (size 3 to 8) (size 9 to 14) (size 15 to 20)
#    0.000    2.875    0.000    1.500    0.000    4.500 
#    0.000    8.750    0.000    0.000    0.000    7.000 
#    0.000    0.000    0.000    0.000    0.000    0.000 
#
# Total GULP energy -396801.060487 kJ/mol
# GULP energy per Si atom -12400.033140 kJ/mol
# Density = 1.758663 g / cm^3
# Si number density = 17.626754 Si / 1000 Ang^3
#
#
#
# Elastic Constant Matrix: (Units=GPa)
#
#
# Indices 1 2 3 4 5 6 
#
# 1 155.7026 46.7643 66.7680 0.0000 7.8734 0.0000
# 2 46.7643 54.3187 54.6187 0.0000 6.7182 0.0000
# 3 66.7680 54.6187 140.9899 0.0000 15.4362 0.0000
# 4 0.0000 0.0000 0.0000 22.6153 0.0000 5.0734
# 5 7.8734 6.7182 15.4362 0.0000 15.5146 0.0000
# 6 0.0000 0.0000 0.0000 5.0734 0.0000 26.0874
#
#
#
# Elastic Compliance Matrix: (Units=1/GPa)
#
#
# Indices 1 2 3 4 5 6 
#
# 1 0.009016 -0.005681 -0.002062 0.000000 -0.000064 0.000000
# 2 -0.005681 0.033772 -0.010221 0.000000 -0.001572 0.000000
# 3 -0.002062 -0.010221 0.012827 0.000000 -0.007290 0.000000
# 4 0.000000 0.000000 0.000000 0.046235 0.000000 -0.008992
# 5 -0.000064 -0.001572 -0.007290 0.000000 0.072421 0.000000
# 6 0.000000 0.000000 0.000000 -0.008992 0.000000 0.040081
#
#
# Mechanical properties :
#
#
# Convention : Reuss Voigt Hill
#
# Bulk Modulus (GPa) = 50.79267 76.36812 63.58040
# Shear Modulus (GPa) = 19.46713 25.03415 22.25064
#
# Velocity S-wave (km/s) = 3.32687 3.77269 3.55677
# Velocity P-wave (km/s) = 6.60573 7.89916 7.28122
#
# Compressibility (1/GPa) = 0.01968788
#
# Stress axis : x y z
#
# Youngs Moduli (GPa) = 110.91163 29.60999 77.96197
#
# Poissons Ratio (x) = 0.16821 0.16076
# Poissons Ratio (y) = 0.63009 0.79683
# Poissons Ratio (z) = 0.22870 0.30264
#
# Static dielectric constant tensor:
#      x y z
#    x 3.423520 0.000000 0.052850 
#    y 0.000000 3.142190 0.000000 
#    z 0.052850 0.000000 3.394810 
# 
# 
# High freq. dielectric constant tensor:
#      x y z
#    x 1.685360 0.000000 0.003090 
#    y 0.000000 1.666380 0.000000 
#    z 0.003090 0.000000 1.683790 
# 
# From -- ./inp_files/244202.got.cif
#   From: 2010.06.25/outbox.cif.g09.slc.cpg/sg12_123_cif.got.tgz:244202.got - 2010.06.28 00:19:55.
