data_PCOD8096409
_publ_section_title
;
Structure prediction by ZEFSAII (Michael W. Deem and Ramdas Pophale) SiO2 
 PCOD8096409
Probable space group: C 2/M
;
_chemical_formula_sum "Si O2"
_cell_formula_units_Z 56
_cell_length_a 37.709297
_cell_length_b 9.900859
_cell_length_c 9.526474
_cell_angle_alpha 90.000000
_cell_angle_beta 56.280622
_cell_angle_gamma 90.000000
_cell_volume 2958.386294
_symmetry_space_group_name_H-M "C 2/M"
_symmetry_group_IT_number 12
_symmetry_cell_setting 'monoclinic'
loop_
_space_group_symop_operation_xyz
x,y,z
-x,y,-z
-x,-y,-z
x,-y,z
1/2+x,1/2+y,z
1/2-x,1/2+y,-z
1/2-x,1/2-y,-z
1/2+x,1/2-y,z
loop_
_atom_site_type_symbol
_atom_site_label
_atom_site_fract_x
_atom_site_fract_y
_atom_site_fract_z
Si Si1 0.545934 0.658913 0.460610
Si Si2 0.219233 0.155441 0.479218
Si Si3 0.437458 0.148324 0.039409
Si Si4 0.137995 0.845100 0.841413
Si Si5 0.974346 0.648579 0.265867
Si Si6 0.215711 0.160685 0.157872
Si Si7 0.636308 0.658038 0.155321
O O1 0.500000 0.703116 0.500000
O O2 0.546979 0.500000 0.486693
O O3 0.550902 0.736546 0.595777
O O4 0.587204 0.708341 0.280406
O O5 0.250000 0.250000 0.500000
O O6 0.172993 0.179319 0.646324
O O7 0.218110 0.195345 0.317867
O O8 0.233685 0.000000 0.466223
O O9 0.402624 0.261999 0.111918
O O10 0.456541 0.146487 0.150633
O O11 0.418082 0.000000 0.047040
O O12 0.475176 0.182904 0.847368
O O13 0.123638 0.000000 0.879010
O O14 0.153458 0.798997 0.963207
O O15 0.967681 0.500000 0.349355
O O16 0.169556 0.210020 0.200310
O O17 0.223414 0.000000 0.114819
O O18 0.250000 0.250000 0.000000
O O19 0.635409 0.500000 0.174026
#
# Coordination Sequence:
#
# PCOD8096409 Si02
#       7
#     8   8   8   8   8   8   8
#     4  10  20  33  53  80 110 146 189 232 278 330
#     4  10  22  38  60  88 115 147 188 232 282 342
#     4   9  19  35  53  75 107 146 183 228 281 328
#     4  10  20  35  57  83 109 142 187 229 274 332
#     4   9  19  35  52  73 106 146 187 228 277 330
#     4  10  21  39  61  85 115 150 187 231 284 340
#     4   9  19  35  55  80 116 151 180 228 286 333
#
# _framework density 18.929238000000002
#
# number of rings (size 3 to 8) (size 9 to 14) (size 15 to 20)
#    0.000    2.429    0.000    2.571    2.000    4.857 
#    0.000    3.571    0.000    0.000    0.000    0.000 
#    0.000    0.000    0.000    0.000    0.000    0.000 
#
# Total GULP energy -346995.826696 kJ/mol
# GULP energy per Si atom -12392.708096 kJ/mol
# Density = 1.888615 g / cm^3
# Si number density = 18.929238 Si / 1000 Ang^3
#
#
#
# Elastic Constant Matrix: (Units=GPa)
#
#
# Indices 1 2 3 4 5 6 
#
# 1 117.3010 48.0453 57.9526 0.0000 -8.8424 0.0000
# 2 48.0453 65.1348 51.2726 0.0000 -2.5046 0.0000
# 3 57.9526 51.2726 135.0037 0.0000 5.1244 0.0000
# 4 0.0000 0.0000 0.0000 27.9663 0.0000 1.1923
# 5 -8.8424 -2.5046 5.1244 0.0000 24.0032 0.0000
# 6 0.0000 0.0000 0.0000 1.1923 0.0000 30.7564
#
#
#
# Elastic Compliance Matrix: (Units=1/GPa)
#
#
# Indices 1 2 3 4 5 6 
#
# 1 0.013426 -0.007179 -0.003222 0.000000 0.004885 0.000000
# 2 -0.007179 0.026145 -0.006907 0.000000 0.001558 0.000000
# 3 -0.003222 -0.006907 0.011580 0.000000 -0.004380 0.000000
# 4 0.000000 0.000000 0.000000 0.035816 0.000000 -0.001388
# 5 0.004885 0.001558 -0.004380 0.000000 0.044558 0.000000
# 6 0.000000 0.000000 0.000000 -0.001388 0.000000 0.032567
#
#
# Mechanical properties :
#
#
# Convention : Reuss Voigt Hill
#
# Bulk Modulus (GPa) = 60.48002 70.22005 65.35003
# Shear Modulus (GPa) = 24.48339 27.22311 25.85325
#
# Velocity S-wave (km/s) = 3.60031 3.79641 3.69966
# Velocity P-wave (km/s) = 7.02160 7.50957 7.26968
#
# Compressibility (1/GPa) = 0.01653439
#
# Stress axis : x y z
#
# Youngs Moduli (GPa) = 74.48464 38.24808 86.35725
#
# Poissons Ratio (x) = 0.27458 0.27825
# Poissons Ratio (y) = 0.53472 0.59647
# Poissons Ratio (z) = 0.24000 0.26418
#
# Static dielectric constant tensor:
#      x y z
#    x 3.592520 0.000000 -0.070160 
#    y 0.000000 3.555300 0.000000 
#    z -0.070160 0.000000 3.734980 
# 
# 
# High freq. dielectric constant tensor:
#      x y z
#    x 1.733460 0.000000 0.001950 
#    y 0.000000 1.724140 0.000000 
#    z 0.001950 0.000000 1.743410 
# 
# From -- ./inp_files/110354.got.cif
#   From: 2010.06.25/outbox.cif.g09.slc.cpg/sg12_56_cif.got.tgz:110354.got - 2010.06.28 00:19:55.
