data_PCOD8096330
_publ_section_title
;
Structure prediction by ZEFSAII (Michael W. Deem and Ramdas Pophale) SiO2 
 PCOD8096330
Probable space group: C 2/M
;
_chemical_formula_sum "Si O2"
_cell_formula_units_Z 56
_cell_length_a 15.706774
_cell_length_b 16.706237
_cell_length_c 14.164611
_cell_angle_alpha 90.000000
_cell_angle_beta 52.656727
_cell_angle_gamma 90.000000
_cell_volume 2954.921332
_symmetry_space_group_name_H-M "C 2/M"
_symmetry_group_IT_number 12
_symmetry_cell_setting 'monoclinic'
loop_
_space_group_symop_operation_xyz
x,y,z
-x,y,-z
-x,-y,-z
x,-y,z
1/2+x,1/2+y,z
1/2-x,1/2+y,-z
1/2-x,1/2-y,-z
1/2+x,1/2-y,z
loop_
_atom_site_type_symbol
_atom_site_label
_atom_site_fract_x
_atom_site_fract_y
_atom_site_fract_z
Si Si1 0.827188 0.712622 0.559711
Si Si2 0.175915 0.312415 0.225068
Si Si3 0.124951 0.159222 0.605660
Si Si4 0.615934 0.647396 0.179904
Si Si5 0.876588 0.000000 0.695737
Si Si6 0.131132 0.000000 0.512133
Si Si7 0.517144 0.911514 0.600630
Si Si8 0.616354 0.405363 0.965437
O O1 0.854254 0.715396 0.650326
O O2 0.879706 0.794711 0.490112
O O3 0.700192 0.705962 0.628905
O O4 0.878376 0.643145 0.459619
O O5 0.173004 0.233651 0.159828
O O6 0.290987 0.355956 0.150295
O O7 0.080817 0.376180 0.269433
O O8 0.010351 0.156021 0.729685
O O9 0.172982 0.073504 0.546000
O O10 0.660119 0.579932 0.222744
O O11 0.635345 0.617518 0.061091
O O12 0.824504 0.000000 0.625733
O O13 0.003078 0.000000 0.598367
O O14 0.500000 0.915574 0.500000
O O15 0.538941 0.000000 0.626541
O O16 0.634175 0.500000 0.938588
O O17 0.500000 0.381240 0.000000
#
# Coordination Sequence:
#
# PCOD8096330 Si02
#       8
#     8   8   8   8   4   4   8   8
#     4  10  20  34  52  81 116 150 184 229 279 336
#     4  11  21  36  59  82 109 150 190 234 281 335
#     4  10  20  33  52  82 118 148 185 227 283 338
#     4  11  20  37  58  83 112 148 192 236 280 340
#     4   9  18  32  53  80 110 141 190 231 276 323
#     4   9  18  30  50  80 110 150 183 228 277 332
#     4   9  18  32  51  77 108 144 186 222 270 332
#     4  11  24  41  59  84 115 146 189 241 293 341
#
# _framework density 18.951433999999999
#
# number of rings (size 3 to 8) (size 9 to 14) (size 15 to 20)
#    0.000    1.857    2.143    2.571    1.000    1.714 
#    0.000    0.000    0.000    0.000    0.000    0.500 
#    0.000    0.000    0.000    0.000    0.000    0.000 
#
# Total GULP energy -346969.777336 kJ/mol
# GULP energy per Si atom -12391.777762 kJ/mol
# Density = 1.890830 g / cm^3
# Si number density = 18.951434 Si / 1000 Ang^3
#
#
#
# Elastic Constant Matrix: (Units=GPa)
#
#
# Indices 1 2 3 4 5 6 
#
# 1 27.8692 4.8407 5.1919 0.0000 -3.7087 0.0000
# 2 4.8407 117.1706 19.8334 0.0000 -4.9620 0.0000
# 3 5.1919 19.8334 55.3404 0.0000 -5.4391 0.0000
# 4 0.0000 0.0000 0.0000 23.0904 0.0000 -12.2251
# 5 -3.7087 -4.9620 -5.4391 0.0000 27.9585 0.0000
# 6 0.0000 0.0000 0.0000 -12.2251 0.0000 -7.6993
#
#
#
# Elastic Compliance Matrix: (Units=1/GPa)
#
#
# Indices 1 2 3 4 5 6 
#
# 1 0.037111 -0.000889 -0.002747 0.000000 0.004231 0.000000
# 2 -0.000889 0.009134 -0.003102 0.000000 0.000900 0.000000
# 3 -0.002747 -0.003102 0.019727 0.000000 0.002923 0.000000
# 4 0.000000 0.000000 0.000000 0.023528 0.000000 -0.037359
# 5 0.004231 0.000900 0.002923 0.000000 0.037057 0.000000
# 6 0.000000 0.000000 0.000000 -0.037359 0.000000 -0.070562
#
#
# Mechanical properties :
#
#
# Convention : Reuss Voigt Hill
#
# Bulk Modulus (GPa) = 19.04910 28.90137 23.97523
# Shear Modulus (GPa) = 57.49101 20.03753 38.76427
#
# Velocity S-wave (km/s) = 5.51378 3.25516 4.52757
# Velocity P-wave (km/s) = 7.11401 5.42323 6.32537
#
# Compressibility (1/GPa) = 0.05249593
#
# Stress axis : x y z
#
# Youngs Moduli (GPa) = 26.94613 109.47572 50.69281
#
# Poissons Ratio (x) = 0.09732 0.13927
# Poissons Ratio (y) = 0.02395 0.15724
# Poissons Ratio (z) = 0.07403 0.33958
#
# Static dielectric constant tensor:
#      x y z
#    x 3.229170 0.000000 0.039850 
#    y 0.000000 3.803160 0.000000 
#    z 0.039850 0.000000 3.362100 
# 
# 
# High freq. dielectric constant tensor:
#      x y z
#    x 1.715930 0.000000 -0.000750 
#    y 0.000000 1.752250 0.000000 
#    z -0.000750 0.000000 1.721590 
# 
# From -- ./inp_files/216338.got.cif
#   From: 2010.06.25/outbox.cif.g09.slc.cpg/sg12_109_cif.got.tgz:216338.got - 2010.06.28 00:19:55.
