data_PCOD8096582
_publ_section_title
;
Structure prediction by ZEFSAII (Michael W. Deem and Ramdas Pophale) SiO2 
 PCOD8096582
Probable space group: C 2/M
;
_chemical_formula_sum "Si O2"
_cell_formula_units_Z 48
_cell_length_a 18.719634
_cell_length_b 13.869468
_cell_length_c 17.236521
_cell_angle_alpha 90.000000
_cell_angle_beta 147.096983
_cell_angle_gamma 90.000000
_cell_volume 2430.980356
_symmetry_space_group_name_H-M "C 2/M"
_symmetry_group_IT_number 12
_symmetry_cell_setting 'monoclinic'
loop_
_space_group_symop_operation_xyz
x,y,z
-x,y,-z
-x,-y,-z
x,-y,z
1/2+x,1/2+y,z
1/2-x,1/2+y,-z
1/2-x,1/2-y,-z
1/2+x,1/2-y,z
loop_
_atom_site_type_symbol
_atom_site_label
_atom_site_fract_x
_atom_site_fract_y
_atom_site_fract_z
Si Si1 0.613536 0.244397 0.155834
Si Si2 0.705240 0.278249 0.819462
Si Si3 0.441606 0.109373 0.092740
Si Si4 0.712778 0.229240 0.553919
Si Si5 0.969736 0.390306 0.295019
Si Si6 0.461944 0.607838 0.554207
O O1 0.739387 0.222162 0.217526
O O2 0.548052 0.145185 0.127115
O O3 0.664285 0.304064 0.278510
O O4 0.500000 0.298765 0.000000
O O5 0.661037 0.170399 0.803202
O O6 0.579827 0.347549 0.712108
O O7 0.815030 0.320439 0.977093
O O8 0.502160 0.115566 0.233518
O O9 0.401104 0.000000 0.034538
O O10 0.750000 0.250000 0.500000
O O11 0.597702 0.150142 0.456369
O O12 0.668911 0.331125 0.550376
O O13 0.944379 0.500000 0.298619
O O14 0.500000 0.609554 0.500000
O O15 0.434693 0.500000 0.558961
#
# Coordination Sequence:
#
# PCOD8096582 Si02
#       6
#     8   8   8   8   8   8
#     4  10  21  36  57  85 115 153 188 233 292 348
#     4  10  20  36  57  83 123 151 189 234 292 342
#     4  10  20  35  59  92 121 152 188 232 294 359
#     4  11  21  38  58  83 117 151 191 242 291 342
#     4  10  22  38  61  87 113 154 202 242 286 338
#     4  10  20  33  55  85 114 148 185 233 296 352
#
# _framework density 19.745121000000001
#
# number of rings (size 3 to 8) (size 9 to 14) (size 15 to 20)
#    0.000    1.833    3.333    1.000    0.000    5.000 
#    0.000    1.667    0.000    9.000    0.000    0.000 
#    0.000    0.000    0.000    0.000    0.000    0.000 
#
# Total GULP energy -297500.536794 kJ/mol
# GULP energy per Si atom -12395.855700 kJ/mol
# Density = 1.970018 g / cm^3
# Si number density = 19.745121 Si / 1000 Ang^3
#
#
#
# Elastic Constant Matrix: (Units=GPa)
#
#
# Indices 1 2 3 4 5 6 
#
# 1 86.9228 40.1229 25.7312 -0.0001 0.0250 -0.0001
# 2 40.1229 136.4221 41.4734 -0.0002 4.4430 -0.0002
# 3 25.7312 41.4734 129.5566 -0.0003 -12.1204 -0.0003
# 4 -0.0001 -0.0002 -0.0003 20.8132 -0.0002 -1.1480
# 5 0.0250 4.4430 -12.1204 -0.0002 28.7436 -0.0002
# 6 -0.0001 -0.0002 -0.0003 -1.1480 -0.0002 24.1176
#
#
#
# Elastic Compliance Matrix: (Units=1/GPa)
#
#
# Indices 1 2 3 4 5 6 
#
# 1 0.013596 -0.003511 -0.001589 0.000000 -0.000139 0.000000
# 2 -0.003511 0.009196 -0.002477 0.000000 -0.002463 0.000000
# 3 -0.001589 -0.002477 0.009227 0.000000 0.004275 0.000000
# 4 0.000000 0.000000 0.000000 0.048173 0.000000 0.002293
# 5 -0.000139 -0.002463 0.004275 0.000000 0.036974 0.000000
# 6 0.000000 0.000000 0.000000 0.002293 0.000000 0.041573
#
#
# Mechanical properties :
#
#
# Convention : Reuss Voigt Hill
#
# Bulk Modulus (GPa) = 59.29641 63.06186 61.17914
# Shear Modulus (GPa) = 27.85300 31.10648 29.47974
#
# Velocity S-wave (km/s) = 3.75991 3.97344 3.86815
# Velocity P-wave (km/s) = 6.99609 7.28411 7.14155
#
# Compressibility (1/GPa) = 0.01686443
#
# Stress axis : x y z
#
# Youngs Moduli (GPa) = 73.55340 108.74326 108.37586
#
# Poissons Ratio (x) = 0.38178 0.17225
# Poissons Ratio (y) = 0.25824 0.26844
# Poissons Ratio (z) = 0.11690 0.26935
#
# Static dielectric constant tensor:
#      x y z
#    x 3.532180 0.000000 -0.049750 
#    y 0.000000 3.489740 0.000000 
#    z -0.049750 0.000000 3.878830 
# 
# 
# High freq. dielectric constant tensor:
#      x y z
#    x 1.767630 0.000000 -0.001320 
#    y 0.000000 1.737160 0.000000 
#    z -0.001320 0.000000 1.784200 
# 
# From -- ./inp_files/284096.got.cif
#   From: 2010.06.25/outbox.cif.g09.slc.cpg/sg12_143_cif.got.tgz:284096.got - 2010.06.28 00:19:55.
