data_PCOD8096600
_publ_section_title
;
Structure prediction by ZEFSAII (Michael W. Deem and Ramdas Pophale) SiO2 
 PCOD8096600
Probable space group: C 2/M
;
_chemical_formula_sum "Si O2"
_cell_formula_units_Z 64
_cell_length_a 21.230125
_cell_length_b 13.877587
_cell_length_c 32.262996
_cell_angle_alpha 90.000000
_cell_angle_beta 160.754965
_cell_angle_gamma 90.000000
_cell_volume 3133.069626
_symmetry_space_group_name_H-M "C 2/M"
_symmetry_group_IT_number 12
_symmetry_cell_setting 'monoclinic'
loop_
_space_group_symop_operation_xyz
x,y,z
-x,y,-z
-x,-y,-z
x,-y,z
1/2+x,1/2+y,z
1/2-x,1/2+y,-z
1/2-x,1/2-y,-z
1/2+x,1/2-y,z
loop_
_atom_site_type_symbol
_atom_site_label
_atom_site_fract_x
_atom_site_fract_y
_atom_site_fract_z
Si Si1 0.099836 0.608198 0.785353
Si Si2 0.567792 0.767440 0.198900
Si Si3 0.197281 0.388323 0.107354
Si Si4 0.079901 0.612457 0.410904
Si Si5 0.539588 0.743125 0.594249
Si Si6 0.008020 0.113104 0.361791
Si Si7 0.735948 0.723674 0.926653
Si Si8 0.248861 0.607615 0.373736
O O1 0.186635 0.500000 0.844848
O O2 0.230342 0.683569 0.892057
O O3 0.081847 0.632790 0.724911
O O4 0.884213 0.608656 0.668581
O O5 0.763746 0.718763 0.304584
O O6 0.458823 0.709600 0.168019
O O7 0.625896 0.870594 0.255482
O O8 0.421649 0.773342 0.070509
O O9 0.184933 0.500000 0.108903
O O10 0.374541 0.345032 0.242641
O O11 0.237573 0.371206 0.084160
O O12 0.000000 0.338761 0.000000
O O13 0.090143 0.500000 0.428319
O O14 0.280646 0.649866 0.517358
O O15 0.043682 0.667067 0.431684
O O16 0.576936 0.655429 0.648748
O O17 0.401221 0.695189 0.473490
O O18 0.001263 0.000000 0.362736
O O19 0.339799 0.500000 0.425748
#
# Coordination Sequence:
#
# PCOD8096600 Si02
#       8
#     8   8   8   8   8   8   8   8
#     4   9  18  36  62  89 114 147 193 242 297 354
#     4  10  24  38  54  82 113 156 203 234 280 349
#     4  10  21  36  58  87 113 144 190 240 294 355
#     4  10  21  36  56  87 119 150 191 243 301 356
#     4  12  21  34  59  85 117 154 192 239 291 348
#     4  10  20  33  55  88 117 143 182 235 305 365
#     4  10  21  41  59  77 118 157 191 238 292 347
#     4  10  21  37  59  89 121 150 191 247 299 348
#
# _framework density 20.427251999999999
#
# number of rings (size 3 to 8) (size 9 to 14) (size 15 to 20)
#    0.000    1.875    1.250    2.625    3.500    2.000 
#    0.000    3.125    0.000    4.125    0.000    0.000 
#    0.000    0.000    0.000    0.000    0.000    0.000 
#
# Total GULP energy -396497.965483 kJ/mol
# GULP energy per Si atom -12390.561421 kJ/mol
# Density = 2.038076 g / cm^3
# Si number density = 20.427252 Si / 1000 Ang^3
#
#
#
# Elastic Constant Matrix: (Units=GPa)
#
#
# Indices 1 2 3 4 5 6 
#
# 1 95.7481 32.7753 50.2832 -0.0494 0.3451 -0.0144
# 2 32.7753 64.8520 43.3833 0.0005 -3.3568 0.0005
# 3 50.2832 43.3833 117.6861 0.1131 -11.7010 0.0233
# 4 -0.0494 0.0005 0.1131 19.2216 0.0030 -5.7096
# 5 0.3451 -3.3568 -11.7010 0.0030 31.2050 -0.0023
# 6 -0.0144 0.0005 0.0233 -5.7096 -0.0023 18.4894
#
#
#
# Elastic Compliance Matrix: (Units=1/GPa)
#
#
# Indices 1 2 3 4 5 6 
#
# 1 0.014439 -0.004160 -0.004878 0.000079 -0.002436 0.000041
# 2 -0.004160 0.021678 -0.006209 0.000029 0.000050 0.000013
# 3 -0.004878 -0.006209 0.013305 -0.000107 0.004375 -0.000053
# 4 0.000079 0.000029 -0.000107 0.057280 -0.000042 0.017689
# 5 -0.002436 0.000050 0.004375 -0.000042 0.033719 -0.000016
# 6 0.000041 0.000013 -0.000053 0.017689 -0.000016 0.059547
#
#
# Mechanical properties :
#
#
# Convention : Reuss Voigt Hill
#
# Bulk Modulus (GPa) = 52.83099 59.01888 55.92493
# Shear Modulus (GPa) = 21.11736 23.90615 22.51176
#
# Velocity S-wave (km/s) = 3.21874 3.42469 3.32331
# Velocity P-wave (km/s) = 6.30340 6.67779 6.49329
#
# Compressibility (1/GPa) = 0.01892828
#
# Stress axis : x y z
#
# Youngs Moduli (GPa) = 69.25884 46.12896 75.15796
#
# Poissons Ratio (x) = 0.19190 0.36661
# Poissons Ratio (y) = 0.28812 0.46666
# Poissons Ratio (z) = 0.33784 0.28642
#
# Static dielectric constant tensor:
#      x y z
#    x 3.768790 0.000000 -0.026110 
#    y 0.000000 3.533390 -0.000310 
#    z -0.026110 -0.000310 3.956230 
# 
# 
# High freq. dielectric constant tensor:
#      x y z
#    x 1.803760 0.000000 -0.011710 
#    y 0.000000 1.776550 -0.000020 
#    z -0.011710 -0.000020 1.797930 
# 
# From -- ./inp_files/381483.got.cif
#   From: 2010.06.25/outbox.cif.g09.slc.cpg/sg12_191_cif.got.tgz:381483.got - 2010.06.28 00:19:55.
