data_PCOD8096273
_publ_section_title
;
Structure prediction by ZEFSAII (Michael W. Deem and Ramdas Pophale) SiO2 
 PCOD8096273
Probable space group: C 2/M
;
_chemical_formula_sum "Si O2"
_cell_formula_units_Z 56
_cell_length_a 8.602363
_cell_length_b 27.075875
_cell_length_c 14.078927
_cell_angle_alpha 90.000000
_cell_angle_beta 59.252416
_cell_angle_gamma 90.000000
_cell_volume 2818.248641
_symmetry_space_group_name_H-M "C 2/M"
_symmetry_group_IT_number 12
_symmetry_cell_setting 'monoclinic'
loop_
_space_group_symop_operation_xyz
x,y,z
-x,y,-z
-x,-y,-z
x,-y,z
1/2+x,1/2+y,z
1/2-x,1/2+y,-z
1/2-x,1/2-y,-z
1/2+x,1/2-y,z
loop_
_atom_site_type_symbol
_atom_site_label
_atom_site_fract_x
_atom_site_fract_y
_atom_site_fract_z
Si Si1 0.044081 0.797303 0.760968
Si Si2 0.386705 0.903144 0.284727
Si Si3 0.368159 0.054849 0.953565
Si Si4 0.500897 0.371018 0.611542
Si Si5 0.393168 0.808705 0.782985
Si Si6 0.667984 0.348000 0.015594
Si Si7 0.179287 0.443510 0.495584
O O1 0.228627 0.803524 0.761396
O O2 0.056075 0.823235 0.655028
O O3 0.012497 0.740122 0.750578
O O4 0.875438 0.820343 0.872427
O O5 0.519299 0.932488 0.175016
O O6 0.196012 0.890252 0.294263
O O7 0.479042 0.852739 0.293459
O O8 0.348064 0.939366 0.383712
O O9 0.210598 0.094500 0.021247
O O10 0.282862 0.000000 0.969060
O O11 0.500000 0.056687 0.000000
O O12 0.500000 0.357188 0.500000
O O13 0.646139 0.412985 0.591748
O O14 0.332492 0.820696 0.910440
O O15 0.500000 0.345249 0.000000
O O16 0.215884 0.500000 0.455728
O O17 0.000000 0.423152 0.500000
#
# Coordination Sequence:
#
# PCOD8096273 Si02
#       7
#     8   8   8   8   8   8   8
#     4  11  20  37  56  79 112 144 179 225 271 318
#     4  10  20  37  56  79 109 142 180 226 270 318
#     4  10  20  33  52  79 109 142 178 219 269 321
#     4  10  22  37  56  81 109 143 184 223 265 317
#     4  10  21  35  58  84 108 141 180 219 273 328
#     4   9  20  36  55  80 109 141 180 222 266 323
#     4  10  21  38  59  82 108 141 181 224 270 318
#
# _framework density 19.870497
#
# number of rings (size 3 to 8) (size 9 to 14) (size 15 to 20)
#    0.000    2.000    0.000    3.429    0.000    4.571 
#    0.000    8.571    0.000    0.000    0.000    0.000 
#    0.000    0.000    0.000    0.000    0.000    0.000 
#
# Total GULP energy -347249.925703 kJ/mol
# GULP energy per Si atom -12401.783061 kJ/mol
# Density = 1.982527 g / cm^3
# Si number density = 19.870497 Si / 1000 Ang^3
#
#
#
# Elastic Constant Matrix: (Units=GPa)
#
#
# Indices 1 2 3 4 5 6 
#
# 1 83.8586 28.5551 14.6498 0.0000 -3.7665 0.0000
# 2 28.5551 110.8593 22.9295 0.0000 2.1445 0.0000
# 3 14.6498 22.9295 38.5370 0.0000 2.4901 0.0000
# 4 0.0000 0.0000 0.0000 29.5111 0.0000 -1.1770
# 5 -3.7665 2.1445 2.4901 0.0000 29.0164 0.0000
# 6 0.0000 0.0000 0.0000 -1.1770 0.0000 36.1581
#
#
#
# Elastic Compliance Matrix: (Units=1/GPa)
#
#
# Indices 1 2 3 4 5 6 
#
# 1 0.013619 -0.002795 -0.003662 0.000000 0.002289 0.000000
# 2 -0.002795 0.010861 -0.005355 0.000000 -0.000706 0.000000
# 3 -0.003662 -0.005355 0.030703 0.000000 -0.002714 0.000000
# 4 0.000000 0.000000 0.000000 0.033930 0.000000 0.001104
# 5 0.002289 -0.000706 -0.002714 0.000000 0.035045 0.000000
# 6 0.000000 0.000000 0.000000 0.001104 0.000000 0.027692
#
#
# Mechanical properties :
#
#
# Convention : Reuss Voigt Hill
#
# Bulk Modulus (GPa) = 31.68563 40.61374 36.14969
# Shear Modulus (GPa) = 26.88264 30.07850 28.48057
#
# Velocity S-wave (km/s) = 3.68216 3.89488 3.79001
# Velocity P-wave (km/s) = 5.83596 6.38047 6.11428
#
# Compressibility (1/GPa) = 0.03156005
#
# Stress axis : x y z
#
# Youngs Moduli (GPa) = 73.42636 92.06843 32.57051
#
# Poissons Ratio (x) = 0.25731 0.11928
# Poissons Ratio (y) = 0.20521 0.17440
# Poissons Ratio (z) = 0.26891 0.49298
#
# Static dielectric constant tensor:
#      x y z
#    x 3.544490 0.000000 -0.476300 
#    y 0.000000 3.711400 0.000000 
#    z -0.476300 0.000000 2.249780 
# 
# 
# High freq. dielectric constant tensor:
#      x y z
#    x 1.779930 0.000000 0.000970 
#    y 0.000000 1.780050 0.000000 
#    z 0.000970 0.000000 1.769520 
# 
# From -- ./inp_files/198782.got.cif
#   From: 2010.06.25/outbox.cif.g09.slc.cpg/sg12_100_cif.got.tgz:198782.got - 2010.06.28 00:19:55.
