data_PCOD8096032
_publ_section_title
;
Structure prediction by ZEFSAII (Michael W. Deem and Ramdas Pophale) SiO2 
 PCOD8096032
Probable space group: C 2/M
;
_chemical_formula_sum "Si O2"
_cell_formula_units_Z 48
_cell_length_a 28.000966
_cell_length_b 9.615578
_cell_length_c 10.208727
_cell_angle_alpha 90.000000
_cell_angle_beta 90.766556
_cell_angle_gamma 90.000000
_cell_volume 2748.407531
_symmetry_space_group_name_H-M "C 2/M"
_symmetry_group_IT_number 12
_symmetry_cell_setting 'monoclinic'
loop_
_space_group_symop_operation_xyz
x,y,z
-x,y,-z
-x,-y,-z
x,-y,z
1/2+x,1/2+y,z
1/2-x,1/2+y,-z
1/2-x,1/2-y,-z
1/2+x,1/2-y,z
loop_
_atom_site_type_symbol
_atom_site_label
_atom_site_fract_x
_atom_site_fract_y
_atom_site_fract_z
Si Si1 0.197102 0.840257 0.870397
Si Si2 0.600347 0.839118 0.243369
Si Si3 0.055891 0.158006 0.015909
Si Si4 0.555316 0.163191 0.513547
Si Si5 0.303449 0.840673 0.878393
Si Si6 0.601740 0.339550 0.743021
O O1 0.250543 0.803118 0.821779
O O2 0.159015 0.812301 0.753084
O O3 0.193611 0.000000 0.915363
O O4 0.183255 0.751061 0.996233
O O5 0.572670 0.755635 0.132511
O O6 0.583058 0.788337 0.384467
O O7 0.657484 0.813524 0.233558
O O8 0.587077 0.000000 0.223144
O O9 0.070045 0.000000 0.051181
O O10 0.080026 0.203892 0.881545
O O11 0.000000 0.176180 0.000000
O O12 0.500000 0.205256 0.500000
O O13 0.578950 0.243201 0.633606
O O14 0.561172 0.000000 0.539997
O O15 0.305158 0.000000 0.925326
O O16 0.590224 0.500000 0.709306
#
# Coordination Sequence:
#
# PCOD8096032 Si02
#       6
#     8   8   8   8   8   8
#     4   9  17  31  51  76 105 132 163 206 254 305
#     4  10  20  34  52  76 102 132 172 213 255 301
#     4  10  20  33  51  76 103 130 167 215 259 302
#     4  10  22  38  53  71 101 140 176 211 253 302
#     4   9  17  30  51  77 103 132 165 206 256 303
#     4  10  20  34  52  76 103 133 169 209 255 305
#
# _framework density 17.464659999999999
#
# number of rings (size 3 to 8) (size 9 to 14) (size 15 to 20)
#    0.000    2.333    1.667    1.000    0.000    2.667 
#    0.000    0.833    0.000    0.000    0.000    0.000 
#    0.000    0.000    0.000    0.000    0.000    0.000 
#
# Total GULP energy -297576.731170 kJ/mol
# GULP energy per Si atom -12399.030465 kJ/mol
# Density = 1.742491 g / cm^3
# Si number density = 17.464660 Si / 1000 Ang^3
#
#
#
# Elastic Constant Matrix: (Units=GPa)
#
#
# Indices 1 2 3 4 5 6 
#
# 1 116.0539 42.6139 67.6627 0.0000 -3.3598 0.0000
# 2 42.6139 57.6751 54.2238 0.0000 6.6324 0.0000
# 3 67.6627 54.2238 96.7872 0.0000 7.2531 0.0000
# 4 0.0000 0.0000 0.0000 30.9845 0.0000 10.9111
# 5 -3.3598 6.6324 7.2531 0.0000 28.6267 0.0000
# 6 0.0000 0.0000 0.0000 10.9111 0.0000 39.1941
#
#
#
# Elastic Compliance Matrix: (Units=1/GPa)
#
#
# Indices 1 2 3 4 5 6 
#
# 1 0.015358 -0.003109 -0.009362 0.000000 0.004895 0.000000
# 2 -0.003109 0.037582 -0.018554 0.000000 -0.004371 0.000000
# 3 -0.009362 -0.018554 0.027554 0.000000 -0.003782 0.000000
# 4 0.000000 0.000000 0.000000 0.035782 0.000000 -0.009961
# 5 0.004895 -0.004371 -0.003782 0.000000 0.037478 0.000000
# 6 0.000000 0.000000 0.000000 -0.009961 0.000000 0.028287
#
#
# Mechanical properties :
#
#
# Convention : Reuss Voigt Hill
#
# Bulk Modulus (GPa) = 54.21352 66.61300 60.41326
# Shear Modulus (GPa) = 19.98096 26.82877 23.40486
#
# Velocity S-wave (km/s) = 3.38609 3.92366 3.66475
# Velocity P-wave (km/s) = 6.81151 7.66493 7.25079
#
# Compressibility (1/GPa) = 0.01844558
#
# Stress axis : x y z
#
# Youngs Moduli (GPa) = 65.11226 26.60878 36.29174
#
# Poissons Ratio (x) = 0.08272 0.33975
# Poissons Ratio (y) = 0.20242 0.67335
# Poissons Ratio (z) = 0.60957 0.49369
#
# Static dielectric constant tensor:
#      x y z
#    x 3.713580 0.000000 -0.201910 
#    y 0.000000 3.271380 0.000000 
#    z -0.201910 0.000000 3.094670 
# 
# 
# High freq. dielectric constant tensor:
#      x y z
#    x 1.697830 0.000000 -0.005930 
#    y 0.000000 1.675180 0.000000 
#    z -0.005930 0.000000 1.648320 
# 
# From -- ./inp_files/108775.got.cif
#   From: 2010.06.25/outbox.cif.g09.slc.cpg/sg12_55_cif.got.tgz:108775.got - 2010.06.28 00:19:55.
