data_PCOD8096434
_publ_section_title
;
Structure prediction by ZEFSAII (Michael W. Deem and Ramdas Pophale) SiO2 
 PCOD8096434
Probable space group: C 2/M
;
_chemical_formula_sum "Si O2"
_cell_formula_units_Z 56
_cell_length_a 24.549868
_cell_length_b 8.996398
_cell_length_c 13.960433
_cell_angle_alpha 90.000000
_cell_angle_beta 97.359713
_cell_angle_gamma 90.000000
_cell_volume 3057.904697
_symmetry_space_group_name_H-M "C 2/M"
_symmetry_group_IT_number 12
_symmetry_cell_setting 'monoclinic'
loop_
_space_group_symop_operation_xyz
x,y,z
-x,y,-z
-x,-y,-z
x,-y,z
1/2+x,1/2+y,z
1/2-x,1/2+y,-z
1/2-x,1/2-y,-z
1/2+x,1/2-y,z
loop_
_atom_site_type_symbol
_atom_site_label
_atom_site_fract_x
_atom_site_fract_y
_atom_site_fract_z
Si Si1 0.468672 0.324970 0.798679
Si Si2 0.684011 0.823636 0.737972
Si Si3 0.194816 0.324272 0.524768
Si Si4 0.581370 0.174785 0.835957
Si Si5 0.870129 0.831489 0.643883
Si Si6 0.697726 0.329331 0.182652
Si Si7 0.897865 0.325995 0.939795
O O1 0.471753 0.500000 0.816255
O O2 0.527700 0.259167 0.786750
O O3 0.428956 0.285938 0.700888
O O4 0.445419 0.253848 0.890607
O O5 0.681744 0.765778 0.628544
O O6 0.631882 0.762862 0.784549
O O7 0.739740 0.770038 0.803485
O O8 0.684238 0.000000 0.738090
O O9 0.202664 0.500000 0.523861
O O10 0.250000 0.250000 0.500000
O O11 0.143606 0.277326 0.446812
O O12 0.572776 0.000000 0.819092
O O13 0.592823 0.214454 0.948177
O O14 0.823715 0.814052 0.714068
O O15 0.871231 0.000000 0.605779
O O16 0.692839 0.500000 0.147432
O O17 0.662683 0.229049 0.102602
O O18 0.902260 0.500000 0.921035
#
# Coordination Sequence:
#
# PCOD8096434 Si02
#       7
#     8   8   8   8   8   8   8
#     4  10  21  37  57  78 105 140 178 219 264 315
#     4   9  19  36  54  75 108 146 176 209 264 321
#     4  11  20  33  56  82 107 137 174 215 259 313
#     4  10  21  37  55  75 106 144 179 219 262 309
#     4   9  18  34  54  79 106 135 173 219 264 308
#     4   9  17  33  54  76 107 144 176 212 262 318
#     4  10  20  33  53  82 108 134 177 226 264 304
#
# _framework density 18.313192999999998
#
# number of rings (size 3 to 8) (size 9 to 14) (size 15 to 20)
#    0.000    2.286    1.429    2.571    0.000    6.286 
#    0.000    2.857    0.000    4.286    0.000    0.000 
#    0.000    0.000    0.000    0.000    0.000    0.000 
#
# Total GULP energy -347246.887110 kJ/mol
# GULP energy per Si atom -12401.674540 kJ/mol
# Density = 1.827151 g / cm^3
# Si number density = 18.313193 Si / 1000 Ang^3
#
#
#
# Elastic Constant Matrix: (Units=GPa)
#
#
# Indices 1 2 3 4 5 6 
#
# 1 163.5682 37.8587 57.6876 0.0000 2.5888 0.0000
# 2 37.8587 52.6339 30.0514 0.0000 4.8495 0.0000
# 3 57.6876 30.0514 68.4395 0.0000 8.8037 0.0000
# 4 0.0000 0.0000 0.0000 23.5942 0.0000 7.6636
# 5 2.5888 4.8495 8.8037 0.0000 21.6531 0.0000
# 6 0.0000 0.0000 0.0000 7.6636 0.0000 32.5421
#
#
#
# Elastic Compliance Matrix: (Units=1/GPa)
#
#
# Indices 1 2 3 4 5 6 
#
# 1 0.009118 -0.002954 -0.006683 0.000000 0.002289 0.000000
# 2 -0.002954 0.026343 -0.008826 0.000000 -0.001959 0.000000
# 3 -0.006683 -0.008826 0.025074 0.000000 -0.007419 0.000000
# 4 0.000000 0.000000 0.000000 0.045894 0.000000 -0.010808
# 5 0.002289 -0.001959 -0.007419 0.000000 0.049364 0.000000
# 6 0.000000 0.000000 0.000000 -0.010808 0.000000 0.033275
#
#
# Mechanical properties :
#
#
# Convention : Reuss Voigt Hill
#
# Bulk Modulus (GPa) = 42.35348 59.53746 50.94547
# Shear Modulus (GPa) = 21.38005 26.16080 23.77043
#
# Velocity S-wave (km/s) = 3.42053 3.78368 3.60668
# Velocity P-wave (km/s) = 6.22716 7.18816 6.72485
#
# Compressibility (1/GPa) = 0.02361081
#
# Stress axis : x y z
#
# Youngs Moduli (GPa) = 109.67222 37.96064 39.88154
#
# Poissons Ratio (x) = 0.11212 0.26653
# Poissons Ratio (y) = 0.32393 0.35198
# Poissons Ratio (z) = 0.73295 0.33502
#
# Static dielectric constant tensor:
#      x y z
#    x 3.550030 0.000000 0.101630 
#    y 0.000000 3.246380 0.000000 
#    z 0.101630 0.000000 3.388180 
# 
# 
# High freq. dielectric constant tensor:
#      x y z
#    x 1.713730 0.000000 0.015270 
#    y 0.000000 1.698840 0.000000 
#    z 0.015270 0.000000 1.702560 
# 
# From -- ./inp_files/230924.got.cif
#   From: 2010.06.25/outbox.cif.g09.slc.cpg/sg12_116_cif.got.tgz:230924.got - 2010.06.28 00:19:55.
