data_PCOD8096819
_publ_section_title
;
Structure prediction by ZEFSAII (Michael W. Deem and Ramdas Pophale) SiO2 
 PCOD8096819
Probable space group: C 2/M
;
_chemical_formula_sum "Si O2"
_cell_formula_units_Z 56
_cell_length_a 19.102965
_cell_length_b 8.852080
_cell_length_c 18.629470
_cell_angle_alpha 90.000000
_cell_angle_beta 114.106174
_cell_angle_gamma 90.000000
_cell_volume 2875.527763
_symmetry_space_group_name_H-M "C 2/M"
_symmetry_group_IT_number 12
_symmetry_cell_setting 'monoclinic'
loop_
_space_group_symop_operation_xyz
x,y,z
-x,y,-z
-x,-y,-z
x,-y,z
1/2+x,1/2+y,z
1/2-x,1/2+y,-z
1/2-x,1/2-y,-z
1/2+x,1/2-y,z
loop_
_atom_site_type_symbol
_atom_site_label
_atom_site_fract_x
_atom_site_fract_y
_atom_site_fract_z
Si Si1 0.679705 0.330212 0.431899
Si Si2 0.163306 0.328141 0.684861
Si Si3 0.914292 0.829215 0.471536
Si Si4 0.278660 0.321746 0.084826
Si Si5 0.590761 0.679079 0.256706
Si Si6 0.694821 0.825025 0.192040
Si Si7 0.073297 0.674449 0.786874
O O1 0.707199 0.500000 0.429459
O O2 0.750000 0.250000 0.500000
O O3 0.607127 0.322731 0.454154
O O4 0.649836 0.261184 0.343598
O O5 0.194413 0.500000 0.699336
O O6 0.137803 0.286476 0.594418
O O7 0.230595 0.213211 0.730735
O O8 0.093276 0.307560 0.711106
O O9 0.000000 0.770367 0.500000
O O10 0.905638 0.000000 0.437468
O O11 0.289197 0.500000 0.081254
O O12 0.213947 0.282888 0.117570
O O13 0.360732 0.251750 0.138330
O O14 0.250000 0.250000 0.000000
O O15 0.583063 0.500000 0.257383
O O16 0.622970 0.729878 0.192470
O O17 0.507305 0.747922 0.232293
O O18 0.674693 0.000000 0.192250
O O19 0.068457 0.500000 0.807509
#
# Coordination Sequence:
#
# PCOD8096819 Si02
#       7
#     8   8   8   8   8   8   8
#     4  10  22  36  51  74 105 144 187 233 284 332
#     4  10  20  34  53  78 106 140 186 234 277 327
#     4  10  20  34  51  71  99 138 184 233 283 331
#     4  10  21  39  64  91 118 147 180 221 269 327
#     4  11  22  37  57  82 113 148 190 237 281 330
#     4  10  21  37  58  83 111 145 181 219 270 329
#     4  10  21  37  58  84 115 150 186 228 279 333
#
# _framework density 19.474686999999999
#
# number of rings (size 3 to 8) (size 9 to 14) (size 15 to 20)
#    0.000    1.857    0.000    3.857    0.000    8.857 
#    0.000    0.714    0.000    4.286    0.000    0.000 
#    0.000    0.000    0.000    0.000    0.000    0.000 
#
# Total GULP energy -347201.310195 kJ/mol
# GULP energy per Si atom -12400.046793 kJ/mol
# Density = 1.943036 g / cm^3
# Si number density = 19.474687 Si / 1000 Ang^3
#
#
#
# Elastic Constant Matrix: (Units=GPa)
#
#
# Indices 1 2 3 4 5 6 
#
# 1 106.7194 44.7789 32.5041 0.0000 -7.9860 0.0000
# 2 44.7789 87.0987 46.6150 0.0000 -1.4970 0.0000
# 3 32.5041 46.6150 107.5744 0.0000 -6.6374 0.0000
# 4 0.0000 0.0000 0.0000 32.2491 0.0000 1.6091
# 5 -7.9860 -1.4970 -6.6374 0.0000 22.9383 0.0000
# 6 0.0000 0.0000 0.0000 1.6091 0.0000 34.7640
#
#
#
# Elastic Compliance Matrix: (Units=1/GPa)
#
#
# Indices 1 2 3 4 5 6 
#
# 1 0.012365 -0.005748 -0.001021 0.000000 0.003634 0.000000
# 2 -0.005748 0.017639 -0.006067 0.000000 -0.002606 0.000000
# 3 -0.001021 -0.006067 0.012409 0.000000 0.002839 0.000000
# 4 0.000000 0.000000 0.000000 0.031080 0.000000 -0.001439
# 5 0.003634 -0.002606 0.002839 0.000000 0.045512 0.000000
# 6 0.000000 0.000000 0.000000 -0.001439 0.000000 0.028832
#
#
# Mechanical properties :
#
#
# Convention : Reuss Voigt Hill
#
# Bulk Modulus (GPa) = 59.73874 61.02093 60.37984
# Shear Modulus (GPa) = 27.91883 29.82325 28.87104
#
# Velocity S-wave (km/s) = 3.79039 3.91754 3.85449
# Velocity P-wave (km/s) = 7.06384 7.20169 7.13309
#
# Compressibility (1/GPa) = 0.01673956
#
# Stress axis : x y z
#
# Youngs Moduli (GPa) = 80.87175 56.69274 80.58825
#
# Poissons Ratio (x) = 0.32588 0.08229
# Poissons Ratio (y) = 0.46487 0.48896
# Poissons Ratio (z) = 0.08258 0.34398
#
# Static dielectric constant tensor:
#      x y z
#    x 3.649270 0.000000 -0.211840 
#    y 0.000000 3.615780 0.000000 
#    z -0.211840 0.000000 3.487220 
# 
# 
# High freq. dielectric constant tensor:
#      x y z
#    x 1.767510 0.000000 -0.012150 
#    y 0.000000 1.764350 0.000000 
#    z -0.012150 0.000000 1.742820 
# 
# From -- ./inp_files/275530.got.cif
#   From: 2010.06.25/outbox.cif.g09.slc.cpg/sg12_138_cif.got.tgz:275530.got - 2010.06.28 00:19:55.
