data_PCOD8096394
_publ_section_title
;
Structure prediction by ZEFSAII (Michael W. Deem and Ramdas Pophale) SiO2 
 PCOD8096394
Probable space group: C 2/M
;
_chemical_formula_sum "Si O2"
_cell_formula_units_Z 64
_cell_length_a 18.571131
_cell_length_b 9.010673
_cell_length_c 34.173192
_cell_angle_alpha 90.000000
_cell_angle_beta 143.762834
_cell_angle_gamma 90.000000
_cell_volume 3380.363397
_symmetry_space_group_name_H-M "C 2/M"
_symmetry_group_IT_number 12
_symmetry_cell_setting 'monoclinic'
loop_
_space_group_symop_operation_xyz
x,y,z
-x,y,-z
-x,-y,-z
x,-y,z
1/2+x,1/2+y,z
1/2-x,1/2+y,-z
1/2-x,1/2-y,-z
1/2+x,1/2-y,z
loop_
_atom_site_type_symbol
_atom_site_label
_atom_site_fract_x
_atom_site_fract_y
_atom_site_fract_z
Si Si1 0.893104 0.824480 0.373231
Si Si2 0.165151 0.671608 0.993653
Si Si3 0.411887 0.328123 0.890959
Si Si4 0.687911 0.168573 0.738122
Si Si5 0.249813 0.328562 0.118097
Si Si6 0.237190 0.676186 0.377185
Si Si7 0.829536 0.823437 0.501338
Si Si8 0.461244 0.825543 0.251946
O O1 0.823036 0.773200 0.303948
O O2 0.824415 0.759841 0.381384
O O3 0.031781 0.767995 0.433444
O O4 0.889150 0.000000 0.373076
O O5 0.151228 0.500000 0.976796
O O6 0.033927 0.745027 0.933497
O O7 0.250000 0.750000 0.000000
O O8 0.226361 0.693784 0.062368
O O9 0.438342 0.500000 0.910958
O O10 0.320789 0.307907 0.814696
O O11 0.355188 0.258647 0.905118
O O12 0.585662 0.212321 0.725085
O O13 0.668685 0.000000 0.715960
O O14 0.244643 0.500000 0.128368
O O15 0.382897 0.263140 0.185718
O O16 0.242140 0.500000 0.379870
O O17 0.282150 0.735701 0.438766
O O18 0.099616 0.729791 0.308943
O O19 0.750000 0.750000 0.500000
O O20 0.818617 0.000000 0.499981
O O21 0.445479 0.000000 0.236627
#
# Coordination Sequence:
#
# PCOD8096394 Si02
#       8
#     8   8   8   8   8   8   8   8
#     4  10  20  33  53  80 105 136 178 218 261 316
#     4  11  24  39  56  81 113 147 182 224 275 326
#     4  10  21  38  60  83 108 143 185 224 269 326
#     4   9  19  35  54  78 108 139 171 213 265 315
#     4  10  21  37  57  82 111 141 178 226 274 318
#     4   9  18  34  54  76 105 139 175 217 264 314
#     4  10  20  35  55  77 104 137 175 220 265 311
#     4   9  18  34  56  78 101 138 183 218 259 319
#
# _framework density 18.932874999999999
#
# number of rings (size 3 to 8) (size 9 to 14) (size 15 to 20)
#    0.000    2.250    0.000    3.375    0.000   10.000 
#    0.000    4.375    0.000    1.500    0.000    0.000 
#    0.000    0.000    0.000    0.000    0.000    0.000 
#
# Total GULP energy -396895.049713 kJ/mol
# GULP energy per Si atom -12402.970304 kJ/mol
# Density = 1.888978 g / cm^3
# Si number density = 18.932875 Si / 1000 Ang^3
#
#
#
# Elastic Constant Matrix: (Units=GPa)
#
#
# Indices 1 2 3 4 5 6 
#
# 1 154.9634 60.9224 85.5144 0.0000 3.9918 0.0001
# 2 60.9224 76.6926 56.6458 -0.0001 3.8240 0.0003
# 3 85.5144 56.6458 113.9545 0.0000 6.5429 0.0000
# 4 0.0000 -0.0001 0.0000 31.6581 0.0000 -1.2935
# 5 3.9918 3.8240 6.5429 0.0000 21.3944 0.0000
# 6 0.0001 0.0003 0.0000 -1.2935 0.0000 28.7033
#
#
#
# Elastic Compliance Matrix: (Units=1/GPa)
#
#
# Indices 1 2 3 4 5 6 
#
# 1 0.011941 -0.004538 -0.006742 0.000000 0.000645 0.000000
# 2 -0.004538 0.022335 -0.007651 0.000000 -0.000806 0.000000
# 3 -0.006742 -0.007651 0.017800 0.000000 -0.002818 0.000000
# 4 0.000000 0.000000 0.000000 0.031646 0.000000 0.001426
# 5 0.000645 -0.000806 -0.002818 0.000000 0.047627 0.000000
# 6 0.000000 0.000000 0.000000 0.001426 0.000000 0.034903
#
#
# Mechanical properties :
#
#
# Convention : Reuss Voigt Hill
#
# Bulk Modulus (GPa) = 70.35305 83.53065 76.94185
# Shear Modulus (GPa) = 23.94036 25.85304 24.89670
#
# Velocity S-wave (km/s) = 3.55982 3.69929 3.63022
# Velocity P-wave (km/s) = 7.35774 7.90326 7.63537
#
# Compressibility (1/GPa) = 0.01421402
#
# Stress axis : x y z
#
# Youngs Moduli (GPa) = 83.74369 44.77251 56.17996
#
# Poissons Ratio (x) = 0.20318 0.37878
# Poissons Ratio (y) = 0.38003 0.42983
# Poissons Ratio (z) = 0.56462 0.34255
#
# Static dielectric constant tensor:
#      x y z
#    x 3.505620 0.000000 0.080180 
#    y 0.000000 3.359910 0.000000 
#    z 0.080180 0.000000 3.564880 
# 
# 
# High freq. dielectric constant tensor:
#      x y z
#    x 1.740660 0.000000 0.004600 
#    y 0.000000 1.722450 0.000000 
#    z 0.004600 0.000000 1.747630 
# 
# From -- ./inp_files/378443.got.cif
#   From: 2010.06.25/outbox.cif.g09.slc.cpg/sg12_190_cif.got.tgz:378443.got - 2010.06.28 00:19:55.
