data_PCOD8096764
_publ_section_title
;
Structure prediction by ZEFSAII (Michael W. Deem and Ramdas Pophale) SiO2 
 PCOD8096764
Probable space group: C 2/M
;
_chemical_formula_sum "Si O2"
_cell_formula_units_Z 32
_cell_length_a 8.831226
_cell_length_b 27.136296
_cell_length_c 7.782029
_cell_angle_alpha 90.000000
_cell_angle_beta 129.632677
_cell_angle_gamma 90.000000
_cell_volume 1436.281264
_symmetry_space_group_name_H-M "C 2/M"
_symmetry_group_IT_number 12
_symmetry_cell_setting 'monoclinic'
loop_
_space_group_symop_operation_xyz
x,y,z
-x,y,-z
-x,-y,-z
x,-y,z
1/2+x,1/2+y,z
1/2-x,1/2+y,-z
1/2-x,1/2-y,-z
1/2+x,1/2-y,z
loop_
_atom_site_type_symbol
_atom_site_label
_atom_site_fract_x
_atom_site_fract_y
_atom_site_fract_z
Si Si1 0.356849 0.000000 0.141024
Si Si2 0.407064 0.311023 0.184514
Si Si3 0.062918 0.079817 0.848823
Si Si4 0.270168 0.500000 0.558610
Si Si5 0.212843 0.276876 0.703870
O O1 0.593182 0.000000 0.291543
O O2 0.305397 0.000000 0.302897
O O3 0.266406 0.950821 0.990147
O O4 0.417660 0.368606 0.237509
O O5 0.624120 0.285550 0.325579
O O6 0.300728 0.281678 0.261877
O O7 0.282147 0.306677 0.920835
O O8 0.899432 0.048981 0.626199
O O9 0.000000 0.089634 0.000000
O O10 0.000000 0.298805 0.500000
#
# Coordination Sequence:
#
# PCOD8096764 Si02
#       5
#     4   8   8   4   8
#     4   8  15  25  42  65  93 123 155 197 246 297
#     4  10  20  34  50  74 103 134 167 205 245 293
#     4   9  15  28  42  65 100 126 153 199 248 289
#     4   8  15  25  42  65  95 122 155 197 247 296
#     4  10  20  34  51  70 101 135 171 207 244 288
#
# _framework density 22.279761000000001
#
# number of rings (size 3 to 8) (size 9 to 14) (size 15 to 20)
#    0.000    2.750    2.500    2.250    0.000    2.000 
#    0.000    0.000    0.000    0.000    0.000    3.500 
#    0.000   74.000    0.000    0.000    0.000    0.000 
#
# Total GULP energy -198362.750694 kJ/mol
# GULP energy per Si atom -12397.671918 kJ/mol
# Density = 2.222905 g / cm^3
# Si number density = 22.279761 Si / 1000 Ang^3
#
#
#
# Elastic Constant Matrix: (Units=GPa)
#
#
# Indices 1 2 3 4 5 6 
#
# 1 51.0184 50.5471 44.9038 0.0000 18.9437 0.0000
# 2 50.5471 216.3814 51.8723 0.0000 30.4179 0.0000
# 3 44.9038 51.8723 114.4273 0.0000 58.9814 0.0000
# 4 0.0000 0.0000 0.0000 7.1496 0.0000 7.0763
# 5 18.9437 30.4179 58.9814 0.0000 38.8928 0.0000
# 6 0.0000 0.0000 0.0000 7.0763 0.0000 19.4909
#
#
#
# Elastic Compliance Matrix: (Units=1/GPa)
#
#
# Indices 1 2 3 4 5 6 
#
# 1 0.038521 -0.006447 -0.023460 0.000000 0.021858 0.000000
# 2 -0.006447 0.006307 0.002725 0.000000 -0.005924 0.000000
# 3 -0.023460 0.002725 0.054594 0.000000 -0.073497 0.000000
# 4 0.000000 0.000000 0.000000 0.218315 0.000000 -0.079261
# 5 0.021858 -0.005924 -0.073497 0.000000 0.131158 0.000000
# 6 0.000000 0.000000 0.000000 -0.079261 0.000000 0.080082
#
#
# Mechanical properties :
#
#
# Convention : Reuss Voigt Hill
#
# Bulk Modulus (GPa) = 22.19427 75.16370 48.67899
# Shear Modulus (GPa) = 8.35613 28.74026 18.54820
#
# Velocity S-wave (km/s) = 1.93873 3.59551 2.88846
# Velocity P-wave (km/s) = 3.87232 7.14468 5.74636
#
# Compressibility (1/GPa) = 0.04505668
#
# Stress axis : x y z
#
# Youngs Moduli (GPa) = 25.95983 158.54861 18.31690
#
# Poissons Ratio (x) = 1.02219 0.42972
# Poissons Ratio (y) = 0.16737 -0.04990
# Poissons Ratio (z) = 0.60903 -0.43197
#
# Static dielectric constant tensor:
#      x y z
#    x 3.835350 0.000000 0.479970 
#    y 0.000000 3.888450 0.000000 
#    z 0.479970 0.000000 4.323220 
# 
# 
# High freq. dielectric constant tensor:
#      x y z
#    x 1.845820 0.000000 0.013740 
#    y 0.000000 1.867230 0.000000 
#    z 0.013740 0.000000 1.886800 
# 
# From -- ./inp_files/40725.got.cif
#   From: 2010.06.25/outbox.cif.g09.slc.cpg/sg12_21_cif.got.tgz:40725.got - 2010.06.28 00:19:55.
