data_PCOD8096015
_publ_section_title
;
Structure prediction by ZEFSAII (Michael W. Deem and Ramdas Pophale) SiO2 
 PCOD8096015
Probable space group: C 2/M
;
_chemical_formula_sum "Si O2"
_cell_formula_units_Z 48
_cell_length_a 15.180257
_cell_length_b 8.884795
_cell_length_c 19.454029
_cell_angle_alpha 90.000000
_cell_angle_beta 78.119905
_cell_angle_gamma 90.000000
_cell_volume 2567.631412
_symmetry_space_group_name_H-M "C 2/M"
_symmetry_group_IT_number 12
_symmetry_cell_setting 'monoclinic'
loop_
_space_group_symop_operation_xyz
x,y,z
-x,y,-z
-x,-y,-z
x,-y,z
1/2+x,1/2+y,z
1/2-x,1/2+y,-z
1/2-x,1/2-y,-z
1/2+x,1/2-y,z
loop_
_atom_site_type_symbol
_atom_site_label
_atom_site_fract_x
_atom_site_fract_y
_atom_site_fract_z
Si Si1 0.706428 0.321631 0.074092
Si Si2 0.933170 0.321907 0.413058
Si Si3 0.992064 0.822145 0.924843
Si Si4 0.625253 0.178447 0.429839
Si Si5 0.324590 0.678226 0.170424
Si Si6 0.804317 0.821896 0.330139
O O1 0.717651 0.500000 0.067530
O O2 0.601723 0.272670 0.094494
O O3 0.751498 0.259886 0.135405
O O4 0.750000 0.250000 0.000000
O O5 0.926731 0.500000 0.405426
O O6 0.879874 0.268059 0.490112
O O7 0.891706 0.243548 0.353319
O O8 0.036765 0.267961 0.402604
O O9 0.075488 0.764756 0.865673
O O10 0.996581 0.000000 0.930088
O O11 0.000000 0.751749 0.000000
O O12 0.714107 0.245841 0.379654
O O13 0.627475 0.000000 0.427809
O O14 0.314606 0.500000 0.161921
O O15 0.305945 0.729115 0.251038
O O16 0.807400 0.000000 0.336129
#
# Coordination Sequence:
#
# PCOD8096015 Si02
#       6
#     8   8   8   8   8   8
#     4  11  21  35  57  79 100 129 168 211 251 302
#     4   9  17  32  54  74 100 138 177 207 247 308
#     4   9  17  33  55  73  97 132 163 196 250 310
#     4   8  16  32  52  75 102 138 173 207 255 304
#     4  10  21  37  53  74 104 139 170 204 256 308
#     4  10  20  33  51  75 106 135 168 213 258 297
#
# _framework density 18.694272000000002
#
# number of rings (size 3 to 8) (size 9 to 14) (size 15 to 20)
#    0.000    2.500    1.667    2.000    0.000    2.000 
#    0.000    5.000    0.000    0.000    0.000    0.000 
#    0.000    0.000    0.000    0.000    0.000    0.000 
#
# Total GULP energy -297570.497456 kJ/mol
# GULP energy per Si atom -12398.770727 kJ/mol
# Density = 1.865172 g / cm^3
# Si number density = 18.694272 Si / 1000 Ang^3
#
#
#
# Elastic Constant Matrix: (Units=GPa)
#
#
# Indices 1 2 3 4 5 6 
#
# 1 149.5563 31.9523 68.0820 0.0000 16.4511 0.0000
# 2 31.9523 29.4002 30.8234 0.0000 8.9538 0.0000
# 3 68.0820 30.8234 112.7041 0.0000 17.6652 0.0000
# 4 0.0000 0.0000 0.0000 17.4278 0.0000 7.6217
# 5 16.4511 8.9538 17.6652 0.0000 35.7424 0.0000
# 6 0.0000 0.0000 0.0000 7.6217 0.0000 29.5343
#
#
#
# Elastic Compliance Matrix: (Units=1/GPa)
#
#
# Indices 1 2 3 4 5 6 
#
# 1 0.010036 -0.006187 -0.004216 0.000000 -0.000986 0.000000
# 2 -0.006187 0.052702 -0.009813 0.000000 -0.005505 0.000000
# 3 -0.004216 -0.009813 0.014540 0.000000 -0.002788 0.000000
# 4 0.000000 0.000000 0.000000 0.064679 0.000000 -0.016691
# 5 -0.000986 -0.005505 -0.002788 0.000000 0.031188 0.000000
# 6 0.000000 0.000000 0.000000 -0.016691 0.000000 0.038166
#
#
# Mechanical properties :
#
#
# Convention : Reuss Voigt Hill
#
# Bulk Modulus (GPa) = 27.13998 61.48623 44.31310
# Shear Modulus (GPa) = 18.93752 27.26109 23.09931
#
# Velocity S-wave (km/s) = 3.18624 3.82286 3.51897
# Velocity P-wave (km/s) = 5.29957 7.24206 6.34559
#
# Compressibility (1/GPa) = 0.03684601
#
# Stress axis : x y z
#
# Youngs Moduli (GPa) = 99.64260 18.97460 68.77451
#
# Poissons Ratio (x) = 0.11739 0.28995
# Poissons Ratio (y) = 0.61648 0.67490
# Poissons Ratio (z) = 0.42008 0.18620
#
# Static dielectric constant tensor:
#      x y z
#    x 3.762470 0.000000 -0.153640 
#    y 0.000000 3.037860 0.000000 
#    z -0.153640 0.000000 3.621200 
# 
# 
# High freq. dielectric constant tensor:
#      x y z
#    x 1.741950 0.000000 -0.001000 
#    y 0.000000 1.687890 0.000000 
#    z -0.001000 0.000000 1.725880 
# 
# From -- ./inp_files/307998.got.cif
#   From: 2010.06.25/outbox.cif.g09.slc.cpg/sg12_154_cif.got.tgz:307998.got - 2010.06.28 00:19:55.
