data_PCOD8096119
_publ_section_title
;
Structure prediction by ZEFSAII (Michael W. Deem and Ramdas Pophale) SiO2 
 PCOD8096119
Probable space group: C 2/M
;
_chemical_formula_sum "Si O2"
_cell_formula_units_Z 56
_cell_length_a 18.543382
_cell_length_b 8.715345
_cell_length_c 29.157563
_cell_angle_alpha 90.000000
_cell_angle_beta 142.429330
_cell_angle_gamma 90.000000
_cell_volume 2873.221360
_symmetry_space_group_name_H-M "C 2/M"
_symmetry_group_IT_number 12
_symmetry_cell_setting 'monoclinic'
loop_
_space_group_symop_operation_xyz
x,y,z
-x,y,-z
-x,-y,-z
x,-y,z
1/2+x,1/2+y,z
1/2-x,1/2+y,-z
1/2-x,1/2-y,-z
1/2+x,1/2-y,z
loop_
_atom_site_type_symbol
_atom_site_label
_atom_site_fract_x
_atom_site_fract_y
_atom_site_fract_z
Si Si1 0.696168 0.818686 0.297903
Si Si2 0.966449 0.822009 0.431064
Si Si3 0.842129 0.322372 0.142519
Si Si4 0.879096 0.680203 0.568395
Si Si5 0.008891 0.677666 0.868884
Si Si6 0.594356 0.177596 0.008053
Si Si7 0.451619 0.319549 0.698378
O O1 0.830224 0.775416 0.353963
O O2 0.612160 0.755228 0.214409
O O3 0.656916 0.742475 0.325832
O O4 0.678802 0.000000 0.295740
O O5 0.000000 0.786267 0.500000
O O6 0.047628 0.718198 0.440190
O O7 0.987904 0.000000 0.430017
O O8 0.857888 0.500000 0.163391
O O9 0.707778 0.272754 0.080515
O O10 0.882192 0.291565 0.110450
O O11 0.921882 0.223222 0.216780
O O12 0.866992 0.500000 0.567719
O O13 0.750000 0.750000 0.500000
O O14 0.947854 0.747826 0.646272
O O15 0.986440 0.500000 0.866316
O O16 0.040584 0.751032 0.934099
O O17 0.630124 0.000000 0.019049
O O18 0.500000 0.198491 0.000000
O O19 0.439543 0.500000 0.688044
#
# Coordination Sequence:
#
# PCOD8096119 Si02
#       7
#     8   8   8   8   8   8   8
#     4   9  18  35  58  83 115 152 190 235 287 342
#     4  10  21  37  59  87 119 155 192 232 281 335
#     4  10  20  36  57  79 107 145 188 233 283 339
#     4  12  25  41  61  86 118 153 192 235 281 336
#     4   8  16  32  53  77 106 144 186 227 275 331
#     4  10  20  33  51  78 111 146 186 233 284 340
#     4  11  22  38  61  87 115 147 188 236 287 342
#
# _framework density 19.490317999999998
#
# number of rings (size 3 to 8) (size 9 to 14) (size 15 to 20)
#    0.000    2.000    0.000    5.143    0.000    3.429 
#    0.000    5.714    0.000    0.000    0.000    0.000 
#    0.000    0.000    0.000    0.000    0.000    0.000 
#
# Total GULP energy -347266.166726 kJ/mol
# GULP energy per Si atom -12402.363097 kJ/mol
# Density = 1.944596 g / cm^3
# Si number density = 19.490318 Si / 1000 Ang^3
#
#
#
# Elastic Constant Matrix: (Units=GPa)
#
#
# Indices 1 2 3 4 5 6 
#
# 1 100.8943 45.0872 57.9378 0.0001 4.7017 -0.0001
# 2 45.0872 92.0418 40.0274 0.0001 2.2502 -0.0003
# 3 57.9378 40.0274 104.0290 0.0000 2.3523 -0.0001
# 4 0.0001 0.0001 0.0000 25.5027 0.0000 0.1782
# 5 4.7017 2.2502 2.3523 0.0000 36.9101 0.0001
# 6 -0.0001 -0.0003 -0.0001 0.1782 0.0001 25.7102
#
#
#
# Elastic Compliance Matrix: (Units=1/GPa)
#
#
# Indices 1 2 3 4 5 6 
#
# 1 0.016233 -0.004805 -0.007162 0.000000 -0.001318 0.000000
# 2 -0.004805 0.014479 -0.002893 0.000000 -0.000086 0.000000
# 3 -0.007162 -0.002893 0.014711 0.000000 0.000151 0.000000
# 4 0.000000 0.000000 0.000000 0.039214 0.000000 -0.000272
# 5 -0.001318 -0.000086 0.000151 0.000000 0.027256 0.000000
# 6 0.000000 0.000000 0.000000 -0.000272 0.000000 0.038897
#
#
# Mechanical properties :
#
#
# Convention : Reuss Voigt Hill
#
# Bulk Modulus (GPa) = 63.68300 64.78553 64.23426
# Shear Modulus (GPa) = 26.91887 27.88544 27.40216
#
# Velocity S-wave (km/s) = 3.72040 3.78661 3.75365
# Velocity P-wave (km/s) = 7.15544 7.24085 7.19827
#
# Compressibility (1/GPa) = 0.01570278
#
# Stress axis : x y z
#
# Youngs Moduli (GPa) = 61.60399 69.06786 67.97511
#
# Poissons Ratio (x) = 0.33186 0.48684
# Poissons Ratio (y) = 0.29599 0.19665
# Poissons Ratio (z) = 0.44121 0.19981
#
# Static dielectric constant tensor:
#      x y z
#    x 3.499080 0.000000 -0.056340 
#    y 0.000000 3.410010 0.000000 
#    z -0.056340 0.000000 3.838550 
# 
# 
# High freq. dielectric constant tensor:
#      x y z
#    x 1.756810 0.000000 -0.000390 
#    y 0.000000 1.743500 0.000000 
#    z -0.000390 0.000000 1.775580 
# 
# From -- ./inp_files/363117.got.cif
#   From: 2010.06.25/outbox.cif.g09.slc.cpg/sg12_182_cif.got.tgz:363117.got - 2010.06.28 00:19:55.
