data_PCOD8096263
_publ_section_title
;
Structure prediction by ZEFSAII (Michael W. Deem and Ramdas Pophale) SiO2 
 PCOD8096263
Probable space group: C 2/M
;
_chemical_formula_sum "Si O2"
_cell_formula_units_Z 64
_cell_length_a 18.542181
_cell_length_b 8.884405
_cell_length_c 34.565164
_cell_angle_alpha 90.000000
_cell_angle_beta 143.977268
_cell_angle_gamma 90.000000
_cell_volume 3348.756198
_symmetry_space_group_name_H-M "C 2/M"
_symmetry_group_IT_number 12
_symmetry_cell_setting 'monoclinic'
loop_
_space_group_symop_operation_xyz
x,y,z
-x,y,-z
-x,-y,-z
x,-y,z
1/2+x,1/2+y,z
1/2-x,1/2+y,-z
1/2-x,1/2-y,-z
1/2+x,1/2-y,z
loop_
_atom_site_type_symbol
_atom_site_label
_atom_site_fract_x
_atom_site_fract_y
_atom_site_fract_z
Si Si1 0.595255 0.174698 0.109198
Si Si2 0.836547 0.679038 0.505536
Si Si3 0.963362 0.176017 0.257559
Si Si4 0.797704 0.172046 0.257287
Si Si5 0.187493 0.322759 0.009394
Si Si6 0.258589 0.678812 0.618166
Si Si7 0.238485 0.322458 0.879883
Si Si8 0.114161 0.677804 0.629536
O O1 0.669065 0.210174 0.180598
O O2 0.455420 0.219510 0.054445
O O3 0.647003 0.272948 0.096597
O O4 0.612776 0.000000 0.105395
O O5 0.826835 0.500000 0.504086
O O6 0.750000 0.750000 0.500000
O O7 0.795576 0.738751 0.445687
O O8 0.975041 0.737065 0.572385
O O9 0.909484 0.207325 0.276765
O O10 0.889677 0.270692 0.194019
O O11 0.102118 0.234996 0.316856
O O12 0.951202 0.000000 0.242011
O O13 0.808226 0.274415 0.299530
O O14 0.801785 0.000000 0.272676
O O15 0.207784 0.500000 0.017976
O O16 0.250000 0.250000 0.000000
O O17 0.251286 0.254087 0.074343
O O18 0.255250 0.500000 0.616707
O O19 0.177807 0.744062 0.618468
O O20 0.239282 0.500000 0.885201
O O21 0.114708 0.500000 0.627076
#
# Coordination Sequence:
#
# PCOD8096263 Si02
#       8
#     8   8   8   8   8   8   8   8
#     4   9  20  39  60  80 106 144 184 222 269 323
#     4  10  20  35  55  77 104 137 175 219 264 313
#     4   9  18  35  57  77 101 139 183 220 261 317
#     4   9  18  34  55  78 105 137 173 213 261 315
#     4  11  23  39  58  81 112 146 182 225 274 327
#     4   9  18  34  55  77 103 139 179 217 262 317
#     4  11  22  36  57  84 112 142 181 227 272 320
#     4  10  20  33  52  79 107 136 173 217 264 313
#
# _framework density 19.111571999999999
#
# number of rings (size 3 to 8) (size 9 to 14) (size 15 to 20)
#    0.000    2.250    0.000    3.750    0.000    8.500 
#    0.000    4.375    0.000    1.500    0.000    0.000 
#    0.000    0.000    0.000    0.000    0.000    0.000 
#
# Total GULP energy -396884.445715 kJ/mol
# GULP energy per Si atom -12402.638929 kJ/mol
# Density = 1.906807 g / cm^3
# Si number density = 19.111572 Si / 1000 Ang^3
#
#
#
# Elastic Constant Matrix: (Units=GPa)
#
#
# Indices 1 2 3 4 5 6 
#
# 1 113.1099 30.9281 66.1255 0.0000 -20.2247 0.0001
# 2 30.9281 50.5062 35.6815 -0.0001 -6.0337 0.0002
# 3 66.1255 35.6815 114.1656 0.0000 -20.1303 0.0000
# 4 0.0000 -0.0001 0.0000 27.5461 0.0000 -5.7089
# 5 -20.2247 -6.0337 -20.1303 0.0000 28.5028 -0.0001
# 6 0.0001 0.0002 0.0000 -5.7089 -0.0001 27.9522
#
#
#
# Elastic Compliance Matrix: (Units=1/GPa)
#
#
# Indices 1 2 3 4 5 6 
#
# 1 0.014462 -0.003804 -0.006305 0.000000 0.005003 0.000000
# 2 -0.003804 0.026412 -0.006330 0.000000 -0.001578 0.000000
# 3 -0.006305 -0.006330 0.015266 0.000000 0.004967 0.000000
# 4 0.000000 0.000000 0.000000 0.037907 0.000000 0.007742
# 5 0.005003 -0.001578 0.004967 0.000000 0.041808 0.000000
# 6 0.000000 0.000000 0.000000 0.007742 0.000000 0.037357
#
#
# Mechanical properties :
#
#
# Convention : Reuss Voigt Hill
#
# Bulk Modulus (GPa) = 42.98963 60.36132 51.67547
# Shear Modulus (GPa) = 23.38150 26.47000 24.92575
#
# Velocity S-wave (km/s) = 3.50154 3.72563 3.61532
# Velocity P-wave (km/s) = 6.23623 7.08232 6.67270
#
# Compressibility (1/GPa) = 0.02326142
#
# Stress axis : x y z
#
# Youngs Moduli (GPa) = 69.14766 37.86116 65.50650
#
# Poissons Ratio (x) = 0.14401 0.41305
# Poissons Ratio (y) = 0.26300 0.41467
# Poissons Ratio (z) = 0.43600 0.23967
#
# Static dielectric constant tensor:
#      x y z
#    x 3.557680 0.000000 0.103370 
#    y 0.000000 3.254460 0.000000 
#    z 0.103370 0.000000 3.671480 
# 
# 
# High freq. dielectric constant tensor:
#      x y z
#    x 1.746690 0.000000 0.001060 
#    y 0.000000 1.721390 0.000000 
#    z 0.001060 0.000000 1.758510 
# 
# From -- ./inp_files/378335.got.cif
#   From: 2010.06.25/outbox.cif.g09.slc.cpg/sg12_190_cif.got.tgz:378335.got - 2010.06.28 00:19:55.
