data_PCOD8096695
_publ_section_title
;
Structure prediction by ZEFSAII (Michael W. Deem and Ramdas Pophale) SiO2 
 PCOD8096695
Probable space group: C 2/M
;
_chemical_formula_sum "Si O2"
_cell_formula_units_Z 56
_cell_length_a 11.054615
_cell_length_b 26.540534
_cell_length_c 14.385785
_cell_angle_alpha 90.000000
_cell_angle_beta 135.927207
_cell_angle_gamma 90.000000
_cell_volume 2935.815487
_symmetry_space_group_name_H-M "C 2/M"
_symmetry_group_IT_number 12
_symmetry_cell_setting 'monoclinic'
loop_
_space_group_symop_operation_xyz
x,y,z
-x,y,-z
-x,-y,-z
x,-y,z
1/2+x,1/2+y,z
1/2-x,1/2+y,-z
1/2-x,1/2-y,-z
1/2+x,1/2-y,z
loop_
_atom_site_type_symbol
_atom_site_label
_atom_site_fract_x
_atom_site_fract_y
_atom_site_fract_z
Si Si1 0.579052 0.739097 0.851075
Si Si2 0.602583 0.882082 0.153713
Si Si3 0.558682 0.442417 0.638297
Si Si4 0.247875 0.190638 0.284258
Si Si5 0.182645 0.142051 0.445819
Si Si6 0.521748 0.154162 0.741780
Si Si7 0.373530 0.703220 0.316582
O O1 0.444652 0.711268 0.846441
O O2 0.493453 0.788479 0.758856
O O3 0.628946 0.701448 0.796872
O O4 0.750000 0.750000 0.000000
O O5 0.738177 0.928391 0.231374
O O6 0.455647 0.882855 0.155376
O O7 0.709768 0.832542 0.246745
O O8 0.500000 0.878804 0.000000
O O9 0.500000 0.433633 0.500000
O O10 0.535290 0.500000 0.655649
O O11 0.430547 0.408840 0.631744
O O12 0.246000 0.163536 0.382177
O O13 0.313736 0.153359 0.238666
O O14 0.367435 0.240988 0.356814
O O15 0.356231 0.131558 0.597593
O O16 0.064164 0.179601 0.445238
#
# Coordination Sequence:
#
# PCOD8096695 Si02
#       7
#     8   8   8   8   8   8   8
#     4  10  20  34  47  69 109 162 209 235 267 334
#     4  11  21  37  58  87 122 153 198 249 293 354
#     4  10  21  41  68  88 110 149 197 255 318 365
#     4  10  21  34  52  82 115 158 200 237 284 349
#     4  10  21  37  55  85 117 149 197 249 299 350
#     4  11  21  33  54  77 116 157 192 247 289 346
#     4   9  20  32  50  78 114 160 195 231 279 337
#
# _framework density 19.074769
#
# number of rings (size 3 to 8) (size 9 to 14) (size 15 to 20)
#    0.000    1.857    2.857    1.286    0.000    8.286 
#    0.000    0.000    0.000    2.571    0.000    1.000 
#    0.000    0.000    0.000    0.000    0.000    0.000 
#
# Total GULP energy -346880.646047 kJ/mol
# GULP energy per Si atom -12388.594502 kJ/mol
# Density = 1.903135 g / cm^3
# Si number density = 19.074769 Si / 1000 Ang^3
#
#
#
# Elastic Constant Matrix: (Units=GPa)
#
#
# Indices 1 2 3 4 5 6 
#
# 1 127.6120 43.1170 34.7655 0.0000 -3.4458 0.0000
# 2 43.1170 92.7173 16.3209 0.0000 -2.0954 0.0000
# 3 34.7655 16.3209 87.9864 0.0000 2.9473 0.0000
# 4 0.0000 0.0000 0.0000 14.2976 0.0000 0.9951
# 5 -3.4458 -2.0954 2.9473 0.0000 22.0870 0.0000
# 6 0.0000 0.0000 0.0000 0.9951 0.0000 16.8849
#
#
#
# Elastic Compliance Matrix: (Units=1/GPa)
#
#
# Indices 1 2 3 4 5 6 
#
# 1 0.010171 -0.004110 -0.003311 0.000000 0.001639 0.000000
# 2 -0.004110 0.012850 -0.000782 0.000000 0.000682 0.000000
# 3 -0.003311 -0.000782 0.012896 0.000000 -0.002312 0.000000
# 4 0.000000 0.000000 0.000000 0.070230 0.000000 -0.004139
# 5 0.001639 0.000682 -0.002312 0.000000 0.045904 0.000000
# 6 0.000000 0.000000 0.000000 -0.004139 0.000000 0.059468
#
#
# Mechanical properties :
#
#
# Convention : Reuss Voigt Hill
#
# Bulk Modulus (GPa) = 51.25643 55.19140 53.22392
# Shear Modulus (GPa) = 21.32817 24.92805 23.12811
#
# Velocity S-wave (km/s) = 3.34748 3.61897 3.48587
# Velocity P-wave (km/s) = 6.47074 6.81613 6.64568
#
# Compressibility (1/GPa) = 0.01950975
#
# Stress axis : x y z
#
# Youngs Moduli (GPa) = 98.31536 77.82112 77.54111
#
# Poissons Ratio (x) = 0.31985 0.25677
# Poissons Ratio (y) = 0.40409 0.06067
# Poissons Ratio (z) = 0.32557 0.06089
#
# Static dielectric constant tensor:
#      x y z
#    x 3.904840 0.000000 -0.064920 
#    y 0.000000 3.181170 0.000000 
#    z -0.064920 0.000000 3.347810 
# 
# 
# High freq. dielectric constant tensor:
#      x y z
#    x 1.759950 0.000000 -0.000230 
#    y 0.000000 1.690100 0.000000 
#    z -0.000230 0.000000 1.736050 
# 
# From -- ./inp_files/209159.got.cif
#   From: 2010.06.25/outbox.cif.g09.slc.cpg/sg12_105_cif.got.tgz:209159.got - 2010.06.28 00:19:55.
