data_PCOD8096348
_publ_section_title
;
Structure prediction by ZEFSAII (Michael W. Deem and Ramdas Pophale) SiO2 
 PCOD8096348
Probable space group: C 2/M
;
_chemical_formula_sum "Si O2"
_cell_formula_units_Z 64
_cell_length_a 20.089999
_cell_length_b 25.653848
_cell_length_c 9.028341
_cell_angle_alpha 90.000000
_cell_angle_beta 46.126227
_cell_angle_gamma 90.000000
_cell_volume 3354.257489
_symmetry_space_group_name_H-M "C 2/M"
_symmetry_group_IT_number 12
_symmetry_cell_setting 'monoclinic'
loop_
_space_group_symop_operation_xyz
x,y,z
-x,y,-z
-x,-y,-z
x,-y,z
1/2+x,1/2+y,z
1/2-x,1/2+y,-z
1/2-x,1/2-y,-z
1/2+x,1/2-y,z
loop_
_atom_site_type_symbol
_atom_site_label
_atom_site_fract_x
_atom_site_fract_y
_atom_site_fract_z
Si Si1 0.591690 0.940624 0.938786
Si Si2 0.247259 0.640285 0.620268
Si Si3 0.218091 0.195568 0.979211
Si Si4 0.530077 0.059256 0.607883
Si Si5 0.327593 0.855459 0.577593
Si Si6 0.089607 0.838315 0.435829
Si Si7 0.053053 0.740302 0.688590
Si Si8 0.134191 0.739889 0.870768
O O1 0.563987 0.937956 0.152653
O O2 0.610953 0.000000 0.855498
O O3 0.500000 0.918041 0.000000
O O4 0.682285 0.907199 0.768835
O O5 0.247658 0.645890 0.440944
O O6 0.350937 0.631276 0.528650
O O7 0.208855 0.693413 0.754217
O O8 0.289668 0.152230 0.804748
O O9 0.171383 0.209237 0.894514
O O10 0.250000 0.250000 0.000000
O O11 0.155206 0.168012 0.194538
O O12 0.500000 0.084136 0.500000
O O13 0.618518 0.090555 0.530983
O O14 0.564897 0.000000 0.539548
O O15 0.400881 0.809545 0.452140
O O16 0.049819 0.785175 0.569546
O O17 0.000000 0.867547 0.500000
O O18 0.111070 0.759563 0.741422
O O19 0.953532 0.720981 0.898458
#
# Coordination Sequence:
#
# PCOD8096348 Si02
#       8
#     8   8   8   8   8   8   8   8
#     4  10  20  38  63  91 120 148 183 227 282 356
#     4  11  22  36  57  84 115 152 194 237 285 346
#     4  12  22  35  52  78 107 147 196 243 284 335
#     4  10  22  37  56  88 127 153 177 223 286 353
#     4  11  22  35  55  82 116 153 190 230 288 346
#     4  12  24  38  53  75 110 150 199 248 286 329
#     4  10  20  34  52  77 111 151 186 234 283 337
#     4  10  20  33  53  77 111 148 190 231 285 343
#
# _framework density 19.080228999999999
#
# number of rings (size 3 to 8) (size 9 to 14) (size 15 to 20)
#    0.000    1.250    5.000    1.500    3.500    3.500 
#    0.000    0.000    0.000    0.375    0.000    0.000 
#    0.000    2.000    0.000    0.000    0.000    0.000 
#
# Total GULP energy -396466.259795 kJ/mol
# GULP energy per Si atom -12389.570619 kJ/mol
# Density = 1.903680 g / cm^3
# Si number density = 19.080229 Si / 1000 Ang^3
#
#
#
# Elastic Constant Matrix: (Units=GPa)
#
#
# Indices 1 2 3 4 5 6 
#
# 1 105.9287 24.0442 20.0840 0.0000 -4.1173 0.0000
# 2 24.0442 44.4928 11.7415 0.0000 -0.4560 0.0000
# 3 20.0840 11.7415 95.3821 0.0000 9.9634 0.0000
# 4 0.0000 0.0000 0.0000 24.6642 0.0000 -0.1446
# 5 -4.1173 -0.4560 9.9634 0.0000 27.5823 0.0000
# 6 0.0000 0.0000 0.0000 -0.1446 0.0000 20.0016
#
#
#
# Elastic Compliance Matrix: (Units=1/GPa)
#
#
# Indices 1 2 3 4 5 6 
#
# 1 0.011136 -0.005492 -0.001905 0.000000 0.002260 0.000000
# 2 -0.005492 0.025997 -0.002082 0.000000 0.000362 0.000000
# 3 -0.001905 -0.002082 0.011613 0.000000 -0.004514 0.000000
# 4 0.000000 0.000000 0.000000 0.040546 0.000000 0.000293
# 5 0.002260 0.000362 -0.004514 0.000000 0.038229 0.000000
# 6 0.000000 0.000000 0.000000 0.000293 0.000000 0.049998
#
#
# Mechanical properties :
#
#
# Convention : Reuss Voigt Hill
#
# Bulk Modulus (GPa) = 33.56993 39.72703 36.64848
# Shear Modulus (GPa) = 24.22426 27.11191 25.66808
#
# Velocity S-wave (km/s) = 3.56701 3.77363 3.67177
# Velocity P-wave (km/s) = 5.88192 6.31294 6.10124
#
# Compressibility (1/GPa) = 0.02978856
#
# Stress axis : x y z
#
# Youngs Moduli (GPa) = 89.79963 38.46671 86.11088
#
# Poissons Ratio (x) = 0.21126 0.16402
# Poissons Ratio (y) = 0.49319 0.17924
# Poissons Ratio (z) = 0.17105 0.08007
#
# Static dielectric constant tensor:
#      x y z
#    x 3.790320 0.000000 0.128080 
#    y 0.000000 3.175500 0.000000 
#    z 0.128080 0.000000 3.788470 
# 
# 
# High freq. dielectric constant tensor:
#      x y z
#    x 1.747490 0.000000 0.021580 
#    y 0.000000 1.695400 0.000000 
#    z 0.021580 0.000000 1.753010 
# 
# From -- ./inp_files/91088.got.cif
#   From: 2010.06.25/outbox.cif.g09.slc.cpg/sg12_46_cif.got.tgz:91088.got - 2010.06.28 00:19:55.
