data_PCOD8096509
_publ_section_title
;
Structure prediction by ZEFSAII (Michael W. Deem and Ramdas Pophale) SiO2 
 PCOD8096509
Probable space group: C 2/M
;
_chemical_formula_sum "Si O2"
_cell_formula_units_Z 64
_cell_length_a 25.943573
_cell_length_b 9.514117
_cell_length_c 14.000445
_cell_angle_alpha 90.000000
_cell_angle_beta 93.660673
_cell_angle_gamma 90.000000
_cell_volume 3448.681675
_symmetry_space_group_name_H-M "C 2/M"
_symmetry_group_IT_number 12
_symmetry_cell_setting 'monoclinic'
loop_
_space_group_symop_operation_xyz
x,y,z
-x,y,-z
-x,-y,-z
x,-y,z
1/2+x,1/2+y,z
1/2-x,1/2+y,-z
1/2-x,1/2-y,-z
1/2+x,1/2-y,z
loop_
_atom_site_type_symbol
_atom_site_label
_atom_site_fract_x
_atom_site_fract_y
_atom_site_fract_z
Si Si1 0.154022 0.333920 0.608684
Si Si2 0.951627 0.160180 0.931412
Si Si3 0.850908 0.666540 0.608105
Si Si4 0.226837 0.161664 0.912302
Si Si5 0.888903 0.840229 0.103373
Si Si6 0.438171 0.161205 0.266254
Si Si7 0.553383 0.836522 0.259086
Si Si8 0.751257 0.836629 0.296249
O O1 0.165074 0.500000 0.614191
O O2 0.150325 0.277492 0.500143
O O3 0.099766 0.294213 0.652368
O O4 0.200224 0.254466 0.665945
O O5 0.943115 0.258267 0.840562
O O6 0.960457 0.000000 0.897706
O O7 0.901337 0.173129 0.992598
O O8 0.000000 0.211406 0.000000
O O9 0.852772 0.500000 0.608517
O O10 0.902286 0.724800 0.666077
O O11 0.799731 0.719845 0.656516
O O12 0.168800 0.214693 0.886094
O O13 0.258520 0.183416 0.818129
O O14 0.226712 0.000000 0.944912
O O15 0.250000 0.250000 0.000000
O O16 0.928303 0.749457 0.169950
O O17 0.895034 0.000000 0.139341
O O18 0.497793 0.186780 0.303468
O O19 0.428639 0.000000 0.237809
O O20 0.563061 0.000000 0.238758
O O21 0.762411 0.000000 0.321233
#
# Coordination Sequence:
#
# PCOD8096509 Si02
#       8
#     8   8   8   8   8   8   8   8
#     4  10  20  36  58  82 107 138 179 225 271 317
#     4  10  20  34  54  77 104 140 178 214 260 314
#     4   9  20  37  56  80 110 142 176 221 274 321
#     4  10  22  36  53  79 110 143 177 216 265 319
#     4  10  20  36  54  75 106 145 179 215 266 319
#     4  10  20  33  54  83 108 138 182 224 262 312
#     4  10  21  36  54  79 111 144 179 220 267 318
#     4  10  20  37  59  81 107 141 181 220 266 322
#
# _framework density 18.557817
#
# number of rings (size 3 to 8) (size 9 to 14) (size 15 to 20)
#    0.000    2.125    2.500    0.375    1.750    2.250 
#    0.000    3.750    0.000    0.000    0.000    2.625 
#    0.000    0.000    0.000    0.000    0.000    0.000 
#
# Total GULP energy -396829.355521 kJ/mol
# GULP energy per Si atom -12400.917360 kJ/mol
# Density = 1.851558 g / cm^3
# Si number density = 18.557817 Si / 1000 Ang^3
#
#
#
# Elastic Constant Matrix: (Units=GPa)
#
#
# Indices 1 2 3 4 5 6 
#
# 1 120.4653 38.8648 57.6515 0.0000 -7.1351 0.0000
# 2 38.8648 46.3682 41.4056 0.0000 6.1028 0.0000
# 3 57.6515 41.4056 119.4490 0.0000 -0.3766 0.0000
# 4 0.0000 0.0000 0.0000 21.5781 0.0000 0.6362
# 5 -7.1351 6.1028 -0.3766 0.0000 32.2168 0.0000
# 6 0.0000 0.0000 0.0000 0.6362 0.0000 24.0337
#
#
#
# Elastic Compliance Matrix: (Units=1/GPa)
#
#
# Indices 1 2 3 4 5 6 
#
# 1 0.012843 -0.008432 -0.003262 0.000000 0.004404 0.000000
# 2 -0.008432 0.037993 -0.009129 0.000000 -0.009171 0.000000
# 3 -0.003262 -0.009129 0.013114 0.000000 0.001160 0.000000
# 4 0.000000 0.000000 0.000000 0.046380 0.000000 -0.001228
# 5 0.004404 -0.009171 0.001160 0.000000 0.033766 0.000000
# 6 0.000000 0.000000 0.000000 -0.001228 0.000000 0.041641
#
#
# Mechanical properties :
#
#
# Convention : Reuss Voigt Hill
#
# Bulk Modulus (GPa) = 44.83362 62.45850 53.64606
# Shear Modulus (GPa) = 21.29312 25.45643 23.37477
#
# Velocity S-wave (km/s) = 3.39099 3.70771 3.55288
# Velocity P-wave (km/s) = 6.28833 7.21518 6.76764
#
# Compressibility (1/GPa) = 0.02230469
#
# Stress axis : x y z
#
# Youngs Moduli (GPa) = 77.86104 26.32073 76.25161
#
# Poissons Ratio (x) = 0.22192 0.24875
# Poissons Ratio (y) = 0.65649 0.69612
# Poissons Ratio (z) = 0.25400 0.24029
#
# Static dielectric constant tensor:
#      x y z
#    x 3.681410 0.000000 -0.162310 
#    y 0.000000 3.224860 0.000000 
#    z -0.162310 0.000000 3.463430 
# 
# 
# High freq. dielectric constant tensor:
#      x y z
#    x 1.731940 0.000000 -0.012570 
#    y 0.000000 1.699920 0.000000 
#    z -0.012570 0.000000 1.718710 
# 
# From -- ./inp_files/238705.got.cif
#   From: 2010.06.25/outbox.cif.g09.slc.cpg/sg12_120_cif.got.tgz:238705.got - 2010.06.28 00:19:55.
