data_PCOD8096917
_publ_section_title
;
Structure prediction by ZEFSAII (Michael W. Deem and Ramdas Pophale) SiO2 
 PCOD8096917
Probable space group: C 2/M
;
_chemical_formula_sum "Si O2"
_cell_formula_units_Z 56
_cell_length_a 19.719713
_cell_length_b 7.761754
_cell_length_c 29.285958
_cell_angle_alpha 90.000000
_cell_angle_beta 141.884468
_cell_angle_gamma 90.000000
_cell_volume 2766.816901
_symmetry_space_group_name_H-M "C 2/M"
_symmetry_group_IT_number 12
_symmetry_cell_setting 'monoclinic'
loop_
_space_group_symop_operation_xyz
x,y,z
-x,y,-z
-x,-y,-z
x,-y,z
1/2+x,1/2+y,z
1/2-x,1/2+y,-z
1/2-x,1/2-y,-z
1/2+x,1/2-y,z
loop_
_atom_site_type_symbol
_atom_site_label
_atom_site_fract_x
_atom_site_fract_y
_atom_site_fract_z
Si Si1 0.177462 0.704503 0.869262
Si Si2 0.457007 0.796415 0.116814
Si Si3 0.935973 0.500000 0.531471
Si Si4 0.668710 0.195513 0.283722
Si Si5 0.826023 0.500000 0.382846
Si Si6 0.421651 0.198342 0.997677
Si Si7 0.125695 0.807451 0.439690
Si Si8 0.474512 0.195964 0.703309
O O1 0.185054 0.500000 0.875061
O O2 0.294144 0.783387 0.917131
O O3 0.134332 0.775720 0.895696
O O4 0.091476 0.761604 0.784623
O O5 0.578861 0.749750 0.198387
O O6 0.442130 0.000000 0.107478
O O7 0.440576 0.714293 0.057623
O O8 0.832991 0.500000 0.441750
O O9 0.934082 0.674422 0.559241
O O10 0.051139 0.500000 0.568335
O O11 0.768308 0.328429 0.333208
O O12 0.615983 0.209121 0.305434
O O13 0.710783 0.000000 0.297163
O O14 0.455163 0.000000 0.019164
O O15 0.500000 0.283674 0.000000
O O16 0.250000 0.750000 0.500000
O O17 0.063066 0.814087 0.358206
O O18 0.121557 0.000000 0.458450
O O19 0.483988 0.000000 0.690934
#
# Coordination Sequence:
#
# PCOD8096917 Si02
#       8
#     8   8   4   8   4   8   8   8
#     4   9  18  34  56  80 111 150 190 248 295 336
#     4   8  16  35  57  80 111 148 194 242 294 345
#     4  11  26  44  58  92 127 155 199 242 297 363
#     4   9  19  37  63  89 117 158 197 247 300 347
#     4  11  24  42  64  86 122 161 199 243 286 362
#     4  10  20  34  51  77 115 154 190 237 296 355
#     4  12  23  39  64  91 122 158 195 247 306 352
#     4   9  18  36  60  88 122 151 194 251 303 351
#
# _framework density 20.239864000000001
#
# number of rings (size 3 to 8) (size 9 to 14) (size 15 to 20)
#    0.000    2.286    1.429    3.000    1.000    3.143 
#    7.714    1.429    0.000    0.000    0.000    0.000 
#    0.000    0.000    0.000    0.000    0.000    0.000 
#
# Total GULP energy -347117.541473 kJ/mol
# GULP energy per Si atom -12397.055053 kJ/mol
# Density = 2.019380 g / cm^3
# Si number density = 20.239864 Si / 1000 Ang^3
#
#
#
# Elastic Constant Matrix: (Units=GPa)
#
#
# Indices 1 2 3 4 5 6 
#
# 1 97.2608 26.5987 63.5645 0.0002 3.4238 -0.0010
# 2 26.5987 89.6642 30.9405 -0.0002 2.9849 -0.0001
# 3 63.5645 30.9405 130.1046 0.0001 0.7744 -0.0006
# 4 0.0002 -0.0002 0.0001 27.5040 0.0000 8.0381
# 5 3.4238 2.9849 0.7744 0.0000 29.9190 0.0003
# 6 -0.0010 -0.0001 -0.0006 8.0381 0.0003 14.5824
#
#
#
# Elastic Compliance Matrix: (Units=1/GPa)
#
#
# Indices 1 2 3 4 5 6 
#
# 1 0.015536 -0.002120 -0.007078 0.000000 -0.001383 0.000001
# 2 -0.002120 0.012478 -0.001926 0.000000 -0.000952 0.000000
# 3 -0.007078 -0.001926 0.011598 0.000000 0.000702 0.000000
# 4 0.000000 0.000000 0.000000 0.043340 0.000000 -0.023890
# 5 -0.001383 -0.000952 0.000702 0.000000 0.033659 -0.000001
# 6 0.000001 0.000000 0.000000 -0.023890 -0.000001 0.081744
#
#
# Mechanical properties :
#
#
# Convention : Reuss Voigt Hill
#
# Bulk Modulus (GPa) = 57.59100 62.13747 59.86423
# Shear Modulus (GPa) = 22.08574 27.46283 24.77428
#
# Velocity S-wave (km/s) = 3.30692 3.68757 3.50242
# Velocity P-wave (km/s) = 6.56483 6.99271 6.78214
#
# Compressibility (1/GPa) = 0.01736382
#
# Stress axis : x y z
#
# Youngs Moduli (GPa) = 64.36729 80.14128 86.22255
#
# Poissons Ratio (x) = 0.16992 0.61027
# Poissons Ratio (y) = 0.13648 0.16605
# Poissons Ratio (z) = 0.45558 0.15434
#
# Static dielectric constant tensor:
#      x y z
#    x 3.725330 0.000000 -0.245800 
#    y 0.000000 3.970200 0.000000 
#    z -0.245800 0.000000 3.950470 
# 
# 
# High freq. dielectric constant tensor:
#      x y z
#    x 1.768130 0.000000 -0.004510 
#    y 0.000000 1.777970 0.000000 
#    z -0.004510 0.000000 1.803050 
# 
# From -- ./inp_files/363257.got.cif
#   From: 2010.06.25/outbox.cif.g09.slc.cpg/sg12_182_cif.got.tgz:363257.got - 2010.06.28 00:19:55.
