data_PCOD8096595
_publ_section_title
;
Structure prediction by ZEFSAII (Michael W. Deem and Ramdas Pophale) SiO2 
 PCOD8096595
Probable space group: C 2/M
;
_chemical_formula_sum "Si O2"
_cell_formula_units_Z 64
_cell_length_a 29.324974
_cell_length_b 8.967290
_cell_length_c 12.819394
_cell_angle_alpha 90.000000
_cell_angle_beta 99.777139
_cell_angle_gamma 90.000000
_cell_volume 3322.096786
_symmetry_space_group_name_H-M "C 2/M"
_symmetry_group_IT_number 12
_symmetry_cell_setting 'monoclinic'
loop_
_space_group_symop_operation_xyz
x,y,z
-x,y,-z
-x,-y,-z
x,-y,z
1/2+x,1/2+y,z
1/2-x,1/2+y,-z
1/2-x,1/2-y,-z
1/2+x,1/2-y,z
loop_
_atom_site_type_symbol
_atom_site_label
_atom_site_fract_x
_atom_site_fract_y
_atom_site_fract_z
Si Si1 0.052016 0.177271 0.040604
Si Si2 0.692230 0.176406 0.806630
Si Si3 0.353026 0.676869 0.411022
Si Si4 0.547989 0.321728 0.475147
Si Si5 0.075834 0.834126 0.270083
Si Si6 0.320129 0.665850 0.622969
Si Si7 0.786693 0.675496 0.805444
Si Si8 0.861151 0.325222 0.006212
O O1 0.064062 0.248567 0.158253
O O2 0.088893 0.245476 0.974391
O O3 0.057185 0.000000 0.036645
O O4 0.000000 0.230332 0.000000
O O5 0.667714 0.237451 0.694079
O O6 0.742831 0.245134 0.839472
O O7 0.696467 0.000000 0.799756
O O8 0.663800 0.225949 0.897439
O O9 0.348816 0.500000 0.393346
O O10 0.407051 0.725772 0.440543
O O11 0.324766 0.723484 0.505271
O O12 0.500000 0.256234 0.500000
O O13 0.547291 0.500000 0.468873
O O14 0.552360 0.253839 0.360277
O O15 0.130035 0.842264 0.306472
O O16 0.054840 0.000000 0.252579
O O17 0.297817 0.500000 0.615848
O O18 0.290634 0.775261 0.685343
O O19 0.778538 0.500000 0.804490
O O20 0.830741 0.721837 0.893216
O O21 0.869716 0.500000 0.009387
#
# Coordination Sequence:
#
# PCOD8096595 Si02
#       8
#     8   8   8   8   8   8   8   8
#     4  10  20  33  55  87 115 144 186 233 278 327
#     4  11  24  40  57  79 113 153 186 227 288 343
#     4   9  19  35  55  82 113 146 187 231 277 330
#     4   8  14  26  49  78 107 142 180 221 270 322
#     4   8  14  27  46  72 107 141 175 217 267 319
#     4   9  17  33  57  80 108 147 183 224 278 331
#     4  11  22  37  60  86 108 139 192 240 278 334
#     4  10  23  41  58  80 112 150 190 231 280 339
#
# _framework density 19.264941
#
# number of rings (size 3 to 8) (size 9 to 14) (size 15 to 20)
#    0.000    2.500    1.250    2.625    0.000    3.750 
#    0.000    2.500    0.000    0.375    0.000    0.000 
#    0.000    0.000    0.000    0.000    0.000    0.000 
#
# Total GULP energy -396620.876013 kJ/mol
# GULP energy per Si atom -12394.402375 kJ/mol
# Density = 1.922109 g / cm^3
# Si number density = 19.264941 Si / 1000 Ang^3
#
#
#
# Elastic Constant Matrix: (Units=GPa)
#
#
# Indices 1 2 3 4 5 6 
#
# 1 124.2607 40.2854 49.9661 0.0000 -19.5186 0.0000
# 2 40.2854 49.8675 37.1952 0.0000 -7.4155 0.0000
# 3 49.9661 37.1952 108.3064 0.0000 -9.7675 0.0000
# 4 0.0000 0.0000 0.0000 26.7903 0.0000 -1.2278
# 5 -19.5186 -7.4155 -9.7675 0.0000 29.1103 0.0000
# 6 0.0000 0.0000 0.0000 -1.2278 0.0000 20.6143
#
#
#
# Elastic Compliance Matrix: (Units=1/GPa)
#
#
# Indices 1 2 3 4 5 6 
#
# 1 0.012317 -0.007073 -0.002754 0.000000 0.005533 0.000000
# 2 -0.007073 0.031452 -0.007469 0.000000 0.000763 0.000000
# 3 -0.002754 -0.007469 0.013128 0.000000 0.000655 0.000000
# 4 0.000000 0.000000 0.000000 0.037429 0.000000 0.002229
# 5 0.005533 0.000763 0.000655 0.000000 0.038476 0.000000
# 6 0.000000 0.000000 0.000000 0.002229 0.000000 0.048643
#
#
# Mechanical properties :
#
#
# Convention : Reuss Voigt Hill
#
# Bulk Modulus (GPa) = 44.83649 59.70310 52.26979
# Shear Modulus (GPa) = 22.37389 25.63550 24.00469
#
# Velocity S-wave (km/s) = 3.41160 3.65181 3.53374
# Velocity P-wave (km/s) = 6.23240 6.98847 6.62124
#
# Compressibility (1/GPa) = 0.02230326
#
# Stress axis : x y z
#
# Youngs Moduli (GPa) = 81.18561 31.79429 76.17288
#
# Poissons Ratio (x) = 0.22490 0.20981
# Poissons Ratio (y) = 0.57426 0.56897
# Poissons Ratio (z) = 0.22361 0.23748
#
# Static dielectric constant tensor:
#      x y z
#    x 3.585810 0.000000 -0.150310 
#    y 0.000000 3.193290 0.000000 
#    z -0.150310 0.000000 3.776460 
# 
# 
# High freq. dielectric constant tensor:
#      x y z
#    x 1.750500 0.000000 -0.006590 
#    y 0.000000 1.713710 0.000000 
#    z -0.006590 0.000000 1.759990 
# 
# From -- ./inp_files/187607.got.cif
#   From: 2010.06.25/outbox.cif.g09.slc.cpg/sg12_94_cif.got.tgz:187607.got - 2010.06.28 00:19:55.
