data_PCOD8096082
_publ_section_title
;
Structure prediction by ZEFSAII (Michael W. Deem and Ramdas Pophale) SiO2 
 PCOD8096082
Probable space group: C 2/M
;
_chemical_formula_sum "Si O2"
_cell_formula_units_Z 48
_cell_length_a 19.820722
_cell_length_b 8.760810
_cell_length_c 15.924237
_cell_angle_alpha 90.000000
_cell_angle_beta 108.454982
_cell_angle_gamma 90.000000
_cell_volume 2622.967886
_symmetry_space_group_name_H-M "C 2/M"
_symmetry_group_IT_number 12
_symmetry_cell_setting 'monoclinic'
loop_
_space_group_symop_operation_xyz
x,y,z
-x,y,-z
-x,-y,-z
x,-y,z
1/2+x,1/2+y,z
1/2-x,1/2+y,-z
1/2-x,1/2-y,-z
1/2+x,1/2-y,z
loop_
_atom_site_type_symbol
_atom_site_label
_atom_site_fract_x
_atom_site_fract_y
_atom_site_fract_z
Si Si1 0.537768 0.178139 0.928255
Si Si2 0.807954 0.178182 0.414033
Si Si3 0.148911 0.323841 0.400275
Si Si4 0.369706 0.679399 0.265287
Si Si5 0.480678 0.678860 0.743709
Si Si6 0.680558 0.680600 0.932318
O O1 0.485932 0.231697 0.833282
O O2 0.612058 0.267379 0.957560
O O3 0.553526 0.000000 0.924992
O O4 0.500000 0.218174 0.000000
O O5 0.847159 0.272006 0.501928
O O6 0.723621 0.204950 0.383514
O O7 0.836871 0.247851 0.337756
O O8 0.826541 0.000000 0.433055
O O9 0.126351 0.500000 0.387737
O O10 0.091509 0.222239 0.330478
O O11 0.359866 0.500000 0.265950
O O12 0.452723 0.723877 0.289637
O O13 0.327126 0.740242 0.166845
O O14 0.482106 0.500000 0.764295
O O15 0.685386 0.500000 0.937403
O O16 0.750000 0.750000 0.000000
#
# Coordination Sequence:
#
# PCOD8096082 Si02
#       6
#     8   8   8   8   8   8
#     4  10  21  37  56  78 106 140 177 218 265 316
#     4   9  18  35  55  72  97 135 175 212 252 304
#     4  10  20  33  51  77 106 134 167 211 260 308
#     4   8  17  34  54  74  97 132 175 213 252 302
#     4  10  20  35  55  77 103 135 172 214 258 310
#     4  10  20  35  55  80 109 140 177 220 266 316
#
# _framework density 18.299882
#
# number of rings (size 3 to 8) (size 9 to 14) (size 15 to 20)
#    0.000    2.500    0.000    3.000    0.000    4.000 
#    0.000   11.667    0.000    0.000    0.000    0.000 
#    0.000    0.000    0.000    0.000    0.000    0.000 
#
# Total GULP energy -297620.680280 kJ/mol
# GULP energy per Si atom -12400.861678 kJ/mol
# Density = 1.825823 g / cm^3
# Si number density = 18.299882 Si / 1000 Ang^3
#
#
#
# Elastic Constant Matrix: (Units=GPa)
#
#
# Indices 1 2 3 4 5 6 
#
# 1 96.6257 33.3098 79.1764 0.0000 -6.1595 0.0000
# 2 33.3098 49.3738 29.9628 0.0000 -7.3303 0.0000
# 3 79.1764 29.9628 111.3153 0.0000 -11.1958 0.0000
# 4 0.0000 0.0000 0.0000 33.2263 0.0000 4.8994
# 5 -6.1595 -7.3303 -11.1958 0.0000 40.4239 0.0000
# 6 0.0000 0.0000 0.0000 4.8994 0.0000 30.3155
#
#
#
# Elastic Compliance Matrix: (Units=1/GPa)
#
#
# Indices 1 2 3 4 5 6 
#
# 1 0.027335 -0.008164 -0.017461 0.000000 -0.002152 0.000000
# 2 -0.008164 0.026927 -0.001106 0.000000 0.003333 0.000000
# 3 -0.017461 -0.001106 0.022027 0.000000 0.003239 0.000000
# 4 0.000000 0.000000 0.000000 0.030831 0.000000 -0.004983
# 5 -0.002152 0.003333 0.003239 0.000000 0.025912 0.000000
# 6 0.000000 0.000000 0.000000 -0.004983 0.000000 0.033792
#
#
# Mechanical properties :
#
#
# Convention : Reuss Voigt Hill
#
# Bulk Modulus (GPa) = 43.80943 60.24587 52.02765
# Shear Modulus (GPa) = 21.93993 28.45087 25.19540
#
# Velocity S-wave (km/s) = 3.46629 3.94725 3.71456
# Velocity P-wave (km/s) = 6.32550 7.33262 6.84760
#
# Compressibility (1/GPa) = 0.02282614
#
# Stress axis : x y z
#
# Youngs Moduli (GPa) = 36.58377 37.13685 45.39889
#
# Poissons Ratio (x) = 0.30318 0.79273
# Poissons Ratio (y) = 0.29867 0.05021
# Poissons Ratio (z) = 0.63880 0.04107
#
# Static dielectric constant tensor:
#      x y z
#    x 3.430880 0.000000 -0.136160 
#    y 0.000000 3.318590 0.000000 
#    z -0.136160 0.000000 3.610600 
# 
# 
# High freq. dielectric constant tensor:
#      x y z
#    x 1.710280 0.000000 -0.000730 
#    y 0.000000 1.705290 0.000000 
#    z -0.000730 0.000000 1.714680 
# 
# From -- ./inp_files/229880.got.cif
#   From: 2010.06.25/outbox.cif.g09.slc.cpg/sg12_115_cif.got.tgz:229880.got - 2010.06.28 00:19:55.
