data_PCOD8096959
_publ_section_title
;
Structure prediction by ZEFSAII (Michael W. Deem and Ramdas Pophale) SiO2 
 PCOD8096959
Probable space group: C 2/M
;
_chemical_formula_sum "Si O2"
_cell_formula_units_Z 64
_cell_length_a 20.611104
_cell_length_b 9.393103
_cell_length_c 17.093697
_cell_angle_alpha 90.000000
_cell_angle_beta 90.114868
_cell_angle_gamma 90.000000
_cell_volume 3309.371085
_symmetry_space_group_name_H-M "C 2/M"
_symmetry_group_IT_number 12
_symmetry_cell_setting 'monoclinic'
loop_
_space_group_symop_operation_xyz
x,y,z
-x,y,-z
-x,-y,-z
x,-y,z
1/2+x,1/2+y,z
1/2-x,1/2+y,-z
1/2-x,1/2-y,-z
1/2+x,1/2-y,z
loop_
_atom_site_type_symbol
_atom_site_label
_atom_site_fract_x
_atom_site_fract_y
_atom_site_fract_z
Si Si1 0.165972 0.833640 0.931301
Si Si2 0.933218 0.333170 0.174727
Si Si3 0.879113 0.835019 0.639564
Si Si4 0.929081 0.151865 0.478103
Si Si5 0.755727 0.663614 0.420014
Si Si6 0.611416 0.165814 0.655196
Si Si7 0.187993 0.664626 0.087287
Si Si8 0.921082 0.334771 0.787745
O O1 0.106669 0.756704 0.888175
O O2 0.236201 0.810408 0.889136
O O3 0.149476 0.000000 0.937484
O O4 0.169187 0.768728 0.017493
O O5 0.921179 0.500000 0.158826
O O6 0.904646 0.284389 0.257785
O O7 0.010225 0.297116 0.170350
O O8 0.895855 0.774106 0.553202
O O9 0.801821 0.813930 0.642833
O O10 0.915654 0.750224 0.707160
O O11 0.899919 0.000000 0.647007
O O12 0.935708 0.255487 0.404658
O O13 0.000000 0.108815 0.500000
O O14 0.893105 0.000000 0.458365
O O15 0.761517 0.500000 0.445523
O O16 0.750000 0.750000 0.500000
O O17 0.816947 0.714023 0.369682
O O18 0.598642 0.000000 0.646719
O O19 0.177565 0.500000 0.062008
O O20 0.140099 0.705187 0.158109
O O21 0.920575 0.500000 0.765558
#
# Coordination Sequence:
#
# PCOD8096959 Si02
#       8
#     8   8   8   8   8   8   8   8
#     4  10  21  38  62  90 115 145 185 225 271 330
#     4  10  22  39  58  83 116 151 185 228 279 330
#     4  10  21  35  52  78 111 144 181 230 284 329
#     4  10  20  34  52  73 102 143 185 226 277 329
#     4  10  20  35  53  77 105 140 186 232 281 334
#     4  10  21  35  53  78 107 142 186 229 273 328
#     4   9  20  40  62  86 116 148 183 225 273 327
#     4  10  22  39  59  84 113 148 190 228 272 332
#
# _framework density 19.339022
#
# number of rings (size 3 to 8) (size 9 to 14) (size 15 to 20)
#    0.000    2.125    1.250    1.125    1.750    3.750 
#    0.000    2.500    0.000    0.000    0.000    0.000 
#    0.000    0.000    0.000    0.000    0.000    0.000 
#
# Total GULP energy -396641.683136 kJ/mol
# GULP energy per Si atom -12395.052598 kJ/mol
# Density = 1.929501 g / cm^3
# Si number density = 19.339022 Si / 1000 Ang^3
#
#
#
# Elastic Constant Matrix: (Units=GPa)
#
#
# Indices 1 2 3 4 5 6 
#
# 1 78.0680 28.1564 18.8051 0.0000 7.1192 0.0000
# 2 28.1564 59.1727 37.1569 0.0000 12.2746 0.0000
# 3 18.8051 37.1569 66.5227 0.0000 9.4257 0.0000
# 4 0.0000 0.0000 0.0000 36.6691 0.0000 8.3481
# 5 7.1192 12.2746 9.4257 0.0000 35.5606 0.0000
# 6 0.0000 0.0000 0.0000 8.3481 0.0000 30.0630
#
#
#
# Elastic Compliance Matrix: (Units=1/GPa)
#
#
# Indices 1 2 3 4 5 6 
#
# 1 0.015481 -0.007008 -0.000380 0.000000 -0.000580 0.000000
# 2 -0.007008 0.030212 -0.014147 0.000000 -0.005276 0.000000
# 3 -0.000380 -0.014147 0.023211 0.000000 -0.001193 0.000000
# 4 0.000000 0.000000 0.000000 0.029111 0.000000 -0.008084
# 5 -0.000580 -0.005276 -0.001193 0.000000 0.030374 0.000000
# 6 0.000000 0.000000 0.000000 -0.008084 0.000000 0.035508
#
#
# Mechanical properties :
#
#
# Convention : Reuss Voigt Hill
#
# Bulk Modulus (GPa) = 38.70692 41.33334 40.02013
# Shear Modulus (GPa) = 23.19352 28.43486 25.81419
#
# Velocity S-wave (km/s) = 3.46687 3.83866 3.65749
# Velocity P-wave (km/s) = 6.00699 6.40831 6.21089
#
# Compressibility (1/GPa) = 0.02583517
#
# Stress axis : x y z
#
# Youngs Moduli (GPa) = 64.59475 33.09976 43.08369
#
# Poissons Ratio (x) = 0.23195 0.01637
# Poissons Ratio (y) = 0.45265 0.60949
# Poissons Ratio (z) = 0.02455 0.46825
#
# Static dielectric constant tensor:
#      x y z
#    x 3.869460 0.000000 -0.191810 
#    y 0.000000 3.458430 0.000000 
#    z -0.191810 0.000000 3.467140 
# 
# 
# High freq. dielectric constant tensor:
#      x y z
#    x 1.767730 0.000000 -0.006010 
#    y 0.000000 1.748570 0.000000 
#    z -0.006010 0.000000 1.739350 
# 
# From -- ./inp_files/281399.got.cif
#   From: 2010.06.25/outbox.cif.g09.slc.cpg/sg12_141_cif.got.tgz:281399.got - 2010.06.28 00:19:55.
