data_PCOD8096631
_publ_section_title
;
Structure prediction by ZEFSAII (Michael W. Deem and Ramdas Pophale) SiO2 
 PCOD8096631
Probable space group: C 2/M
;
_chemical_formula_sum "Si O2"
_cell_formula_units_Z 56
_cell_length_a 20.716256
_cell_length_b 16.996654
_cell_length_c 14.457428
_cell_angle_alpha 90.000000
_cell_angle_beta 33.301059
_cell_angle_gamma 90.000000
_cell_volume 2794.913396
_symmetry_space_group_name_H-M "C 2/M"
_symmetry_group_IT_number 12
_symmetry_cell_setting 'monoclinic'
loop_
_space_group_symop_operation_xyz
x,y,z
-x,y,-z
-x,-y,-z
x,-y,z
1/2+x,1/2+y,z
1/2-x,1/2+y,-z
1/2-x,1/2-y,-z
1/2+x,1/2-y,z
loop_
_atom_site_type_symbol
_atom_site_label
_atom_site_fract_x
_atom_site_fract_y
_atom_site_fract_z
Si Si1 0.220628 0.913483 0.039778
Si Si2 0.499684 0.411284 0.399206
Si Si3 0.839298 0.349297 0.058229
Si Si4 0.908398 0.700219 0.480331
Si Si5 0.165722 0.708933 0.228862
Si Si6 0.733821 0.351561 0.381735
Si Si7 0.578201 0.094221 0.704526
O O1 0.289177 0.920602 0.056302
O O2 0.093636 0.874002 0.215047
O O3 0.208164 0.000000 0.011384
O O4 0.292266 0.864234 0.880520
O O5 0.500000 0.367180 0.500000
O O6 0.544054 0.500000 0.362762
O O7 0.371266 0.412180 0.509892
O O8 0.768954 0.273885 0.100857
O O9 0.819975 0.355968 0.190426
O O10 0.979250 0.352200 0.873670
O O11 0.851695 0.677430 0.646262
O O12 0.824878 0.765914 0.532964
O O13 0.912593 0.621670 0.413045
O O14 0.039267 0.737192 0.338721
O O15 0.800418 0.381882 0.391938
O O16 0.556282 0.000000 0.736206
#
# Coordination Sequence:
#
# PCOD8096631 Si02
#       7
#     8   8   8   8   8   8   8
#     4  11  21  34  58  91 123 157 196 249 312 359
#     4  10  20  33  56  88 120 154 193 246 304 358
#     4  11  22  37  60  90 121 158 198 247 306 365
#     4  10  23  41  64  90 116 159 212 250 300 350
#     4  10  22  40  64  90 119 159 205 262 299 348
#     4  11  23  40  61  86 122 161 203 244 299 368
#     4  12  26  41  61  90 127 166 198 245 307 369
#
# _framework density 20.0364
#
# number of rings (size 3 to 8) (size 9 to 14) (size 15 to 20)
#    0.000    1.286    2.857    3.000    4.000    2.857 
#    0.000    1.429    0.000    0.000    0.000    3.000 
#    0.000    0.000    0.000    0.000    0.000    0.000 
#
# Total GULP energy -346999.875061 kJ/mol
# GULP energy per Si atom -12392.852681 kJ/mol
# Density = 1.999080 g / cm^3
# Si number density = 20.036400 Si / 1000 Ang^3
#
#
#
# Elastic Constant Matrix: (Units=GPa)
#
#
# Indices 1 2 3 4 5 6 
#
# 1 102.7556 33.1079 43.0341 0.0000 -12.4535 0.0000
# 2 33.1079 79.3188 46.2461 0.0000 7.3831 0.0000
# 3 43.0341 46.2461 126.7683 0.0000 -5.1023 0.0000
# 4 0.0000 0.0000 0.0000 23.6620 0.0000 -5.8264
# 5 -12.4535 7.3831 -5.1023 0.0000 32.5303 0.0000
# 6 0.0000 0.0000 0.0000 -5.8264 0.0000 14.6676
#
#
#
# Elastic Compliance Matrix: (Units=1/GPa)
#
#
# Indices 1 2 3 4 5 6 
#
# 1 0.012890 -0.004413 -0.002543 0.000000 0.005537 0.000000
# 2 -0.004413 0.018232 -0.005422 0.000000 -0.006678 0.000000
# 3 -0.002543 -0.005422 0.010808 0.000000 0.001952 0.000000
# 4 0.000000 0.000000 0.000000 0.046844 0.000000 0.018608
# 5 0.005537 -0.006678 0.001952 0.000000 0.034682 0.000000
# 6 0.000000 0.000000 0.000000 0.018608 0.000000 0.075569
#
#
# Mechanical properties :
#
#
# Convention : Reuss Voigt Hill
#
# Bulk Modulus (GPa) = 58.22623 61.51321 59.86972
# Shear Modulus (GPa) = 21.78593 26.60228 24.19410
#
# Velocity S-wave (km/s) = 3.30103 3.64771 3.47869
# Velocity P-wave (km/s) = 6.60699 6.96480 6.78825
#
# Compressibility (1/GPa) = 0.01717439
#
# Stress axis : x y z
#
# Youngs Moduli (GPa) = 77.58083 54.84820 92.52242
#
# Poissons Ratio (x) = 0.24205 0.23528
# Poissons Ratio (y) = 0.34237 0.50165
# Poissons Ratio (z) = 0.19728 0.29738
#
# Static dielectric constant tensor:
#      x y z
#    x 3.482220 0.000000 -0.051120 
#    y 0.000000 3.478470 0.000000 
#    z -0.051120 0.000000 3.894540 
# 
# 
# High freq. dielectric constant tensor:
#      x y z
#    x 1.765240 0.000000 -0.004320 
#    y 0.000000 1.772640 0.000000 
#    z -0.004320 0.000000 1.798240 
# 
# From -- ./inp_files/234630.got.cif
#   From: 2010.06.25/outbox.cif.g09.slc.cpg/sg12_118_cif.got.tgz:234630.got - 2010.06.28 00:19:55.
