data_PCOD8096761
_publ_section_title
;
Structure prediction by ZEFSAII (Michael W. Deem and Ramdas Pophale) SiO2 
 PCOD8096761
Probable space group: C 2/M
;
_chemical_formula_sum "Si O2"
_cell_formula_units_Z 56
_cell_length_a 30.889373
_cell_length_b 9.449253
_cell_length_c 11.592540
_cell_angle_alpha 90.000000
_cell_angle_beta 115.643341
_cell_angle_gamma 90.000000
_cell_volume 3050.376984
_symmetry_space_group_name_H-M "C 2/M"
_symmetry_group_IT_number 12
_symmetry_cell_setting 'monoclinic'
loop_
_space_group_symop_operation_xyz
x,y,z
-x,y,-z
-x,-y,-z
x,-y,z
1/2+x,1/2+y,z
1/2-x,1/2+y,-z
1/2-x,1/2-y,-z
1/2+x,1/2-y,z
loop_
_atom_site_type_symbol
_atom_site_label
_atom_site_fract_x
_atom_site_fract_y
_atom_site_fract_z
Si Si1 0.517855 0.162469 0.330715
Si Si2 0.422378 0.338919 0.216180
Si Si3 0.548672 0.161282 0.111156
Si Si4 0.405589 0.662753 0.454795
Si Si5 0.626673 0.662874 0.073494
Si Si6 0.308766 0.664837 0.463044
Si Si7 0.281159 0.662994 0.688310
O O1 0.466269 0.232306 0.253725
O O2 0.547494 0.173130 0.247091
O O3 0.547677 0.244343 0.462617
O O4 0.510736 0.000000 0.360606
O O5 0.441454 0.500000 0.224676
O O6 0.395640 0.319881 0.307215
O O7 0.383645 0.302671 0.072184
O O8 0.593547 0.248715 0.119977
O O9 0.554833 0.000000 0.076442
O O10 0.500000 0.224777 0.000000
O O11 0.416697 0.500000 0.500246
O O12 0.359387 0.719176 0.470948
O O13 0.616506 0.500000 0.091444
O O14 0.681961 0.699618 0.166096
O O15 0.302406 0.500000 0.429645
O O16 0.306865 0.700058 0.596474
O O17 0.266159 0.744355 0.347002
O O18 0.265353 0.500000 0.671797
#
# Coordination Sequence:
#
# PCOD8096761 Si02
#       7
#     8   8   8   8   8   8   8
#     4  11  22  35  53  77 105 138 176 217 261 308
#     4  10  21  36  53  74 104 142 178 214 255 302
#     4  10  20  34  50  73 107 138 166 210 262 306
#     4  10  21  37  55  75 103 138 178 218 255 303
#     4  10  20  34  54  79 105 138 177 213 255 307
#     4   9  18  34  55  77 101 131 168 210 259 311
#     4   9  18  33  54  79 104 128 163 214 263 307
#
# _framework density 18.358387
#
# number of rings (size 3 to 8) (size 9 to 14) (size 15 to 20)
#    0.000    2.143    1.429    1.714    0.000    6.000 
#    0.000    3.571    0.000    0.000    0.000    0.000 
#    0.000    0.000    0.000    0.000    0.000    0.000 
#
# Total GULP energy -347284.108066 kJ/mol
# GULP energy per Si atom -12403.003860 kJ/mol
# Density = 1.831660 g / cm^3
# Si number density = 18.358387 Si / 1000 Ang^3
#
#
#
# Elastic Constant Matrix: (Units=GPa)
#
#
# Indices 1 2 3 4 5 6 
#
# 1 59.5477 35.6601 38.8574 0.0000 12.1896 0.0000
# 2 35.6601 70.1278 45.5849 0.0000 11.9351 0.0000
# 3 38.8574 45.5849 120.1892 0.0000 16.3977 0.0000
# 4 0.0000 0.0000 0.0000 25.9945 0.0000 7.4558
# 5 12.1896 11.9351 16.3977 0.0000 28.3374 0.0000
# 6 0.0000 0.0000 0.0000 7.4558 0.0000 25.1359
#
#
#
# Elastic Compliance Matrix: (Units=1/GPa)
#
#
# Indices 1 2 3 4 5 6 
#
# 1 0.026412 -0.009940 -0.004115 0.000000 -0.004794 0.000000
# 2 -0.009940 0.023126 -0.005224 0.000000 -0.002441 0.000000
# 3 -0.004115 -0.005224 0.012041 0.000000 -0.002997 0.000000
# 4 0.000000 0.000000 0.000000 0.042047 0.000000 -0.012472
# 5 -0.004794 -0.002441 -0.002997 0.000000 0.040114 0.000000
# 6 0.000000 0.000000 0.000000 -0.012472 0.000000 0.043483
#
#
# Mechanical properties :
#
#
# Convention : Reuss Voigt Hill
#
# Bulk Modulus (GPa) = 43.44026 54.45216 48.94621
# Shear Modulus (GPa) = 21.41742 24.54439 22.98090
#
# Velocity S-wave (km/s) = 3.41930 3.66041 3.54191
# Velocity P-wave (km/s) = 6.26917 6.89854 6.59137
#
# Compressibility (1/GPa) = 0.02302012
#
# Stress axis : x y z
#
# Youngs Moduli (GPa) = 37.86098 43.24218 83.04949
#
# Poissons Ratio (x) = 0.42983 0.34176
# Poissons Ratio (y) = 0.37634 0.43388
# Poissons Ratio (z) = 0.15580 0.22591
#
# Static dielectric constant tensor:
#      x y z
#    x 3.204180 0.000000 -0.009000 
#    y 0.000000 3.389360 0.000000 
#    z -0.009000 0.000000 3.521170 
# 
# 
# High freq. dielectric constant tensor:
#      x y z
#    x 1.694510 0.000000 0.000580 
#    y 0.000000 1.710020 0.000000 
#    z 0.000580 0.000000 1.717560 
# 
# From -- ./inp_files/180735.got.cif
#   From: 2010.06.25/outbox.cif.g09.slc.cpg/sg12_91_cif.got.tgz:180735.got - 2010.06.28 00:19:55.
