data_PCOD8096314
_publ_section_title
;
Structure prediction by ZEFSAII (Michael W. Deem and Ramdas Pophale) SiO2 
 PCOD8096314
Probable space group: C 2/M
;
_chemical_formula_sum "Si O2"
_cell_formula_units_Z 64
_cell_length_a 32.922170
_cell_length_b 8.968044
_cell_length_c 17.661918
_cell_angle_alpha 90.000000
_cell_angle_beta 138.022517
_cell_angle_gamma 90.000000
_cell_volume 3487.749725
_symmetry_space_group_name_H-M "C 2/M"
_symmetry_group_IT_number 12
_symmetry_cell_setting 'monoclinic'
loop_
_space_group_symop_operation_xyz
x,y,z
-x,y,-z
-x,-y,-z
x,-y,z
1/2+x,1/2+y,z
1/2-x,1/2+y,-z
1/2-x,1/2-y,-z
1/2+x,1/2-y,z
loop_
_atom_site_type_symbol
_atom_site_label
_atom_site_fract_x
_atom_site_fract_y
_atom_site_fract_z
Si Si1 0.504440 0.324698 0.829745
Si Si2 0.780852 0.167516 0.610614
Si Si3 0.630800 0.174216 0.626300
Si Si4 0.114460 0.323609 0.050329
Si Si5 0.913744 0.168695 0.835740
Si Si6 0.028214 0.324340 0.365522
Si Si7 0.053294 0.167426 0.634308
Si Si8 0.262881 0.676429 0.753361
O O1 0.511080 0.500000 0.825021
O O2 0.469796 0.289198 0.860088
O O3 0.466395 0.253904 0.708260
O O4 0.570333 0.247767 0.926112
O O5 0.750000 0.250000 0.500000
O O6 0.853200 0.179728 0.701361
O O7 0.760534 0.234141 0.663478
O O8 0.757254 0.000000 0.573214
O O9 0.588387 0.219128 0.496436
O O10 0.612287 0.260295 0.676985
O O11 0.699913 0.219682 0.705431
O O12 0.623678 0.000000 0.632550
O O13 0.115131 0.500000 0.042120
O O14 0.089689 0.280759 0.098989
O O15 0.181861 0.259618 0.128220
O O16 0.920664 0.000000 0.877628
O O17 0.022347 0.500000 0.346623
O O18 0.967516 0.264594 0.322799
O O19 0.000000 0.167404 0.500000
O O20 0.068895 0.000000 0.682747
O O21 0.275882 0.500000 0.773252
#
# Coordination Sequence:
#
# PCOD8096314 Si02
#       8
#     8   8   8   8   8   8   8   8
#     4  11  22  36  55  76 103 140 176 217 265 315
#     4   9  18  31  47  69 101 137 170 208 253 303
#     4   9  18  33  55  80 107 140 174 212 257 309
#     4  11  22  36  54  77 102 133 178 227 265 303
#     4   9  20  37  53  71  99 138 179 215 261 316
#     4  10  20  33  52  81 112 138 170 214 261 308
#     4   9  17  31  51  76 108 142 173 208 253 310
#     4   9  19  36  54  73 102 140 177 211 257 315
#
# _framework density 18.349941000000001
#
# number of rings (size 3 to 8) (size 9 to 14) (size 15 to 20)
#    0.000    2.375    0.000    3.375    1.750    7.000 
#    0.000    0.000    0.000    0.750    0.000    0.000 
#    0.000    0.000    0.000    0.000    0.000    0.000 
#
# Total GULP energy -396818.615180 kJ/mol
# GULP energy per Si atom -12400.581724 kJ/mol
# Density = 1.830818 g / cm^3
# Si number density = 18.349941 Si / 1000 Ang^3
#
#
#
# Elastic Constant Matrix: (Units=GPa)
#
#
# Indices 1 2 3 4 5 6 
#
# 1 97.3148 39.4301 20.9208 0.0000 21.4417 0.0000
# 2 39.4301 91.7183 28.9760 0.0000 7.3435 0.0000
# 3 20.9208 28.9760 50.0579 0.0000 13.0996 0.0000
# 4 0.0000 0.0000 0.0000 28.8805 0.0000 -3.7696
# 5 21.4417 7.3435 13.0996 0.0000 21.3556 0.0000
# 6 0.0000 0.0000 0.0000 -3.7696 0.0000 27.9935
#
#
#
# Elastic Compliance Matrix: (Units=1/GPa)
#
#
# Indices 1 2 3 4 5 6 
#
# 1 0.015568 -0.005719 0.000453 0.000000 -0.013942 0.000000
# 2 -0.005719 0.015445 -0.007937 0.000000 0.005300 0.000000
# 3 0.000453 -0.007937 0.028335 0.000000 -0.015106 0.000000
# 4 0.000000 0.000000 0.000000 0.035245 0.000000 0.004746
# 5 -0.013942 0.005300 -0.015106 0.000000 0.068267 0.000000
# 6 0.000000 0.000000 0.000000 0.004746 0.000000 0.036362
#
#
# Mechanical properties :
#
#
# Convention : Reuss Voigt Hill
#
# Bulk Modulus (GPa) = 30.35772 46.41607 38.38689
# Shear Modulus (GPa) = 21.13192 25.63020 23.38106
#
# Velocity S-wave (km/s) = 3.39722 3.74136 3.57343
# Velocity P-wave (km/s) = 5.65401 6.63427 6.16366
#
# Compressibility (1/GPa) = 0.03294055
#
# Stress axis : x y z
#
# Youngs Moduli (GPa) = 64.23511 64.74647 35.29208
#
# Poissons Ratio (x) = 0.37032 -0.01598
# Poissons Ratio (y) = 0.36739 0.28011
# Poissons Ratio (z) = -0.02908 0.51388
#
# Static dielectric constant tensor:
#      x y z
#    x 3.470500 0.000000 0.114440 
#    y 0.000000 3.360010 0.000000 
#    z 0.114440 0.000000 3.246950 
# 
# 
# High freq. dielectric constant tensor:
#      x y z
#    x 1.705340 0.000000 0.008380 
#    y 0.000000 1.711840 0.000000 
#    z 0.008380 0.000000 1.694210 
# 
# From -- ./inp_files/249973.got.cif
#   From: 2010.06.25/outbox.cif.g09.slc.cpg/sg12_125_cif.got.tgz:249973.got - 2010.06.28 00:19:55.
