data_PCOD8096910
_publ_section_title
;
Structure prediction by ZEFSAII (Michael W. Deem and Ramdas Pophale) SiO2 
 PCOD8096910
Probable space group: C 2/M
;
_chemical_formula_sum "Si O2"
_cell_formula_units_Z 48
_cell_length_a 23.283864
_cell_length_b 9.195956
_cell_length_c 12.459235
_cell_angle_alpha 90.000000
_cell_angle_beta 109.805251
_cell_angle_gamma 90.000000
_cell_volume 2509.941366
_symmetry_space_group_name_H-M "C 2/M"
_symmetry_group_IT_number 12
_symmetry_cell_setting 'monoclinic'
loop_
_space_group_symop_operation_xyz
x,y,z
-x,y,-z
-x,-y,-z
x,-y,z
1/2+x,1/2+y,z
1/2-x,1/2+y,-z
1/2-x,1/2-y,-z
1/2+x,1/2-y,z
loop_
_atom_site_type_symbol
_atom_site_label
_atom_site_fract_x
_atom_site_fract_y
_atom_site_fract_z
Si Si1 0.922527 0.326460 0.742968
Si Si2 0.244207 0.665042 0.105858
Si Si3 0.555822 0.827401 0.789572
Si Si4 0.160157 0.668510 0.699451
Si Si5 0.103452 0.335404 0.042649
Si Si6 0.813891 0.669114 0.526938
O O1 0.917505 0.500000 0.741546
O O2 0.923683 0.263742 0.865800
O O3 0.864047 0.265799 0.641206
O O4 0.985902 0.276832 0.726705
O O5 0.266087 0.500000 0.101910
O O6 0.283416 0.738904 0.223015
O O7 0.175523 0.671252 0.102232
O O8 0.250000 0.750000 0.000000
O O9 0.597904 0.774669 0.717151
O O10 0.559806 0.000000 0.798812
O O11 0.581075 0.758929 0.918133
O O12 0.171808 0.500000 0.735608
O O13 0.155871 0.693478 0.570147
O O14 0.079673 0.500000 0.022419
O O15 0.801047 0.500000 0.540223
O O16 0.750000 0.750000 0.500000
#
# Coordination Sequence:
#
# PCOD8096910 Si02
#       6
#     8   8   8   8   8   8
#     4   9  17  29  48  75 102 134 174 212 258 307
#     4  11  20  32  52  78 108 138 172 213 257 309
#     4   9  16  28  47  73 105 134 167 215 263 307
#     4  10  20  34  51  76 108 137 170 215 266 310
#     4   9  16  27  46  73 104 133 165 211 259 303
#     4  10  21  36  54  76 104 137 175 218 260 311
#
# _framework density 19.123953
#
# number of rings (size 3 to 8) (size 9 to 14) (size 15 to 20)
#    0.000    2.333    1.667    2.000    0.000    4.667 
#    0.000    3.333    0.000    1.000    0.000    3.500 
#    0.000    0.000    0.000    0.000    0.000    0.000 
#
# Total GULP energy -297481.020813 kJ/mol
# GULP energy per Si atom -12395.042534 kJ/mol
# Density = 1.908043 g / cm^3
# Si number density = 19.123953 Si / 1000 Ang^3
#
#
#
# Elastic Constant Matrix: (Units=GPa)
#
#
# Indices 1 2 3 4 5 6 
#
# 1 137.3581 21.2580 68.0127 0.0000 1.7520 0.0000
# 2 21.2580 37.3069 22.2688 0.0000 -0.9908 0.0000
# 3 68.0127 22.2688 111.1338 0.0000 -0.0882 0.0000
# 4 0.0000 0.0000 0.0000 19.6233 0.0000 2.8165
# 5 1.7520 -0.9908 -0.0882 0.0000 34.9773 0.0000
# 6 0.0000 0.0000 0.0000 2.8165 0.0000 19.7876
#
#
#
# Elastic Compliance Matrix: (Units=1/GPa)
#
#
# Indices 1 2 3 4 5 6 
#
# 1 0.010656 -0.002494 -0.006022 0.000000 -0.000620 0.000000
# 2 -0.002494 0.031055 -0.004696 0.000000 0.000993 0.000000
# 3 -0.006022 -0.004696 0.013625 0.000000 0.000203 0.000000
# 4 0.000000 0.000000 0.000000 0.052023 0.000000 -0.007405
# 5 -0.000620 0.000993 0.000203 0.000000 0.028650 0.000000
# 6 0.000000 0.000000 0.000000 -0.007405 0.000000 0.051591
#
#
# Mechanical properties :
#
#
# Convention : Reuss Voigt Hill
#
# Bulk Modulus (GPa) = 34.58731 56.54200 45.56465
# Shear Modulus (GPa) = 22.35542 26.49492 24.42517
#
# Velocity S-wave (km/s) = 3.42274 3.72618 3.57767
# Velocity P-wave (km/s) = 5.80907 6.93850 6.39875
#
# Compressibility (1/GPa) = 0.02891234
#
# Stress axis : x y z
#
# Youngs Moduli (GPa) = 93.84449 32.20091 73.39584
#
# Poissons Ratio (x) = 0.08030 0.44200
# Poissons Ratio (y) = 0.23402 0.34466
# Poissons Ratio (z) = 0.56514 0.15121
#
# Static dielectric constant tensor:
#      x y z
#    x 4.344940 0.000000 0.292630 
#    y 0.000000 2.597500 0.000000 
#    z 0.292630 0.000000 3.886770 
# 
# 
# High freq. dielectric constant tensor:
#      x y z
#    x 1.759840 0.000000 -0.004680 
#    y 0.000000 1.676760 0.000000 
#    z -0.004680 0.000000 1.752560 
# 
# From -- ./inp_files/165196.got.cif
#   From: 2010.06.25/outbox.cif.g09.slc.cpg/sg12_83_cif.got.tgz:165196.got - 2010.06.28 00:19:55.
