data_PCOD8096305
_publ_section_title
;
Structure prediction by ZEFSAII (Michael W. Deem and Ramdas Pophale) SiO2 
 PCOD8096305
Probable space group: C 2/M
;
_chemical_formula_sum "Si O2"
_cell_formula_units_Z 64
_cell_length_a 19.339333
_cell_length_b 9.099090
_cell_length_c 19.193275
_cell_angle_alpha 90.000000
_cell_angle_beta 93.610666
_cell_angle_gamma 90.000000
_cell_volume 3370.742807
_symmetry_space_group_name_H-M "C 2/M"
_symmetry_group_IT_number 12
_symmetry_cell_setting 'monoclinic'
loop_
_space_group_symop_operation_xyz
x,y,z
-x,y,-z
-x,-y,-z
x,-y,z
1/2+x,1/2+y,z
1/2-x,1/2+y,-z
1/2-x,1/2-y,-z
1/2+x,1/2-y,z
loop_
_atom_site_type_symbol
_atom_site_label
_atom_site_fract_x
_atom_site_fract_y
_atom_site_fract_z
Si Si1 0.940081 0.328258 0.442031
Si Si2 0.322420 0.672071 0.513172
Si Si3 0.152959 0.334894 0.950784
Si Si4 0.013545 0.831037 0.690814
Si Si5 0.878049 0.169648 0.184294
Si Si6 0.855933 0.832128 0.672636
Si Si7 0.774767 0.672337 0.781533
Si Si8 0.312162 0.665541 0.917577
O O1 0.922281 0.500000 0.440415
O O2 0.872307 0.237817 0.457892
O O3 0.963368 0.279315 0.367483
O O4 0.000000 0.289373 0.500000
O O5 0.313846 0.500000 0.499051
O O6 0.250000 0.750000 0.500000
O O7 0.353586 0.706391 0.590972
O O8 0.125710 0.500000 0.959789
O O9 0.110281 0.261239 0.885393
O O10 0.233410 0.333586 0.937252
O O11 0.140666 0.245636 0.021459
O O12 0.058129 0.793979 0.761665
O O13 0.933552 0.802945 0.704704
O O14 0.024839 0.000000 0.667336
O O15 0.806368 0.213296 0.218080
O O16 0.875498 0.000000 0.162424
O O17 0.802067 0.728355 0.709096
O O18 0.833379 0.000000 0.684282
O O19 0.787111 0.500000 0.788496
O O20 0.819034 0.749851 0.845082
O O21 0.339679 0.500000 0.909412
#
# Coordination Sequence:
#
# PCOD8096305 Si02
#       8
#     8   8   8   8   8   8   8   8
#     4  11  23  39  60  86 113 144 186 233 279 333
#     4  11  24  41  61  85 114 147 186 232 283 335
#     4   9  16  27  47  76 109 141 175 220 270 318
#     4  10  21  39  60  80 107 148 190 227 273 330
#     4   9  19  34  53  80 108 140 181 224 270 324
#     4  10  22  39  57  78 108 146 185 224 273 333
#     4  10  20  33  52  80 112 142 179 226 275 326
#     4   9  16  28  48  74 106 144 181 219 265 320
#
# _framework density 18.986913000000001
#
# number of rings (size 3 to 8) (size 9 to 14) (size 15 to 20)
#    0.000    2.125    1.250    1.875    1.750    6.000 
#    0.000    0.000    0.000    0.750    0.000    5.250 
#    0.000    0.000    0.000    0.000    0.000    0.000 
#
# Total GULP energy -396917.796737 kJ/mol
# GULP energy per Si atom -12403.681148 kJ/mol
# Density = 1.894370 g / cm^3
# Si number density = 18.986913 Si / 1000 Ang^3
#
#
#
# Elastic Constant Matrix: (Units=GPa)
#
#
# Indices 1 2 3 4 5 6 
#
# 1 71.7241 32.1736 19.4437 0.0000 17.1793 0.0000
# 2 32.1736 98.4558 33.0177 0.0000 11.5855 0.0000
# 3 19.4437 33.0177 57.2532 0.0000 20.9045 0.0000
# 4 0.0000 0.0000 0.0000 40.0974 0.0000 -2.0244
# 5 17.1793 11.5855 20.9045 0.0000 27.9559 0.0000
# 6 0.0000 0.0000 0.0000 -2.0244 0.0000 23.0926
#
#
#
# Elastic Compliance Matrix: (Units=1/GPa)
#
#
# Indices 1 2 3 4 5 6 
#
# 1 0.018361 -0.004901 -0.000043 0.000000 -0.009220 0.000000
# 2 -0.004901 0.013902 -0.007358 0.000000 0.002752 0.000000
# 3 -0.000043 -0.007358 0.028338 0.000000 -0.018115 0.000000
# 4 0.000000 0.000000 0.000000 0.025050 0.000000 0.002196
# 5 -0.009220 0.002752 -0.018115 0.000000 0.053841 0.000000
# 6 0.000000 0.000000 0.000000 0.002196 0.000000 0.043496
#
#
# Mechanical properties :
#
#
# Convention : Reuss Voigt Hill
#
# Bulk Modulus (GPa) = 27.77920 44.07813 35.92866
# Shear Modulus (GPa) = 22.76966 27.74904 25.25935
#
# Velocity S-wave (km/s) = 3.46675 3.82708 3.65136
# Velocity P-wave (km/s) = 5.53958 6.54172 6.06140
#
# Compressibility (1/GPa) = 0.03599816
#
# Stress axis : x y z
#
# Youngs Moduli (GPa) = 54.46460 71.93275 35.28813
#
# Poissons Ratio (x) = 0.35251 0.00151
# Poissons Ratio (y) = 0.26691 0.25964
# Poissons Ratio (z) = 0.00233 0.52926
#
# Static dielectric constant tensor:
#      x y z
#    x 3.332350 0.000000 0.089050 
#    y 0.000000 3.573560 0.000000 
#    z 0.089050 0.000000 3.579800 
# 
# 
# High freq. dielectric constant tensor:
#      x y z
#    x 1.710890 0.000000 0.010410 
#    y 0.000000 1.746780 0.000000 
#    z 0.010410 0.000000 1.741760 
# 
# From -- ./inp_files/281222.got.cif
#   From: 2010.06.25/outbox.cif.g09.slc.cpg/sg12_141_cif.got.tgz:281222.got - 2010.06.28 00:19:55.
