data_PCOD8096424
_publ_section_title
;
Structure prediction by ZEFSAII (Michael W. Deem and Ramdas Pophale) SiO2 
 PCOD8096424
Probable space group: C 2/M
;
_chemical_formula_sum "Si O2"
_cell_formula_units_Z 64
_cell_length_a 15.415640
_cell_length_b 9.056336
_cell_length_c 30.492855
_cell_angle_alpha 90.000000
_cell_angle_beta 50.649457
_cell_angle_gamma 90.000000
_cell_volume 3291.922589
_symmetry_space_group_name_H-M "C 2/M"
_symmetry_group_IT_number 12
_symmetry_cell_setting 'monoclinic'
loop_
_space_group_symop_operation_xyz
x,y,z
-x,y,-z
-x,-y,-z
x,-y,z
1/2+x,1/2+y,z
1/2-x,1/2+y,-z
1/2-x,1/2-y,-z
1/2+x,1/2-y,z
loop_
_atom_site_type_symbol
_atom_site_label
_atom_site_fract_x
_atom_site_fract_y
_atom_site_fract_z
Si Si1 0.102713 0.173021 0.938583
Si Si2 0.500444 0.324874 0.570825
Si Si3 0.824124 0.825592 0.556886
Si Si4 0.290817 0.169355 0.944028
Si Si5 0.001404 0.669032 0.822408
Si Si6 0.316714 0.169381 0.169252
Si Si7 0.429855 0.823786 0.364294
Si Si8 0.938559 0.174708 0.755224
O O1 0.217031 0.217325 0.926112
O O2 0.106308 0.244061 0.889715
O O3 0.087339 0.000000 0.936787
O O4 0.000000 0.237616 0.000000
O O5 0.503080 0.500000 0.578678
O O6 0.386701 0.277018 0.581736
O O7 0.606420 0.271383 0.507765
O O8 0.503309 0.239232 0.615597
O O9 0.698177 0.763173 0.594786
O O10 0.822761 0.000000 0.556455
O O11 0.418304 0.204644 0.889726
O O12 0.271297 0.000000 0.961177
O O13 0.250000 0.250000 0.000000
O O14 0.982108 0.500000 0.812379
O O15 0.980598 0.782452 0.790005
O O16 0.127432 0.689991 0.800600
O O17 0.189339 0.227674 0.211275
O O18 0.317571 0.000000 0.154351
O O19 0.485818 0.763406 0.302750
O O20 0.434557 0.000000 0.363300
O O21 0.952132 0.000000 0.743837
#
# Coordination Sequence:
#
# PCOD8096424 Si02
#       8
#     8   8   8   8   8   8   8   8
#     4  10  20  34  54  83 116 144 175 220 276 335
#     4   9  17  35  60  85 115 152 192 234 276 331
#     4   8  17  34  58  85 116 154 191 228 281 337
#     4  10  20  33  53  81 112 143 175 217 271 332
#     4  10  21  40  61  81 107 143 184 231 283 333
#     4  10  22  39  60  82 107 142 186 231 279 333
#     4  11  22  36  56  84 116 151 190 234 285 336
#     4  11  24  41  58  81 110 148 194 239 282 334
#
# _framework density 19.441528000000002
#
# number of rings (size 3 to 8) (size 9 to 14) (size 15 to 20)
#    0.000    2.125    1.250    2.625    0.000    3.250 
#    0.000    8.125    0.000    0.000    0.000    0.000 
#    0.000    0.000    0.000    0.000    0.000    0.000 
#
# Total GULP energy -396805.121761 kJ/mol
# GULP energy per Si atom -12400.160055 kJ/mol
# Density = 1.939728 g / cm^3
# Si number density = 19.441528 Si / 1000 Ang^3
#
#
#
# Elastic Constant Matrix: (Units=GPa)
#
#
# Indices 1 2 3 4 5 6 
#
# 1 101.0506 31.6537 35.2718 -0.0001 5.5234 -0.0003
# 2 31.6537 51.0499 27.5656 -0.0001 5.9125 -0.0001
# 3 35.2718 27.5656 75.9284 0.0000 5.6429 -0.0001
# 4 -0.0001 -0.0001 0.0000 32.9947 0.0000 4.8244
# 5 5.5234 5.9125 5.6429 0.0000 27.3642 -0.0001
# 6 -0.0003 -0.0001 -0.0001 4.8244 -0.0001 28.4221
#
#
#
# Elastic Compliance Matrix: (Units=1/GPa)
#
#
# Indices 1 2 3 4 5 6 
#
# 1 0.013165 -0.005993 -0.003898 0.000000 -0.000558 0.000000
# 2 -0.005993 0.027427 -0.006929 0.000000 -0.003287 0.000000
# 3 -0.003898 -0.006929 0.017597 0.000000 -0.001345 0.000000
# 4 0.000000 0.000000 0.000000 0.031079 0.000000 -0.005275
# 5 -0.000558 -0.003287 -0.001345 0.000000 0.037644 0.000000
# 6 0.000000 0.000000 0.000000 -0.005275 0.000000 0.036079
#
#
# Mechanical properties :
#
#
# Convention : Reuss Voigt Hill
#
# Bulk Modulus (GPa) = 40.73706 46.33456 43.53581
# Shear Modulus (GPa) = 24.41239 26.65873 25.53556
#
# Velocity S-wave (km/s) = 3.54741 3.70702 3.62809
# Velocity P-wave (km/s) = 6.14637 6.49671 6.32397
#
# Compressibility (1/GPa) = 0.02454767
#
# Stress axis : x y z
#
# Youngs Moduli (GPa) = 75.96166 36.46056 56.82905
#
# Poissons Ratio (x) = 0.21851 0.22153
# Poissons Ratio (y) = 0.45525 0.39376
# Poissons Ratio (z) = 0.29611 0.25263
#
# Static dielectric constant tensor:
#      x y z
#    x 3.812680 0.000000 -0.227310 
#    y 0.000000 3.313980 0.000000 
#    z -0.227310 0.000000 3.540680 
# 
# 
# High freq. dielectric constant tensor:
#      x y z
#    x 1.770840 0.000000 -0.003090 
#    y 0.000000 1.737460 0.000000 
#    z -0.003090 0.000000 1.753970 
# 
# From -- ./inp_files/375383.got.cif
#   From: 2010.06.25/outbox.cif.g09.slc.cpg/sg12_188_cif.got.tgz:375383.got - 2010.06.28 00:19:55.
