data_PCOD8096489
_publ_section_title
;
Structure prediction by ZEFSAII (Michael W. Deem and Ramdas Pophale) SiO2 
 PCOD8096489
Probable space group: C 2/M
;
_chemical_formula_sum "Si O2"
_cell_formula_units_Z 56
_cell_length_a 9.256738
_cell_length_b 27.995571
_cell_length_c 14.687253
_cell_angle_alpha 90.000000
_cell_angle_beta 51.597323
_cell_angle_gamma 90.000000
_cell_volume 2982.757973
_symmetry_space_group_name_H-M "C 2/M"
_symmetry_group_IT_number 12
_symmetry_cell_setting 'monoclinic'
loop_
_space_group_symop_operation_xyz
x,y,z
-x,y,-z
-x,-y,-z
x,-y,z
1/2+x,1/2+y,z
1/2-x,1/2+y,-z
1/2-x,1/2-y,-z
1/2+x,1/2-y,z
loop_
_atom_site_type_symbol
_atom_site_label
_atom_site_fract_x
_atom_site_fract_y
_atom_site_fract_z
Si Si1 0.027093 0.556212 0.748620
Si Si2 0.153966 0.099065 0.863544
Si Si3 0.833207 0.604895 0.135675
Si Si4 0.477586 0.553990 0.251778
Si Si5 0.451824 0.299043 0.124550
Si Si6 0.660773 0.943631 0.499629
Si Si7 0.799692 0.290339 0.123551
O O1 0.979360 0.500000 0.770125
O O2 0.156112 0.570295 0.781921
O O3 0.134520 0.570737 0.614674
O O4 0.850793 0.590261 0.833250
O O5 0.147251 0.057418 0.789998
O O6 0.142798 0.150232 0.814966
O O7 0.000000 0.092411 0.000000
O O8 0.648700 0.587510 0.158732
O O9 0.799517 0.659859 0.178450
O O10 0.000000 0.599155 0.000000
O O11 0.542822 0.500000 0.242340
O O12 0.360632 0.573467 0.384446
O O13 0.633083 0.288582 0.115330
O O14 0.300779 0.255502 0.192061
O O15 0.500000 0.304873 0.000000
O O16 0.500000 0.920552 0.500000
O O17 0.654553 0.000000 0.488706
O O18 0.000000 0.286335 0.000000
#
# Coordination Sequence:
#
# PCOD8096489 Si02
#       7
#     8   8   8   8   8   8   8
#     4  11  23  37  56  81 112 153 194 232 275 326
#     4  11  22  33  53  84 115 147 189 224 275 348
#     4  11  24  37  53  83 122 151 183 224 283 347
#     4  11  21  37  57  78 113 153 187 234 276 323
#     4  10  20  33  54  80 108 146 188 228 277 331
#     4   9  18  36  58  79 103 140 199 249 272 307
#     4  10  20  34  54  78 110 147 184 230 277 329
#
# _framework density 18.774570000000001
#
# number of rings (size 3 to 8) (size 9 to 14) (size 15 to 20)
#    0.000    1.571    2.857    3.429    8.000    4.000 
#    0.000    2.143    0.000    0.000    0.000    6.000 
#    0.000    0.000    0.000    0.000    0.000    0.000 
#
# Total GULP energy -346944.533651 kJ/mol
# GULP energy per Si atom -12390.876202 kJ/mol
# Density = 1.873184 g / cm^3
# Si number density = 18.774570 Si / 1000 Ang^3
#
#
#
# Elastic Constant Matrix: (Units=GPa)
#
#
# Indices 1 2 3 4 5 6 
#
# 1 85.6713 34.5569 19.3025 0.0000 3.1504 0.0000
# 2 34.5569 102.3814 37.1365 0.0000 -5.0114 0.0000
# 3 19.3025 37.1365 87.7259 0.0000 4.5140 0.0000
# 4 0.0000 0.0000 0.0000 4.2237 0.0000 1.5563
# 5 3.1504 -5.0114 4.5140 0.0000 26.4153 0.0000
# 6 0.0000 0.0000 0.0000 1.5563 0.0000 33.4486
#
#
#
# Elastic Compliance Matrix: (Units=1/GPa)
#
#
# Indices 1 2 3 4 5 6 
#
# 1 0.013759 -0.004372 -0.001059 0.000000 -0.002289 0.000000
# 2 -0.004372 0.013177 -0.004814 0.000000 0.003844 0.000000
# 3 -0.001059 -0.004814 0.013832 0.000000 -0.003151 0.000000
# 4 0.000000 0.000000 0.000000 0.240887 0.000000 -0.011208
# 5 -0.002289 0.003844 -0.003151 0.000000 0.039398 0.000000
# 6 0.000000 0.000000 0.000000 -0.011208 0.000000 0.030418
#
#
# Mechanical properties :
#
#
# Convention : Reuss Voigt Hill
#
# Bulk Modulus (GPa) = 49.31328 50.86336 50.08832
# Shear Modulus (GPa) = 13.20234 25.13638 19.16936
#
# Velocity S-wave (km/s) = 2.65467 3.66300 3.19882
# Velocity P-wave (km/s) = 5.97657 6.71123 6.35452
#
# Compressibility (1/GPa) = 0.02027851
#
# Stress axis : x y z
#
# Youngs Moduli (GPa) = 72.68077 75.88698 72.29512
#
# Poissons Ratio (x) = 0.33178 0.07654
# Poissons Ratio (y) = 0.31776 0.34804
# Poissons Ratio (z) = 0.07695 0.36533
#
# Static dielectric constant tensor:
#      x y z
#    x 3.459020 0.000000 -0.068400 
#    y 0.000000 4.079640 0.000000 
#    z -0.068400 0.000000 3.189310 
# 
# 
# High freq. dielectric constant tensor:
#      x y z
#    x 1.742680 0.000000 -0.004060 
#    y 0.000000 1.728360 0.000000 
#    z -0.004060 0.000000 1.690120 
# 
# From -- ./inp_files/185116.got.cif
#   From: 2010.06.25/outbox.cif.g09.slc.cpg/sg12_93_cif.got.tgz:185116.got - 2010.06.28 00:19:55.
