data_PCOD8096106
_publ_section_title
;
Structure prediction by ZEFSAII (Michael W. Deem and Ramdas Pophale) SiO2 
 PCOD8096106
Probable space group: C 2/M
;
_chemical_formula_sum "Si O2"
_cell_formula_units_Z 64
_cell_length_a 15.300908
_cell_length_b 9.200580
_cell_length_c 33.054044
_cell_angle_alpha 90.000000
_cell_angle_beta 46.547228
_cell_angle_gamma 90.000000
_cell_volume 3377.992256
_symmetry_space_group_name_H-M "C 2/M"
_symmetry_group_IT_number 12
_symmetry_cell_setting 'monoclinic'
loop_
_space_group_symop_operation_xyz
x,y,z
-x,y,-z
-x,-y,-z
x,-y,z
1/2+x,1/2+y,z
1/2-x,1/2+y,-z
1/2-x,1/2-y,-z
1/2+x,1/2-y,z
loop_
_atom_site_type_symbol
_atom_site_label
_atom_site_fract_x
_atom_site_fract_y
_atom_site_fract_z
Si Si1 0.809791 0.335519 0.944652
Si Si2 0.613582 0.665467 0.940211
Si Si3 0.542497 0.832449 0.825962
Si Si4 0.006425 0.828905 0.239616
Si Si5 0.558623 0.171211 0.440854
Si Si6 0.828497 0.171761 0.367832
Si Si7 0.358579 0.173785 0.442160
Si Si8 0.775752 0.666891 0.165644
O O1 0.819622 0.500000 0.956812
O O2 0.731448 0.321004 0.929519
O O3 0.940639 0.274962 0.889899
O O4 0.750000 0.250000 0.000000
O O5 0.583465 0.500000 0.938125
O O6 0.633871 0.751084 0.892697
O O7 0.500000 0.734180 0.000000
O O8 0.545309 0.742213 0.784196
O O9 0.672839 0.814065 0.805380
O O10 0.514345 0.000000 0.824363
O O11 0.140505 0.770350 0.206757
O O12 0.922151 0.784334 0.303506
O O13 0.005813 0.000000 0.233131
O O14 0.500000 0.240985 0.500000
O O15 0.697092 0.222118 0.393822
O O16 0.482574 0.217577 0.425580
O O17 0.554267 0.000000 0.446552
O O18 0.866793 0.262874 0.394712
O O19 0.831405 0.000000 0.377069
O O20 0.250000 0.250000 0.500000
O O21 0.339183 0.000000 0.447638
O O22 0.776075 0.500000 0.152190
#
# Coordination Sequence:
#
# PCOD8096106 Si02
#       8
#     8   8   8   8   8   8   8   8
#     4  10  20  33  51  78 108 141 178 224 278 331
#     4  10  20  34  53  80 111 142 183 233 280 331
#     4  10  21  38  58  79 110 148 185 228 280 335
#     4  10  22  39  59  83 112 149 191 233 277 329
#     4   9  17  33  57  81 111 153 187 220 276 336
#     4  10  21  39  59  82 115 151 190 234 276 327
#     4  11  21  35  58  87 116 150 190 230 280 334
#     4  10  21  37  57  82 111 146 185 228 285 339
#
# _framework density 18.946165000000001
#
# number of rings (size 3 to 8) (size 9 to 14) (size 15 to 20)
#    0.000    2.000    2.500    1.125    0.000    3.250 
#    0.000    1.875    0.000    0.000    0.000    0.000 
#    0.000    0.000    0.000    0.000    0.000    0.000 
#
# Total GULP energy -396803.998895 kJ/mol
# GULP energy per Si atom -12400.124965 kJ/mol
# Density = 1.890304 g / cm^3
# Si number density = 18.946165 Si / 1000 Ang^3
#
#
#
# Elastic Constant Matrix: (Units=GPa)
#
#
# Indices 1 2 3 4 5 6 
#
# 1 134.4750 38.3978 69.3603 0.0001 1.5588 0.0003
# 2 38.3978 51.6339 50.3822 0.0000 9.7569 0.0007
# 3 69.3603 50.3822 148.4545 0.0000 5.2730 0.0002
# 4 0.0001 0.0000 0.0000 27.5313 -0.0001 10.2528
# 5 1.5588 9.7569 5.2730 -0.0001 32.1117 0.0000
# 6 0.0003 0.0007 0.0002 10.2528 0.0000 23.6474
#
#
#
# Elastic Compliance Matrix: (Units=1/GPa)
#
#
# Indices 1 2 3 4 5 6 
#
# 1 0.010521 -0.004876 -0.003314 0.000000 0.001515 0.000000
# 2 -0.004876 0.032985 -0.008619 0.000000 -0.008370 -0.000001
# 3 -0.003314 -0.008619 0.011176 0.000000 0.000944 0.000000
# 4 0.000000 0.000000 0.000000 0.043316 0.000000 -0.018781
# 5 0.001515 -0.008370 0.000944 0.000000 0.033456 0.000000
# 6 0.000000 -0.000001 0.000000 -0.018781 0.000000 0.050431
#
#
# Mechanical properties :
#
#
# Convention : Reuss Voigt Hill
#
# Bulk Modulus (GPa) = 47.47661 72.31599 59.89630
# Shear Modulus (GPa) = 22.46953 28.41962 25.44457
#
# Velocity S-wave (km/s) = 3.44752 3.87721 3.66866
# Velocity P-wave (km/s) = 6.40002 7.63516 7.04472
#
# Compressibility (1/GPa) = 0.02106300
#
# Stress axis : x y z
#
# Youngs Moduli (GPa) = 95.05213 30.31710 89.47632
#
# Poissons Ratio (x) = 0.14782 0.29656
# Poissons Ratio (y) = 0.46346 0.77119
# Poissons Ratio (z) = 0.31504 0.26130
#
# Static dielectric constant tensor:
#      x y z
#    x 3.714200 0.000000 -0.130130 
#    y 0.000000 3.305210 0.000000 
#    z -0.130130 0.000000 3.487560 
# 
# 
# High freq. dielectric constant tensor:
#      x y z
#    x 1.751660 0.000000 -0.004930 
#    y 0.000000 1.715120 0.000000 
#    z -0.004930 0.000000 1.734250 
# 
# From -- ./inp_files/375426.got.cif
#   From: 2010.06.25/outbox.cif.g09.slc.cpg/sg12_188_cif.got.tgz:375426.got - 2010.06.28 00:19:55.
