data_PCOD8096620
_publ_section_title
;
Structure prediction by ZEFSAII (Michael W. Deem and Ramdas Pophale) SiO2 
 PCOD8096620
Probable space group: C 2/M
;
_chemical_formula_sum "Si O2"
_cell_formula_units_Z 56
_cell_length_a 19.531538
_cell_length_b 8.994689
_cell_length_c 24.515078
_cell_angle_alpha 90.000000
_cell_angle_beta 136.824760
_cell_angle_gamma 90.000000
_cell_volume 2946.858413
_symmetry_space_group_name_H-M "C 2/M"
_symmetry_group_IT_number 12
_symmetry_cell_setting 'monoclinic'
loop_
_space_group_symop_operation_xyz
x,y,z
-x,y,-z
-x,-y,-z
x,-y,z
1/2+x,1/2+y,z
1/2-x,1/2+y,-z
1/2-x,1/2-y,-z
1/2+x,1/2-y,z
loop_
_atom_site_type_symbol
_atom_site_label
_atom_site_fract_x
_atom_site_fract_y
_atom_site_fract_z
Si Si1 0.468265 0.823696 0.351205
Si Si2 0.953283 0.674150 0.027123
Si Si3 0.600519 0.837211 0.524388
Si Si4 0.968314 0.176483 0.235703
Si Si5 0.237720 0.827325 0.935757
Si Si6 0.926275 0.672792 0.799555
Si Si7 0.804395 0.828842 0.327951
O O1 0.566344 0.782594 0.444513
O O2 0.489316 0.749250 0.305860
O O3 0.366601 0.762728 0.319483
O O4 0.456215 0.000000 0.338329
O O5 0.976992 0.500000 0.040895
O O6 0.004284 0.738471 0.111566
O O7 0.835361 0.708055 0.956451
O O8 0.000000 0.748414 0.000000
O O9 0.500000 0.852362 0.500000
O O10 0.674319 0.722744 0.597315
O O11 0.652502 0.000000 0.551414
O O12 0.859012 0.231514 0.152445
O O13 0.051479 0.233312 0.241736
O O14 0.974402 0.000000 0.244713
O O15 0.226932 0.000000 0.941759
O O16 0.250000 0.750000 0.000000
O O17 0.949383 0.500000 0.800862
O O18 0.812179 0.695505 0.751725
O O19 0.835526 0.000000 0.340658
#
# Coordination Sequence:
#
# PCOD8096620 Si02
#       7
#     8   8   8   8   8   8   8
#     4  10  21  37  58  82 110 147 186 223 273 335
#     4   9  18  33  56  79 104 142 181 219 265 320
#     4   8  16  33  55  79 108 144 183 221 270 332
#     4  11  23  36  55  83 113 143 186 237 274 317
#     4  10  20  35  57  80 106 142 183 223 268 325
#     4  10  21  37  56  79 112 151 185 219 273 338
#     4  10  20  33  56  87 114 142 182 230 275 324
#
# _framework density 19.003288999999999
#
# number of rings (size 3 to 8) (size 9 to 14) (size 15 to 20)
#    0.000    2.286    1.429    2.143    2.000    4.857 
#    0.000    0.714    0.000    0.857    0.000    0.000 
#    0.000    0.000    0.000    0.000    0.000    0.000 
#
# Total GULP energy -347168.188059 kJ/mol
# GULP energy per Si atom -12398.863859 kJ/mol
# Density = 1.896004 g / cm^3
# Si number density = 19.003289 Si / 1000 Ang^3
#
#
#
# Elastic Constant Matrix: (Units=GPa)
#
#
# Indices 1 2 3 4 5 6 
#
# 1 82.5433 28.4174 20.2316 0.0000 -22.5810 0.0000
# 2 28.4174 63.6976 23.8518 0.0000 -7.9673 0.0000
# 3 20.2316 23.8518 68.1085 0.0000 -21.6268 0.0000
# 4 0.0000 0.0000 0.0000 25.6658 0.0000 -2.4060
# 5 -22.5810 -7.9673 -21.6268 0.0000 36.3068 0.0000
# 6 0.0000 0.0000 0.0000 -2.4060 0.0000 25.1187
#
#
#
# Elastic Compliance Matrix: (Units=1/GPa)
#
#
# Indices 1 2 3 4 5 6 
#
# 1 0.016776 -0.006401 0.000155 0.000000 0.009121 0.000000
# 2 -0.006401 0.020513 -0.006311 0.000000 -0.003239 0.000000
# 3 0.000155 -0.006311 0.020272 0.000000 0.010787 0.000000
# 4 0.000000 0.000000 0.000000 0.039315 0.000000 0.003766
# 5 0.009121 -0.003239 0.010787 0.000000 0.038930 0.000000
# 6 0.000000 0.000000 0.000000 0.003766 0.000000 0.040172
#
#
# Mechanical properties :
#
#
# Convention : Reuss Voigt Hill
#
# Bulk Modulus (GPa) = 30.82035 39.92790 35.37412
# Shear Modulus (GPa) = 23.59517 26.87483 25.23500
#
# Velocity S-wave (km/s) = 3.52751 3.76469 3.64803
# Velocity P-wave (km/s) = 5.73103 6.32091 6.03318
#
# Compressibility (1/GPa) = 0.03244610
#
# Stress axis : x y z
#
# Youngs Moduli (GPa) = 59.60901 48.74972 49.33009
#
# Poissons Ratio (x) = 0.31206 -0.00764
# Poissons Ratio (y) = 0.38158 0.31131
# Poissons Ratio (z) = -0.00923 0.30764
#
# Static dielectric constant tensor:
#      x y z
#    x 3.152890 0.000000 -0.045930 
#    y 0.000000 3.395770 0.000000 
#    z -0.045930 0.000000 3.884350 
# 
# 
# High freq. dielectric constant tensor:
#      x y z
#    x 1.726680 0.000000 -0.005880 
#    y 0.000000 1.725450 0.000000 
#    z -0.005880 0.000000 1.747160 
# 
# From -- ./inp_files/342612.got.cif
#   From: 2010.06.25/outbox.cif.g09.slc.cpg/sg12_172_cif.got.tgz:342612.got - 2010.06.28 00:19:55.
