data_PCOD8096024
_publ_section_title
;
Structure prediction by ZEFSAII (Michael W. Deem and Ramdas Pophale) SiO2 
 PCOD8096024
Probable space group: C 2/M
;
_chemical_formula_sum "Si O2"
_cell_formula_units_Z 56
_cell_length_a 14.208079
_cell_length_b 9.252723
_cell_length_c 32.072727
_cell_angle_alpha 90.000000
_cell_angle_beta 132.826840
_cell_angle_gamma 90.000000
_cell_volume 3092.349187
_symmetry_space_group_name_H-M "C 2/M"
_symmetry_group_IT_number 12
_symmetry_cell_setting 'monoclinic'
loop_
_space_group_symop_operation_xyz
x,y,z
-x,y,-z
-x,-y,-z
x,-y,z
1/2+x,1/2+y,z
1/2-x,1/2+y,-z
1/2-x,1/2-y,-z
1/2+x,1/2-y,z
loop_
_atom_site_type_symbol
_atom_site_label
_atom_site_fract_x
_atom_site_fract_y
_atom_site_fract_z
Si Si1 0.806508 0.169273 0.637580
Si Si2 0.198104 0.331547 0.140079
Si Si3 0.178381 0.330629 0.441705
Si Si4 0.381376 0.167067 0.345777
Si Si5 0.708719 0.165993 0.048064
Si Si6 0.552402 0.332187 0.937539
Si Si7 0.900184 0.832776 0.269161
O O1 0.772640 0.262078 0.586695
O O2 0.711135 0.221583 0.645199
O O3 0.951542 0.203612 0.695645
O O4 0.787419 0.000000 0.621547
O O5 0.166328 0.500000 0.135558
O O6 0.230304 0.290683 0.102295
O O7 0.319784 0.285661 0.204469
O O8 0.076222 0.240541 0.118542
O O9 0.211778 0.500000 0.452127
O O10 0.250000 0.250000 0.500000
O O11 0.027542 0.302740 0.402880
O O12 0.346150 0.249542 0.292932
O O13 0.356592 0.000000 0.329262
O O14 0.841926 0.198589 0.065540
O O15 0.667101 0.000000 0.030355
O O16 0.594667 0.260553 0.993994
O O17 0.528896 0.500000 0.938416
O O18 0.882193 0.000000 0.273875
#
# Coordination Sequence:
#
# PCOD8096024 Si02
#       7
#     8   8   8   8   8   8   8
#     4   9  18  35  56  75  99 135 172 206 247 295
#     4  10  20  34  51  72  99 132 165 199 247 303
#     4  10  20  34  52  78 109 137 168 208 250 294
#     4   9  19  35  55  76 101 134 169 207 252 295
#     4   9  19  35  52  70  98 133 164 199 249 306
#     4  10  20  33  51  75  99 126 164 208 250 296
#     4   9  19  34  52  74  99 128 167 209 246 293
#
# _framework density 18.109210000000001
#
# number of rings (size 3 to 8) (size 9 to 14) (size 15 to 20)
#    0.000    2.571    0.000    1.286    0.000    6.286 
#    0.000    5.714    0.000    0.000    0.000    0.000 
#    0.000    0.000    0.000    0.000    0.000    0.000 
#
# Total GULP energy -347286.610636 kJ/mol
# GULP energy per Si atom -12403.093237 kJ/mol
# Density = 1.806799 g / cm^3
# Si number density = 18.109210 Si / 1000 Ang^3
#
#
#
# Elastic Constant Matrix: (Units=GPa)
#
#
# Indices 1 2 3 4 5 6 
#
# 1 111.1483 42.1758 51.9064 0.0000 -11.9580 0.0000
# 2 42.1758 66.3809 53.2359 0.0000 -3.3871 0.0000
# 3 51.9064 53.2359 132.3608 0.0000 -7.4577 0.0000
# 4 0.0000 0.0000 0.0000 31.8167 0.0000 -0.5634
# 5 -11.9580 -3.3871 -7.4577 0.0000 19.0708 0.0000
# 6 0.0000 0.0000 0.0000 -0.5634 0.0000 29.7108
#
#
#
# Elastic Compliance Matrix: (Units=1/GPa)
#
#
# Indices 1 2 3 4 5 6 
#
# 1 0.013071 -0.006137 -0.002308 0.000000 0.006203 0.000000
# 2 -0.006137 0.025123 -0.007836 0.000000 -0.002450 0.000000
# 3 -0.002308 -0.007836 0.011710 0.000000 0.001740 0.000000
# 4 0.000000 0.000000 0.000000 0.031441 0.000000 0.000596
# 5 0.006203 -0.002450 0.001740 0.000000 0.056571 0.000000
# 6 0.000000 0.000000 0.000000 0.000596 0.000000 0.033669
#
#
# Mechanical properties :
#
#
# Convention : Reuss Voigt Hill
#
# Bulk Modulus (GPa) = 57.66445 67.16958 62.41702
# Shear Modulus (GPa) = 23.81770 26.95778 25.38774
#
# Velocity S-wave (km/s) = 3.63054 3.86245 3.74829
# Velocity P-wave (km/s) = 7.03464 7.55403 7.29895
#
# Compressibility (1/GPa) = 0.01734171
#
# Stress axis : x y z
#
# Youngs Moduli (GPa) = 76.50487 39.80393 85.39831
#
# Poissons Ratio (x) = 0.24429 0.19709
# Poissons Ratio (y) = 0.46954 0.66917
# Poissons Ratio (z) = 0.17657 0.31190
#
# Static dielectric constant tensor:
#      x y z
#    x 3.437110 0.000000 0.013600 
#    y 0.000000 3.356300 0.000000 
#    z 0.013600 0.000000 3.388720 
# 
# 
# High freq. dielectric constant tensor:
#      x y z
#    x 1.704930 0.000000 -0.000330 
#    y 0.000000 1.700900 0.000000 
#    z -0.000330 0.000000 1.700160 
# 
# From -- ./inp_files/337908.got.cif
#   From: 2010.06.25/outbox.cif.g09.slc.cpg/sg12_169_cif.got.tgz:337908.got - 2010.06.28 00:19:55.
