data_PCOD8096913
_publ_section_title
;
Structure prediction by ZEFSAII (Michael W. Deem and Ramdas Pophale) SiO2 
 PCOD8096913
Probable space group: C 2/M
;
_chemical_formula_sum "Si O2"
_cell_formula_units_Z 56
_cell_length_a 15.918567
_cell_length_b 8.912635
_cell_length_c 21.383030
_cell_angle_alpha 90.000000
_cell_angle_beta 67.037862
_cell_angle_gamma 90.000000
_cell_volume 2793.361393
_symmetry_space_group_name_H-M "C 2/M"
_symmetry_group_IT_number 12
_symmetry_cell_setting 'monoclinic'
loop_
_space_group_symop_operation_xyz
x,y,z
-x,y,-z
-x,-y,-z
x,-y,z
1/2+x,1/2+y,z
1/2-x,1/2+y,-z
1/2-x,1/2-y,-z
1/2+x,1/2-y,z
loop_
_atom_site_type_symbol
_atom_site_label
_atom_site_fract_x
_atom_site_fract_y
_atom_site_fract_z
Si Si1 0.275559 0.671895 0.161248
Si Si2 0.976970 0.825325 0.078272
Si Si3 0.340600 0.831067 0.691341
Si Si4 0.128675 0.667967 0.587475
Si Si5 0.993920 0.827753 0.712905
Si Si6 0.305849 0.830527 0.558057
Si Si7 0.410036 0.822215 0.849841
O O1 0.284917 0.500000 0.138728
O O2 0.375297 0.745542 0.120233
O O3 0.253353 0.689793 0.242070
O O4 0.191050 0.737385 0.143281
O O5 0.057841 0.744534 0.093371
O O6 0.978832 0.000000 0.096015
O O7 0.000000 0.797375 0.000000
O O8 0.407399 0.702718 0.694923
O O9 0.336933 0.805832 0.619316
O O10 0.377832 0.000000 0.695149
O O11 0.102482 0.500000 0.616369
O O12 0.080564 0.786203 0.646177
O O13 0.235548 0.697781 0.564768
O O14 0.111530 0.687438 0.517124
O O15 0.986535 0.729781 0.777828
O O16 0.000357 0.000000 0.730817
O O17 0.265273 0.000000 0.562786
O O18 0.409343 0.000000 0.854167
#
# Coordination Sequence:
#
# PCOD8096913 Si02
#       7
#     8   8   8   8   8   8   8
#     4   8  17  35  57  81 115 155 189 230 286 343
#     4  10  21  37  59  90 122 155 193 230 279 347
#     4   9  18  35  56  77 104 142 187 230 283 336
#     4  10  20  34  51  76 110 144 186 232 279 336
#     4  11  22  36  55  79 107 142 185 231 288 342
#     4   9  19  34  53  77 106 146 187 231 284 334
#     4  10  21  39  60  84 114 151 194 240 292 342
#
# _framework density 20.047533000000001
#
# number of rings (size 3 to 8) (size 9 to 14) (size 15 to 20)
#    0.000    2.429    0.000    3.000    2.000    2.571 
#    0.000    6.429    0.000    0.000    0.000    0.000 
#    0.000    0.000    0.000    0.000    0.000    0.000 
#
# Total GULP energy -346883.729522 kJ/mol
# GULP energy per Si atom -12388.704626 kJ/mol
# Density = 2.000190 g / cm^3
# Si number density = 20.047533 Si / 1000 Ang^3
#
#
#
# Elastic Constant Matrix: (Units=GPa)
#
#
# Indices 1 2 3 4 5 6 
#
# 1 54.8536 18.3384 19.3957 0.0000 9.5794 0.0000
# 2 18.3384 59.3195 23.0662 0.0000 8.6668 0.0001
# 3 19.3957 23.0662 72.3332 0.0000 15.1903 0.0000
# 4 0.0000 0.0000 0.0000 24.0389 0.0000 1.4347
# 5 9.5794 8.6668 15.1903 0.0000 33.5940 0.0000
# 6 0.0000 0.0001 0.0000 1.4347 0.0000 26.0773
#
#
#
# Elastic Compliance Matrix: (Units=1/GPa)
#
#
# Indices 1 2 3 4 5 6 
#
# 1 0.021690 -0.004829 -0.003579 0.000000 -0.003321 0.000000
# 2 -0.004829 0.020499 -0.004884 0.000000 -0.001703 0.000000
# 3 -0.003579 -0.004884 0.017528 0.000000 -0.005645 0.000000
# 4 0.000000 0.000000 0.000000 0.041736 0.000000 -0.002296
# 5 -0.003321 -0.001703 -0.005645 0.000000 0.033706 0.000000
# 6 0.000000 0.000000 0.000000 -0.002296 0.000000 0.038474
#
#
# Mechanical properties :
#
#
# Convention : Reuss Voigt Hill
#
# Bulk Modulus (GPa) = 30.18173 34.23409 32.20791
# Shear Modulus (GPa) = 23.66749 25.12245 24.39497
#
# Velocity S-wave (km/s) = 3.43967 3.54382 3.49213
# Velocity P-wave (km/s) = 5.55543 5.81880 5.68864
#
# Compressibility (1/GPa) = 0.03313263
#
# Stress axis : x y z
#
# Youngs Moduli (GPa) = 46.10413 48.78362 57.05293
#
# Poissons Ratio (x) = 0.23555 0.20418
# Poissons Ratio (y) = 0.22262 0.27867
# Poissons Ratio (z) = 0.16500 0.23828
#
# Static dielectric constant tensor:
#      x y z
#    x 3.582890 0.000000 0.003910 
#    y 0.000000 3.462050 0.000000 
#    z 0.003910 0.000000 3.962730 
# 
# 
# High freq. dielectric constant tensor:
#      x y z
#    x 1.762360 0.000000 0.003530 
#    y 0.000000 1.761390 0.000000 
#    z 0.003530 0.000000 1.796390 
# 
# From -- ./inp_files/313734.got.cif
#   From: 2010.06.25/outbox.cif.g09.slc.cpg/sg12_157_cif.got.tgz:313734.got - 2010.06.28 00:19:55.
