data_PCOD8096006
_publ_section_title
;
Structure prediction by ZEFSAII (Michael W. Deem and Ramdas Pophale) SiO2 
 PCOD8096006
Probable space group: C 2/M
;
_chemical_formula_sum "Si O2"
_cell_formula_units_Z 64
_cell_length_a 28.283545
_cell_length_b 8.618081
_cell_length_c 15.444529
_cell_angle_alpha 90.000000
_cell_angle_beta 90.821929
_cell_angle_gamma 90.000000
_cell_volume 3764.214767
_symmetry_space_group_name_H-M "C 2/M"
_symmetry_group_IT_number 12
_symmetry_cell_setting 'monoclinic'
loop_
_space_group_symop_operation_xyz
x,y,z
-x,y,-z
-x,-y,-z
x,-y,z
1/2+x,1/2+y,z
1/2-x,1/2+y,-z
1/2-x,1/2-y,-z
1/2+x,1/2-y,z
loop_
_atom_site_type_symbol
_atom_site_label
_atom_site_fract_x
_atom_site_fract_y
_atom_site_fract_z
Si Si1 0.861627 0.819412 0.663872
Si Si2 0.550315 0.181407 0.411054
Si Si3 0.048447 0.817954 0.597027
Si Si4 0.859137 0.319504 0.338497
Si Si5 0.692689 0.180233 0.179450
Si Si6 0.696361 0.677634 0.814933
Si Si7 0.801808 0.182921 0.495075
Si Si8 0.801143 0.820449 0.993345
O O1 0.910643 0.724896 0.659293
O O2 0.835417 0.778252 0.751182
O O3 0.828556 0.771010 0.583259
O O4 0.873697 0.000000 0.662653
O O5 0.562300 0.273454 0.499352
O O6 0.498940 0.229988 0.374172
O O7 0.550929 0.000000 0.431409
O O8 0.090907 0.769696 0.661358
O O9 0.039533 0.000000 0.602512
O O10 0.869069 0.500000 0.350360
O O11 0.832668 0.290294 0.247725
O O12 0.826901 0.261106 0.415152
O O13 0.748190 0.221132 0.187678
O O14 0.672600 0.230099 0.084066
O O15 0.682959 0.000000 0.194200
O O16 0.689733 0.500000 0.784669
O O17 0.675025 0.700667 0.911434
O O18 0.750000 0.250000 0.500000
O O19 0.800278 0.000000 0.480022
O O20 0.797645 0.000000 0.968060
O O21 0.750000 0.750000 0.000000
#
# Coordination Sequence:
#
# PCOD8096006 Si02
#       8
#     8   8   8   8   8   8   8   8
#     4  11  22  35  51  73 101 138 175 209 254 305
#     4  11  21  35  55  77 100 128 168 215 260 303
#     4  11  21  36  55  74 100 132 168 211 259 306
#     4  12  23  34  51  75 102 134 173 213 255 302
#     4  10  20  33  51  75 104 137 173 215 257 302
#     4   9  19  34  51  73 103 137 173 211 256 305
#     4  11  23  36  50  68  99 138 176 211 248 298
#     4   9  17  31  51  73  99 132 170 213 258 304
#
# _framework density 17.002217000000002
#
# number of rings (size 3 to 8) (size 9 to 14) (size 15 to 20)
#    0.000    1.500    1.250    7.125    0.000    6.500 
#    0.000    0.000    0.000    0.000    0.000    0.875 
#    0.000    7.000    0.000    0.000    0.000    0.000 
#
# Total GULP energy -396851.877860 kJ/mol
# GULP energy per Si atom -12401.621183 kJ/mol
# Density = 1.696352 g / cm^3
# Si number density = 17.002217 Si / 1000 Ang^3
#
#
#
# Elastic Constant Matrix: (Units=GPa)
#
#
# Indices 1 2 3 4 5 6 
#
# 1 85.7018 27.1996 36.9820 0.0000 -5.6280 0.0000
# 2 27.1996 79.6080 26.1703 0.0000 0.8397 0.0000
# 3 36.9820 26.1703 98.0592 0.0000 -5.2968 0.0000
# 4 0.0000 0.0000 0.0000 28.0435 0.0000 -2.3262
# 5 -5.6280 0.8397 -5.2968 0.0000 2.0460 0.0000
# 6 0.0000 0.0000 0.0000 -2.3262 0.0000 28.6503
#
#
#
# Elastic Compliance Matrix: (Units=1/GPa)
#
#
# Indices 1 2 3 4 5 6 
#
# 1 0.017440 -0.005496 -0.002787 0.000000 0.043013 0.000000
# 2 -0.005496 0.016071 -0.003940 0.000000 -0.031915 0.000000
# 3 -0.002787 -0.003940 0.013921 0.000000 0.029989 0.000000
# 4 0.000000 0.000000 0.000000 0.035901 0.000000 0.002915
# 5 0.043013 -0.031915 0.029989 0.000000 0.697817 0.000000
# 6 0.000000 0.000000 0.000000 0.002915 0.000000 0.035140
#
#
# Mechanical properties :
#
#
# Convention : Reuss Voigt Hill
#
# Bulk Modulus (GPa) = 43.50688 49.34143 46.42416
# Shear Modulus (GPa) = 5.89346 23.28242 14.58794
#
# Velocity S-wave (km/s) = 1.86382 3.70452 2.93234
# Velocity P-wave (km/s) = 5.50239 6.88343 6.23128
#
# Compressibility (1/GPa) = 0.02298487
#
# Stress axis : x y z
#
# Youngs Moduli (GPa) = 57.33932 62.22231 71.83620
#
# Poissons Ratio (x) = 0.34199 0.20021
# Poissons Ratio (y) = 0.31515 0.28306
# Poissons Ratio (z) = 0.15981 0.24517
#
# Static dielectric constant tensor:
#      x y z
#    x 3.140650 0.000000 0.027130 
#    y 0.000000 3.332200 0.000000 
#    z 0.027130 0.000000 3.362210 
# 
# 
# High freq. dielectric constant tensor:
#      x y z
#    x 1.635820 0.000000 -0.002930 
#    y 0.000000 1.675230 0.000000 
#    z -0.002930 0.000000 1.644500 
# 
# From -- ./inp_files/248423.got.cif
#   From: 2010.06.25/outbox.cif.g09.slc.cpg/sg12_125_cif.got.tgz:248423.got - 2010.06.28 00:19:55.
