data_PCOD8096242
_publ_section_title
;
Structure prediction by ZEFSAII (Michael W. Deem and Ramdas Pophale) SiO2 
 PCOD8096242
Probable space group: C 2/M
;
_chemical_formula_sum "Si O2"
_cell_formula_units_Z 56
_cell_length_a 29.644661
_cell_length_b 9.028405
_cell_length_c 21.812554
_cell_angle_alpha 90.000000
_cell_angle_beta 146.397458
_cell_angle_gamma 90.000000
_cell_volume 3230.915223
_symmetry_space_group_name_H-M "C 2/M"
_symmetry_group_IT_number 12
_symmetry_cell_setting 'monoclinic'
loop_
_space_group_symop_operation_xyz
x,y,z
-x,y,-z
-x,-y,-z
x,-y,z
1/2+x,1/2+y,z
1/2-x,1/2+y,-z
1/2-x,1/2-y,-z
1/2+x,1/2-y,z
loop_
_atom_site_type_symbol
_atom_site_label
_atom_site_fract_x
_atom_site_fract_y
_atom_site_fract_z
Si Si1 0.342516 0.671003 0.263406
Si Si2 0.265314 0.827766 0.422363
Si Si3 0.008215 0.673166 0.627366
Si Si4 0.968314 0.327957 0.204266
Si Si5 0.286749 0.172577 0.982967
Si Si6 0.841504 0.827864 0.402807
Si Si7 0.874329 0.172202 0.644466
O O1 0.366952 0.500000 0.280038
O O2 0.418447 0.772607 0.332160
O O3 0.263843 0.716358 0.134580
O O4 0.318760 0.700224 0.306654
O O5 0.269988 0.747533 0.362038
O O6 0.176524 0.799284 0.350931
O O7 0.335934 0.762962 0.545230
O O8 0.284211 0.000000 0.435374
O O9 0.995095 0.500000 0.601751
O O10 0.029522 0.710459 0.721446
O O11 0.927724 0.757421 0.516392
O O12 0.986718 0.500000 0.213195
O O13 0.034369 0.231067 0.242003
O O14 0.880398 0.279672 0.078661
O O15 0.282871 0.000000 0.992872
O O16 0.250000 0.250000 0.000000
O O17 0.845568 0.000000 0.423436
O O18 0.874128 0.000000 0.626694
#
# Coordination Sequence:
#
# PCOD8096242 Si02
#       7
#     8   8   8   8   8   8   8
#     4  10  22  37  53  74 104 140 179 217 253 302
#     4  10  20  34  52  77 106 135 170 211 257 309
#     4  11  21  33  51  78 108 140 173 209 256 309
#     4  10  20  33  52  78 108 136 169 212 258 305
#     4  10  20  36  55  75 101 135 174 218 257 296
#     4  11  22  35  52  76 105 141 177 210 256 308
#     4  10  20  33  53  79 105 135 169 209 260 311
#
# _framework density 17.332550999999999
#
# number of rings (size 3 to 8) (size 9 to 14) (size 15 to 20)
#    0.000    1.714    2.857    2.143    0.000    5.714 
#    0.000    0.000    0.000    0.857    0.000    6.000 
#    0.000    0.000    0.000    0.000    0.000    0.000 
#
# Total GULP energy -347298.757140 kJ/mol
# GULP energy per Si atom -12403.527041 kJ/mol
# Density = 1.729310 g / cm^3
# Si number density = 17.332551 Si / 1000 Ang^3
#
#
#
# Elastic Constant Matrix: (Units=GPa)
#
#
# Indices 1 2 3 4 5 6 
#
# 1 129.4417 67.1560 61.9147 0.0000 7.0211 0.0000
# 2 67.1560 92.3567 46.6000 0.0000 1.6374 0.0000
# 3 61.9147 46.6000 78.1341 0.0000 -4.6767 0.0000
# 4 0.0000 0.0000 0.0000 21.4327 0.0000 4.5140
# 5 7.0211 1.6374 -4.6767 0.0000 24.8543 0.0000
# 6 0.0000 0.0000 0.0000 4.5140 0.0000 34.1593
#
#
#
# Elastic Compliance Matrix: (Units=1/GPa)
#
#
# Indices 1 2 3 4 5 6 
#
# 1 0.015838 -0.007028 -0.008696 0.000000 -0.005647 0.000000
# 2 -0.007028 0.018801 -0.005663 0.000000 -0.000319 0.000000
# 3 -0.008696 -0.005663 0.023501 0.000000 0.007252 0.000000
# 4 0.000000 0.000000 0.000000 0.047993 0.000000 -0.006342
# 5 -0.005647 -0.000319 0.007252 0.000000 0.043215 0.000000
# 6 0.000000 0.000000 0.000000 -0.006342 0.000000 0.030113
#
#
# Mechanical properties :
#
#
# Convention : Reuss Voigt Hill
#
# Bulk Modulus (GPa) = 65.08368 72.36374 68.72371
# Shear Modulus (GPa) = 21.99169 24.37337 23.18253
#
# Velocity S-wave (km/s) = 3.56590 3.75403 3.66117
# Velocity P-wave (km/s) = 7.38821 7.78660 7.59002
#
# Compressibility (1/GPa) = 0.01536484
#
# Stress axis : x y z
#
# Youngs Moduli (GPa) = 63.13991 53.18854 42.55098
#
# Poissons Ratio (x) = 0.37382 0.37004
# Poissons Ratio (y) = 0.44376 0.24096
# Poissons Ratio (z) = 0.54909 0.30120
#
# Static dielectric constant tensor:
#      x y z
#    x 3.548490 0.000000 -0.009330 
#    y 0.000000 3.334570 0.000000 
#    z -0.009330 0.000000 3.300230 
# 
# 
# High freq. dielectric constant tensor:
#      x y z
#    x 1.669890 0.000000 0.009230 
#    y 0.000000 1.680200 0.000000 
#    z 0.009230 0.000000 1.651460 
# 
# From -- ./inp_files/237893.got.cif
#   From: 2010.06.25/outbox.cif.g09.slc.cpg/sg12_119_cif.got.tgz:237893.got - 2010.06.28 00:19:55.
