data_PCOD8096809
_publ_section_title
;
Structure prediction by ZEFSAII (Michael W. Deem and Ramdas Pophale) SiO2 
 PCOD8096809
Probable space group: C 2/M
;
_chemical_formula_sum "Si O2"
_cell_formula_units_Z 40
_cell_length_a 14.396219
_cell_length_b 9.619721
_cell_length_c 19.680783
_cell_angle_alpha 90.000000
_cell_angle_beta 56.760996
_cell_angle_gamma 90.000000
_cell_volume 2279.621978
_symmetry_space_group_name_H-M "C 2/M"
_symmetry_group_IT_number 12
_symmetry_cell_setting 'monoclinic'
loop_
_space_group_symop_operation_xyz
x,y,z
-x,y,-z
-x,-y,-z
x,-y,z
1/2+x,1/2+y,z
1/2-x,1/2+y,-z
1/2-x,1/2-y,-z
1/2+x,1/2-y,z
loop_
_atom_site_type_symbol
_atom_site_label
_atom_site_fract_x
_atom_site_fract_y
_atom_site_fract_z
Si Si1 0.040921 0.837635 0.802044
Si Si2 0.597250 0.161375 0.512528
Si Si3 0.910399 0.658149 0.090513
Si Si4 0.708499 0.656141 0.077112
Si Si5 0.150837 0.161120 0.617803
O O1 0.094290 0.753426 0.841957
O O2 0.100017 0.790064 0.709397
O O3 0.911790 0.797809 0.848536
O O4 0.060251 0.000000 0.808044
O O5 0.500000 0.209304 0.500000
O O6 0.717291 0.189152 0.430706
O O7 0.589566 0.250613 0.584215
O O8 0.581965 0.000000 0.537820
O O9 0.942035 0.500000 0.097829
O O10 0.788000 0.668136 0.109477
O O11 0.000000 0.714898 0.000000
O O12 0.705961 0.500000 0.049284
O O13 0.750000 0.750000 0.000000
O O14 0.125442 0.000000 0.613105
#
# Coordination Sequence:
#
# PCOD8096809 Si02
#       5
#     8   8   8   8   8
#     4  10  21  35  52  75 104 135 169 212 255 299
#     4   9  18  34  56  78 103 135 168 203 248 304
#     4  10  20  34  51  72  99 132 171 214 255 297
#     4  10  20  34  51  71  97 131 170 209 253 298
#     4   9  19  35  52  76 107 134 166 208 252 299
#
# _framework density 17.546768
#
# number of rings (size 3 to 8) (size 9 to 14) (size 15 to 20)
#    0.000    2.400    2.000    0.000    0.000    4.000 
#    0.000    0.000    0.000    0.000    0.000    0.000 
#    0.000    0.000    0.000    0.000    0.000    0.000 
#
# Total GULP energy -248041.298670 kJ/mol
# GULP energy per Si atom -12402.064934 kJ/mol
# Density = 1.750683 g / cm^3
# Si number density = 17.546768 Si / 1000 Ang^3
#
#
#
# Elastic Constant Matrix: (Units=GPa)
#
#
# Indices 1 2 3 4 5 6 
#
# 1 116.5784 50.0022 60.2718 0.0000 8.3981 0.0000
# 2 50.0022 63.9627 62.3003 0.0000 14.1584 0.0000
# 3 60.2718 62.3003 148.9576 0.0000 17.0565 0.0000
# 4 0.0000 0.0000 0.0000 29.8037 0.0000 8.9564
# 5 8.3981 14.1584 17.0565 0.0000 25.4653 0.0000
# 6 0.0000 0.0000 0.0000 8.9564 0.0000 32.2897
#
#
#
# Elastic Compliance Matrix: (Units=1/GPa)
#
#
# Indices 1 2 3 4 5 6 
#
# 1 0.013238 -0.009001 -0.001803 0.000000 0.001847 0.000000
# 2 -0.009001 0.034047 -0.009499 0.000000 -0.009599 0.000000
# 3 -0.001803 -0.009499 0.011635 0.000000 -0.001917 0.000000
# 4 0.000000 0.000000 0.000000 0.036604 0.000000 -0.010153
# 5 0.001847 -0.009599 -0.001917 0.000000 0.045281 0.000000
# 6 0.000000 0.000000 0.000000 -0.010153 0.000000 0.033786
#
#
# Mechanical properties :
#
#
# Convention : Reuss Voigt Hill
#
# Bulk Modulus (GPa) = 54.60170 74.96080 64.78125
# Shear Modulus (GPa) = 22.59352 27.97337 25.28345
#
# Velocity S-wave (km/s) = 3.59223 3.99710 3.80006
# Velocity P-wave (km/s) = 6.95635 8.00723 7.50022
#
# Compressibility (1/GPa) = 0.01831445
#
# Stress axis : x y z
#
# Youngs Moduli (GPa) = 75.54130 29.37093 85.94530
#
# Poissons Ratio (x) = 0.26436 0.15498
# Poissons Ratio (y) = 0.67994 0.81638
# Poissons Ratio (z) = 0.13622 0.27899
#
# Static dielectric constant tensor:
#      x y z
#    x 3.310280 0.000000 -0.114790 
#    y 0.000000 3.288970 0.000000 
#    z -0.114790 0.000000 3.232900 
# 
# 
# High freq. dielectric constant tensor:
#      x y z
#    x 1.683220 0.000000 -0.007620 
#    y 0.000000 1.676580 0.000000 
#    z -0.007620 0.000000 1.675340 
# 
# From -- ./inp_files/211171.got.cif
#   From: 2010.06.25/outbox.cif.g09.slc.cpg/sg12_106_cif.got.tgz:211171.got - 2010.06.28 00:19:55.
