data_PCOD8096221
_publ_section_title
;
Structure prediction by ZEFSAII (Michael W. Deem and Ramdas Pophale) SiO2 
 PCOD8096221
Probable space group: C 2/M
;
_chemical_formula_sum "Si O2"
_cell_formula_units_Z 48
_cell_length_a 19.623844
_cell_length_b 9.099473
_cell_length_c 15.618455
_cell_angle_alpha 90.000000
_cell_angle_beta 72.901967
_cell_angle_gamma 90.000000
_cell_volume 2665.672753
_symmetry_space_group_name_H-M "C 2/M"
_symmetry_group_IT_number 12
_symmetry_cell_setting 'monoclinic'
loop_
_space_group_symop_operation_xyz
x,y,z
-x,y,-z
-x,-y,-z
x,-y,z
1/2+x,1/2+y,z
1/2-x,1/2+y,-z
1/2-x,1/2-y,-z
1/2+x,1/2-y,z
loop_
_atom_site_type_symbol
_atom_site_label
_atom_site_fract_x
_atom_site_fract_y
_atom_site_fract_z
Si Si1 0.137917 0.166404 0.767408
Si Si2 0.304708 0.171889 0.093178
Si Si3 0.014863 0.828446 0.245140
Si Si4 0.650205 0.671892 0.086553
Si Si5 0.538888 0.830473 0.575014
Si Si6 0.818936 0.170496 0.439610
O O1 0.171940 0.276532 0.822238
O O2 0.178632 0.190563 0.663268
O O3 0.054464 0.202739 0.787075
O O4 0.147995 0.000000 0.796395
O O5 0.222122 0.215063 0.110233
O O6 0.316788 0.000000 0.081389
O O7 0.353484 0.247504 0.003181
O O8 0.083826 0.775135 0.167726
O O9 0.012178 0.735569 0.333060
O O10 0.018750 0.000000 0.268474
O O11 0.645790 0.500000 0.069343
O O12 0.500000 0.811296 0.500000
O O13 0.612504 0.742724 0.542026
O O14 0.554904 0.000000 0.590178
O O15 0.750000 0.250000 0.500000
O O16 0.817356 0.000000 0.465868
#
# Coordination Sequence:
#
# PCOD8096221 Si02
#       6
#     8   8   8   8   8   8
#     4   9  19  35  53  74 102 135 169 209 257 307
#     4  10  20  33  52  78 104 133 170 211 257 308
#     4   9  19  36  56  76  99 135 180 217 256 308
#     4   9  19  36  54  73 101 135 172 213 256 306
#     4  10  21  36  54  79 110 141 175 218 267 315
#     4  10  21  37  57  80 107 141 179 218 263 314
#
# _framework density 18.006712
#
# number of rings (size 3 to 8) (size 9 to 14) (size 15 to 20)
#    0.000    2.500    0.000    2.500    0.000    8.000 
#    0.000    6.667    0.000    0.000    0.000    0.000 
#    0.000    0.000    0.000    0.000    0.000    0.000 
#
# Total GULP energy -297683.078841 kJ/mol
# GULP energy per Si atom -12403.461618 kJ/mol
# Density = 1.796573 g / cm^3
# Si number density = 18.006712 Si / 1000 Ang^3
#
#
#
# Elastic Constant Matrix: (Units=GPa)
#
#
# Indices 1 2 3 4 5 6 
#
# 1 91.3955 54.8089 76.7324 0.0000 -15.7451 0.0000
# 2 54.8089 95.5836 64.1532 0.0000 -4.1863 0.0000
# 3 76.7324 64.1532 112.0520 0.0000 -15.2757 0.0000
# 4 0.0000 0.0000 0.0000 38.2645 0.0000 2.2724
# 5 -15.7451 -4.1863 -15.2757 0.0000 38.3424 0.0000
# 6 0.0000 0.0000 0.0000 2.2724 0.0000 31.3021
#
#
#
# Elastic Compliance Matrix: (Units=1/GPa)
#
#
# Indices 1 2 3 4 5 6 
#
# 1 0.027938 -0.005533 -0.015314 0.000000 0.004767 0.000000
# 2 -0.005533 0.018254 -0.007085 0.000000 -0.003102 0.000000
# 3 -0.015314 -0.007085 0.023797 0.000000 0.002419 0.000000
# 4 0.000000 0.000000 0.000000 0.026247 0.000000 -0.001905
# 5 0.004767 -0.003102 0.002419 0.000000 0.028663 0.000000
# 6 0.000000 0.000000 0.000000 -0.001905 0.000000 0.032085
#
#
# Mechanical properties :
#
#
# Convention : Reuss Voigt Hill
#
# Bulk Modulus (GPa) = 70.79290 76.71334 73.75312
# Shear Modulus (GPa) = 22.98249 28.47090 25.72669
#
# Velocity S-wave (km/s) = 3.57645 3.98065 3.78395
# Velocity P-wave (km/s) = 7.51364 7.98890 7.75491
#
# Compressibility (1/GPa) = 0.01412571
#
# Stress axis : x y z
#
# Youngs Moduli (GPa) = 35.79394 54.78235 42.02127
#
# Poissons Ratio (x) = 0.30310 0.64351
# Poissons Ratio (y) = 0.19804 0.29772
# Poissons Ratio (z) = 0.54815 0.38814
#
# Static dielectric constant tensor:
#      x y z
#    x 3.340290 0.000000 -0.138260 
#    y 0.000000 3.397120 0.000000 
#    z -0.138260 0.000000 3.339950 
# 
# 
# High freq. dielectric constant tensor:
#      x y z
#    x 1.696350 0.000000 -0.004120 
#    y 0.000000 1.704480 0.000000 
#    z -0.004120 0.000000 1.699170 
# 
# From -- ./inp_files/229905.got.cif
#   From: 2010.06.25/outbox.cif.g09.slc.cpg/sg12_115_cif.got.tgz:229905.got - 2010.06.28 00:19:55.
