data_PCOD8096956
_publ_section_title
;
Structure prediction by ZEFSAII (Michael W. Deem and Ramdas Pophale) SiO2 
 PCOD8096956
Probable space group: C 2/M
;
_chemical_formula_sum "Si O2"
_cell_formula_units_Z 64
_cell_length_a 14.530313
_cell_length_b 14.155568
_cell_length_c 17.544433
_cell_angle_alpha 90.000000
_cell_angle_beta 87.705947
_cell_angle_gamma 90.000000
_cell_volume 3605.731672
_symmetry_space_group_name_H-M "C 2/M"
_symmetry_group_IT_number 12
_symmetry_cell_setting 'monoclinic'
loop_
_space_group_symop_operation_xyz
x,y,z
-x,y,-z
-x,-y,-z
x,-y,z
1/2+x,1/2+y,z
1/2-x,1/2+y,-z
1/2-x,1/2-y,-z
1/2+x,1/2-y,z
loop_
_atom_site_type_symbol
_atom_site_label
_atom_site_fract_x
_atom_site_fract_y
_atom_site_fract_z
Si Si1 0.454061 0.770646 0.927743
Si Si2 0.672012 0.603536 0.053509
Si Si3 0.864901 0.111797 0.651031
Si Si4 0.100974 0.111862 0.510857
Si Si5 0.875558 0.780590 0.177918
Si Si6 0.216316 0.608748 0.093552
Si Si7 0.926883 0.111475 0.324877
Si Si8 0.762189 0.392295 0.211493
O O1 0.400941 0.682232 0.966783
O O2 0.526449 0.726059 0.866540
O O3 0.383246 0.842825 0.888883
O O4 0.500000 0.821664 0.000000
O O5 0.628222 0.500000 0.040427
O O6 0.696602 0.614914 0.140833
O O7 0.762791 0.614460 0.997671
O O8 0.837888 0.145047 0.564692
O O9 0.792496 0.151902 0.714438
O O10 0.967717 0.145104 0.668695
O O11 0.861215 0.000000 0.658001
O O12 0.131241 0.140381 0.595893
O O13 0.000000 0.154443 0.500000
O O14 0.094374 0.000000 0.507892
O O15 0.796898 0.833711 0.132733
O O16 0.881975 0.836055 0.256250
O O17 0.850773 0.672039 0.195630
O O18 0.213229 0.500000 0.122349
O O19 0.921164 0.000000 0.310063
O O20 0.795231 0.500000 0.223691
#
# Coordination Sequence:
#
# PCOD8096956 Si02
#       8
#     8   8   8   8   8   8   8   8
#     4  12  23  37  58  79 107 140 185 224 270 321
#     4  10  20  37  58  78 103 134 173 221 272 315
#     4   8  14  28  51  75 101 133 166 210 269 316
#     4   7  11  23  45  73 105 132 158 203 264 320
#     4  12  23  35  55  77 109 142 183 224 264 315
#     4  11  24  41  57  78 110 146 180 223 274 322
#     4   9  17  29  49  80 107 132 168 211 265 322
#     4  10  20  34  52  73 101 136 176 218 261 309
#
# _framework density 17.749517999999998
#
# number of rings (size 3 to 8) (size 9 to 14) (size 15 to 20)
#    0.000    2.125    2.500    3.750    0.000    3.000 
#    0.000    0.625    0.000    0.000    0.000    0.000 
#    0.000    4.500    0.000    0.500    0.000    0.000 
#
# Total GULP energy -396449.897570 kJ/mol
# GULP energy per Si atom -12389.059299 kJ/mol
# Density = 1.770912 g / cm^3
# Si number density = 17.749518 Si / 1000 Ang^3
#
#
#
# Elastic Constant Matrix: (Units=GPa)
#
#
# Indices 1 2 3 4 5 6 
#
# 1 68.2181 37.7713 26.4696 0.0000 3.4541 0.0000
# 2 37.7713 82.9174 26.4296 0.0000 1.0173 0.0000
# 3 26.4696 26.4296 116.0219 0.0000 -0.2174 0.0000
# 4 0.0000 0.0000 0.0000 14.0501 0.0000 1.3952
# 5 3.4541 1.0173 -0.2174 0.0000 12.5981 0.0000
# 6 0.0000 0.0000 0.0000 1.3952 0.0000 12.2157
#
#
#
# Elastic Compliance Matrix: (Units=1/GPa)
#
#
# Indices 1 2 3 4 5 6 
#
# 1 0.020691 -0.008471 -0.002800 0.000000 -0.005037 0.000000
# 2 -0.008471 0.016488 -0.001822 0.000000 0.000960 0.000000
# 3 -0.002800 -0.001822 0.009675 0.000000 0.001082 0.000000
# 4 0.000000 0.000000 0.000000 0.071991 0.000000 -0.008223
# 5 -0.005037 0.000960 0.001082 0.000000 0.080699 0.000000
# 6 0.000000 0.000000 0.000000 -0.008223 0.000000 0.082801
#
#
# Mechanical properties :
#
#
# Convention : Reuss Voigt Hill
#
# Bulk Modulus (GPa) = 48.38374 49.83316 49.10845
# Shear Modulus (GPa) = 15.85195 19.53856 17.69526
#
# Velocity S-wave (km/s) = 2.99171 3.32142 3.16087
# Velocity P-wave (km/s) = 6.26515 6.54567 6.40695
#
# Compressibility (1/GPa) = 0.02066810
#
# Stress axis : x y z
#
# Youngs Moduli (GPa) = 48.33105 60.65109 103.36049
#
# Poissons Ratio (x) = 0.51377 0.28943
# Poissons Ratio (y) = 0.40940 0.18827
# Poissons Ratio (z) = 0.13534 0.11048
#
# Static dielectric constant tensor:
#      x y z
#    x 3.058610 0.000000 -0.225100 
#    y 0.000000 3.176060 0.000000 
#    z -0.225100 0.000000 3.720150 
# 
# 
# High freq. dielectric constant tensor:
#      x y z
#    x 1.656230 0.000000 -0.011470 
#    y 0.000000 1.662050 0.000000 
#    z -0.011470 0.000000 1.700940 
# 
# From -- ./inp_files/269870.got.cif
#   From: 2010.06.25/outbox.cif.g09.slc.cpg/sg12_135_cif.got.tgz:269870.got - 2010.06.28 00:19:55.
