data_PCOD8096772
_publ_section_title
;
Structure prediction by ZEFSAII (Michael W. Deem and Ramdas Pophale) SiO2 
 PCOD8096772
Probable space group: C 2/M
;
_chemical_formula_sum "Si O2"
_cell_formula_units_Z 64
_cell_length_a 28.900683
_cell_length_b 8.513563
_cell_length_c 24.219472
_cell_angle_alpha 90.000000
_cell_angle_beta 146.882139
_cell_angle_gamma 90.000000
_cell_volume 3255.858151
_symmetry_space_group_name_H-M "C 2/M"
_symmetry_group_IT_number 12
_symmetry_cell_setting 'monoclinic'
loop_
_space_group_symop_operation_xyz
x,y,z
-x,y,-z
-x,-y,-z
x,-y,z
1/2+x,1/2+y,z
1/2-x,1/2+y,-z
1/2-x,1/2-y,-z
1/2+x,1/2-y,z
loop_
_atom_site_type_symbol
_atom_site_label
_atom_site_fract_x
_atom_site_fract_y
_atom_site_fract_z
Si Si1 0.094863 0.813060 0.484104
Si Si2 0.663200 0.686020 0.889302
Si Si3 0.681839 0.686952 0.681480
Si Si4 0.095945 0.813009 0.706278
Si Si5 0.499816 0.686625 0.208284
Si Si6 0.993792 0.184313 0.077095
Si Si7 0.626280 0.815725 0.130186
Si Si8 0.837194 0.186106 0.563747
O O1 0.136040 0.745222 0.581248
O O2 0.149885 0.756770 0.486521
O O3 0.999454 0.747840 0.383413
O O4 0.092990 0.000000 0.484288
O O5 0.665225 0.500000 0.894693
O O6 0.651121 0.743067 0.813982
O O7 0.584124 0.752211 0.845605
O O8 0.750000 0.750000 0.000000
O O9 0.677070 0.500000 0.677329
O O10 0.636910 0.755643 0.691258
O O11 0.778146 0.744728 0.777501
O O12 0.093967 0.000000 0.702168
O O13 0.500708 0.500000 0.212741
O O14 0.499263 0.745610 0.144917
O O15 0.584263 0.752890 0.321969
O O16 0.082245 0.221132 0.135641
O O17 0.974587 0.000000 0.054513
O O18 0.918147 0.278589 0.972340
O O19 0.620052 0.000000 0.136482
O O20 0.750000 0.250000 0.500000
O O21 0.835155 0.000000 0.564931
#
# Coordination Sequence:
#
# PCOD8096772 Si02
#       8
#     8   8   8   8   8   8   8   8
#     4   9  16  30  51  73 101 135 169 205 250 307
#     4  10  20  35  55  79 106 138 174 215 260 307
#     4   9  18  28  46  77 105 128 162 209 259 305
#     4   9  16  30  51  73 101 135 169 205 250 307
#     4   9  19  36  55  77 106 141 178 215 256 310
#     4  10  20  35  54  70  97 140 182 207 240 307
#     4  10  20  34  50  76 109 130 159 218 270 300
#     4  10  20  35  55  79 106 138 174 215 260 307
#
# _framework density 19.656876
#
# number of rings (size 3 to 8) (size 9 to 14) (size 15 to 20)
#    0.000    2.500    1.250    1.875    3.500    1.500 
#    0.000    1.875    0.000    0.000    0.000    0.000 
#    0.000    6.000    0.000    0.000    0.000    0.000 
#
# Total GULP energy -396769.690182 kJ/mol
# GULP energy per Si atom -12399.052818 kJ/mol
# Density = 1.961214 g / cm^3
# Si number density = 19.656876 Si / 1000 Ang^3
#
#
#
# Elastic Constant Matrix: (Units=GPa)
#
#
# Indices 1 2 3 4 5 6 
#
# 1 179.2668 9.5933 121.3154 0.0000 -12.6717 0.0000
# 2 9.5933 14.4320 10.2844 0.0000 -1.1237 0.0000
# 3 121.3154 10.2844 180.6973 0.0000 2.4926 0.0000
# 4 0.0000 0.0000 0.0000 20.2070 0.0000 4.1152
# 5 -12.6717 -1.1237 2.4926 0.0000 44.8201 0.0000
# 6 0.0000 0.0000 0.0000 4.1152 0.0000 16.2499
#
#
#
# Elastic Compliance Matrix: (Units=1/GPa)
#
#
# Indices 1 2 3 4 5 6 
#
# 1 0.010770 -0.001781 -0.007177 0.000000 0.003400 0.000000
# 2 -0.001781 0.072701 -0.002963 0.000000 0.001484 0.000000
# 3 -0.007177 -0.002963 0.010558 0.000000 -0.002690 0.000000
# 4 0.000000 0.000000 0.000000 0.052179 0.000000 -0.013214
# 5 0.003400 0.001484 -0.002690 0.000000 0.023459 0.000000
# 6 0.000000 0.000000 0.000000 -0.013214 0.000000 0.064885
#
#
# Mechanical properties :
#
#
# Convention : Reuss Voigt Hill
#
# Bulk Modulus (GPa) = 14.24719 72.97584 43.61151
# Shear Modulus (GPa) = 17.74379 31.80229 24.77304
#
# Velocity S-wave (km/s) = 3.00772 4.02664 3.55388
# Velocity P-wave (km/s) = 4.39608 7.66967 6.25097
#
# Compressibility (1/GPa) = 0.07018928
#
# Stress axis : x y z
#
# Youngs Moduli (GPa) = 92.84655 13.75502 94.71487
#
# Poissons Ratio (x) = 0.02449 0.67973
# Poissons Ratio (y) = 0.16532 0.28062
# Poissons Ratio (z) = 0.66632 0.04075
#
# Static dielectric constant tensor:
#      x y z
#    x 3.867580 0.000000 -0.056110 
#    y 0.000000 3.034710 0.000000 
#    z -0.056110 0.000000 3.830830 
# 
# 
# High freq. dielectric constant tensor:
#      x y z
#    x 1.781250 0.000000 -0.003290 
#    y 0.000000 1.710470 0.000000 
#    z -0.003290 0.000000 1.778900 
# 
# From -- ./inp_files/353426.got.cif
#   From: 2010.06.25/outbox.cif.g09.slc.cpg/sg12_177_cif.got.tgz:353426.got - 2010.06.28 00:19:55.
