data_PCOD8096931
_publ_section_title
;
Structure prediction by ZEFSAII (Michael W. Deem and Ramdas Pophale) SiO2 
 PCOD8096931
Probable space group: C 2/M
;
_chemical_formula_sum "Si O2"
_cell_formula_units_Z 64
_cell_length_a 33.333847
_cell_length_b 9.379197
_cell_length_c 11.388555
_cell_angle_alpha 90.000000
_cell_angle_beta 85.098682
_cell_angle_gamma 90.000000
_cell_volume 3547.551732
_symmetry_space_group_name_H-M "C 2/M"
_symmetry_group_IT_number 12
_symmetry_cell_setting 'monoclinic'
loop_
_space_group_symop_operation_xyz
x,y,z
-x,y,-z
-x,-y,-z
x,-y,z
1/2+x,1/2+y,z
1/2-x,1/2+y,-z
1/2-x,1/2-y,-z
1/2+x,1/2-y,z
loop_
_atom_site_type_symbol
_atom_site_label
_atom_site_fract_x
_atom_site_fract_y
_atom_site_fract_z
Si Si1 0.454744 0.168649 0.498892
Si Si2 0.778599 0.837047 0.346037
Si Si3 0.306986 0.834013 0.555792
Si Si4 0.383627 0.832417 0.685396
Si Si5 0.153226 0.836733 0.833535
Si Si6 0.954371 0.338636 0.024848
Si Si7 0.887107 0.168165 0.921241
Si Si8 0.587292 0.162632 0.723744
O O1 0.500000 0.233385 0.500000
O O2 0.426915 0.208412 0.617961
O O3 0.433571 0.229463 0.386740
O O4 0.458155 0.000000 0.484792
O O5 0.731406 0.795271 0.351104
O O6 0.802770 0.745212 0.434222
O O7 0.799856 0.813843 0.213558
O O8 0.782887 0.000000 0.385641
O O9 0.348199 0.785562 0.606216
O O10 0.308455 0.000000 0.526862
O O11 0.375127 0.744914 0.804821
O O12 0.381368 0.000000 0.714433
O O13 0.127006 0.748333 0.747699
O O14 0.139709 0.000000 0.822969
O O15 0.146057 0.790726 0.970615
O O16 0.946356 0.500000 0.980850
O O17 0.929812 0.227281 0.953316
O O18 0.944839 0.327036 0.164248
O O19 0.000000 0.293187 0.000000
O O20 0.890026 0.000000 0.898979
O O21 0.600623 0.000000 0.696355
#
# Coordination Sequence:
#
# PCOD8096931 Si02
#       8
#     8   8   8   8   8   8   8   8
#     4   9  18  30  48  72  96 125 159 198 244 294
#     4   9  17  31  53  77 103 131 163 202 247 300
#     4   9  18  32  51  79 105 129 162 204 252 296
#     4  10  20  34  52  71  99 133 166 206 250 296
#     4   9  18  33  51  71  97 132 164 199 246 294
#     4   9  18  31  52  77  97 122 162 209 252 294
#     4  10  21  35  50  70  98 134 172 205 245 296
#     4   9  17  30  49  74  98 122 159 204 245 289
#
# _framework density 18.040610000000001
#
# number of rings (size 3 to 8) (size 9 to 14) (size 15 to 20)
#    0.000    2.750    0.000    1.125    1.750    2.750 
#    0.000    1.250    0.000    0.750    0.000    0.000 
#    0.000    0.000    0.000    0.000    0.000    0.000 
#
# Total GULP energy -396687.096397 kJ/mol
# GULP energy per Si atom -12396.471762 kJ/mol
# Density = 1.799955 g / cm^3
# Si number density = 18.040610 Si / 1000 Ang^3
#
#
#
# Elastic Constant Matrix: (Units=GPa)
#
#
# Indices 1 2 3 4 5 6 
#
# 1 109.6779 29.9164 49.1023 0.0000 -18.1539 0.0000
# 2 29.9164 45.3836 33.0618 0.0000 0.1188 0.0000
# 3 49.1023 33.0618 85.5820 0.0000 -3.2464 0.0000
# 4 0.0000 0.0000 0.0000 21.3535 0.0000 -0.5918
# 5 -18.1539 0.1188 -3.2464 0.0000 26.6060 0.0000
# 6 0.0000 0.0000 0.0000 -0.5918 0.0000 20.4017
#
#
#
# Elastic Compliance Matrix: (Units=1/GPa)
#
#
# Indices 1 2 3 4 5 6 
#
# 1 0.014879 -0.005392 -0.006096 0.000000 0.009432 0.000000
# 2 -0.005392 0.032685 -0.009724 0.000000 -0.005011 0.000000
# 3 -0.006096 -0.009724 0.018870 0.000000 -0.001813 0.000000
# 4 0.000000 0.000000 0.000000 0.046868 0.000000 0.001359
# 5 0.009432 -0.005011 -0.001813 0.000000 0.043823 0.000000
# 6 0.000000 0.000000 0.000000 0.001359 0.000000 0.049055
#
#
# Mechanical properties :
#
#
# Convention : Reuss Voigt Hill
#
# Bulk Modulus (GPa) = 41.64674 51.64492 46.64583
# Shear Modulus (GPa) = 19.48518 22.24309 20.86414
#
# Velocity S-wave (km/s) = 3.29001 3.51514 3.40444
# Velocity P-wave (km/s) = 6.12922 6.72043 6.43162
#
# Compressibility (1/GPa) = 0.02401148
#
# Stress axis : x y z
#
# Youngs Moduli (GPa) = 67.21080 30.59488 52.99497
#
# Poissons Ratio (x) = 0.16496 0.32305
# Poissons Ratio (y) = 0.36238 0.51530
# Poissons Ratio (z) = 0.40970 0.29749
#
# Static dielectric constant tensor:
#      x y z
#    x 3.467760 0.000000 -0.192460 
#    y 0.000000 3.199290 0.000000 
#    z -0.192460 0.000000 3.358120 
# 
# 
# High freq. dielectric constant tensor:
#      x y z
#    x 1.698910 0.000000 -0.019200 
#    y 0.000000 1.679570 0.000000 
#    z -0.019200 0.000000 1.695660 
# 
# From -- ./inp_files/187396.got.cif
#   From: 2010.06.25/outbox.cif.g09.slc.cpg/sg12_94_cif.got.tgz:187396.got - 2010.06.28 00:19:55.
