data_PCOD8096904
_publ_section_title
;
Structure prediction by ZEFSAII (Michael W. Deem and Ramdas Pophale) SiO2 
 PCOD8096904
Probable space group: C 2/M
;
_chemical_formula_sum "Si O2"
_cell_formula_units_Z 40
_cell_length_a 14.942964
_cell_length_b 17.677630
_cell_length_c 9.168882
_cell_angle_alpha 90.000000
_cell_angle_beta 73.884155
_cell_angle_gamma 90.000000
_cell_volume 2326.837536
_symmetry_space_group_name_H-M "C 2/M"
_symmetry_group_IT_number 12
_symmetry_cell_setting 'monoclinic'
loop_
_space_group_symop_operation_xyz
x,y,z
-x,y,-z
-x,-y,-z
x,-y,z
1/2+x,1/2+y,z
1/2-x,1/2+y,-z
1/2-x,1/2-y,-z
1/2+x,1/2-y,z
loop_
_atom_site_type_symbol
_atom_site_label
_atom_site_fract_x
_atom_site_fract_y
_atom_site_fract_z
Si Si1 0.591319 0.651492 0.377106
Si Si2 0.753754 0.416180 0.475965
Si Si3 0.414413 0.410931 0.934116
Si Si4 0.604967 0.826867 0.430648
Si Si5 0.745169 0.084287 0.205768
O O1 0.500000 0.620365 0.500000
O O2 0.681366 0.604484 0.383604
O O3 0.575951 0.640403 0.212849
O O4 0.609922 0.737461 0.412928
O O5 0.793545 0.500000 0.422259
O O6 0.838879 0.355599 0.450025
O O7 0.703613 0.417339 0.658284
O O8 0.412947 0.500000 0.896316
O O9 0.500000 0.391299 0.000000
O O10 0.318631 0.384785 0.055323
O O11 0.500000 0.855378 0.500000
O O12 0.652137 0.863747 0.263497
O O13 0.712864 0.000000 0.176058
#
# Coordination Sequence:
#
# PCOD8096904 Si02
#       5
#     8   8   8   8   8
#     4  11  21  32  52  80 110 138 169 212 265 313
#     4   9  18  33  53  77 103 135 175 214 254 303
#     4  10  20  34  51  75 108 140 172 211 257 313
#     4   9  19  34  54  77 106 136 176 216 255 303
#     4   8  17  32  52  74  99 134 175 211 252 300
#
# _framework density 17.190715000000001
#
# number of rings (size 3 to 8) (size 9 to 14) (size 15 to 20)
#    1.200    1.400    0.000    2.400    0.000    5.600 
#    0.000    0.000    0.000    0.000    0.000    4.200 
#    0.000    0.000    0.000    0.000    0.000    0.000 
#
# Total GULP energy -247777.150383 kJ/mol
# GULP energy per Si atom -12388.857519 kJ/mol
# Density = 1.715159 g / cm^3
# Si number density = 17.190715 Si / 1000 Ang^3
#
#
#
# Elastic Constant Matrix: (Units=GPa)
#
#
# Indices 1 2 3 4 5 6 
#
# 1 111.9488 45.6294 46.8598 0.0000 -2.2177 0.0000
# 2 45.6294 71.6260 24.8895 0.0000 6.0187 0.0000
# 3 46.8598 24.8895 80.1018 0.0000 -4.5160 0.0000
# 4 0.0000 0.0000 0.0000 12.5824 0.0000 0.9866
# 5 -2.2177 6.0187 -4.5160 0.0000 34.2644 0.0000
# 6 0.0000 0.0000 0.0000 0.9866 0.0000 19.9152
#
#
#
# Elastic Compliance Matrix: (Units=1/GPa)
#
#
# Indices 1 2 3 4 5 6 
#
# 1 0.014467 -0.007196 -0.006149 0.000000 0.001390 0.000000
# 2 -0.007196 0.019638 -0.002129 0.000000 -0.004196 0.000000
# 3 -0.006149 -0.002129 0.016867 0.000000 0.002199 0.000000
# 4 0.000000 0.000000 0.000000 0.079786 0.000000 -0.003953
# 5 0.001390 -0.004196 0.002199 0.000000 0.030302 0.000000
# 6 0.000000 0.000000 0.000000 -0.003953 0.000000 0.050409
#
#
# Mechanical properties :
#
#
# Convention : Reuss Voigt Hill
#
# Bulk Modulus (GPa) = 49.93998 55.38154 52.66076
# Shear Modulus (GPa) = 20.07298 23.10560 21.58929
#
# Velocity S-wave (km/s) = 3.42082 3.67014 3.54767
# Velocity P-wave (km/s) = 6.68702 7.08843 6.89065
#
# Compressibility (1/GPa) = 0.02002404
#
# Stress axis : x y z
#
# Youngs Moduli (GPa) = 69.12169 50.92124 59.28863
#
# Poissons Ratio (x) = 0.36645 0.36456
# Poissons Ratio (y) = 0.49743 0.12620
# Poissons Ratio (z) = 0.42502 0.10839
#
# Static dielectric constant tensor:
#      x y z
#    x 3.112950 0.000000 -0.114120 
#    y 0.000000 3.105420 0.000000 
#    z -0.114120 0.000000 2.983910 
# 
# 
# High freq. dielectric constant tensor:
#      x y z
#    x 1.653720 0.000000 -0.007050 
#    y 0.000000 1.662590 0.000000 
#    z -0.007050 0.000000 1.641150 
# 
# From -- ./inp_files/62161.got.cif
#   From: 2010.06.25/outbox.cif.g09.slc.cpg/sg12_32_cif.got.tgz:62161.got - 2010.06.28 00:19:55.
