data_PCOD8096671
_publ_section_title
;
Structure prediction by ZEFSAII (Michael W. Deem and Ramdas Pophale) SiO2 
 PCOD8096671
Probable space group: C 2/M
;
_chemical_formula_sum "Si O2"
_cell_formula_units_Z 44
_cell_length_a 18.475550
_cell_length_b 13.630138
_cell_length_c 11.568206
_cell_angle_alpha 90.000000
_cell_angle_beta 130.790463
_cell_angle_gamma 90.000000
_cell_volume 2205.560997
_symmetry_space_group_name_H-M "C 2/M"
_symmetry_group_IT_number 12
_symmetry_cell_setting 'monoclinic'
loop_
_space_group_symop_operation_xyz
x,y,z
-x,y,-z
-x,-y,-z
x,-y,z
1/2+x,1/2+y,z
1/2-x,1/2+y,-z
1/2-x,1/2-y,-z
1/2+x,1/2-y,z
loop_
_atom_site_type_symbol
_atom_site_label
_atom_site_fract_x
_atom_site_fract_y
_atom_site_fract_z
Si Si1 0.400406 0.206974 0.845491
Si Si2 0.500000 0.335748 0.500000
Si Si3 0.643269 0.000000 0.140325
Si Si4 0.060122 0.500000 0.796905
Si Si5 0.174784 0.789384 0.015077
Si Si6 0.232630 0.000000 0.049942
Si Si7 0.849046 0.000000 0.288679
Si Si8 0.982592 0.285056 0.704088
O O1 0.316395 0.239055 0.847585
O O2 0.395634 0.238604 0.704728
O O3 0.402386 0.090159 0.840315
O O4 0.500000 0.247741 0.000000
O O5 0.412106 0.402542 0.367880
O O6 0.540390 0.265568 0.441373
O O7 0.758558 0.000000 0.280185
O O8 0.607022 0.000000 0.971610
O O9 0.998602 0.402199 0.706780
O O10 0.153214 0.500000 0.810690
O O11 0.250000 0.750000 0.000000
O O12 0.187986 0.903152 0.060201
O O13 0.074742 0.766491 0.853368
O O14 0.201123 0.000000 0.885612
#
# Coordination Sequence:
#
# PCOD8096671 Si02
#       8
#     8   4   4   4   8   4   4   8
#     4  10  20  33  57  94 120 141 180 245 308 340
#     4  11  24  41  56  76 118 167 202 221 266 356
#     4  11  17  34  65  88 116 135 192 255 292 334
#     4  11  19  32  62  92 114 139 188 250 301 336
#     4  11  19  34  59  89 118 144 183 243 302 337
#     4  11  19  33  59  96 109 140 191 250 291 342
#     4  10  22  37  60  82 105 159 211 232 264 341
#     4  11  22  37  57  84 120 155 193 231 288 343
#
# _framework density 19.949572
#
# number of rings (size 3 to 8) (size 9 to 14) (size 15 to 20)
#    0.000    1.273    7.273    1.909    0.000    0.364 
#    0.000    6.818    0.000    2.182    0.000    0.000 
#    0.000    0.000    0.000    0.000    0.000    0.000 
#
# Total GULP energy -272543.278240 kJ/mol
# GULP energy per Si atom -12388.330829 kJ/mol
# Density = 1.990417 g / cm^3
# Si number density = 19.949572 Si / 1000 Ang^3
#
#
#
# Elastic Constant Matrix: (Units=GPa)
#
#
# Indices 1 2 3 4 5 6 
#
# 1 128.1641 46.6408 29.5913 0.0000 -36.0682 0.0000
# 2 46.6408 132.2321 20.2850 0.0000 -22.5839 0.0000
# 3 29.5913 20.2850 37.6571 0.0000 -15.9777 0.0000
# 4 0.0000 0.0000 0.0000 208.2728 0.0000 118.8255
# 5 -36.0682 -22.5839 -15.9777 0.0000 34.3353 0.0000
# 6 0.0000 0.0000 0.0000 118.8255 0.0000 106.8666
#
#
#
# Elastic Compliance Matrix: (Units=1/GPa)
#
#
# Indices 1 2 3 4 5 6 
#
# 1 0.012231 -0.002010 -0.004533 0.000000 0.009416 0.000000
# 2 -0.002010 0.009086 -0.002087 0.000000 0.002893 0.000000
# 3 -0.004533 -0.002087 0.035684 0.000000 0.010471 0.000000
# 4 0.000000 0.000000 0.000000 0.013132 0.000000 -0.014601
# 5 0.009416 0.002893 0.010471 0.000000 0.045792 0.000000
# 6 0.000000 0.000000 0.000000 -0.014601 0.000000 0.025593
#
#
# Mechanical properties :
#
#
# Convention : Reuss Voigt Hill
#
# Bulk Modulus (GPa) = 25.16317 54.56529 39.86423
# Shear Modulus (GPa) = 29.06563 83.33068 56.19815
#
# Velocity S-wave (km/s) = 3.82115 6.47003 5.31331
# Velocity P-wave (km/s) = 5.66648 9.12283 7.59392
#
# Compressibility (1/GPa) = 0.03974062
#
# Stress axis : x y z
#
# Youngs Moduli (GPa) = 81.76213 110.06131 28.02348
#
# Poissons Ratio (x) = 0.22127 0.12702
# Poissons Ratio (y) = 0.16438 0.05848
# Poissons Ratio (z) = 0.37060 0.22970
#
# Static dielectric constant tensor:
#      x y z
#    x 4.279100 0.000000 -0.144760 
#    y 0.000000 4.099320 0.000000 
#    z -0.144760 0.000000 3.248920 
# 
# 
# High freq. dielectric constant tensor:
#      x y z
#    x 1.791470 0.000000 -0.005080 
#    y 0.000000 1.784810 0.000000 
#    z -0.005080 0.000000 1.727170 
# 
# From -- ./inp_files/156333.got.cif
#   From: 2010.06.25/outbox.cif.g09.slc.cpg/sg12_79_cif.got.tgz:156333.got - 2010.06.28 00:19:55.
