data_PCOD8096493
_publ_section_title
;
Structure prediction by ZEFSAII (Michael W. Deem and Ramdas Pophale) SiO2 
 PCOD8096493
Probable space group: C 2/M
;
_chemical_formula_sum "Si O2"
_cell_formula_units_Z 56
_cell_length_a 18.622424
_cell_length_b 9.062854
_cell_length_c 21.032019
_cell_angle_alpha 90.000000
_cell_angle_beta 124.427587
_cell_angle_gamma 90.000000
_cell_volume 2927.875462
_symmetry_space_group_name_H-M "C 2/M"
_symmetry_group_IT_number 12
_symmetry_cell_setting 'monoclinic'
loop_
_space_group_symop_operation_xyz
x,y,z
-x,y,-z
-x,-y,-z
x,-y,z
1/2+x,1/2+y,z
1/2-x,1/2+y,-z
1/2-x,1/2-y,-z
1/2+x,1/2-y,z
loop_
_atom_site_type_symbol
_atom_site_label
_atom_site_fract_x
_atom_site_fract_y
_atom_site_fract_z
Si Si1 0.415289 0.325625 0.493654
Si Si2 0.901551 0.825085 0.220784
Si Si3 0.413749 0.675830 0.637277
Si Si4 0.770364 0.325220 0.652552
Si Si5 0.599081 0.836463 0.033064
Si Si6 0.341403 0.326464 0.053733
Si Si7 0.268394 0.175091 0.794450
O O1 0.500000 0.258236 0.500000
O O2 0.425600 0.500000 0.500704
O O3 0.408677 0.266847 0.562392
O O4 0.328234 0.278539 0.413223
O O5 0.885814 0.772098 0.140948
O O6 0.824237 0.762280 0.226863
O O7 0.994678 0.764144 0.289585
O O8 0.901433 0.000000 0.225349
O O9 0.406283 0.500000 0.638331
O O10 0.335551 0.745559 0.637609
O O11 0.783395 0.500000 0.652289
O O12 0.788142 0.267737 0.733204
O O13 0.655124 0.771481 0.119887
O O14 0.636296 0.000000 0.033583
O O15 0.500000 0.853253 0.000000
O O16 0.599484 0.724197 0.974904
O O17 0.328809 0.500000 0.046971
O O18 0.250000 0.250000 0.000000
O O19 0.264375 0.000000 0.790386
#
# Coordination Sequence:
#
# PCOD8096493 Si02
#       7
#     8   8   8   8   8   8   8
#     4   9  17  32  56  83 104 133 180 218 247 301
#     4   9  18  33  54  76 101 137 179 218 261 312
#     4  10  20  34  54  79 108 139 170 213 264 312
#     4  10  20  33  54  81 108 137 172 216 262 309
#     4  10  21  36  55  78 107 143 182 222 272 326
#     4  11  21  36  57  80 107 141 182 228 274 321
#     4   9  17  33  53  74 102 137 176 218 260 307
#
# _framework density 19.126495999999999
#
# number of rings (size 3 to 8) (size 9 to 14) (size 15 to 20)
#    0.000    2.286    1.429    1.714    2.000    3.714 
#    0.000    1.429    0.000    3.429    0.000    0.000 
#    0.000    0.000    0.000    0.000    0.000    0.000 
#
# Total GULP energy -347146.129349 kJ/mol
# GULP energy per Si atom -12398.076048 kJ/mol
# Density = 1.908296 g / cm^3
# Si number density = 19.126496 Si / 1000 Ang^3
#
#
#
# Elastic Constant Matrix: (Units=GPa)
#
#
# Indices 1 2 3 4 5 6 
#
# 1 152.0592 25.4564 72.2458 0.0000 -11.6263 0.0000
# 2 25.4564 28.6862 21.5192 0.0000 -5.2677 0.0000
# 3 72.2458 21.5192 138.6532 0.0000 -16.8740 0.0000
# 4 0.0000 0.0000 0.0000 19.7901 0.0000 -4.3596
# 5 -11.6263 -5.2677 -16.8740 0.0000 41.3876 0.0000
# 6 0.0000 0.0000 0.0000 -4.3596 0.0000 23.4399
#
#
#
# Elastic Compliance Matrix: (Units=1/GPa)
#
#
# Indices 1 2 3 4 5 6 
#
# 1 0.009402 -0.005250 -0.004045 0.000000 0.000324 0.000000
# 2 -0.005250 0.042664 -0.003583 0.000000 0.002495 0.000000
# 3 -0.004045 -0.003583 0.010187 0.000000 0.002561 0.000000
# 4 0.000000 0.000000 0.000000 0.052689 0.000000 0.009800
# 5 0.000324 0.002495 0.002561 0.000000 0.025615 0.000000
# 6 0.000000 0.000000 0.000000 0.009800 0.000000 0.044485
#
#
# Mechanical properties :
#
#
# Convention : Reuss Voigt Hill
#
# Bulk Modulus (GPa) = 27.39752 61.98240 44.68996
# Shear Modulus (GPa) = 22.42536 30.26867 26.34701
#
# Velocity S-wave (km/s) = 3.42786 3.98245 3.71551
# Velocity P-wave (km/s) = 5.47927 7.32280 6.46706
#
# Compressibility (1/GPa) = 0.03649965
#
# Stress axis : x y z
#
# Youngs Moduli (GPa) = 106.36447 23.43890 98.16006
#
# Poissons Ratio (x) = 0.12304 0.39702
# Poissons Ratio (y) = 0.55836 0.35167
# Poissons Ratio (z) = 0.43020 0.08397
#
# Static dielectric constant tensor:
#      x y z
#    x 3.707660 0.000000 -0.088090 
#    y 0.000000 3.637090 0.000000 
#    z -0.088090 0.000000 3.825350 
# 
# 
# High freq. dielectric constant tensor:
#      x y z
#    x 1.756740 0.000000 -0.001310 
#    y 0.000000 1.689240 0.000000 
#    z -0.001310 0.000000 1.762880 
# 
# From -- ./inp_files/320257.got.cif
#   From: 2010.06.25/outbox.cif.g09.slc.cpg/sg12_161_cif.got.tgz:320257.got - 2010.06.28 00:19:55.
