data_PCOD8096644
_publ_section_title
;
Structure prediction by ZEFSAII (Michael W. Deem and Ramdas Pophale) SiO2 
 PCOD8096644
Probable space group: C 2/M
;
_chemical_formula_sum "Si O2"
_cell_formula_units_Z 48
_cell_length_a 12.853920
_cell_length_b 23.082113
_cell_length_c 10.873772
_cell_angle_alpha 90.000000
_cell_angle_beta 126.408609
_cell_angle_gamma 90.000000
_cell_volume 2596.461222
_symmetry_space_group_name_H-M "C 2/M"
_symmetry_group_IT_number 12
_symmetry_cell_setting 'monoclinic'
loop_
_space_group_symop_operation_xyz
x,y,z
-x,y,-z
-x,-y,-z
x,-y,z
1/2+x,1/2+y,z
1/2-x,1/2+y,-z
1/2-x,1/2-y,-z
1/2+x,1/2-y,z
loop_
_atom_site_type_symbol
_atom_site_label
_atom_site_fract_x
_atom_site_fract_y
_atom_site_fract_z
Si Si1 0.196272 0.322939 0.323161
Si Si2 0.426497 0.715169 0.637864
Si Si3 0.816722 0.565600 0.283328
Si Si4 0.409831 0.932785 0.623088
Si Si5 0.279643 0.263429 0.162660
Si Si6 0.131769 0.838229 0.160299
O O1 0.342960 0.304563 0.462227
O O2 0.103166 0.279673 0.332628
O O3 0.156757 0.389239 0.325773
O O4 0.189728 0.312306 0.169397
O O5 0.576265 0.715667 0.711899
O O6 0.397261 0.665037 0.716249
O O7 0.776642 0.500000 0.238321
O O8 0.852297 0.579449 0.448733
O O9 0.686618 0.599851 0.156946
O O10 0.936565 0.580018 0.277011
O O11 0.385128 0.000000 0.644976
O O12 0.249761 0.204808 0.214291
O O13 0.250000 0.250000 0.000000
O O14 0.000000 0.821703 0.000000
#
# Coordination Sequence:
#
# PCOD8096644 Si02
#       6
#     8   8   8   8   8   8
#     4  10  20  33  57  80 107 143 182 230 271 330
#     4  10  20  35  50  80 109 140 183 220 280 331
#     4   9  18  32  54  82 110 140 181 232 278 322
#     4   9  17  33  56  82 109 140 183 233 279 322
#     4  11  22  35  52  77 112 146 178 219 276 333
#     4  11  20  33  54  74 110 146 181 226 271 332
#
# _framework density 18.486699000000002
#
# number of rings (size 3 to 8) (size 9 to 14) (size 15 to 20)
#    0.000    2.000    3.333    2.500    0.000    0.333 
#    0.000    0.000    0.000    4.000    0.000    3.500 
#    0.000    0.000    0.000    0.000    0.000    0.000 
#
# Total GULP energy -297368.042878 kJ/mol
# GULP energy per Si atom -12390.335120 kJ/mol
# Density = 1.844462 g / cm^3
# Si number density = 18.486699 Si / 1000 Ang^3
#
#
#
# Elastic Constant Matrix: (Units=GPa)
#
#
# Indices 1 2 3 4 5 6 
#
# 1 107.8851 66.2934 32.9034 0.0000 -4.2539 0.0000
# 2 66.2934 114.1071 23.4535 0.0000 -0.7952 0.0000
# 3 32.9034 23.4535 41.0723 0.0000 -11.6363 0.0000
# 4 0.0000 0.0000 0.0000 18.3607 0.0000 0.2309
# 5 -4.2539 -0.7952 -11.6363 0.0000 32.4170 0.0000
# 6 0.0000 0.0000 0.0000 0.2309 0.0000 35.0705
#
#
#
# Elastic Compliance Matrix: (Units=1/GPa)
#
#
# Indices 1 2 3 4 5 6 
#
# 1 0.016968 -0.007924 -0.009454 0.000000 -0.001361 0.000000
# 2 -0.007924 0.013747 -0.001893 0.000000 -0.001382 0.000000
# 3 -0.009454 -0.001893 0.036332 0.000000 0.011755 0.000000
# 4 0.000000 0.000000 0.000000 0.054469 0.000000 -0.000359
# 5 -0.001361 -0.001382 0.011755 0.000000 0.034855 0.000000
# 6 0.000000 0.000000 0.000000 -0.000359 0.000000 0.028516
#
#
# Mechanical properties :
#
#
# Convention : Reuss Voigt Hill
#
# Bulk Modulus (GPa) = 35.08251 56.48502 45.78377
# Shear Modulus (GPa) = 21.46547 26.53058 23.99803
#
# Velocity S-wave (km/s) = 3.41123 3.79240 3.60686
# Velocity P-wave (km/s) = 5.87654 7.05671 6.49349
#
# Compressibility (1/GPa) = 0.02850423
#
# Stress axis : x y z
#
# Youngs Moduli (GPa) = 58.93392 72.74254 27.52375
#
# Poissons Ratio (x) = 0.57644 0.26021
# Poissons Ratio (y) = 0.46702 0.05211
# Poissons Ratio (z) = 0.55716 0.13773
#
# Static dielectric constant tensor:
#      x y z
#    x 3.570730 0.000000 -0.046500 
#    y 0.000000 3.323390 0.000000 
#    z -0.046500 0.000000 3.351890 
# 
# 
# High freq. dielectric constant tensor:
#      x y z
#    x 1.723650 0.000000 0.004760 
#    y 0.000000 1.700700 0.000000 
#    z 0.004760 0.000000 1.696690 
# 
# From -- ./inp_files/132964.got.cif
#   From: 2010.06.25/outbox.cif.g09.slc.cpg/sg12_67_cif.got.tgz:132964.got - 2010.06.28 00:19:55.
