data_PCOD8096868
_publ_section_title
;
Structure prediction by ZEFSAII (Michael W. Deem and Ramdas Pophale) SiO2 
 PCOD8096868
Probable space group: C 2/M
;
_chemical_formula_sum "Si O2"
_cell_formula_units_Z 48
_cell_length_a 14.411314
_cell_length_b 9.010083
_cell_length_c 20.499673
_cell_angle_alpha 90.000000
_cell_angle_beta 109.715366
_cell_angle_gamma 90.000000
_cell_volume 2505.787984
_symmetry_space_group_name_H-M "C 2/M"
_symmetry_group_IT_number 12
_symmetry_cell_setting 'monoclinic'
loop_
_space_group_symop_operation_xyz
x,y,z
-x,y,-z
-x,-y,-z
x,-y,z
1/2+x,1/2+y,z
1/2-x,1/2+y,-z
1/2-x,1/2-y,-z
1/2+x,1/2-y,z
loop_
_atom_site_type_symbol
_atom_site_label
_atom_site_fract_x
_atom_site_fract_y
_atom_site_fract_z
Si Si1 0.339472 0.325837 0.484320
Si Si2 0.891891 0.825064 0.992781
Si Si3 0.357775 0.324782 0.260357
Si Si4 0.059525 0.172542 0.365431
Si Si5 0.706848 0.672933 0.897526
Si Si6 0.260880 0.823761 0.349731
O O1 0.319824 0.500000 0.469806
O O2 0.250000 0.250000 0.500000
O O3 0.434426 0.301079 0.554332
O O4 0.348176 0.246931 0.415882
O O5 0.811208 0.756299 0.925159
O O6 0.889190 0.000000 0.982275
O O7 0.865484 0.778763 0.060739
O O8 0.000000 0.762503 0.000000
O O9 0.347763 0.500000 0.270344
O O10 0.461294 0.257320 0.311157
O O11 0.347982 0.284492 0.182170
O O12 0.272452 0.239261 0.279604
O O13 0.156006 0.235702 0.351578
O O14 0.056307 0.000000 0.348988
O O15 0.730689 0.500000 0.907171
O O16 0.269795 0.000000 0.353352
#
# Coordination Sequence:
#
# PCOD8096868 Si02
#       6
#     8   8   8   8   8   8
#     4   9  16  30  51  73  98 132 174 219 263 306
#     4   9  18  34  57  81 103 133 170 203 242 297
#     4  10  20  35  52  72 101 137 171 204 250 308
#     4   8  17  33  52  71  96 133 172 208 254 311
#     4   9  19  34  52  77 107 133 163 207 252 296
#     4  10  20  34  51  74 101 133 174 218 262 304
#
# _framework density 19.155652
#
# number of rings (size 3 to 8) (size 9 to 14) (size 15 to 20)
#    0.000    2.833    0.000    2.000    0.000    3.000 
#    0.000   11.667    0.000    0.000    0.000    0.000 
#    0.000    0.000    0.000    0.000    0.000    0.000 
#
# Total GULP energy -297477.911993 kJ/mol
# GULP energy per Si atom -12394.913000 kJ/mol
# Density = 1.911205 g / cm^3
# Si number density = 19.155652 Si / 1000 Ang^3
#
#
#
# Elastic Constant Matrix: (Units=GPa)
#
#
# Indices 1 2 3 4 5 6 
#
# 1 89.5736 22.8377 44.8746 0.0000 4.9579 0.0000
# 2 22.8377 51.3415 36.8988 0.0000 0.0888 0.0000
# 3 44.8746 36.8988 125.0974 0.0000 2.4297 0.0000
# 4 0.0000 0.0000 0.0000 30.3271 0.0000 -2.2739
# 5 4.9579 0.0888 2.4297 0.0000 25.3954 0.0000
# 6 0.0000 0.0000 0.0000 -2.2739 0.0000 22.9634
#
#
#
# Elastic Compliance Matrix: (Units=1/GPa)
#
#
# Indices 1 2 3 4 5 6 
#
# 1 0.014186 -0.003404 -0.004039 0.000000 -0.002371 0.000000
# 2 -0.003404 0.025543 -0.006336 0.000000 0.001181 0.000000
# 3 -0.004039 -0.006336 0.011317 0.000000 -0.000272 0.000000
# 4 0.000000 0.000000 0.000000 0.033221 0.000000 0.003290
# 5 -0.002371 0.001181 -0.000272 0.000000 0.039862 0.000000
# 6 0.000000 0.000000 0.000000 0.003290 0.000000 0.043873
#
#
# Mechanical properties :
#
#
# Convention : Reuss Voigt Hill
#
# Bulk Modulus (GPa) = 42.57323 52.80387 47.68855
# Shear Modulus (GPa) = 24.58338 26.49727 25.54032
#
# Velocity S-wave (km/s) = 3.58627 3.72326 3.65541
# Velocity P-wave (km/s) = 6.27866 6.79036 6.53952
#
# Compressibility (1/GPa) = 0.02348894
#
# Stress axis : x y z
#
# Youngs Moduli (GPa) = 70.48971 39.14946 88.36387
#
# Poissons Ratio (x) = 0.13325 0.35690
# Poissons Ratio (y) = 0.23991 0.55990
# Poissons Ratio (z) = 0.28471 0.24806
#
# Static dielectric constant tensor:
#      x y z
#    x 3.528630 0.000000 0.087360 
#    y 0.000000 3.314060 0.000000 
#    z 0.087360 0.000000 3.724680 
# 
# 
# High freq. dielectric constant tensor:
#      x y z
#    x 1.737590 0.000000 -0.002850 
#    y 0.000000 1.725080 0.000000 
#    z -0.002850 0.000000 1.748420 
# 
# From -- ./inp_files/308603.got.cif
#   From: 2010.06.25/outbox.cif.g09.slc.cpg/sg12_155_cif.got.tgz:308603.got - 2010.06.28 00:19:55.
