data_PCOD8096136
_publ_section_title
;
Structure prediction by ZEFSAII (Michael W. Deem and Ramdas Pophale) SiO2 
 PCOD8096136
Probable space group: C 2/M
;
_chemical_formula_sum "Si O2"
_cell_formula_units_Z 64
_cell_length_a 16.466066
_cell_length_b 18.032148
_cell_length_c 24.535354
_cell_angle_alpha 90.000000
_cell_angle_beta 152.656533
_cell_angle_gamma 90.000000
_cell_volume 3346.172844
_symmetry_space_group_name_H-M "C 2/M"
_symmetry_group_IT_number 12
_symmetry_cell_setting 'monoclinic'
loop_
_space_group_symop_operation_xyz
x,y,z
-x,y,-z
-x,-y,-z
x,-y,z
1/2+x,1/2+y,z
1/2-x,1/2+y,-z
1/2-x,1/2-y,-z
1/2+x,1/2-y,z
loop_
_atom_site_type_symbol
_atom_site_label
_atom_site_fract_x
_atom_site_fract_y
_atom_site_fract_z
Si Si1 0.544270 0.581424 0.088832
Si Si2 0.322022 0.265330 0.817190
Si Si3 0.058590 0.799679 0.746624
Si Si4 0.149051 0.170766 0.627485
Si Si5 0.615159 0.152315 0.329469
Si Si6 0.679023 0.805475 0.002820
Si Si7 0.840546 0.417098 0.098232
Si Si8 0.077066 0.087865 0.420559
O O1 0.631985 0.500000 0.149175
O O2 0.677557 0.645557 0.186937
O O3 0.500000 0.595095 0.000000
O O4 0.369322 0.587028 0.020879
O O5 0.203149 0.240854 0.796253
O O6 0.235548 0.239145 0.709744
O O7 0.518855 0.231420 0.941299
O O8 0.160494 0.827563 0.861299
O O9 0.905064 0.739921 0.669540
O O10 0.970221 0.869907 0.663827
O O11 0.291838 0.133821 0.672944
O O12 0.000000 0.206286 0.500000
O O13 0.066986 0.109334 0.619293
O O14 0.421776 0.117908 0.202621
O O15 0.725770 0.112808 0.443483
O O16 0.750000 0.750000 0.000000
O O17 0.607362 0.876863 0.927434
O O18 0.911736 0.500000 0.135245
O O19 0.071488 0.000000 0.406963
#
# Coordination Sequence:
#
# PCOD8096136 Si02
#       8
#     8   8   8   8   8   8   8   8
#     4  10  20  33  51  79 113 144 182 236 291 340
#     4  11  19  36  57  83 111 150 191 230 290 344
#     4  11  23  36  60  85 115 152 198 233 286 355
#     4   9  20  35  59  84 109 147 193 237 284 339
#     4  11  19  38  59  84 112 152 196 244 279 340
#     4  12  20  36  57  82 114 152 189 235 283 348
#     4  11  22  33  54  88 115 145 190 241 291 334
#     4  10  23  40  59  86 119 155 191 241 302 347
#
# _framework density 19.126328999999998
#
# number of rings (size 3 to 8) (size 9 to 14) (size 15 to 20)
#    0.000    1.375    3.750    2.625    0.000    3.250 
#    0.000    0.625    0.000    2.625    0.000    0.000 
#    0.000    0.000    0.000    0.000    0.000    0.000 
#
# Total GULP energy -396723.174717 kJ/mol
# GULP energy per Si atom -12397.599210 kJ/mol
# Density = 1.908280 g / cm^3
# Si number density = 19.126329 Si / 1000 Ang^3
#
#
#
# Elastic Constant Matrix: (Units=GPa)
#
#
# Indices 1 2 3 4 5 6 
#
# 1 50.7473 23.3913 20.2410 0.0058 -12.2901 0.0000
# 2 23.3913 157.5565 61.0383 0.0099 -21.0275 0.0007
# 3 20.2410 61.0383 105.1191 0.0086 -30.0813 0.0014
# 4 0.0058 0.0099 0.0086 29.0851 -0.0001 -1.6970
# 5 -12.2901 -21.0275 -30.0813 -0.0001 33.9717 -0.0006
# 6 0.0000 0.0007 0.0014 -1.6970 -0.0006 21.7723
#
#
#
# Elastic Compliance Matrix: (Units=1/GPa)
#
#
# Indices 1 2 3 4 5 6 
#
# 1 0.022604 -0.001994 -0.001618 -0.000003 0.005511 0.000000
# 2 -0.001994 0.008399 -0.004302 -0.000001 0.000668 0.000000
# 3 -0.001618 -0.004302 0.015260 -0.000003 0.010264 -0.000001
# 4 -0.000003 -0.000001 -0.000003 0.034539 -0.000004 0.002692
# 5 0.005511 0.000668 0.010264 -0.000004 0.040933 0.000000
# 6 0.000000 0.000000 -0.000001 0.002692 0.000000 0.046140
#
#
# Mechanical properties :
#
#
# Convention : Reuss Voigt Hill
#
# Bulk Modulus (GPa) = 32.85535 58.08490 45.47012
# Shear Modulus (GPa) = 25.79377 30.88264 28.33821
#
# Velocity S-wave (km/s) = 3.67631 4.02265 3.85338
# Velocity P-wave (km/s) = 5.93597 7.21184 6.60479
#
# Compressibility (1/GPa) = 0.03043645
#
# Stress axis : x y z
#
# Youngs Moduli (GPa) = 44.23908 119.06810 65.53279
#
# Poissons Ratio (x) = 0.23738 0.10602
# Poissons Ratio (y) = 0.08820 0.28189
# Poissons Ratio (z) = 0.07157 0.51218
#
# Static dielectric constant tensor:
#      x y z
#    x 3.622610 -0.000010 0.011870 
#    y -0.000010 3.695300 -0.000010 
#    z 0.011870 -0.000010 3.746920 
# 
# 
# High freq. dielectric constant tensor:
#      x y z
#    x 1.741420 0.000000 0.001320 
#    y 0.000000 1.733190 0.000000 
#    z 0.001320 0.000000 1.744110 
# 
# From -- ./inp_files/340838.got.cif
#   From: 2010.06.25/outbox.cif.g09.slc.cpg/sg12_171_cif.got.tgz:340838.got - 2010.06.28 00:19:55.
