data_PCOD8096751
_publ_section_title
;
Structure prediction by ZEFSAII (Michael W. Deem and Ramdas Pophale) SiO2 
 PCOD8096751
Probable space group: C 2/M
;
_chemical_formula_sum "Si O2"
_cell_formula_units_Z 64
_cell_length_a 29.108942
_cell_length_b 8.617872
_cell_length_c 15.817478
_cell_angle_alpha 90.000000
_cell_angle_beta 62.237490
_cell_angle_gamma 90.000000
_cell_volume 3511.163074
_symmetry_space_group_name_H-M "C 2/M"
_symmetry_group_IT_number 12
_symmetry_cell_setting 'monoclinic'
loop_
_space_group_symop_operation_xyz
x,y,z
-x,y,-z
-x,-y,-z
x,-y,z
1/2+x,1/2+y,z
1/2-x,1/2+y,-z
1/2-x,1/2-y,-z
1/2+x,1/2-y,z
loop_
_atom_site_type_symbol
_atom_site_label
_atom_site_fract_x
_atom_site_fract_y
_atom_site_fract_z
Si Si1 0.681286 0.317172 0.718032
Si Si2 0.212968 0.180686 0.347215
Si Si3 0.455504 0.318594 0.724214
Si Si4 0.335971 0.179177 0.448258
Si Si5 0.077826 0.184209 0.894192
Si Si6 0.443937 0.177404 0.433464
Si Si7 0.616260 0.819352 0.347452
Si Si8 0.475151 0.684478 0.893981
O O1 0.676925 0.500000 0.706896
O O2 0.734294 0.273064 0.720275
O O3 0.681121 0.231038 0.628984
O O4 0.633373 0.253526 0.815319
O O5 0.195089 0.220160 0.457249
O O6 0.169728 0.228168 0.315999
O O7 0.224345 0.000000 0.330245
O O8 0.443272 0.500000 0.733962
O O9 0.509319 0.290358 0.629595
O O10 0.408000 0.230335 0.720711
O O11 0.459481 0.249676 0.815756
O O12 0.397553 0.204524 0.406609
O O13 0.321351 0.000000 0.476231
O O14 0.032400 0.246086 0.870864
O O15 0.077083 0.000000 0.893792
O O16 0.066419 0.241311 0.999906
O O17 0.424609 0.221513 0.543686
O O18 0.463820 0.000000 0.413996
O O19 0.629663 0.000000 0.337269
O O20 0.476604 0.500000 0.888206
#
# Coordination Sequence:
#
# PCOD8096751 Si02
#       8
#     8   8   8   8   8   8   8   8
#     4  11  20  31  51  77 101 131 170 206 246 297
#     4  11  22  36  52  71  98 131 168 211 252 291
#     4  11  20  29  49  78 103 129 166 209 248 294
#     4  10  20  34  50  72 104 138 169 204 246 292
#     4   8  15  29  50  74 103 135 163 197 242 293
#     4   9  19  33  48  68  99 136 168 201 244 293
#     4  10  21  37  52  68  97 135 171 207 248 295
#     4   8  15  29  48  75 106 131 160 200 245 289
#
# _framework density 18.227577
#
# number of rings (size 3 to 8) (size 9 to 14) (size 15 to 20)
#    0.000    2.250    0.000    5.625    0.000    5.500 
#    0.000    0.000    0.000    3.750    0.000    8.750 
#    0.000    0.000    0.000    0.000    0.000    0.000 
#
# Total GULP energy -396825.603918 kJ/mol
# GULP energy per Si atom -12400.800122 kJ/mol
# Density = 1.818609 g / cm^3
# Si number density = 18.227577 Si / 1000 Ang^3
#
#
#
# Elastic Constant Matrix: (Units=GPa)
#
#
# Indices 1 2 3 4 5 6 
#
# 1 116.1645 15.7846 67.5023 0.0000 3.0341 0.0000
# 2 15.7846 41.2168 11.6889 0.0000 1.4742 0.0000
# 3 67.5023 11.6889 87.6991 0.0000 2.4280 0.0000
# 4 0.0000 0.0000 0.0000 12.7134 0.0000 0.9187
# 5 3.0341 1.4742 2.4280 0.0000 31.4320 0.0000
# 6 0.0000 0.0000 0.0000 0.9187 0.0000 29.0309
#
#
#
# Elastic Compliance Matrix: (Units=1/GPa)
#
#
# Indices 1 2 3 4 5 6 
#
# 1 0.015869 -0.002702 -0.011841 0.000000 -0.000490 0.000000
# 2 -0.002702 0.025702 -0.001323 0.000000 -0.000842 0.000000
# 3 -0.011841 -0.001323 0.020704 0.000000 -0.000394 0.000000
# 4 0.000000 0.000000 0.000000 0.078837 0.000000 -0.002495
# 5 -0.000490 -0.000842 -0.000394 0.000000 0.031932 0.000000
# 6 0.000000 0.000000 0.000000 -0.002495 0.000000 0.034525
#
#
# Mechanical properties :
#
#
# Convention : Reuss Voigt Hill
#
# Bulk Modulus (GPa) = 32.73962 48.33690 40.53826
# Shear Modulus (GPa) = 20.04162 24.64224 22.34193
#
# Velocity S-wave (km/s) = 3.31950 3.68084 3.50483
# Velocity P-wave (km/s) = 5.71775 6.68138 6.21826
#
# Compressibility (1/GPa) = 0.03054403
#
# Stress axis : x y z
#
# Youngs Moduli (GPa) = 63.01609 38.90769 48.30054
#
# Poissons Ratio (x) = 0.10512 0.57191
# Poissons Ratio (y) = 0.17025 0.06389
# Poissons Ratio (z) = 0.74616 0.05147
#
# Static dielectric constant tensor:
#      x y z
#    x 3.525660 0.000000 0.004360 
#    y 0.000000 3.125660 0.000000 
#    z 0.004360 0.000000 3.411020 
# 
# 
# High freq. dielectric constant tensor:
#      x y z
#    x 1.711830 0.000000 0.000550 
#    y 0.000000 1.691740 0.000000 
#    z 0.000550 0.000000 1.683400 
# 
# From -- ./inp_files/249124.got.cif
#   From: 2010.06.25/outbox.cif.g09.slc.cpg/sg12_125_cif.got.tgz:249124.got - 2010.06.28 00:19:55.
