data_PCOD8096483
_publ_section_title
;
Structure prediction by ZEFSAII (Michael W. Deem and Ramdas Pophale) SiO2 
 PCOD8096483
Probable space group: C 2/M
;
_chemical_formula_sum "Si O2"
_cell_formula_units_Z 64
_cell_length_a 33.128844
_cell_length_b 17.436279
_cell_length_c 22.175147
_cell_angle_alpha 90.000000
_cell_angle_beta 16.950254
_cell_angle_gamma 90.000000
_cell_volume 3734.450317
_symmetry_space_group_name_H-M "C 2/M"
_symmetry_group_IT_number 12
_symmetry_cell_setting 'monoclinic'
loop_
_space_group_symop_operation_xyz
x,y,z
-x,y,-z
-x,-y,-z
x,-y,z
1/2+x,1/2+y,z
1/2-x,1/2+y,-z
1/2-x,1/2-y,-z
1/2+x,1/2-y,z
loop_
_atom_site_type_symbol
_atom_site_label
_atom_site_fract_x
_atom_site_fract_y
_atom_site_fract_z
Si Si1 0.069936 0.412983 0.623797
Si Si2 0.770954 0.087431 0.053857
Si Si3 0.118307 0.816525 0.214999
Si Si4 0.790698 0.169129 0.142076
Si Si5 0.673124 0.172138 0.970719
Si Si6 0.401640 0.583956 0.583491
Si Si7 0.361553 0.589331 0.162467
Si Si8 0.009335 0.346873 0.385711
O O1 0.043020 0.500000 0.683027
O O2 0.233674 0.392326 0.390659
O O3 0.024562 0.404799 0.619509
O O4 0.980916 0.357672 0.793896
O O5 0.829621 0.105214 0.036458
O O6 0.607097 0.105289 0.290929
O O7 0.803395 0.000000 0.990064
O O8 0.832175 0.143773 0.916476
O O9 0.232005 0.821450 0.105325
O O10 0.088544 0.727338 0.245120
O O11 0.971865 0.855959 0.438421
O O12 0.848913 0.249218 0.034003
O O13 0.859132 0.143463 0.107047
O O14 0.625675 0.179170 0.384868
O O15 0.747940 0.111763 0.819867
O O16 0.500000 0.577526 0.500000
O O17 0.388388 0.500000 0.571957
O O18 0.355684 0.500000 0.151085
O O19 0.500000 0.609752 0.000000
#
# Coordination Sequence:
#
# PCOD8096483 Si02
#       8
#     8   8   8   8   8   8   8   8
#     4  10  20  33  54  80 103 135 176 214 257 307
#     4  12  23  31  46  72 107 144 182 219 246 298
#     4  11  20  33  46  67 107 153 184 205 250 294
#     4  11  22  34  53  78 104 136 175 215 265 316
#     4  11  19  32  49  74 109 138 178 215 254 300
#     4   9  18  29  46  66  97 144 187 219 241 280
#     4   9  20  41  63  79 101 131 168 220 278 328
#     4  11  20  33  48  69 105 146 178 208 248 304
#
# _framework density 17.137730000000001
#
# number of rings (size 3 to 8) (size 9 to 14) (size 15 to 20)
#    0.000    1.500    3.750    3.000    0.000    3.000 
#    0.000    0.625    0.000    0.000    0.000    0.000 
#    0.000    1.000    0.000    0.000    0.000    0.000 
#
# Total GULP energy -396702.300288 kJ/mol
# GULP energy per Si atom -12396.946884 kJ/mol
# Density = 1.709872 g / cm^3
# Si number density = 17.137730 Si / 1000 Ang^3
#
#
#
# Elastic Constant Matrix: (Units=GPa)
#
#
# Indices 1 2 3 4 5 6 
#
# 1 61.0901 30.2877 45.6835 -0.0156 4.8382 -0.0013
# 2 30.2877 87.6067 42.4010 -0.0206 8.1636 -0.0054
# 3 45.6835 42.4010 106.9207 -0.0156 5.7758 -0.0111
# 4 -0.0156 -0.0206 -0.0156 21.0533 0.0158 1.4461
# 5 4.8382 8.1636 5.7758 0.0158 22.3467 0.0023
# 6 -0.0013 -0.0054 -0.0111 1.4461 0.0023 11.7913
#
#
#
# Elastic Compliance Matrix: (Units=1/GPa)
#
#
# Indices 1 2 3 4 5 6 
#
# 1 0.025385 -0.004232 -0.009082 0.000010 -0.001603 -0.000009
# 2 -0.004232 0.015151 -0.004007 0.000011 -0.003583 0.000002
# 3 -0.009082 -0.004007 0.014844 0.000000 -0.000407 0.000011
# 4 0.000010 0.000011 0.000000 0.047902 -0.000039 -0.005875
# 5 -0.001603 -0.003583 -0.000407 -0.000039 0.046511 -0.000006
# 6 -0.000009 0.000002 0.000011 -0.005875 -0.000006 0.085529
#
#
# Mechanical properties :
#
#
# Convention : Reuss Voigt Hill
#
# Bulk Modulus (GPa) = 48.21530 54.70687 51.46108
# Shear Modulus (GPa) = 18.05871 20.18794 19.12332
#
# Velocity S-wave (km/s) = 3.24966 3.43590 3.34407
# Velocity P-wave (km/s) = 6.50196 6.90881 6.70847
#
# Compressibility (1/GPa) = 0.02074031
#
# Stress axis : x y z
#
# Youngs Moduli (GPa) = 39.39262 66.00359 67.36774
#
# Poissons Ratio (x) = 0.27929 0.61181
# Poissons Ratio (y) = 0.16669 0.26992
# Poissons Ratio (z) = 0.35775 0.26446
#
# Static dielectric constant tensor:
#      x y z
#    x 2.824690 -0.000010 0.228560 
#    y -0.000010 3.349500 0.000010 
#    z 0.228560 0.000010 3.338040 
# 
# 
# High freq. dielectric constant tensor:
#      x y z
#    x 1.616690 0.000000 0.032690 
#    y 0.000000 1.673510 0.000000 
#    z 0.032690 0.000000 1.659530 
# 
# From -- ./inp_files/330500.got.cif
#   From: 2010.06.25/outbox.cif.g09.slc.cpg/sg12_166_cif.got.tgz:330500.got - 2010.06.28 00:19:55.
