data_PCOD8096145
_publ_section_title
;
Structure prediction by ZEFSAII (Michael W. Deem and Ramdas Pophale) SiO2 
 PCOD8096145
Probable space group: C 2/M
;
_chemical_formula_sum "Si O2"
_cell_formula_units_Z 56
_cell_length_a 31.237463
_cell_length_b 8.870409
_cell_length_c 13.602229
_cell_angle_alpha 90.000000
_cell_angle_beta 50.013799
_cell_angle_gamma 90.000000
_cell_volume 2887.827130
_symmetry_space_group_name_H-M "C 2/M"
_symmetry_group_IT_number 12
_symmetry_cell_setting 'monoclinic'
loop_
_space_group_symop_operation_xyz
x,y,z
-x,y,-z
-x,-y,-z
x,-y,z
1/2+x,1/2+y,z
1/2-x,1/2+y,-z
1/2-x,1/2-y,-z
1/2+x,1/2-y,z
loop_
_atom_site_type_symbol
_atom_site_label
_atom_site_fract_x
_atom_site_fract_y
_atom_site_fract_z
Si Si1 0.908129 0.176441 0.172328
Si Si2 0.025352 0.175294 0.728545
Si Si3 0.190413 0.676277 0.580429
Si Si4 0.819359 0.824926 0.995236
Si Si5 0.376106 0.824923 0.516273
Si Si6 0.691168 0.824527 0.192521
Si Si7 0.419742 0.178156 0.953338
O O1 0.947983 0.211370 0.205030
O O2 0.847618 0.248144 0.280153
O O3 0.901400 0.000000 0.163215
O O4 0.934582 0.252306 0.037416
O O5 0.066612 0.232511 0.581870
O O6 0.966710 0.263353 0.807687
O O7 0.014008 0.000000 0.729604
O O8 0.194202 0.500000 0.596240
O O9 0.250000 0.750000 0.500000
O O10 0.166513 0.712175 0.508228
O O11 0.829171 0.773743 0.868982
O O12 0.858811 0.731211 0.009140
O O13 0.834401 0.000000 0.982466
O O14 0.755872 0.791596 0.121890
O O15 0.346465 0.774035 0.660256
O O16 0.391764 0.000000 0.494481
O O17 0.683012 0.000000 0.178825
O O18 0.421423 0.000000 0.956689
#
# Coordination Sequence:
#
# PCOD8096145 Si02
#       7
#     8   8   8   8   8   8   8
#     4  10  21  37  56  79 112 151 190 233 282 333
#     4  10  21  38  58  83 113 149 189 233 280 334
#     4  10  20  33  51  80 115 151 190 231 275 330
#     4  10  21  37  59  86 115 147 185 233 281 335
#     4   9  19  36  58  81 110 150 187 226 282 337
#     4   9  19  38  61  84 113 148 184 228 285 340
#     4  12  24  37  57  84 114 149 190 236 280 335
#
# _framework density 19.391742000000001
#
# number of rings (size 3 to 8) (size 9 to 14) (size 15 to 20)
#    0.000    2.000    0.000    3.429    2.000    5.143 
#    0.000    0.714    0.000    4.286    0.000    0.000 
#    0.000    0.000    0.000    0.000    0.000    0.000 
#
# Total GULP energy -347334.944860 kJ/mol
# GULP energy per Si atom -12404.819459 kJ/mol
# Density = 1.934761 g / cm^3
# Si number density = 19.391742 Si / 1000 Ang^3
#
#
#
# Elastic Constant Matrix: (Units=GPa)
#
#
# Indices 1 2 3 4 5 6 
#
# 1 43.9157 26.9125 21.9979 0.0000 -10.1600 0.0000
# 2 26.9125 96.7680 40.8138 -0.0001 -6.4419 0.0002
# 3 21.9979 40.8138 123.4795 0.0000 -8.8049 0.0000
# 4 0.0000 -0.0001 0.0000 36.2212 0.0000 -2.1012
# 5 -10.1600 -6.4419 -8.8049 0.0000 24.5324 0.0000
# 6 0.0000 0.0002 0.0000 -2.1012 0.0000 32.8512
#
#
#
# Elastic Compliance Matrix: (Units=1/GPa)
#
#
# Indices 1 2 3 4 5 6 
#
# 1 0.030460 -0.006762 -0.002482 0.000000 0.009948 0.000000
# 2 -0.006762 0.013585 -0.003316 0.000000 -0.000423 0.000000
# 3 -0.002482 -0.003316 0.009751 0.000000 0.001601 0.000000
# 4 0.000000 0.000000 0.000000 0.027711 0.000000 0.001772
# 5 0.009948 -0.000423 0.001601 0.000000 0.045346 0.000000
# 6 0.000000 0.000000 0.000000 0.001772 0.000000 0.030554
#
#
# Mechanical properties :
#
#
# Convention : Reuss Voigt Hill
#
# Bulk Modulus (GPa) = 34.87266 49.29017 42.08142
# Shear Modulus (GPa) = 26.03021 30.35021 28.19021
#
# Velocity S-wave (km/s) = 3.66776 3.96044 3.81691
# Velocity P-wave (km/s) = 5.99658 6.81078 6.41661
#
# Compressibility (1/GPa) = 0.02867576
#
# Stress axis : x y z
#
# Youngs Moduli (GPa) = 32.83022 73.61075 102.55582
#
# Poissons Ratio (x) = 0.49777 0.25453
# Poissons Ratio (y) = 0.22201 0.34005
# Poissons Ratio (z) = 0.08148 0.24408
#
# Static dielectric constant tensor:
#      x y z
#    x 3.382650 0.000000 -0.123240 
#    y 0.000000 3.579110 0.000000 
#    z -0.123240 0.000000 3.709940 
# 
# 
# High freq. dielectric constant tensor:
#      x y z
#    x 1.742520 0.000000 -0.014090 
#    y 0.000000 1.763130 0.000000 
#    z -0.014090 0.000000 1.759360 
# 
# From -- ./inp_files/187214.got.cif
#   From: 2010.06.25/outbox.cif.g09.slc.cpg/sg12_94_cif.got.tgz:187214.got - 2010.06.28 00:19:55.
