data_PCOD8096503
_publ_section_title
;
Structure prediction by ZEFSAII (Michael W. Deem and Ramdas Pophale) SiO2 
 PCOD8096503
Probable space group: C 2/M
;
_chemical_formula_sum "Si O2"
_cell_formula_units_Z 56
_cell_length_a 18.780391
_cell_length_b 16.857209
_cell_length_c 9.683815
_cell_angle_alpha 90.000000
_cell_angle_beta 98.265168
_cell_angle_gamma 90.000000
_cell_volume 3033.907512
_symmetry_space_group_name_H-M "C 2/M"
_symmetry_group_IT_number 12
_symmetry_cell_setting 'monoclinic'
loop_
_space_group_symop_operation_xyz
x,y,z
-x,y,-z
-x,-y,-z
x,-y,z
1/2+x,1/2+y,z
1/2-x,1/2+y,-z
1/2-x,1/2-y,-z
1/2+x,1/2-y,z
loop_
_atom_site_type_symbol
_atom_site_label
_atom_site_fract_x
_atom_site_fract_y
_atom_site_fract_z
Si Si1 0.564529 0.638717 0.112431
Si Si2 0.708498 0.367175 0.023690
Si Si3 0.199500 0.193098 0.575260
Si Si4 0.422337 0.819420 0.966115
Si Si5 0.330100 0.219164 0.174398
Si Si6 0.206185 0.412982 0.200050
Si Si7 0.931750 0.907203 0.575809
O O1 0.571224 0.733658 0.104976
O O2 0.546534 0.610966 0.261401
O O3 0.500000 0.606888 0.000000
O O4 0.637834 0.596974 0.077383
O O5 0.689882 0.288560 0.935715
O O6 0.744770 0.425733 0.923147
O O7 0.764774 0.344305 0.160843
O O8 0.250000 0.250000 0.500000
O O9 0.154737 0.248757 0.668689
O O10 0.252139 0.134406 0.670750
O O11 0.140034 0.143569 0.475548
O O12 0.367740 0.869059 0.857509
O O13 0.500000 0.860922 0.000000
O O14 0.399708 0.818665 0.121746
O O15 0.187833 0.500000 0.253021
O O16 0.000000 0.882706 0.500000
O O17 0.913852 0.000000 0.549175
#
# Coordination Sequence:
#
# PCOD8096503 Si02
#       7
#     8   8   8   8   8   8   8
#     4  10  20  35  59  82 106 148 195 234 277 335
#     4   8  15  30  50  78 106 129 178 234 269 322
#     4  11  21  37  59  79 108 151 198 239 278 340
#     4   9  18  32  56  86 112 137 188 240 279 325
#     4   8  15  29  52  79 102 133 174 231 279 311
#     4  10  20  33  54  82 111 149 185 231 294 342
#     4  11  26  40  52  82 126 158 185 234 300 357
#
# _framework density 18.458044000000001
#
# number of rings (size 3 to 8) (size 9 to 14) (size 15 to 20)
#    0.000    2.429    0.000    4.714    8.000    1.143 
#    0.000    0.000    0.000    0.857    0.000    1.000 
#    0.000    0.000    0.000    0.000    0.000    0.000 
#
# Total GULP energy -346955.837096 kJ/mol
# GULP energy per Si atom -12391.279896 kJ/mol
# Density = 1.841603 g / cm^3
# Si number density = 18.458044 Si / 1000 Ang^3
#
#
#
# Elastic Constant Matrix: (Units=GPa)
#
#
# Indices 1 2 3 4 5 6 
#
# 1 134.5695 42.1882 52.2711 0.0000 4.3110 0.0000
# 2 42.1882 67.8664 34.2950 0.0000 3.8734 0.0000
# 3 52.2711 34.2950 112.5398 0.0000 2.4271 0.0000
# 4 0.0000 0.0000 0.0000 11.9357 0.0000 -1.1402
# 5 4.3110 3.8734 2.4271 0.0000 30.7302 0.0000
# 6 0.0000 0.0000 0.0000 -1.1402 0.0000 15.0977
#
#
#
# Elastic Compliance Matrix: (Units=1/GPa)
#
#
# Indices 1 2 3 4 5 6 
#
# 1 0.010185 -0.004626 -0.003308 0.000000 -0.000584 0.000000
# 2 -0.004626 0.019616 -0.003796 0.000000 -0.001524 0.000000
# 3 -0.003308 -0.003796 0.011579 0.000000 0.000028 0.000000
# 4 0.000000 0.000000 0.000000 0.084391 0.000000 0.006374
# 5 -0.000584 -0.001524 0.000028 0.000000 0.032813 0.000000
# 6 0.000000 0.000000 0.000000 0.006374 0.000000 0.066716
#
#
# Mechanical properties :
#
#
# Convention : Reuss Voigt Hill
#
# Bulk Modulus (GPa) = 55.80876 63.60937 59.70907
# Shear Modulus (GPa) = 19.62828 23.96750 21.79789
#
# Velocity S-wave (km/s) = 3.26452 3.60736 3.44021
# Velocity P-wave (km/s) = 6.67162 7.20327 6.94254
#
# Compressibility (1/GPa) = 0.01791833
#
# Stress axis : x y z
#
# Youngs Moduli (GPa) = 98.18097 50.97878 86.36683
#
# Poissons Ratio (x) = 0.23585 0.28573
# Poissons Ratio (y) = 0.45422 0.32785
# Poissons Ratio (z) = 0.32481 0.19352
#
# Static dielectric constant tensor:
#      x y z
#    x 3.874900 0.000000 -0.197500 
#    y 0.000000 3.243780 0.000000 
#    z -0.197500 0.000000 3.362640 
# 
# 
# High freq. dielectric constant tensor:
#      x y z
#    x 1.725440 0.000000 -0.004000 
#    y 0.000000 1.693140 0.000000 
#    z -0.004000 0.000000 1.703280 
# 
# From -- ./inp_files/76918.got.cif
#   From: 2010.06.25/outbox.cif.g09.slc.cpg/sg12_39_cif.got.tgz:76918.got - 2010.06.28 00:19:55.
