data_PCOD8096898
_publ_section_title
;
Structure prediction by ZEFSAII (Michael W. Deem and Ramdas Pophale) SiO2 
 PCOD8096898
Probable space group: C 2/M
;
_chemical_formula_sum "Si O2"
_cell_formula_units_Z 48
_cell_length_a 20.369291
_cell_length_b 9.219105
_cell_length_c 19.159477
_cell_angle_alpha 90.000000
_cell_angle_beta 130.480281
_cell_angle_gamma 90.000000
_cell_volume 2736.663829
_symmetry_space_group_name_H-M "C 2/M"
_symmetry_group_IT_number 12
_symmetry_cell_setting 'monoclinic'
loop_
_space_group_symop_operation_xyz
x,y,z
-x,y,-z
-x,-y,-z
x,-y,z
1/2+x,1/2+y,z
1/2-x,1/2+y,-z
1/2-x,1/2-y,-z
1/2+x,1/2-y,z
loop_
_atom_site_type_symbol
_atom_site_label
_atom_site_fract_x
_atom_site_fract_y
_atom_site_fract_z
Si Si1 0.597796 0.170537 0.076445
Si Si2 0.256230 0.170973 0.931015
Si Si3 0.289073 0.335048 0.740216
Si Si4 0.284935 0.828161 0.457014
Si Si5 0.357484 0.165495 0.251107
Si Si6 0.974167 0.671485 0.556275
O O1 0.654989 0.213477 0.048041
O O2 0.636633 0.239219 0.173365
O O3 0.599211 0.000000 0.088928
O O4 0.500000 0.227727 0.000000
O O5 0.175094 0.224682 0.830116
O O6 0.249445 0.000000 0.937941
O O7 0.250000 0.250000 0.000000
O O8 0.321603 0.500000 0.765259
O O9 0.273146 0.284283 0.649880
O O10 0.198324 0.318973 0.717255
O O11 0.250000 0.750000 0.500000
O O12 0.381709 0.767520 0.514855
O O13 0.283984 0.000000 0.467139
O O14 0.455088 0.211622 0.336360
O O15 0.352559 0.000000 0.219610
O O16 0.968725 0.500000 0.543255
O O17 0.000000 0.742016 0.500000
#
# Coordination Sequence:
#
# PCOD8096898 Si02
#       6
#     8   8   8   8   8   8
#     4   9  19  36  56  76  98 129 171 212 249 298
#     4  10  20  35  54  76 105 134 164 207 258 305
#     4   9  17  31  53  77 101 131 168 210 252 297
#     4  10  20  34  51  75 107 138 168 205 252 300
#     4   9  16  30  55  80  99 127 172 215 250 291
#     4   9  15  29  55  79  97 128 175 214 240 288
#
# _framework density 17.539605000000002
#
# number of rings (size 3 to 8) (size 9 to 14) (size 15 to 20)
#    0.000    2.667    1.667    0.500    0.000    1.667 
#    3.000    0.833    0.000    1.000    0.000    0.000 
#    0.000    0.000    0.000    0.000    0.000    0.000 
#
# Total GULP energy -297564.417661 kJ/mol
# GULP energy per Si atom -12398.517403 kJ/mol
# Density = 1.749968 g / cm^3
# Si number density = 17.539605 Si / 1000 Ang^3
#
#
#
# Elastic Constant Matrix: (Units=GPa)
#
#
# Indices 1 2 3 4 5 6 
#
# 1 118.5513 41.5164 92.0534 0.0000 1.9928 0.0000
# 2 41.5164 49.4558 55.1547 0.0000 -4.1759 0.0000
# 3 92.0534 55.1547 147.0141 0.0000 -0.6625 0.0000
# 4 0.0000 0.0000 0.0000 30.4803 0.0000 -4.0131
# 5 1.9928 -4.1759 -0.6625 0.0000 36.4375 0.0000
# 6 0.0000 0.0000 0.0000 -4.0131 0.0000 25.7474
#
#
#
# Elastic Compliance Matrix: (Units=1/GPa)
#
#
# Indices 1 2 3 4 5 6 
#
# 1 0.016977 -0.004337 -0.009010 0.000000 -0.001589 0.000000
# 2 -0.004337 0.036394 -0.010919 0.000000 0.004210 0.000000
# 3 -0.009010 -0.010919 0.016538 0.000000 -0.000458 0.000000
# 4 0.000000 0.000000 0.000000 0.033495 0.000000 0.005221
# 5 -0.001589 0.004210 -0.000458 0.000000 0.028005 0.000000
# 6 0.000000 0.000000 0.000000 0.005221 0.000000 0.039653
#
#
# Mechanical properties :
#
#
# Convention : Reuss Voigt Hill
#
# Bulk Modulus (GPa) = 46.78138 76.94113 61.86125
# Shear Modulus (GPa) = 22.05361 26.95282 24.50321
#
# Velocity S-wave (km/s) = 3.54978 3.92431 3.74173
# Velocity P-wave (km/s) = 6.59780 8.03093 7.34938
#
# Compressibility (1/GPa) = 0.02137603
#
# Stress axis : x y z
#
# Youngs Moduli (GPa) = 58.90282 27.47739 60.46643
#
# Poissons Ratio (x) = 0.11918 0.54481
# Poissons Ratio (y) = 0.25549 0.66022
# Poissons Ratio (z) = 0.53072 0.30002
#
# Static dielectric constant tensor:
#      x y z
#    x 3.292410 0.000000 0.133010 
#    y 0.000000 3.062860 0.000000 
#    z 0.133010 0.000000 3.400920 
# 
# 
# High freq. dielectric constant tensor:
#      x y z
#    x 1.667310 0.000000 0.003740 
#    y 0.000000 1.656730 0.000000 
#    z 0.003740 0.000000 1.687410 
# 
# From -- ./inp_files/274104.got.cif
#   From: 2010.06.25/outbox.cif.g09.slc.cpg/sg12_138_cif.got.tgz:274104.got - 2010.06.28 00:19:55.
