data_PCOD8096000
_publ_section_title
;
Structure prediction by ZEFSAII (Michael W. Deem and Ramdas Pophale) SiO2 
 PCOD8096000
Probable space group: C 2/M
;
_chemical_formula_sum "Si O2"
_cell_formula_units_Z 48
_cell_length_a 27.152331
_cell_length_b 8.474686
_cell_length_c 13.667437
_cell_angle_alpha 90.000000
_cell_angle_beta 120.493901
_cell_angle_gamma 90.000000
_cell_volume 2709.975923
_symmetry_space_group_name_H-M "C 2/M"
_symmetry_group_IT_number 12
_symmetry_cell_setting 'monoclinic'
loop_
_space_group_symop_operation_xyz
x,y,z
-x,y,-z
-x,-y,-z
x,-y,z
1/2+x,1/2+y,z
1/2-x,1/2+y,-z
1/2-x,1/2-y,-z
1/2+x,1/2-y,z
loop_
_atom_site_type_symbol
_atom_site_label
_atom_site_fract_x
_atom_site_fract_y
_atom_site_fract_z
Si Si1 0.775819 0.682917 0.887302
Si Si2 0.564497 0.314842 0.461312
Si Si3 0.664445 0.184938 0.440169
Si Si4 0.726506 0.682890 0.325174
Si Si5 0.660783 0.682825 0.875815
Si Si6 0.942280 0.316693 0.336965
O O1 0.785316 0.500000 0.919887
O O2 0.784043 0.715325 0.781761
O O3 0.712554 0.735624 0.857135
O O4 0.822805 0.780734 0.995565
O O5 0.575636 0.500000 0.480396
O O6 0.603090 0.240310 0.415663
O O7 0.581391 0.235085 0.581121
O O8 0.498842 0.281926 0.367836
O O9 0.676868 0.276360 0.352117
O O10 0.712184 0.230534 0.568387
O O11 0.664918 0.000000 0.418840
O O12 0.724052 0.500000 0.294943
O O13 0.645916 0.500000 0.848296
O O14 0.605362 0.783868 0.792208
O O15 0.958240 0.500000 0.354833
#
# Coordination Sequence:
#
# PCOD8096000 Si02
#       6
#     8   8   8   8   8   8
#     4  10  20  33  51  75 103 135 169 207 251 298
#     4  11  21  34  52  75 103 134 169 207 251 299
#     4  10  20  34  52  75 103 134 169 208 251 298
#     4  10  20  33  51  75 103 135 169 207 251 298
#     4  10  20  34  52  75 103 134 169 208 251 298
#     4  11  21  34  52  75 103 134 169 207 251 299
#
# _framework density 17.712333000000001
#
# number of rings (size 3 to 8) (size 9 to 14) (size 15 to 20)
#    0.000    1.667    0.000    7.000    0.000    6.667 
#    0.000    0.000    0.000    1.000    0.000    7.000 
#    0.000    0.000    0.000    0.000    0.000    0.000 
#
# Total GULP energy -297752.865107 kJ/mol
# GULP energy per Si atom -12406.369379 kJ/mol
# Density = 1.767202 g / cm^3
# Si number density = 17.712333 Si / 1000 Ang^3
#
#
#
# Elastic Constant Matrix: (Units=GPa)
#
#
# Indices 1 2 3 4 5 6 
#
# 1 83.5986 5.3236 36.2084 0.0000 -7.3974 0.0000
# 2 5.3236 56.0112 12.9208 0.0000 1.3672 0.0000
# 3 36.2084 12.9208 94.2432 0.0000 -1.3018 0.0000
# 4 0.0000 0.0000 0.0000 30.5121 0.0000 -1.3028
# 5 -7.3974 1.3672 -1.3018 0.0000 24.6752 0.0000
# 6 0.0000 0.0000 0.0000 -1.3028 0.0000 29.6234
#
#
#
# Elastic Compliance Matrix: (Units=1/GPa)
#
#
# Indices 1 2 3 4 5 6 
#
# 1 0.014761 -0.000216 -0.005584 0.000000 0.004143 0.000000
# 2 -0.000216 0.018473 -0.002467 0.000000 -0.001218 0.000000
# 3 -0.005584 -0.002467 0.013083 0.000000 -0.000847 0.000000
# 4 0.000000 0.000000 0.000000 0.032836 0.000000 0.001444
# 5 0.004143 -0.001218 -0.000847 0.000000 0.041791 0.000000
# 6 0.000000 0.000000 0.000000 0.001444 0.000000 0.033821
#
#
# Mechanical properties :
#
#
# Convention : Reuss Voigt Hill
#
# Bulk Modulus (GPa) = 33.57610 38.08428 35.83019
# Shear Modulus (GPa) = 27.58999 28.92216 28.25608
#
# Velocity S-wave (km/s) = 3.95102 4.04528 3.99842
# Velocity P-wave (km/s) = 6.30964 6.58538 6.44898
#
# Compressibility (1/GPa) = 0.02978309
#
# Stress axis : x y z
#
# Youngs Moduli (GPa) = 67.74636 54.13356 76.43603
#
# Poissons Ratio (x) = 0.01168 0.42685
# Poissons Ratio (y) = 0.01462 0.18853
# Poissons Ratio (z) = 0.37832 0.13352
#
# Static dielectric constant tensor:
#      x y z
#    x 3.211030 0.000000 0.015700 
#    y 0.000000 3.348640 0.000000 
#    z 0.015700 0.000000 3.142920 
# 
# 
# High freq. dielectric constant tensor:
#      x y z
#    x 1.672400 0.000000 -0.000470 
#    y 0.000000 1.703370 0.000000 
#    z -0.000470 0.000000 1.672530 
# 
# From -- ./inp_files/180257.got.cif
#   From: 2010.06.25/outbox.cif.g09.slc.cpg/sg12_91_cif.got.tgz:180257.got - 2010.06.28 00:19:55.
