data_PCOD8096473
_publ_section_title
;
Structure prediction by ZEFSAII (Michael W. Deem and Ramdas Pophale) SiO2 
 PCOD8096473
Probable space group: C 2/M
;
_chemical_formula_sum "Si O2"
_cell_formula_units_Z 64
_cell_length_a 13.969355
_cell_length_b 13.839200
_cell_length_c 18.290820
_cell_angle_alpha 90.000000
_cell_angle_beta 116.668889
_cell_angle_gamma 90.000000
_cell_volume 3159.883554
_symmetry_space_group_name_H-M "C 2/M"
_symmetry_group_IT_number 12
_symmetry_cell_setting 'monoclinic'
loop_
_space_group_symop_operation_xyz
x,y,z
-x,y,-z
-x,-y,-z
x,-y,z
1/2+x,1/2+y,z
1/2-x,1/2+y,-z
1/2-x,1/2-y,-z
1/2+x,1/2-y,z
loop_
_atom_site_type_symbol
_atom_site_label
_atom_site_fract_x
_atom_site_fract_y
_atom_site_fract_z
Si Si1 0.791231 0.173818 0.574572
Si Si2 0.413511 0.890169 0.417844
Si Si3 0.823951 0.331517 0.682650
Si Si4 0.385473 0.392868 0.471553
Si Si5 0.046425 0.607801 0.725876
Si Si6 0.382514 0.885687 0.858388
Si Si7 0.102323 0.701100 0.894312
Si Si8 0.233231 0.887571 0.946070
O O1 0.750000 0.250000 0.500000
O O2 0.698908 0.112146 0.580590
O O3 0.856846 0.224671 0.663799
O O4 0.864004 0.102479 0.551542
O O5 0.500000 0.837788 0.500000
O O6 0.413745 0.843708 0.336619
O O7 0.450589 0.000000 0.417143
O O8 0.705890 0.341988 0.607738
O O9 0.816156 0.343378 0.766950
O O10 0.916287 0.401797 0.683255
O O11 0.500000 0.339880 0.500000
O O12 0.392325 0.500000 0.441888
O O13 0.093494 0.500000 0.752766
O O14 0.087180 0.676392 0.804289
O O15 0.494444 0.826832 0.902169
O O16 0.311003 0.865698 0.904446
O O17 0.407386 0.000000 0.857357
O O18 0.130211 0.815896 0.909111
O O19 0.199803 0.636653 0.958246
O O20 0.195735 0.000000 0.933960
#
# Coordination Sequence:
#
# PCOD8096473 Si02
#       8
#     8   8   8   8   8   8   8   8
#     4  10  21  32  47  73 101 138 177 228 284 342
#     4  10  20  34  54  77 105 142 187 240 293 346
#     4  10  20  33  54  77 108 140 186 241 287 341
#     4  10  20  35  52  71 102 144 190 236 289 347
#     4  10  20  35  59  86 111 146 193 246 298 346
#     4  10  20  37  62  89 117 156 204 249 296 350
#     4  10  20  36  62  92 125 157 198 248 296 356
#     4  10  21  37  62  94 126 160 198 245 300 362
#
# _framework density 20.253910000000001
#
# number of rings (size 3 to 8) (size 9 to 14) (size 15 to 20)
#    0.000    2.000    0.000    5.250    1.750    6.000 
#    2.250    0.000    0.000   10.500    0.000    0.000 
#    0.000    0.500    0.000    0.000    0.000    0.000 
#
# Total GULP energy -396480.464013 kJ/mol
# GULP energy per Si atom -12390.014500 kJ/mol
# Density = 2.020781 g / cm^3
# Si number density = 20.253910 Si / 1000 Ang^3
#
#
#
# Elastic Constant Matrix: (Units=GPa)
#
#
# Indices 1 2 3 4 5 6 
#
# 1 110.3709 21.0088 46.9843 0.0000 0.6103 0.0000
# 2 21.0088 88.8102 33.3637 0.0000 9.1387 0.0000
# 3 46.9843 33.3637 103.2109 0.0000 1.0906 0.0000
# 4 0.0000 0.0000 0.0000 27.5005 0.0000 21.5766
# 5 0.6103 9.1387 1.0906 0.0000 30.3096 0.0000
# 6 0.0000 0.0000 0.0000 21.5766 0.0000 147.6014
#
#
#
# Elastic Compliance Matrix: (Units=1/GPa)
#
#
# Indices 1 2 3 4 5 6 
#
# 1 0.011295 -0.000866 -0.004864 0.000000 0.000209 0.000000
# 2 -0.000866 0.013315 -0.003869 0.000000 -0.003858 0.000000
# 3 -0.004864 -0.003869 0.013145 0.000000 0.000792 0.000000
# 4 0.000000 0.000000 0.000000 0.041074 0.000000 -0.006004
# 5 0.000209 -0.003858 0.000792 0.000000 0.034123 0.000000
# 6 0.000000 0.000000 0.000000 -0.006004 0.000000 0.007653
#
#
# Mechanical properties :
#
#
# Convention : Reuss Voigt Hill
#
# Bulk Modulus (GPa) = 53.88782 56.12285 55.00533
# Shear Modulus (GPa) = 34.24906 54.48465 44.36686
#
# Velocity S-wave (km/s) = 4.11662 5.19223 4.68539
# Velocity P-wave (km/s) = 7.01850 7.98219 7.51581
#
# Compressibility (1/GPa) = 0.01855707
#
# Stress axis : x y z
#
# Youngs Moduli (GPa) = 88.53823 75.10083 76.07201
#
# Poissons Ratio (x) = 0.06504 0.37000
# Poissons Ratio (y) = 0.07668 0.29434
# Poissons Ratio (z) = 0.43063 0.29059
#
# Static dielectric constant tensor:
#      x y z
#    x 3.868020 0.000000 -0.269300 
#    y 0.000000 3.786600 0.000000 
#    z -0.269300 0.000000 3.878320 
# 
# 
# High freq. dielectric constant tensor:
#      x y z
#    x 1.782020 0.000000 -0.015270 
#    y 0.000000 1.783030 0.000000 
#    z -0.015270 0.000000 1.789150 
# 
# From -- ./inp_files/270352.got.cif
#   From: 2010.06.25/outbox.cif.g09.slc.cpg/sg12_136_cif.got.tgz:270352.got - 2010.06.28 00:19:55.
