data_PCOD8096520
_publ_section_title
;
Structure prediction by ZEFSAII (Michael W. Deem and Ramdas Pophale) SiO2 
 PCOD8096520
Probable space group: C 2/M
;
_chemical_formula_sum "Si O2"
_cell_formula_units_Z 64
_cell_length_a 19.747687
_cell_length_b 26.883721
_cell_length_c 14.044535
_cell_angle_alpha 90.000000
_cell_angle_beta 153.289621
_cell_angle_gamma 90.000000
_cell_volume 3351.383655
_symmetry_space_group_name_H-M "C 2/M"
_symmetry_group_IT_number 12
_symmetry_cell_setting 'monoclinic'
loop_
_space_group_symop_operation_xyz
x,y,z
-x,y,-z
-x,-y,-z
x,-y,z
1/2+x,1/2+y,z
1/2-x,1/2+y,-z
1/2-x,1/2-y,-z
1/2+x,1/2-y,z
loop_
_atom_site_type_symbol
_atom_site_label
_atom_site_fract_x
_atom_site_fract_y
_atom_site_fract_z
Si Si1 0.854032 0.443484 0.872319
Si Si2 0.832982 0.320680 0.537860
Si Si3 0.476527 0.556844 0.580173
Si Si4 0.167947 0.666935 0.681878
Si Si5 0.597959 0.290005 0.388951
Si Si6 0.168629 0.217815 0.684505
Si Si7 0.628012 0.139392 0.960918
Si Si8 0.843895 0.134658 0.070193
O O1 0.883543 0.500000 0.941658
O O2 0.701514 0.439526 0.618088
O O3 0.826018 0.411804 0.931592
O O4 0.000000 0.422684 0.000000
O O5 0.799052 0.339249 0.388628
O O6 0.678193 0.318239 0.402056
O O7 0.921987 0.268334 0.655563
O O8 0.947094 0.358371 0.732431
O O9 0.500000 0.576052 0.500000
O O10 0.534342 0.500000 0.659718
O O11 0.561700 0.588298 0.768834
O O12 0.190691 0.724579 0.739595
O O13 0.000000 0.649877 0.500000
O O14 0.291388 0.632731 0.893296
O O15 0.697099 0.293581 0.608987
O O16 0.436765 0.314767 0.203154
O O17 0.000000 0.199978 0.500000
O O18 0.297239 0.186701 0.896043
O O19 0.686078 0.138498 0.926247
#
# Coordination Sequence:
#
# PCOD8096520 Si02
#       8
#     8   8   8   8   8   8   8   8
#     4  10  23  40  59  86 121 152 182 234 307 370
#     4  10  23  39  53  79 119 157 198 247 284 339
#     4  10  21  39  60  88 121 146 182 242 304 359
#     4  10  21  38  54  78 114 158 203 243 279 334
#     4  10  22  37  55  82 116 153 198 243 294 342
#     4  10  20  33  54  83 117 149 193 242 288 346
#     4  12  22  32  57  85 113 150 191 235 289 353
#     4  12  22  34  61  84 111 153 197 234 290 353
#
# _framework density 19.096589999999999
#
# number of rings (size 3 to 8) (size 9 to 14) (size 15 to 20)
#    0.000    1.500    3.750    1.500    3.500    1.500 
#    0.000    3.750    0.000    1.125    0.000    0.875 
#    0.000    0.000    0.000    0.000    0.000    0.000 
#
# Total GULP energy -396679.975322 kJ/mol
# GULP energy per Si atom -12396.249229 kJ/mol
# Density = 1.905313 g / cm^3
# Si number density = 19.096590 Si / 1000 Ang^3
#
#
#
# Elastic Constant Matrix: (Units=GPa)
#
#
# Indices 1 2 3 4 5 6 
#
# 1 94.8526 19.4849 35.1543 0.0000 -8.5590 0.0000
# 2 19.4849 56.5600 42.0969 0.0000 -9.5022 0.0000
# 3 35.1543 42.0969 109.2799 0.0000 -15.5359 0.0000
# 4 0.0000 0.0000 0.0000 27.9338 0.0000 0.1312
# 5 -8.5590 -9.5022 -15.5359 0.0000 26.6436 0.0000
# 6 0.0000 0.0000 0.0000 0.1312 0.0000 22.1776
#
#
#
# Elastic Compliance Matrix: (Units=1/GPa)
#
#
# Indices 1 2 3 4 5 6 
#
# 1 0.012153 -0.001657 -0.003053 0.000000 0.001533 0.000000
# 2 -0.001657 0.025328 -0.008740 0.000000 0.003405 0.000000
# 3 -0.003053 -0.008740 0.014085 0.000000 0.004115 0.000000
# 4 0.000000 0.000000 0.000000 0.035800 0.000000 -0.000212
# 5 0.001533 0.003405 0.004115 0.000000 0.041639 0.000000
# 6 0.000000 0.000000 0.000000 -0.000212 0.000000 0.045092
#
#
# Mechanical properties :
#
#
# Convention : Reuss Voigt Hill
#
# Bulk Modulus (GPa) = 40.54169 50.46275 45.50222
# Shear Modulus (GPa) = 23.89848 26.28140 25.08994
#
# Velocity S-wave (km/s) = 3.54143 3.71379 3.62863
# Velocity P-wave (km/s) = 6.16426 6.69866 6.43701
#
# Compressibility (1/GPa) = 0.02466597
#
# Stress axis : x y z
#
# Youngs Moduli (GPa) = 82.28462 39.48186 70.99785
#
# Poissons Ratio (x) = 0.06540 0.21679
# Poissons Ratio (y) = 0.13631 0.62052
# Poissons Ratio (z) = 0.25125 0.34507
#
# Static dielectric constant tensor:
#      x y z
#    x 3.636580 0.000000 0.032060 
#    y 0.000000 3.284470 0.000000 
#    z 0.032060 0.000000 3.413890 
# 
# 
# High freq. dielectric constant tensor:
#      x y z
#    x 1.742020 0.000000 0.006830 
#    y 0.000000 1.714320 0.000000 
#    z 0.006830 0.000000 1.739960 
# 
# From -- ./inp_files/161245.got.cif
#   From: 2010.06.25/outbox.cif.g09.slc.cpg/sg12_81_cif.got.tgz:161245.got - 2010.06.28 00:19:55.
