data_PCOD8096091
_publ_section_title
;
Structure prediction by ZEFSAII (Michael W. Deem and Ramdas Pophale) SiO2 
 PCOD8096091
Probable space group: C 2/M
;
_chemical_formula_sum "Si O2"
_cell_formula_units_Z 56
_cell_length_a 19.009919
_cell_length_b 8.776420
_cell_length_c 25.802007
_cell_angle_alpha 90.000000
_cell_angle_beta 137.114761
_cell_angle_gamma 90.000000
_cell_volume 2929.542368
_symmetry_space_group_name_H-M "C 2/M"
_symmetry_group_IT_number 12
_symmetry_cell_setting 'monoclinic'
loop_
_space_group_symop_operation_xyz
x,y,z
-x,y,-z
-x,-y,-z
x,-y,z
1/2+x,1/2+y,z
1/2-x,1/2+y,-z
1/2-x,1/2-y,-z
1/2+x,1/2-y,z
loop_
_atom_site_type_symbol
_atom_site_label
_atom_site_fract_x
_atom_site_fract_y
_atom_site_fract_z
Si Si1 0.189002 0.321127 0.620223
Si Si2 0.057667 0.818829 0.636634
Si Si3 0.660116 0.179419 0.485575
Si Si4 0.587295 0.675288 0.905846
Si Si5 0.373284 0.177968 0.777591
Si Si6 0.782431 0.677037 0.939688
Si Si7 0.254859 0.678089 0.193917
O O1 0.175997 0.500000 0.621983
O O2 0.098312 0.237259 0.602792
O O3 0.177392 0.274967 0.554354
O O4 0.302483 0.269014 0.699105
O O5 0.137978 0.760389 0.723945
O O6 0.948145 0.747670 0.592069
O O7 0.050005 0.000000 0.631122
O O8 0.750000 0.250000 0.500000
O O9 0.659047 0.000000 0.476843
O O10 0.555167 0.500000 0.893278
O O11 0.490608 0.771866 0.833772
O O12 0.674957 0.702486 0.910739
O O13 0.625719 0.733118 0.982445
O O14 0.338592 0.216215 0.817566
O O15 0.360272 0.000000 0.758654
O O16 0.813994 0.500000 0.955705
O O17 0.769954 0.749703 0.875598
O O18 0.267912 0.500000 0.192296
#
# Coordination Sequence:
#
# PCOD8096091 Si02
#       7
#     8   8   8   8   8   8   8
#     4  10  21  38  58  80 109 144 181 222 271 324
#     4  10  20  36  59  84 110 142 181 223 270 327
#     4  11  24  39  56  81 112 145 182 225 271 319
#     4  10  20  33  51  77 107 138 174 218 268 317
#     4  10  20  35  56  80 105 136 177 221 265 318
#     4   9  18  35  55  72  99 140 180 215 257 315
#     4   8  17  34  55  78 101 133 177 218 258 308
#
# _framework density 19.115614000000001
#
# number of rings (size 3 to 8) (size 9 to 14) (size 15 to 20)
#    0.000    2.286    0.000    3.429    0.000    6.286 
#    0.000   10.000    0.000    0.000    0.000    0.000 
#    0.000    0.000    0.000    0.000    0.000    0.000 
#
# Total GULP energy -347261.672106 kJ/mol
# GULP energy per Si atom -12402.202575 kJ/mol
# Density = 1.907211 g / cm^3
# Si number density = 19.115614 Si / 1000 Ang^3
#
#
#
# Elastic Constant Matrix: (Units=GPa)
#
#
# Indices 1 2 3 4 5 6 
#
# 1 45.5392 20.2440 16.2437 0.0000 6.5630 0.0000
# 2 20.2440 47.9289 15.0859 0.0000 -0.9827 0.0000
# 3 16.2437 15.0859 57.9917 0.0000 9.2279 0.0000
# 4 0.0000 0.0000 0.0000 35.3993 0.0000 4.4582
# 5 6.5630 -0.9827 9.2279 0.0000 36.2575 0.0000
# 6 0.0000 0.0000 0.0000 4.4582 0.0000 30.0867
#
#
#
# Elastic Compliance Matrix: (Units=1/GPa)
#
#
# Indices 1 2 3 4 5 6 
#
# 1 0.029093 -0.010928 -0.004608 0.000000 -0.004390 0.000000
# 2 -0.010928 0.027001 -0.004580 0.000000 0.003875 0.000000
# 3 -0.004608 -0.004580 0.020441 0.000000 -0.004492 0.000000
# 4 0.000000 0.000000 0.000000 0.028786 0.000000 -0.004266
# 5 -0.004390 0.003875 -0.004492 0.000000 0.029623 0.000000
# 6 0.000000 0.000000 0.000000 -0.004266 0.000000 0.033869
#
#
# Mechanical properties :
#
#
# Convention : Reuss Voigt Hill
#
# Bulk Modulus (GPa) = 27.54527 28.28967 27.91747
# Shear Modulus (GPa) = 22.60946 27.00776 24.80861
#
# Velocity S-wave (km/s) = 3.44288 3.76289 3.60643
# Velocity P-wave (km/s) = 5.49961 5.80607 5.65491
#
# Compressibility (1/GPa) = 0.03630388
#
# Stress axis : x y z
#
# Youngs Moduli (GPa) = 34.37222 37.03587 48.92194
#
# Poissons Ratio (x) = 0.40473 0.22543
# Poissons Ratio (y) = 0.37562 0.22405
# Poissons Ratio (z) = 0.15838 0.16961
#
# Static dielectric constant tensor:
#      x y z
#    x 3.537320 0.000000 -0.117060 
#    y 0.000000 3.442150 0.000000 
#    z -0.117060 0.000000 3.684050 
# 
# 
# High freq. dielectric constant tensor:
#      x y z
#    x 1.738310 0.000000 0.001110 
#    y 0.000000 1.739350 0.000000 
#    z 0.001110 0.000000 1.753770 
# 
# From -- ./inp_files/363180.got.cif
#   From: 2010.06.25/outbox.cif.g09.slc.cpg/sg12_182_cif.got.tgz:363180.got - 2010.06.28 00:19:55.
