data_PCOD8096094
_publ_section_title
;
Structure prediction by ZEFSAII (Michael W. Deem and Ramdas Pophale) SiO2 
 PCOD8096094
Probable space group: C 2/M
;
_chemical_formula_sum "Si O2"
_cell_formula_units_Z 64
_cell_length_a 17.376870
_cell_length_b 8.907979
_cell_length_c 31.188348
_cell_angle_alpha 90.000000
_cell_angle_beta 139.230213
_cell_angle_gamma 90.000000
_cell_volume 3152.611679
_symmetry_space_group_name_H-M "C 2/M"
_symmetry_group_IT_number 12
_symmetry_cell_setting 'monoclinic'
loop_
_space_group_symop_operation_xyz
x,y,z
-x,y,-z
-x,-y,-z
x,-y,z
1/2+x,1/2+y,z
1/2-x,1/2+y,-z
1/2-x,1/2-y,-z
1/2+x,1/2-y,z
loop_
_atom_site_type_symbol
_atom_site_label
_atom_site_fract_x
_atom_site_fract_y
_atom_site_fract_z
Si Si1 0.059412 0.322888 0.102537
Si Si2 0.210870 0.331369 0.380284
Si Si3 0.438929 0.678508 0.515745
Si Si4 0.506579 0.328242 0.253879
Si Si5 0.343672 0.331461 0.345942
Si Si6 0.182919 0.826643 0.010502
Si Si7 0.637775 0.328377 0.220004
Si Si8 0.266468 0.172588 0.139230
O O1 0.044844 0.500000 0.094783
O O2 0.075461 0.272534 0.158227
O O3 0.168346 0.273842 0.119756
O O4 0.942480 0.249255 0.033770
O O5 0.165347 0.500000 0.370206
O O6 0.299729 0.274898 0.456214
O O7 0.285050 0.329805 0.367870
O O8 0.098773 0.221901 0.329557
O O9 0.500000 0.752979 0.500000
O O10 0.444726 0.500000 0.514105
O O11 0.518953 0.724709 0.591013
O O12 0.471239 0.500000 0.247012
O O13 0.564024 0.305014 0.231833
O O14 0.392424 0.225146 0.209489
O O15 0.339172 0.500000 0.324941
O O16 0.273185 0.223311 0.283962
O O17 0.162769 0.000000 0.990564
O O18 0.250000 0.750000 0.000000
O O19 0.261663 0.806510 0.086074
O O20 0.639055 0.500000 0.205262
O O21 0.246171 0.000000 0.143788
#
# Coordination Sequence:
#
# PCOD8096094 Si02
#       8
#     8   8   8   8   8   8   8   8
#     4  12  25  40  60  84 111 144 181 222 268 316
#     4   8  13  23  41  65  96 135 176 218 267 319
#     4   7  10  18  35  61  93 130 171 216 265 316
#     4  10  20  33  51  77 108 142 181 225 270 316
#     4   8  13  23  41  66  97 133 176 222 267 317
#     4  11  24  42  65  91 117 145 178 216 260 312
#     4  10  20  34  52  76 109 145 182 225 271 320
#     4  11  24  41  60  82 110 144 180 219 265 317
#
# _framework density 20.300629000000001
#
# number of rings (size 3 to 8) (size 9 to 14) (size 15 to 20)
#    0.000    2.375    0.000    5.250    0.000    7.000 
#    0.000    0.625    0.000    3.750    0.000    0.875 
#    0.000    0.000    0.000    0.000    0.000    0.000 
#
# Total GULP energy -396634.566846 kJ/mol
# GULP energy per Si atom -12394.830214 kJ/mol
# Density = 2.025442 g / cm^3
# Si number density = 20.300629 Si / 1000 Ang^3
#
#
#
# Elastic Constant Matrix: (Units=GPa)
#
#
# Indices 1 2 3 4 5 6 
#
# 1 44.1886 23.9482 19.1419 0.0000 16.2510 0.0000
# 2 23.9482 106.6290 36.8717 0.0001 14.1624 -0.0001
# 3 19.1419 36.8717 103.5972 0.0000 38.7313 0.0000
# 4 0.0000 0.0001 0.0000 29.7500 0.0000 4.7022
# 5 16.2510 14.1624 38.7313 0.0000 22.8587 0.0000
# 6 0.0000 -0.0001 0.0000 4.7022 0.0000 25.0029
#
#
#
# Elastic Compliance Matrix: (Units=1/GPa)
#
#
# Indices 1 2 3 4 5 6 
#
# 1 0.035987 -0.006438 0.010138 0.000000 -0.038773 0.000000
# 2 -0.006438 0.011848 -0.005441 0.000000 0.006455 0.000000
# 3 0.010138 -0.005441 0.030421 0.000000 -0.055381 0.000000
# 4 0.000000 0.000000 0.000000 0.034643 0.000000 -0.006515
# 5 -0.038773 0.006455 -0.055381 0.000000 0.161148 0.000000
# 6 0.000000 0.000000 0.000000 -0.006515 0.000000 0.041221
#
#
# Mechanical properties :
#
#
# Convention : Reuss Voigt Hill
#
# Bulk Modulus (GPa) = 13.37364 46.03760 29.70562
# Shear Modulus (GPa) = 14.54861 27.15252 20.85057
#
# Velocity S-wave (km/s) = 2.67995 3.66118 3.20830
# Velocity P-wave (km/s) = 4.02222 6.37177 5.32812
#
# Compressibility (1/GPa) = 0.07477393
#
# Stress axis : x y z
#
# Youngs Moduli (GPa) = 27.78767 84.40018 32.87216
#
# Poissons Ratio (x) = 0.54339 -0.33325
# Poissons Ratio (y) = 0.17891 0.17884
# Poissons Ratio (z) = -0.28170 0.45919
#
# Static dielectric constant tensor:
#      x y z
#    x 3.258800 0.000000 0.299030 
#    y 0.000000 3.608460 0.000000 
#    z 0.299030 0.000000 4.300160 
# 
# 
# High freq. dielectric constant tensor:
#      x y z
#    x 1.748970 0.000000 0.019370 
#    y 0.000000 1.782570 0.000000 
#    z 0.019370 0.000000 1.815040 
# 
# From -- ./inp_files/378345.got.cif
#   From: 2010.06.25/outbox.cif.g09.slc.cpg/sg12_190_cif.got.tgz:378345.got - 2010.06.28 00:19:55.
