data_PCOD8096530
_publ_section_title
;
Structure prediction by ZEFSAII (Michael W. Deem and Ramdas Pophale) SiO2 
 PCOD8096530
Probable space group: C 2/M
;
_chemical_formula_sum "Si O2"
_cell_formula_units_Z 60
_cell_length_a 10.066399
_cell_length_b 18.019556
_cell_length_c 25.595171
_cell_angle_alpha 90.000000
_cell_angle_beta 135.995677
_cell_angle_gamma 90.000000
_cell_volume 3225.384275
_symmetry_space_group_name_H-M "C 2/M"
_symmetry_group_IT_number 12
_symmetry_cell_setting 'monoclinic'
loop_
_space_group_symop_operation_xyz
x,y,z
-x,y,-z
-x,-y,-z
x,-y,z
1/2+x,1/2+y,z
1/2-x,1/2+y,-z
1/2-x,1/2-y,-z
1/2+x,1/2-y,z
loop_
_atom_site_type_symbol
_atom_site_label
_atom_site_fract_x
_atom_site_fract_y
_atom_site_fract_z
Si Si1 0.453676 0.305304 0.188582
Si Si2 0.143116 0.797155 0.426571
Si Si3 0.209555 0.581607 0.061091
Si Si4 0.500000 0.313900 0.000000
Si Si5 0.601184 0.081146 0.474020
Si Si6 0.686298 0.798239 0.639478
Si Si7 0.935940 0.719490 0.881644
Si Si8 0.180182 0.584006 0.938458
O O1 0.366462 0.380644 0.141538
O O2 0.642805 0.321972 0.274500
O O3 0.292792 0.269497 0.180566
O O4 0.487742 0.251236 0.150433
O O5 0.250000 0.750000 0.500000
O O6 0.188936 0.882547 0.455548
O O7 0.233342 0.780201 0.395266
O O8 0.918355 0.775971 0.366897
O O9 0.177079 0.500000 0.076128
O O10 0.290406 0.577353 0.025054
O O11 0.000000 0.622252 0.000000
O O12 0.467238 0.261879 0.041591
O O13 0.682942 0.367704 0.060507
O O14 0.500000 0.069771 0.500000
O O15 0.466304 0.134501 0.401163
O O16 0.628312 0.000000 0.454869
O O17 0.985210 0.631034 0.893373
O O18 0.138963 0.500000 0.904983
#
# Coordination Sequence:
#
# PCOD8096530 Si02
#       8
#     8   8   8   4   8   8   8   8
#     4  12  23  36  54  81 117 152 187 242 305 354
#     4   9  17  34  58  83 109 144 182 223 267 329
#     4  10  20  35  54  76 102 140 193 246 292 342
#     4  12  21  38  59  82 106 144 204 262 297 352
#     4   8  15  30  55  84 109 137 178 223 267 326
#     4  10  20  33  54  84 117 146 182 227 284 341
#     4  12  23  36  57  82 109 149 200 247 299 351
#     4  11  22  37  57  81 108 143 199 259 304 355
#
# _framework density 18.602435
#
# number of rings (size 3 to 8) (size 9 to 14) (size 15 to 20)
#    0.000    1.600    4.000    3.400    0.000    0.533 
#    0.000    0.000    0.000    8.800    0.000    0.000 
#    0.000    0.000    0.000    0.000    0.000    0.000 
#
# Total GULP energy -371671.642611 kJ/mol
# GULP energy per Si atom -12389.054754 kJ/mol
# Density = 1.856010 g / cm^3
# Si number density = 18.602435 Si / 1000 Ang^3
#
#
#
# Elastic Constant Matrix: (Units=GPa)
#
#
# Indices 1 2 3 4 5 6 
#
# 1 94.5678 49.0322 33.8653 0.0000 11.1081 0.0000
# 2 49.0322 131.5980 48.8339 0.0000 9.7407 0.0000
# 3 33.8653 48.8339 102.8468 0.0000 15.0317 0.0000
# 4 0.0000 0.0000 0.0000 14.5792 0.0000 0.7520
# 5 11.1081 9.7407 15.0317 0.0000 27.3501 0.0000
# 6 0.0000 0.0000 0.0000 0.7520 0.0000 19.8445
#
#
#
# Elastic Compliance Matrix: (Units=1/GPa)
#
#
# Indices 1 2 3 4 5 6 
#
# 1 0.013840 -0.004136 -0.002161 0.000000 -0.002961 0.000000
# 2 -0.004136 0.010483 -0.003605 0.000000 -0.000072 0.000000
# 3 -0.002161 -0.003605 0.012864 0.000000 -0.004908 0.000000
# 4 0.000000 0.000000 0.000000 0.068725 0.000000 -0.002604
# 5 -0.002961 -0.000072 -0.004908 0.000000 0.040489 0.000000
# 6 0.000000 0.000000 0.000000 -0.002604 0.000000 0.050490
#
#
# Mechanical properties :
#
#
# Convention : Reuss Voigt Hill
#
# Bulk Modulus (GPa) = 57.52516 65.83058 61.67787
# Shear Modulus (GPa) = 22.47292 25.50684 23.98988
#
# Velocity S-wave (km/s) = 3.47949 3.70693 3.59501
# Velocity P-wave (km/s) = 6.86535 7.33394 7.10351
#
# Compressibility (1/GPa) = 0.01738370
#
# Stress axis : x y z
#
# Youngs Moduli (GPa) = 72.25248 95.39223 77.73666
#
# Poissons Ratio (x) = 0.39452 0.16798
# Poissons Ratio (y) = 0.29882 0.28025
# Poissons Ratio (z) = 0.15613 0.34390
#
# Static dielectric constant tensor:
#      x y z
#    x 3.932280 0.000000 0.185550 
#    y 0.000000 3.818330 0.000000 
#    z 0.185550 0.000000 3.333880 
# 
# 
# High freq. dielectric constant tensor:
#      x y z
#    x 1.726000 0.000000 0.002160 
#    y 0.000000 1.722040 0.000000 
#    z 0.002160 0.000000 1.688190 
# 
# From -- ./inp_files/358616.got.cif
#   From: 2010.06.25/outbox.cif.g09.slc.cpg/sg12_180_cif.got.tgz:358616.got - 2010.06.28 00:19:55.
