data_PCOD8096891
_publ_section_title
;
Structure prediction by ZEFSAII (Michael W. Deem and Ramdas Pophale) SiO2 
 PCOD8096891
Probable space group: C 2/M
;
_chemical_formula_sum "Si O2"
_cell_formula_units_Z 56
_cell_length_a 19.176134
_cell_length_b 8.795566
_cell_length_c 24.695975
_cell_angle_alpha 90.000000
_cell_angle_beta 47.741149
_cell_angle_gamma 90.000000
_cell_volume 3082.831527
_symmetry_space_group_name_H-M "C 2/M"
_symmetry_group_IT_number 12
_symmetry_cell_setting 'monoclinic'
loop_
_space_group_symop_operation_xyz
x,y,z
-x,y,-z
-x,-y,-z
x,-y,z
1/2+x,1/2+y,z
1/2-x,1/2+y,-z
1/2-x,1/2-y,-z
1/2+x,1/2-y,z
loop_
_atom_site_type_symbol
_atom_site_label
_atom_site_fract_x
_atom_site_fract_y
_atom_site_fract_z
Si Si1 0.799260 0.825796 0.549631
Si Si2 0.350532 0.678299 0.937407
Si Si3 0.085697 0.680655 0.993225
Si Si4 0.405821 0.822750 0.581616
Si Si5 0.292073 0.321656 0.854056
Si Si6 0.081633 0.178960 0.308549
Si Si7 0.394663 0.174059 0.400301
O O1 0.820618 0.771125 0.599136
O O2 0.688014 0.804267 0.599888
O O3 0.858551 0.720351 0.478428
O O4 0.829396 0.000000 0.524365
O O5 0.349385 0.500000 0.949849
O O6 0.365159 0.713409 0.865616
O O7 0.250000 0.750000 0.000000
O O8 0.426253 0.755216 0.938856
O O9 0.084199 0.500000 0.997501
O O10 0.185872 0.744330 0.917639
O O11 0.000000 0.739363 0.000000
O O12 0.500000 0.778925 0.500000
O O13 0.410633 0.772540 0.640706
O O14 0.383961 0.000000 0.589848
O O15 0.279530 0.500000 0.855685
O O16 0.338398 0.260139 0.774562
O O17 0.979759 0.218664 0.336425
O O18 0.090294 0.000000 0.314681
O O19 0.428774 0.000000 0.386337
#
# Coordination Sequence:
#
# PCOD8096891 Si02
#       7
#     8   8   8   8   8   8   8
#     4  10  20  34  54  75  96 127 168 211 258 313
#     4   9  16  30  52  76 104 134 170 210 249 297
#     4   9  17  32  55  81 109 140 173 210 254 301
#     4  11  22  35  52  75 104 134 171 224 268 303
#     4   8  17  33  51  75 105 137 173 215 256 302
#     4  11  21  34  54  75 102 140 177 211 259 318
#     4  10  20  34  51  75 102 126 162 214 261 303
#
# _framework density 18.165116999999999
#
# number of rings (size 3 to 8) (size 9 to 14) (size 15 to 20)
#    0.000    2.286    1.429    3.000    0.000    2.571 
#    0.000    8.571    0.000    5.143    0.000    0.000 
#    0.000    0.000    0.000    0.000    0.000    0.000 
#
# Total GULP energy -347039.701357 kJ/mol
# GULP energy per Si atom -12394.275048 kJ/mol
# Density = 1.812377 g / cm^3
# Si number density = 18.165117 Si / 1000 Ang^3
#
#
#
# Elastic Constant Matrix: (Units=GPa)
#
#
# Indices 1 2 3 4 5 6 
#
# 1 135.7979 35.4761 49.1892 0.0000 13.7988 0.0000
# 2 35.4761 43.3450 18.7659 -0.0002 5.4963 -0.0003
# 3 49.1892 18.7659 93.9043 0.0000 10.9202 0.0000
# 4 0.0000 -0.0002 0.0000 18.3752 0.0000 3.0936
# 5 13.7988 5.4963 10.9202 0.0000 23.3847 0.0000
# 6 0.0000 -0.0003 0.0000 3.0936 0.0000 31.5593
#
#
#
# Elastic Compliance Matrix: (Units=1/GPa)
#
#
# Indices 1 2 3 4 5 6 
#
# 1 0.010892 -0.006807 -0.004001 0.000000 -0.002959 0.000000
# 2 -0.006807 0.029831 -0.002165 0.000000 -0.001984 0.000000
# 3 -0.004001 -0.002165 0.013581 0.000000 -0.003472 0.000000
# 4 0.000000 0.000000 0.000000 0.055334 0.000000 -0.005424
# 5 -0.002959 -0.001984 -0.003472 0.000000 0.046597 0.000000
# 6 0.000000 0.000000 0.000000 -0.005424 0.000000 0.032218
#
#
# Mechanical properties :
#
#
# Convention : Reuss Voigt Hill
#
# Bulk Modulus (GPa) = 35.26355 53.32328 44.29342
# Shear Modulus (GPa) = 22.33606 25.97158 24.15382
#
# Velocity S-wave (km/s) = 3.51039 3.78531 3.65044
# Velocity P-wave (km/s) = 5.99044 6.96586 6.49648
#
# Compressibility (1/GPa) = 0.02835789
#
# Stress axis : x y z
#
# Youngs Moduli (GPa) = 91.80874 33.52210 73.62976
#
# Poissons Ratio (x) = 0.22820 0.29460
# Poissons Ratio (y) = 0.62498 0.15940
# Poissons Ratio (z) = 0.36734 0.07257
#
# Static dielectric constant tensor:
#      x y z
#    x 3.781200 0.000000 0.090340 
#    y 0.000000 3.320620 0.000000 
#    z 0.090340 0.000000 3.425140 
# 
# 
# High freq. dielectric constant tensor:
#      x y z
#    x 1.710890 0.000000 0.014150 
#    y 0.000000 1.701920 0.000000 
#    z 0.014150 0.000000 1.673200 
# 
# From -- ./inp_files/345467.got.cif
#   From: 2010.06.25/outbox.cif.g09.slc.cpg/sg12_173_cif.got.tgz:345467.got - 2010.06.28 00:19:55.
