data_PCOD8096535
_publ_section_title
;
Structure prediction by ZEFSAII (Michael W. Deem and Ramdas Pophale) SiO2 
 PCOD8096535
Probable space group: C 2/M
;
_chemical_formula_sum "Si O2"
_cell_formula_units_Z 56
_cell_length_a 28.087504
_cell_length_b 8.705220
_cell_length_c 13.374415
_cell_angle_alpha 90.000000
_cell_angle_beta 58.634215
_cell_angle_gamma 90.000000
_cell_volume 2792.256204
_symmetry_space_group_name_H-M "C 2/M"
_symmetry_group_IT_number 12
_symmetry_cell_setting 'monoclinic'
loop_
_space_group_symop_operation_xyz
x,y,z
-x,y,-z
-x,-y,-z
x,-y,z
1/2+x,1/2+y,z
1/2-x,1/2+y,-z
1/2-x,1/2-y,-z
1/2+x,1/2-y,z
loop_
_atom_site_type_symbol
_atom_site_label
_atom_site_fract_x
_atom_site_fract_y
_atom_site_fract_z
Si Si1 0.776958 0.320008 0.179892
Si Si2 0.334725 0.179309 0.719719
Si Si3 0.051832 0.825810 0.072797
Si Si4 0.334855 0.675610 0.933263
Si Si5 0.613177 0.176775 0.831586
Si Si6 0.943486 0.179017 0.507250
Si Si7 0.951081 0.675719 0.288138
O O1 0.775429 0.500000 0.163031
O O2 0.716579 0.261215 0.282415
O O3 0.823275 0.274860 0.212258
O O4 0.789736 0.238364 0.060647
O O5 0.333178 0.222163 0.837069
O O6 0.392695 0.227988 0.608279
O O7 0.327423 0.000000 0.713739
O O8 0.103884 0.809806 0.089047
O O9 0.005432 0.710579 0.163516
O O10 0.029246 0.000000 0.095586
O O11 0.069471 0.778963 0.941619
O O12 0.320179 0.500000 0.922486
O O13 0.602520 0.202380 0.725269
O O14 0.603053 0.000000 0.873025
O O15 0.947739 0.210637 0.384949
O O16 0.000000 0.233269 0.500000
O O17 0.933108 0.000000 0.537286
O O18 0.953468 0.500000 0.323178
#
# Coordination Sequence:
#
# PCOD8096535 Si02
#       7
#     8   8   8   8   8   8   8
#     4  10  20  37  59  83 114 150 188 230 278 329
#     4  12  24  38  58  84 113 147 188 231 280 334
#     4  10  20  33  54  85 118 152 189 229 276 332
#     4  10  20  35  55  83 118 152 188 230 278 332
#     4   9  20  37  57  83 115 150 187 230 278 330
#     4  11  25  44  63  84 111 144 185 230 275 328
#     4  11  22  37  58  84 114 148 188 232 280 332
#
# _framework density 20.055467
#
# number of rings (size 3 to 8) (size 9 to 14) (size 15 to 20)
#    0.000    1.571    0.000    5.143    0.000    9.714 
#    0.000    0.714    0.000    0.000    0.000    0.000 
#    0.000    0.000    0.000    0.000    0.000    0.000 
#
# Total GULP energy -347323.625842 kJ/mol
# GULP energy per Si atom -12404.415209 kJ/mol
# Density = 2.000982 g / cm^3
# Si number density = 20.055467 Si / 1000 Ang^3
#
#
#
# Elastic Constant Matrix: (Units=GPa)
#
#
# Indices 1 2 3 4 5 6 
#
# 1 83.6292 27.1423 66.0828 0.0000 0.0205 0.0000
# 2 27.1423 60.8027 17.7958 0.0000 1.2558 0.0000
# 3 66.0828 17.7958 63.1862 0.0000 3.2329 0.0000
# 4 0.0000 0.0000 0.0000 33.5202 0.0000 -6.5250
# 5 0.0205 1.2558 3.2329 0.0000 30.4725 0.0000
# 6 0.0000 0.0000 0.0000 -6.5250 0.0000 25.7338
#
#
#
# Elastic Compliance Matrix: (Units=1/GPa)
#
#
# Indices 1 2 3 4 5 6 
#
# 1 0.077954 -0.011974 -0.078604 0.000000 0.008780 0.000000
# 2 -0.011974 0.019765 0.007036 0.000000 -0.001553 0.000000
# 3 -0.078604 0.007036 0.096589 0.000000 -0.010484 0.000000
# 4 0.000000 0.000000 0.000000 0.031382 0.000000 0.007957
# 5 0.008780 -0.001553 -0.010484 0.000000 0.033987 0.000000
# 6 0.000000 0.000000 0.000000 0.007957 0.000000 0.040877
#
#
# Mechanical properties :
#
#
# Convention : Reuss Voigt Hill
#
# Bulk Modulus (GPa) = 36.73456 47.74000 42.23728
# Shear Modulus (GPa) = 10.48851 24.38510 17.43680
#
# Velocity S-wave (km/s) = 2.28935 3.49073 2.95181
# Velocity P-wave (km/s) = 5.03432 6.33266 5.72045
#
# Compressibility (1/GPa) = 0.02722232
#
# Stress axis : x y z
#
# Youngs Moduli (GPa) = 12.82809 50.59545 10.35315
#
# Poissons Ratio (x) = 0.60582 0.81380
# Poissons Ratio (y) = 0.15360 -0.07284
# Poissons Ratio (z) = 1.00834 -0.35597
#
# Static dielectric constant tensor:
#      x y z
#    x 3.998150 0.000000 -0.014590 
#    y 0.000000 3.705570 0.000000 
#    z -0.014590 0.000000 3.457320 
# 
# 
# High freq. dielectric constant tensor:
#      x y z
#    x 1.802400 0.000000 0.000820 
#    y 0.000000 1.792940 0.000000 
#    z 0.000820 0.000000 1.757790 
# 
# From -- ./inp_files/187237.got.cif
#   From: 2010.06.25/outbox.cif.g09.slc.cpg/sg12_94_cif.got.tgz:187237.got - 2010.06.28 00:19:55.
