data_PCOD8096030
_publ_section_title
;
Structure prediction by ZEFSAII (Michael W. Deem and Ramdas Pophale) SiO2 
 PCOD8096030
Probable space group: C 2/M
;
_chemical_formula_sum "Si O2"
_cell_formula_units_Z 64
_cell_length_a 31.771483
_cell_length_b 9.114834
_cell_length_c 25.459968
_cell_angle_alpha 90.000000
_cell_angle_beta 150.988369
_cell_angle_gamma 90.000000
_cell_volume 3575.809242
_symmetry_space_group_name_H-M "C 2/M"
_symmetry_group_IT_number 12
_symmetry_cell_setting 'monoclinic'
loop_
_space_group_symop_operation_xyz
x,y,z
-x,y,-z
-x,-y,-z
x,-y,z
1/2+x,1/2+y,z
1/2-x,1/2+y,-z
1/2-x,1/2-y,-z
1/2+x,1/2-y,z
loop_
_atom_site_type_symbol
_atom_site_label
_atom_site_fract_x
_atom_site_fract_y
_atom_site_fract_z
Si Si1 0.670983 0.671128 0.441627
Si Si2 0.427374 0.672277 0.960384
Si Si3 0.767136 0.328235 0.277162
Si Si4 0.492596 0.827135 0.237405
Si Si5 0.890232 0.669999 0.021778
Si Si6 0.146498 0.834175 0.535570
Si Si7 0.303697 0.328345 0.214310
Si Si8 0.047452 0.829331 0.702255
O O1 0.668538 0.500000 0.423891
O O2 0.750000 0.750000 0.500000
O O3 0.582921 0.745599 0.325531
O O4 0.681624 0.692666 0.515413
O O5 0.437178 0.500000 0.978593
O O6 0.333857 0.716296 0.835123
O O7 0.500000 0.733724 0.000000
O O8 0.441995 0.744044 0.033132
O O9 0.780527 0.500000 0.286229
O O10 0.804529 0.277417 0.373376
O O11 0.818894 0.252322 0.286122
O O12 0.429237 0.788419 0.120417
O O13 0.445369 0.767605 0.237724
O O14 0.509647 0.000000 0.261456
O O15 0.901666 0.500000 0.021577
O O16 0.789033 0.715005 0.911619
O O17 0.043959 0.802527 0.426221
O O18 0.166187 0.000000 0.575222
O O19 0.311730 0.500000 0.234039
O O20 0.377151 0.275535 0.254180
O O21 0.057195 0.000000 0.728705
#
# Coordination Sequence:
#
# PCOD8096030 Si02
#       8
#     8   8   8   8   8   8   8   8
#     4  10  21  37  56  78 104 136 174 212 253 302
#     4   9  19  35  52  72  99 130 166 208 252 300
#     4  10  20  33  51  76 102 129 166 210 256 305
#     4  10  20  34  52  77 108 136 167 210 256 303
#     4   9  19  34  52  76 103 133 169 208 253 304
#     4   9  19  35  52  72 100 133 168 205 248 301
#     4   9  18  35  55  73 100 136 172 211 254 304
#     4   9  19  35  54  75  99 134 177 212 250 304
#
# _framework density 17.898046999999998
#
# number of rings (size 3 to 8) (size 9 to 14) (size 15 to 20)
#    0.000    2.625    0.000    1.875    0.000    6.750 
#    0.000    5.000    0.000    0.000    0.000    0.000 
#    0.000    0.000    0.000    0.000    0.000    0.000 
#
# Total GULP energy -396892.110022 kJ/mol
# GULP energy per Si atom -12402.878438 kJ/mol
# Density = 1.785731 g / cm^3
# Si number density = 17.898047 Si / 1000 Ang^3
#
#
#
# Elastic Constant Matrix: (Units=GPa)
#
#
# Indices 1 2 3 4 5 6 
#
# 1 141.7994 56.8989 65.8491 0.0000 16.6197 0.0000
# 2 56.8989 71.9511 45.9645 0.0000 -2.5136 0.0000
# 3 65.8491 45.9645 87.5149 0.0000 -8.7099 0.0000
# 4 0.0000 0.0000 0.0000 29.4463 0.0000 -4.3162
# 5 16.6197 -2.5136 -8.7099 0.0000 28.8062 0.0000
# 6 0.0000 0.0000 0.0000 -4.3162 0.0000 35.7774
#
#
#
# Elastic Compliance Matrix: (Units=1/GPa)
#
#
# Indices 1 2 3 4 5 6 
#
# 1 0.015595 -0.006742 -0.009431 0.000000 -0.012437 0.000000
# 2 -0.006742 0.023898 -0.007098 0.000000 0.003829 0.000000
# 3 -0.009431 -0.007098 0.023435 0.000000 0.011908 0.000000
# 4 0.000000 0.000000 0.000000 0.034571 0.000000 0.004171
# 5 -0.012437 0.003829 0.011908 0.000000 0.045825 0.000000
# 6 0.000000 0.000000 0.000000 0.004171 0.000000 0.028454
#
#
# Mechanical properties :
#
#
# Convention : Reuss Voigt Hill
#
# Bulk Modulus (GPa) = 61.02267 70.96561 65.99414
# Shear Modulus (GPa) = 22.34323 27.64285 24.99304
#
# Velocity S-wave (km/s) = 3.53705 3.93423 3.74091
# Velocity P-wave (km/s) = 7.13089 7.77004 7.45731
#
# Compressibility (1/GPa) = 0.01638735
#
# Stress axis : x y z
#
# Youngs Moduli (GPa) = 64.12417 41.84460 42.67041
#
# Poissons Ratio (x) = 0.28213 0.40241
# Poissons Ratio (y) = 0.43234 0.30285
# Poissons Ratio (z) = 0.60473 0.29699
#
# Static dielectric constant tensor:
#      x y z
#    x 3.389840 0.000000 0.078170 
#    y 0.000000 3.307090 0.000000 
#    z 0.078170 0.000000 3.297350 
# 
# 
# High freq. dielectric constant tensor:
#      x y z
#    x 1.697070 0.000000 0.001120 
#    y 0.000000 1.695250 0.000000 
#    z 0.001120 0.000000 1.689850 
# 
# From -- ./inp_files/353522.got.cif
#   From: 2010.06.25/outbox.cif.g09.slc.cpg/sg12_177_cif.got.tgz:353522.got - 2010.06.28 00:19:55.
