data_PCOD8096387
_publ_section_title
;
Structure prediction by ZEFSAII (Michael W. Deem and Ramdas Pophale) SiO2 
 PCOD8096387
Probable space group: C 2/M
;
_chemical_formula_sum "Si O2"
_cell_formula_units_Z 56
_cell_length_a 32.198637
_cell_length_b 9.407698
_cell_length_c 21.256561
_cell_angle_alpha 90.000000
_cell_angle_beta 26.430796
_cell_angle_gamma 90.000000
_cell_volume 2866.075347
_symmetry_space_group_name_H-M "C 2/M"
_symmetry_group_IT_number 12
_symmetry_cell_setting 'monoclinic'
loop_
_space_group_symop_operation_xyz
x,y,z
-x,y,-z
-x,-y,-z
x,-y,z
1/2+x,1/2+y,z
1/2-x,1/2+y,-z
1/2-x,1/2-y,-z
1/2+x,1/2-y,z
loop_
_atom_site_type_symbol
_atom_site_label
_atom_site_fract_x
_atom_site_fract_y
_atom_site_fract_z
Si Si1 0.615799 0.337643 0.197354
Si Si2 0.599993 0.664030 0.526933
Si Si3 0.653084 0.655107 0.685863
Si Si4 0.607218 0.838873 0.859618
Si Si5 0.757901 0.662032 0.213210
Si Si6 0.252850 0.334011 0.093914
Si Si7 0.365585 0.843647 0.396432
O O1 0.639103 0.500000 0.184230
O O2 0.506120 0.308867 0.349077
O O3 0.661911 0.234598 0.185622
O O4 0.656214 0.305196 0.072821
O O5 0.616150 0.500000 0.525477
O O6 0.666949 0.702856 0.377780
O O7 0.623325 0.766319 0.552555
O O8 0.604834 0.500000 0.758128
O O9 0.661710 0.734081 0.740327
O O10 0.592981 0.745729 0.716152
O O11 0.758973 0.632635 0.521048
O O12 0.647736 0.818430 0.874363
O O13 0.623670 0.000000 0.814241
O O14 0.500000 0.796124 0.000000
O O15 0.748593 0.500000 0.201950
O O16 0.769175 0.765677 0.139412
O O17 0.233753 0.500000 0.128773
O O18 0.414533 0.000000 0.332304
#
# Coordination Sequence:
#
# PCOD8096387 Si02
#       7
#     8   8   8   8   8   8   8
#     4   9  20  39  61  85 112 145 186 229 277 334
#     4  10  20  36  59  85 113 147 190 235 280 334
#     4  10  20  34  53  76 105 144 187 229 275 329
#     4  10  21  37  56  80 111 147 189 234 281 333
#     4  10  21  37  58  82 113 151 185 228 283 337
#     4  10  21  38  60  84 113 147 184 228 277 335
#     4  10  20  33  53  79 108 142 181 230 280 327
#
# _framework density 19.538913999999998
#
# number of rings (size 3 to 8) (size 9 to 14) (size 15 to 20)
#    0.000    2.143    1.429    1.286    0.000    5.429 
#    0.000    5.714    0.000    0.000    0.000    0.000 
#    0.000    0.000    0.000    0.000    0.000    0.000 
#
# Total GULP energy -347149.512142 kJ/mol
# GULP energy per Si atom -12398.196862 kJ/mol
# Density = 1.949444 g / cm^3
# Si number density = 19.538914 Si / 1000 Ang^3
#
#
#
# Elastic Constant Matrix: (Units=GPa)
#
#
# Indices 1 2 3 4 5 6 
#
# 1 110.6081 66.0794 41.3933 0.0039 9.6344 -0.0003
# 2 66.0794 120.8205 22.8176 0.0070 10.4992 -0.0051
# 3 41.3933 22.8176 65.5028 0.0060 -15.2301 -0.0023
# 4 0.0039 0.0070 0.0060 22.1479 0.0001 7.2975
# 5 9.6344 10.4992 -15.2301 0.0001 26.9244 0.0009
# 6 -0.0003 -0.0051 -0.0023 7.2975 0.0009 36.4695
#
#
#
# Elastic Compliance Matrix: (Units=1/GPa)
#
#
# Indices 1 2 3 4 5 6 
#
# 1 0.018527 -0.007006 -0.011714 0.000003 -0.010524 -0.000002
# 2 -0.007006 0.012435 -0.000517 -0.000003 -0.002634 0.000002
# 3 -0.011714 -0.000517 0.027486 -0.000006 0.019941 0.000002
# 4 0.000003 -0.000003 -0.000006 0.048338 -0.000003 -0.009672
# 5 -0.010524 -0.002634 0.019941 -0.000003 0.053214 0.000000
# 6 -0.000002 0.000002 0.000002 -0.009672 0.000000 0.029356
#
#
# Mechanical properties :
#
#
# Convention : Reuss Voigt Hill
#
# Bulk Modulus (GPa) = 50.06655 61.94577 56.00616
# Shear Modulus (GPa) = 21.32316 28.21777 24.77047
#
# Velocity S-wave (km/s) = 3.30709 3.80436 3.56441
# Velocity P-wave (km/s) = 6.34525 7.14634 6.75767
#
# Compressibility (1/GPa) = 0.01997342
#
# Stress axis : x y z
#
# Youngs Moduli (GPa) = 53.97545 80.41800 36.38275
#
# Poissons Ratio (x) = 0.56341 0.42619
# Poissons Ratio (y) = 0.37815 0.01881
# Poissons Ratio (z) = 0.63228 0.04157
#
# Static dielectric constant tensor:
#      x y z
#    x 3.381220 0.000000 -0.017590 
#    y 0.000000 3.845700 0.000010 
#    z -0.017590 0.000010 3.517300 
# 
# 
# High freq. dielectric constant tensor:
#      x y z
#    x 1.755750 0.000000 0.003770 
#    y 0.000000 1.771450 0.000000 
#    z 0.003770 0.000000 1.744440 
# 
# From -- ./inp_files/329510.got.cif
#   From: 2010.06.25/outbox.cif.g09.slc.cpg/sg12_165_cif.got.tgz:329510.got - 2010.06.28 00:19:55.
