data_PCOD8096196
_publ_section_title
;
Structure prediction by ZEFSAII (Michael W. Deem and Ramdas Pophale) SiO2 
 PCOD8096196
Probable space group: C 2/M
;
_chemical_formula_sum "Si O2"
_cell_formula_units_Z 64
_cell_length_a 30.923044
_cell_length_b 17.701008
_cell_length_c 23.036585
_cell_angle_alpha 90.000000
_cell_angle_beta 16.208487
_cell_angle_gamma 90.000000
_cell_volume 3519.735750
_symmetry_space_group_name_H-M "C 2/M"
_symmetry_group_IT_number 12
_symmetry_cell_setting 'monoclinic'
loop_
_space_group_symop_operation_xyz
x,y,z
-x,y,-z
-x,-y,-z
x,-y,z
1/2+x,1/2+y,z
1/2-x,1/2+y,-z
1/2-x,1/2-y,-z
1/2+x,1/2-y,z
loop_
_atom_site_type_symbol
_atom_site_label
_atom_site_fract_x
_atom_site_fract_y
_atom_site_fract_z
Si Si1 0.569393 0.674151 0.033321
Si Si2 0.725904 0.415874 0.614576
Si Si3 0.834315 0.581697 0.738354
Si Si4 0.127729 0.720053 0.514370
Si Si5 0.946037 0.723026 0.637159
Si Si6 0.474252 0.085246 0.197747
Si Si7 0.876741 0.717618 0.933525
Si Si8 0.067530 0.308275 0.853938
O O1 0.442114 0.610736 0.188054
O O2 0.551999 0.717256 0.117058
O O3 0.549691 0.738629 0.009810
O O4 0.730931 0.627586 0.823967
O O5 0.717455 0.500000 0.652057
O O6 0.801854 0.363248 0.566012
O O7 0.818741 0.414466 0.435235
O O8 0.759798 0.500000 0.853076
O O9 0.866535 0.639943 0.749600
O O10 0.000000 0.562427 0.500000
O O11 0.254493 0.780862 0.371625
O O12 0.090957 0.732642 0.493598
O O13 0.966373 0.728390 0.757332
O O14 0.000000 0.733856 0.500000
O O15 0.809584 0.780246 0.831185
O O16 0.600072 0.134293 0.069957
O O17 0.436034 0.122970 0.185779
O O18 0.536995 0.000000 0.107674
O O19 0.000000 0.342229 0.000000
#
# Coordination Sequence:
#
# PCOD8096196 Si02
#       8
#     8   8   8   8   8   8   8   8
#     4   9  17  31  51  72 101 130 173 203 253 301
#     4   9  17  31  52  77 104 135 167 209 255 302
#     4   9  18  30  46  67  96 134 170 203 243 293
#     4  10  20  33  52  77 105 132 176 215 252 298
#     4  10  21  33  54  73 101 137 174 211 256 301
#     4   9  18  33  54  78 103 130 164 206 263 316
#     4   9  18  34  55  78  99 133 173 215 251 302
#     4  10  21  31  52  77 107 135 166 211 259 306
#
# _framework density 18.183184000000001
#
# number of rings (size 3 to 8) (size 9 to 14) (size 15 to 20)
#    0.000    2.625    0.000    1.500    7.000    3.750 
#    0.000    0.000    0.000    3.000    0.000    0.000 
#    0.000    0.000    0.000    0.000    0.000    0.000 
#
# Total GULP energy -396435.430158 kJ/mol
# GULP energy per Si atom -12388.607192 kJ/mol
# Density = 1.814180 g / cm^3
# Si number density = 18.183184 Si / 1000 Ang^3
#
#
#
# Elastic Constant Matrix: (Units=GPa)
#
#
# Indices 1 2 3 4 5 6 
#
# 1 99.4785 36.1568 32.0701 -0.0102 -7.1047 -0.0010
# 2 36.1568 107.1624 39.7101 0.0235 -4.0897 -0.0121
# 3 32.0701 39.7101 77.2084 -0.0001 -14.1328 -0.0059
# 4 -0.0102 0.0235 -0.0001 15.9187 -0.0075 -0.7351
# 5 -7.1047 -4.0897 -14.1328 -0.0075 24.0901 0.0004
# 6 -0.0010 -0.0121 -0.0059 -0.7351 0.0004 15.5427
#
#
#
# Elastic Compliance Matrix: (Units=1/GPa)
#
#
# Indices 1 2 3 4 5 6 
#
# 1 0.012267 -0.002822 -0.003439 0.000012 0.001121 -0.000002
# 2 -0.002822 0.012241 -0.005485 -0.000021 -0.001972 0.000006
# 3 -0.003439 -0.005485 0.018872 0.000010 0.009126 0.000003
# 4 0.000012 -0.000021 0.000010 0.062957 0.000026 0.002978
# 5 0.001121 -0.001972 0.009126 0.000026 0.046861 0.000002
# 6 -0.000002 0.000006 0.000003 0.002978 0.000002 0.064480
#
#
# Mechanical properties :
#
#
# Convention : Reuss Voigt Hill
#
# Bulk Modulus (GPa) = 50.27877 55.52481 52.90179
# Shear Modulus (GPa) = 20.17791 22.83781 21.50786
#
# Velocity S-wave (km/s) = 3.33483 3.54783 3.44298
# Velocity P-wave (km/s) = 6.52222 6.88371 6.70540
#
# Compressibility (1/GPa) = 0.01988911
#
# Stress axis : x y z
#
# Youngs Moduli (GPa) = 81.52165 81.69379 52.98963
#
# Poissons Ratio (x) = 0.23052 0.18221
# Poissons Ratio (y) = 0.23004 0.29063
# Poissons Ratio (z) = 0.28032 0.44806
#
# Static dielectric constant tensor:
#      x y z
#    x 3.214510 -0.000030 -0.120400 
#    y -0.000030 3.648950 -0.000020 
#    z -0.120400 -0.000020 3.318000 
# 
# 
# High freq. dielectric constant tensor:
#      x y z
#    x 1.692180 0.000000 -0.011770 
#    y 0.000000 1.697500 0.000000 
#    z -0.011770 0.000000 1.701570 
# 
# From -- ./inp_files/328621.got.cif
#   From: 2010.06.25/outbox.cif.g09.slc.cpg/sg12_165_cif.got.tgz:328621.got - 2010.06.28 00:19:55.
