data_PCOD8096039
_publ_section_title
;
Structure prediction by ZEFSAII (Michael W. Deem and Ramdas Pophale) SiO2 
 PCOD8096039
Probable space group: C 2/M
;
_chemical_formula_sum "Si O2"
_cell_formula_units_Z 56
_cell_length_a 18.663225
_cell_length_b 8.909512
_cell_length_c 18.133604
_cell_angle_alpha 90.000000
_cell_angle_beta 90.754660
_cell_angle_gamma 90.000000
_cell_volume 3014.998247
_symmetry_space_group_name_H-M "C 2/M"
_symmetry_group_IT_number 12
_symmetry_cell_setting 'monoclinic'
loop_
_space_group_symop_operation_xyz
x,y,z
-x,y,-z
-x,-y,-z
x,-y,z
1/2+x,1/2+y,z
1/2-x,1/2+y,-z
1/2-x,1/2-y,-z
1/2+x,1/2-y,z
loop_
_atom_site_type_symbol
_atom_site_label
_atom_site_fract_x
_atom_site_fract_y
_atom_site_fract_z
Si Si1 0.423264 0.322213 0.155138
Si Si2 0.335054 0.830527 0.574516
Si Si3 0.423307 0.176581 0.848181
Si Si4 0.835627 0.830589 0.428510
Si Si5 0.835581 0.328482 0.280670
Si Si6 0.665759 0.671659 0.277626
Si Si7 0.915250 0.834899 0.993868
O O1 0.432779 0.500000 0.161071
O O2 0.500579 0.249619 0.169010
O O3 0.367985 0.264701 0.214337
O O4 0.389977 0.278067 0.074375
O O5 0.249716 0.831079 0.570956
O O6 0.365891 0.751289 0.501695
O O7 0.362585 0.738385 0.645550
O O8 0.364738 0.000000 0.578969
O O9 0.365762 0.230863 0.788564
O O10 0.393241 0.221220 0.928801
O O11 0.431590 0.000000 0.844463
O O12 0.863771 0.741469 0.357551
O O13 0.865435 0.000000 0.426525
O O14 0.861494 0.500000 0.277066
O O15 0.750727 0.315735 0.273988
O O16 0.639960 0.500000 0.271238
O O17 0.883020 0.000000 0.975471
O O18 0.000000 0.847878 0.000000
#
# Coordination Sequence:
#
# PCOD8096039 Si02
#       7
#     8   8   8   8   8   8   8
#     4  10  20  35  55  76 101 133 167 205 251 302
#     4   9  16  27  45  70  98 128 167 210 247 288
#     4  11  21  33  53  78 102 130 168 210 249 295
#     4   9  16  27  45  69  98 132 167 203 247 296
#     4  10  20  33  51  76 104 133 168 211 253 294
#     4  10  20  34  51  73 104 137 168 206 254 301
#     4   8  16  32  52  73  97 128 166 206 248 295
#
# _framework density 18.573808
#
# number of rings (size 3 to 8) (size 9 to 14) (size 15 to 20)
#    0.000    2.429    0.000    4.286    0.000    8.286 
#    0.000    0.714    0.000    0.857    0.000    6.000 
#    0.000    0.000    0.000    0.000    0.000    0.000 
#
# Total GULP energy -347168.155849 kJ/mol
# GULP energy per Si atom -12398.862709 kJ/mol
# Density = 1.853153 g / cm^3
# Si number density = 18.573808 Si / 1000 Ang^3
#
#
#
# Elastic Constant Matrix: (Units=GPa)
#
#
# Indices 1 2 3 4 5 6 
#
# 1 16.7196 24.7899 28.2081 0.0000 0.6134 0.0000
# 2 24.7899 147.6652 78.1704 0.0000 4.7188 0.0000
# 3 28.2081 78.1704 176.8403 0.0000 -18.9132 0.0000
# 4 0.0000 0.0000 0.0000 38.4454 0.0000 -1.1294
# 5 0.6134 4.7188 -18.9132 0.0000 103.2310 0.0000
# 6 0.0000 0.0000 0.0000 -1.1294 0.0000 22.4679
#
#
#
# Elastic Compliance Matrix: (Units=1/GPa)
#
#
# Indices 1 2 3 4 5 6 
#
# 1 0.092343 -0.009822 -0.010606 0.000000 -0.002043 0.000000
# 2 -0.009822 0.010020 -0.002963 0.000000 -0.000943 0.000000
# 3 -0.010606 -0.002963 0.008851 0.000000 0.001820 0.000000
# 4 0.000000 0.000000 0.000000 0.026049 0.000000 0.001309
# 5 -0.002043 -0.000943 0.001820 0.000000 0.010076 0.000000
# 6 0.000000 0.000000 0.000000 0.001309 0.000000 0.044574
#
#
# Mechanical properties :
#
#
# Convention : Reuss Voigt Hill
#
# Bulk Modulus (GPa) = 15.52069 67.06244 41.29157
# Shear Modulus (GPa) = 19.21794 46.83265 33.02529
#
# Velocity S-wave (km/s) = 3.22013 5.02684 4.22128
# Velocity P-wave (km/s) = 4.71169 8.35921 6.78515
#
# Compressibility (1/GPa) = 0.06443011
#
# Stress axis : x y z
#
# Youngs Moduli (GPa) = 10.82917 99.80238 112.97937
#
# Poissons Ratio (x) = 0.98030 1.19831
# Poissons Ratio (y) = 0.10637 0.33478
# Poissons Ratio (z) = 0.11486 0.29573
#
# Static dielectric constant tensor:
#      x y z
#    x 2.852200 0.000000 -0.067350 
#    y 0.000000 3.622600 0.000000 
#    z -0.067350 0.000000 3.854700 
# 
# 
# High freq. dielectric constant tensor:
#      x y z
#    x 1.660020 0.000000 -0.001590 
#    y 0.000000 1.736940 0.000000 
#    z -0.001590 0.000000 1.741720 
# 
# From -- ./inp_files/287058.got.cif
#   From: 2010.06.25/outbox.cif.g09.slc.cpg/sg12_144_cif.got.tgz:287058.got - 2010.06.28 00:19:55.
