data_PCOD8096976
_publ_section_title
;
Structure prediction by ZEFSAII (Michael W. Deem and Ramdas Pophale) SiO2 
 PCOD8096976
Probable space group: C 2/M
;
_chemical_formula_sum "Si O2"
_cell_formula_units_Z 48
_cell_length_a 18.976285
_cell_length_b 9.312218
_cell_length_c 15.116170
_cell_angle_alpha 90.000000
_cell_angle_beta 90.074821
_cell_angle_gamma 90.000000
_cell_volume 2671.195816
_symmetry_space_group_name_H-M "C 2/M"
_symmetry_group_IT_number 12
_symmetry_cell_setting 'monoclinic'
loop_
_space_group_symop_operation_xyz
x,y,z
-x,y,-z
-x,-y,-z
x,-y,z
1/2+x,1/2+y,z
1/2-x,1/2+y,-z
1/2-x,1/2-y,-z
1/2+x,1/2-y,z
loop_
_atom_site_type_symbol
_atom_site_label
_atom_site_fract_x
_atom_site_fract_y
_atom_site_fract_z
Si Si1 0.699269 0.667901 0.065003
Si Si2 0.793742 0.668540 0.426060
Si Si3 0.804919 0.165307 0.734287
Si Si4 0.546819 0.829607 0.581103
Si Si5 0.444959 0.834340 0.731181
Si Si6 0.938723 0.663555 0.931909
O O1 0.703238 0.500000 0.044795
O O2 0.719943 0.704160 0.166388
O O3 0.621354 0.723758 0.045097
O O4 0.750000 0.750000 0.000000
O O5 0.792232 0.500000 0.448052
O O6 0.750000 0.750000 0.500000
O O7 0.759728 0.700646 0.330427
O O8 0.873492 0.730322 0.424155
O O9 0.873145 0.254440 0.705474
O O10 0.827497 0.000000 0.729199
O O11 0.500000 0.770139 0.500000
O O12 0.509518 0.776869 0.671531
O O13 0.550974 0.000000 0.578420
O O14 0.467051 0.809851 0.832789
O O15 0.430309 0.000000 0.709619
O O16 0.910678 0.500000 0.941626
O O17 0.000000 0.696221 0.000000
#
# Coordination Sequence:
#
# PCOD8096976 Si02
#       6
#     8   8   8   8   8   8
#     4  10  20  34  52  74 102 136 173 213 257 304
#     4  10  20  34  52  74 100 130 164 202 247 297
#     4   9  19  34  51  72 100 132 163 203 254 299
#     4   9  17  29  47  71  95 121 156 197 238 283
#     4   9  17  31  52  73  94 126 166 204 242 291
#     4   9  18  32  51  75 101 130 166 208 254 304
#
# _framework density 17.969480000000001
#
# number of rings (size 3 to 8) (size 9 to 14) (size 15 to 20)
#    0.000    2.667    0.000    1.500    0.000    4.333 
#    0.000    5.833    0.000    3.000    0.000    0.000 
#    0.000    0.000    0.000    0.000    0.000    0.000 
#
# Total GULP energy -297593.792461 kJ/mol
# GULP energy per Si atom -12399.741353 kJ/mol
# Density = 1.792858 g / cm^3
# Si number density = 17.969480 Si / 1000 Ang^3
#
#
#
# Elastic Constant Matrix: (Units=GPa)
#
#
# Indices 1 2 3 4 5 6 
#
# 1 159.5015 54.8801 99.3484 0.0000 -6.8120 0.0000
# 2 54.8801 59.1390 50.3581 0.0000 -7.1082 0.0000
# 3 99.3484 50.3581 127.7239 0.0000 -6.6111 0.0000
# 4 0.0000 0.0000 0.0000 23.8920 0.0000 -2.8515
# 5 -6.8120 -7.1082 -6.6111 0.0000 39.6653 0.0000
# 6 0.0000 0.0000 0.0000 -2.8515 0.0000 29.8935
#
#
#
# Elastic Compliance Matrix: (Units=1/GPa)
#
#
# Indices 1 2 3 4 5 6 
#
# 1 0.013168 -0.005271 -0.008167 0.000000 -0.000044 0.000000
# 2 -0.005271 0.027904 -0.006748 0.000000 0.002971 0.000000
# 3 -0.008167 -0.006748 0.016852 0.000000 0.000197 0.000000
# 4 0.000000 0.000000 0.000000 0.042337 0.000000 0.004038
# 5 -0.000044 0.002971 0.000197 0.000000 0.025769 0.000000
# 6 0.000000 0.000000 0.000000 0.004038 0.000000 0.033837
#
#
# Mechanical properties :
#
#
# Convention : Reuss Voigt Hill
#
# Bulk Modulus (GPa) = 56.97022 83.94862 70.45942
# Shear Modulus (GPa) = 24.26133 28.14201 26.20167
#
# Velocity S-wave (km/s) = 3.67841 3.96169 3.82268
# Velocity P-wave (km/s) = 7.05788 8.23076 7.66678
#
# Compressibility (1/GPa) = 0.01755303
#
# Stress axis : x y z
#
# Youngs Moduli (GPa) = 75.94184 35.83743 59.33847
#
# Poissons Ratio (x) = 0.18890 0.48460
# Poissons Ratio (y) = 0.40028 0.40042
# Poissons Ratio (z) = 0.62019 0.24183
#
# Static dielectric constant tensor:
#      x y z
#    x 3.755200 0.000000 0.045620 
#    y 0.000000 3.205560 0.000000 
#    z 0.045620 0.000000 3.593330 
# 
# 
# High freq. dielectric constant tensor:
#      x y z
#    x 1.693520 0.000000 -0.000580 
#    y 0.000000 1.675930 0.000000 
#    z -0.000580 0.000000 1.708630 
# 
# From -- ./inp_files/221566.got.cif
#   From: 2010.06.25/outbox.cif.g09.slc.cpg/sg12_111_cif.got.tgz:221566.got - 2010.06.28 00:19:55.
