data_PCOD8096085
_publ_section_title
;
Structure prediction by ZEFSAII (Michael W. Deem and Ramdas Pophale) SiO2 
 PCOD8096085
Probable space group: C 2/M
;
_chemical_formula_sum "Si O2"
_cell_formula_units_Z 56
_cell_length_a 18.266086
_cell_length_b 9.252121
_cell_length_c 18.639640
_cell_angle_alpha 90.000000
_cell_angle_beta 75.475130
_cell_angle_gamma 90.000000
_cell_volume 3049.419109
_symmetry_space_group_name_H-M "C 2/M"
_symmetry_group_IT_number 12
_symmetry_cell_setting 'monoclinic'
loop_
_space_group_symop_operation_xyz
x,y,z
-x,y,-z
-x,-y,-z
x,-y,z
1/2+x,1/2+y,z
1/2-x,1/2+y,-z
1/2-x,1/2-y,-z
1/2+x,1/2-y,z
loop_
_atom_site_type_symbol
_atom_site_label
_atom_site_fract_x
_atom_site_fract_y
_atom_site_fract_z
Si Si1 0.976674 0.833921 0.428423
Si Si2 0.303826 0.332913 0.433116
Si Si3 0.082333 0.671530 0.998810
Si Si4 0.511262 0.168054 0.283425
Si Si5 0.136937 0.671465 0.139983
Si Si6 0.289540 0.169783 0.141894
Si Si7 0.658247 0.167540 0.712365
O O1 0.887817 0.812181 0.441749
O O2 0.000000 0.770652 0.500000
O O3 0.022159 0.749485 0.355930
O O4 0.001111 0.000000 0.416067
O O5 0.280131 0.500000 0.434457
O O6 0.250000 0.250000 0.500000
O O7 0.296394 0.263360 0.356195
O O8 0.077002 0.500000 0.000530
O O9 0.142063 0.724224 0.924861
O O10 0.108282 0.727877 0.070090
O O11 0.000000 0.737004 0.000000
O O12 0.575706 0.221660 0.213537
O O13 0.430712 0.204358 0.267288
O O14 0.519055 0.000000 0.297943
O O15 0.147773 0.500000 0.137459
O O16 0.215650 0.745039 0.137782
O O17 0.310233 0.209070 0.217989
O O18 0.275247 0.000000 0.135435
O O19 0.672134 0.000000 0.690578
#
# Coordination Sequence:
#
# PCOD8096085 Si02
#       7
#     8   8   8   8   8   8   8
#     4   9  19  35  53  73  98 129 165 205 249 297
#     4  10  20  34  53  76 102 133 168 207 253 302
#     4   9  17  32  55  78 100 133 176 214 248 293
#     4   9  18  33  52  73  97 129 169 208 247 293
#     4  10  20  33  51  77 107 134 164 209 258 301
#     4  10  20  33  52  77 103 134 170 208 253 302
#     4   9  18  34  53  72  97 131 173 214 248 293
#
# _framework density 18.364153999999999
#
# number of rings (size 3 to 8) (size 9 to 14) (size 15 to 20)
#    0.000    2.571    0.000    1.714    0.000    6.571 
#    0.000    4.286    0.000    3.429    0.000    0.000 
#    0.000    0.000    0.000    0.000    0.000    0.000 
#
# Total GULP energy -347263.991060 kJ/mol
# GULP energy per Si atom -12402.285395 kJ/mol
# Density = 1.832236 g / cm^3
# Si number density = 18.364154 Si / 1000 Ang^3
#
#
#
# Elastic Constant Matrix: (Units=GPa)
#
#
# Indices 1 2 3 4 5 6 
#
# 1 117.6340 44.6703 90.8979 0.0000 4.8907 0.0000
# 2 44.6703 55.1592 65.6487 0.0000 -2.7491 0.0000
# 3 90.8979 65.6487 191.6954 0.0000 2.0216 0.0000
# 4 0.0000 0.0000 0.0000 25.2864 0.0000 0.5374
# 5 4.8907 -2.7491 2.0216 0.0000 38.7965 0.0000
# 6 0.0000 0.0000 0.0000 0.5374 0.0000 29.3421
#
#
#
# Elastic Compliance Matrix: (Units=1/GPa)
#
#
# Indices 1 2 3 4 5 6 
#
# 1 0.014668 -0.006294 -0.004778 0.000000 -0.002046 0.000000
# 2 -0.006294 0.033592 -0.008558 0.000000 0.003620 0.000000
# 3 -0.004778 -0.008558 0.010419 0.000000 -0.000547 0.000000
# 4 0.000000 0.000000 0.000000 0.039562 0.000000 -0.000725
# 5 -0.002046 0.003620 -0.000547 0.000000 0.026318 0.000000
# 6 0.000000 0.000000 0.000000 -0.000725 0.000000 0.034094
#
#
# Mechanical properties :
#
#
# Convention : Reuss Voigt Hill
#
# Bulk Modulus (GPa) = 51.49567 85.21359 68.35463
# Shear Modulus (GPa) = 24.46331 29.56979 27.01655
#
# Velocity S-wave (km/s) = 3.65379 4.01707 3.83973
# Velocity P-wave (km/s) = 6.77514 8.24734 7.54722
#
# Compressibility (1/GPa) = 0.01941911
#
# Stress axis : x y z
#
# Youngs Moduli (GPa) = 68.17343 29.76891 95.97914
#
# Poissons Ratio (x) = 0.18737 0.45863
# Poissons Ratio (y) = 0.42908 0.82137
# Poissons Ratio (z) = 0.32576 0.25476
#
# Static dielectric constant tensor:
#      x y z
#    x 3.401170 0.000000 0.041060 
#    y 0.000000 3.211670 0.000000 
#    z 0.041060 0.000000 3.617400 
# 
# 
# High freq. dielectric constant tensor:
#      x y z
#    x 1.712750 0.000000 0.001260 
#    y 0.000000 1.690470 0.000000 
#    z 0.001260 0.000000 1.728940 
# 
# From -- ./inp_files/275344.got.cif
#   From: 2010.06.25/outbox.cif.g09.slc.cpg/sg12_138_cif.got.tgz:275344.got - 2010.06.28 00:19:55.
