data_PCOD8096776
_publ_section_title
;
Structure prediction by ZEFSAII (Michael W. Deem and Ramdas Pophale) SiO2 
 PCOD8096776
Probable space group: C 2/M
;
_chemical_formula_sum "Si O2"
_cell_formula_units_Z 56
_cell_length_a 18.548645
_cell_length_b 20.262834
_cell_length_c 21.701530
_cell_angle_alpha 90.000000
_cell_angle_beta 160.177170
_cell_angle_gamma 90.000000
_cell_volume 2765.966440
_symmetry_space_group_name_H-M "C 2/M"
_symmetry_group_IT_number 12
_symmetry_cell_setting 'monoclinic'
loop_
_space_group_symop_operation_xyz
x,y,z
-x,y,-z
-x,-y,-z
x,-y,z
1/2+x,1/2+y,z
1/2-x,1/2+y,-z
1/2-x,1/2-y,-z
1/2+x,1/2-y,z
loop_
_atom_site_type_symbol
_atom_site_label
_atom_site_fract_x
_atom_site_fract_y
_atom_site_fract_z
Si Si1 0.161512 0.698396 0.477153
Si Si2 0.629743 0.926122 0.366724
Si Si3 0.480307 0.424316 0.553937
Si Si4 0.569136 0.696849 0.874121
Si Si5 0.669839 0.278197 0.086285
Si Si6 0.340957 0.874205 0.923086
Si Si7 0.255237 0.072713 0.979522
O O1 0.250000 0.750000 0.500000
O O2 0.178205 0.625703 0.459774
O O3 0.320056 0.713331 0.662304
O O4 0.918276 0.710914 0.303714
O O5 0.747515 0.916363 0.395584
O O6 0.676297 0.000000 0.430323
O O7 0.389355 0.919336 0.149995
O O8 0.500000 0.395259 0.500000
O O9 0.558588 0.500000 0.616037
O O10 0.610335 0.382015 0.707983
O O11 0.584049 0.630983 0.844357
O O12 0.750000 0.750000 0.000000
O O13 0.608562 0.680202 0.976779
O O14 0.622235 0.202305 0.031972
O O15 0.500000 0.303360 0.000000
O O16 0.381339 0.917212 0.016699
O O17 0.500000 0.902053 0.000000
O O18 0.149632 0.000000 0.892946
#
# Coordination Sequence:
#
# PCOD8096776 Si02
#       7
#     8   8   8   8   8   8   8
#     4  12  22  39  69  90 123 170 208 262 323 366
#     4  10  21  36  58  90 121 157 210 260 312 378
#     4  10  20  34  50  77 121 166 205 248 302 371
#     4  12  22  41  67  92 127 165 216 262 312 379
#     4  11  25  44  62  94 129 164 215 267 320 379
#     4  11  22  36  53  82 122 165 206 252 311 378
#     4  11  21  36  62  92 123 162 207 261 315 375
#
# _framework density 20.246088
#
# number of rings (size 3 to 8) (size 9 to 14) (size 15 to 20)
#    0.000    1.000    4.286    3.000    0.000    4.571 
#    5.143    0.000    0.000    1.714    0.000    2.000 
#    0.000    0.000    0.000    0.000    0.000    0.000 
#
# Total GULP energy -346913.226548 kJ/mol
# GULP energy per Si atom -12389.758091 kJ/mol
# Density = 2.020001 g / cm^3
# Si number density = 20.246088 Si / 1000 Ang^3
#
#
#
# Elastic Constant Matrix: (Units=GPa)
#
#
# Indices 1 2 3 4 5 6 
#
# 1 96.7343 34.2677 39.1328 0.1036 9.0641 0.0191
# 2 34.2677 92.8574 17.2951 0.1711 3.7568 0.0419
# 3 39.1328 17.2951 125.8006 0.2248 3.2027 0.0752
# 4 0.1036 0.1711 0.2248 23.0724 0.0257 -2.4773
# 5 9.0641 3.7568 3.2027 0.0257 35.4639 0.0005
# 6 0.0191 0.0419 0.0752 -2.4773 0.0005 25.4070
#
#
#
# Elastic Compliance Matrix: (Units=1/GPa)
#
#
# Indices 1 2 3 4 5 6 
#
# 1 0.013524 -0.004219 -0.003558 0.000009 -0.002688 0.000008
# 2 -0.004219 0.012407 -0.000388 -0.000072 -0.000201 -0.000023
# 3 -0.003558 -0.000388 0.009106 -0.000073 0.000128 -0.000031
# 4 0.000009 -0.000072 -0.000073 0.043802 -0.000020 0.004271
# 5 -0.002688 -0.000201 0.000128 -0.000020 0.028894 -0.000001
# 6 0.000008 -0.000023 -0.000031 0.004271 -0.000001 0.039776
#
#
# Mechanical properties :
#
#
# Convention : Reuss Voigt Hill
#
# Bulk Modulus (GPa) = 53.45992 55.19813 54.32903
# Shear Modulus (GPa) = 29.39885 31.76843 30.58364
#
# Velocity S-wave (km/s) = 3.81475 3.96550 3.89085
# Velocity P-wave (km/s) = 6.77240 6.94908 6.86131
#
# Compressibility (1/GPa) = 0.01870560
#
# Stress axis : x y z
#
# Youngs Moduli (GPa) = 73.94497 80.60119 109.81537
#
# Poissons Ratio (x) = 0.34007 0.39076
# Poissons Ratio (y) = 0.31199 0.04260
# Poissons Ratio (z) = 0.26312 0.03127
#
# Static dielectric constant tensor:
#      x y z
#    x 3.664600 -0.000140 -0.015110 
#    y -0.000140 3.692090 -0.000810 
#    z -0.015110 -0.000810 3.990620 
# 
# 
# High freq. dielectric constant tensor:
#      x y z
#    x 1.769780 -0.000010 -0.009060 
#    y -0.000010 1.783300 -0.000060 
#    z -0.009060 -0.000060 1.797530 
# 
# From -- ./inp_files/318061.got.cif
#   From: 2010.06.25/outbox.cif.g09.slc.cpg/sg12_160_cif.got.tgz:318061.got - 2010.06.28 00:19:55.
