data_PCOD8096459
_publ_section_title
;
Structure prediction by ZEFSAII (Michael W. Deem and Ramdas Pophale) SiO2 
 PCOD8096459
Probable space group: C 2/M
;
_chemical_formula_sum "Si O2"
_cell_formula_units_Z 64
_cell_length_a 24.969702
_cell_length_b 14.287575
_cell_length_c 9.733331
_cell_angle_alpha 90.000000
_cell_angle_beta 92.184426
_cell_angle_gamma 90.000000
_cell_volume 3469.905638
_symmetry_space_group_name_H-M "C 2/M"
_symmetry_group_IT_number 12
_symmetry_cell_setting 'monoclinic'
loop_
_space_group_symop_operation_xyz
x,y,z
-x,y,-z
-x,-y,-z
x,-y,z
1/2+x,1/2+y,z
1/2-x,1/2+y,-z
1/2-x,1/2-y,-z
1/2+x,1/2-y,z
loop_
_atom_site_type_symbol
_atom_site_label
_atom_site_fract_x
_atom_site_fract_y
_atom_site_fract_z
Si Si1 0.134953 0.273621 0.465842
Si Si2 0.249520 0.158092 0.091964
Si Si3 0.766295 0.603859 0.593306
Si Si4 0.315234 0.605779 0.655784
Si Si5 0.693639 0.398334 0.837845
Si Si6 0.961793 0.605429 0.614289
Si Si7 0.036242 0.393619 0.881324
Si Si8 0.139883 0.712253 0.792888
O O1 0.188451 0.319847 0.414472
O O2 0.137712 0.165819 0.414329
O O3 0.087245 0.323776 0.381057
O O4 0.129554 0.285420 0.628712
O O5 0.204396 0.154869 0.205765
O O6 0.308878 0.145986 0.164041
O O7 0.250000 0.250000 0.000000
O O8 0.231226 0.083100 0.975366
O O9 0.789215 0.500000 0.628853
O O10 0.735348 0.600841 0.448160
O O11 0.728441 0.638861 0.712809
O O12 0.336568 0.500000 0.686109
O O13 0.667631 0.500000 0.799707
O O14 0.648451 0.318028 0.852018
O O15 0.940897 0.500000 0.579994
O O16 0.000000 0.643195 0.500000
O O17 0.996002 0.607759 0.752781
O O18 0.055714 0.500000 0.913524
O O19 0.088033 0.329416 0.862774
O O20 0.000000 0.352632 0.000000
#
# Coordination Sequence:
#
# PCOD8096459 Si02
#       8
#     8   8   8   8   8   8   8   8
#     4  12  20  34  59  83 111 151 195 234 278 338
#     4  10  21  36  55  84 118 152 189 233 278 331
#     4  10  20  33  53  83 116 150 188 230 274 332
#     4  11  22  35  54  84 120 154 190 231 277 336
#     4  10  21  37  54  81 120 153 184 227 278 335
#     4  10  21  37  57  83 109 139 186 241 293 337
#     4  10  23  41  59  82 112 141 180 239 296 342
#     4  11  21  35  59  82 107 149 195 227 281 344
#
# _framework density 18.444306000000001
#
# number of rings (size 3 to 8) (size 9 to 14) (size 15 to 20)
#    0.000    1.500    3.750    2.625    0.000    4.500 
#    0.000    2.500    0.000    1.500    0.000    0.000 
#    0.000    0.000    0.000    0.000    0.000    0.000 
#
# Total GULP energy -396568.546520 kJ/mol
# GULP energy per Si atom -12392.767079 kJ/mol
# Density = 1.840233 g / cm^3
# Si number density = 18.444306 Si / 1000 Ang^3
#
#
#
# Elastic Constant Matrix: (Units=GPa)
#
#
# Indices 1 2 3 4 5 6 
#
# 1 84.6517 57.1231 25.7365 0.0000 -14.2903 0.0000
# 2 57.1231 109.6007 22.0613 0.0000 -15.4843 0.0000
# 3 25.7365 22.0613 103.1957 0.0000 -20.3638 0.0000
# 4 0.0000 0.0000 0.0000 50.8528 0.0000 -40.4424
# 5 -14.2903 -15.4843 -20.3638 0.0000 27.7074 0.0000
# 6 0.0000 0.0000 0.0000 -40.4424 0.0000 83.8145
#
#
#
# Elastic Compliance Matrix: (Units=1/GPa)
#
#
# Indices 1 2 3 4 5 6 
#
# 1 0.019154 -0.009090 -0.002207 0.000000 0.003177 0.000000
# 2 -0.009090 0.014349 -0.000168 0.000000 0.003207 0.000000
# 3 -0.002207 -0.000168 0.011735 0.000000 0.007393 0.000000
# 4 0.000000 0.000000 0.000000 0.031910 0.000000 0.015397
# 5 0.003177 0.003207 0.007393 0.000000 0.044956 0.000000
# 6 0.000000 0.000000 0.000000 0.015397 0.000000 0.019361
#
#
# Mechanical properties :
#
#
# Convention : Reuss Voigt Hill
#
# Bulk Modulus (GPa) = 44.82368 56.36554 50.59461
# Shear Modulus (GPa) = 29.09852 45.31009 37.20430
#
# Velocity S-wave (km/s) = 3.97626 4.96178 4.49610
# Velocity P-wave (km/s) = 6.74061 7.96567 7.37861
#
# Compressibility (1/GPa) = 0.02230964
#
# Stress axis : x y z
#
# Youngs Moduli (GPa) = 52.20747 69.69350 85.21206
#
# Poissons Ratio (x) = 0.63352 0.18804
# Poissons Ratio (y) = 0.47457 0.01428
# Poissons Ratio (z) = 0.11521 0.01168
#
# Static dielectric constant tensor:
#      x y z
#    x 3.164750 0.000000 0.114150 
#    y 0.000000 4.345430 0.000000 
#    z 0.114150 0.000000 3.694420 
# 
# 
# High freq. dielectric constant tensor:
#      x y z
#    x 1.677090 0.000000 -0.002000 
#    y 0.000000 1.718040 0.000000 
#    z -0.002000 0.000000 1.735330 
# 
# From -- ./inp_files/96914.got.cif
#   From: 2010.06.25/outbox.cif.g09.slc.cpg/sg12_49_cif.got.tgz:96914.got - 2010.06.28 00:19:55.
