data_PCOD8096578
_publ_section_title
;
Structure prediction by ZEFSAII (Michael W. Deem and Ramdas Pophale) SiO2 
 PCOD8096578
Probable space group: C 2/M
;
_chemical_formula_sum "Si O2"
_cell_formula_units_Z 56
_cell_length_a 16.699417
_cell_length_b 24.773383
_cell_length_c 8.628073
_cell_angle_alpha 90.000000
_cell_angle_beta 121.249665
_cell_angle_gamma 90.000000
_cell_volume 3051.569923
_symmetry_space_group_name_H-M "C 2/M"
_symmetry_group_IT_number 12
_symmetry_cell_setting 'monoclinic'
loop_
_space_group_symop_operation_xyz
x,y,z
-x,y,-z
-x,-y,-z
x,-y,z
1/2+x,1/2+y,z
1/2-x,1/2+y,-z
1/2-x,1/2-y,-z
1/2+x,1/2-y,z
loop_
_atom_site_type_symbol
_atom_site_label
_atom_site_fract_x
_atom_site_fract_y
_atom_site_fract_z
Si Si1 0.313257 0.890434 0.493722
Si Si2 0.392663 0.000000 0.707254
Si Si3 0.174471 0.394120 0.848654
Si Si4 0.692922 0.300887 0.510343
Si Si5 0.508182 0.717337 0.828956
Si Si6 0.892472 0.500000 0.073920
Si Si7 0.298543 0.696900 0.115844
Si Si8 0.503002 0.175199 0.332567
O O1 0.336347 0.947708 0.593371
O O2 0.288438 0.899926 0.289156
O O3 0.227074 0.859771 0.488056
O O4 0.396616 0.848563 0.604443
O O5 0.500319 0.000000 0.752690
O O6 0.394819 0.000000 0.892834
O O7 0.169554 0.450796 0.928422
O O8 0.068634 0.373643 0.740637
O O9 0.240705 0.355653 0.013109
O O10 0.750000 0.250000 0.500000
O O11 0.584995 0.298807 0.354564
O O12 0.699906 0.296366 0.700143
O O13 0.597635 0.687299 0.846974
O O14 0.524317 0.781529 0.825112
O O15 0.500000 0.702314 0.000000
O O16 0.250000 0.750000 0.000000
O O17 0.500000 0.203214 0.500000
#
# Coordination Sequence:
#
# PCOD8096578 Si02
#       8
#     8   4   8   8   8   4   8   8
#     4  11  22  38  59  85 119 158 200 243 294 352
#     4  11  23  37  57  86 121 158 199 243 295 352
#     4  11  22  38  59  85 119 158 200 243 294 352
#     4  12  24  39  59  86 120 157 198 244 297 353
#     4  12  24  38  59  86 119 158 199 242 295 353
#     4  11  23  37  57  86 121 158 199 243 295 352
#     4  12  24  39  59  86 120 157 198 244 297 353
#     4  10  20  33  55  84 120 157 196 240 289 345
#
# _framework density 18.351210999999999
#
# number of rings (size 3 to 8) (size 9 to 14) (size 15 to 20)
#    0.000    0.714    4.286    5.143    0.000    1.714 
#    0.000    0.000    0.000    0.857    0.000    6.000 
#    0.000    0.000    0.000    0.000    0.000    0.000 
#
# Total GULP energy -347259.912284 kJ/mol
# GULP energy per Si atom -12402.139724 kJ/mol
# Density = 1.830944 g / cm^3
# Si number density = 18.351211 Si / 1000 Ang^3
#
#
#
# Elastic Constant Matrix: (Units=GPa)
#
#
# Indices 1 2 3 4 5 6 
#
# 1 111.5193 46.3806 55.2898 0.0000 -7.1019 0.0000
# 2 46.3806 120.0189 46.7590 0.0000 -1.8843 0.0000
# 3 55.2898 46.7590 128.6492 0.0000 -14.0040 0.0000
# 4 0.0000 0.0000 0.0000 44.1708 0.0000 30.2455
# 5 -7.1019 -1.8843 -14.0040 0.0000 37.2578 0.0000
# 6 0.0000 0.0000 0.0000 30.2455 0.0000 133.7010
#
#
#
# Elastic Compliance Matrix: (Units=1/GPa)
#
#
# Indices 1 2 3 4 5 6 
#
# 1 0.012353 -0.003172 -0.004084 0.000000 0.000659 0.000000
# 2 -0.003172 0.010548 -0.002584 0.000000 -0.001042 0.000000
# 3 -0.004084 -0.002584 0.010811 0.000000 0.003154 0.000000
# 4 0.000000 0.000000 0.000000 0.026789 0.000000 -0.006060
# 5 0.000659 -0.001042 0.003154 0.000000 0.028099 0.000000
# 6 0.000000 0.000000 0.000000 -0.006060 0.000000 0.008850
#
#
# Mechanical properties :
#
#
# Convention : Reuss Voigt Hill
#
# Bulk Modulus (GPa) = 71.26933 73.00512 72.13722
# Shear Modulus (GPa) = 41.04792 57.14311 49.09552
#
# Velocity S-wave (km/s) = 4.73461 5.58625 5.17797
# Velocity P-wave (km/s) = 8.29514 9.02645 8.66851
#
# Compressibility (1/GPa) = 0.01403128
#
# Stress axis : x y z
#
# Youngs Moduli (GPa) = 80.94972 94.80219 92.49864
#
# Poissons Ratio (x) = 0.30074 0.37780
# Poissons Ratio (y) = 0.25679 0.23902
# Poissons Ratio (z) = 0.33063 0.24497
#
# Static dielectric constant tensor:
#      x y z
#    x 3.537540 0.000000 -0.059650 
#    y 0.000000 3.341590 0.000000 
#    z -0.059650 0.000000 3.522600 
# 
# 
# High freq. dielectric constant tensor:
#      x y z
#    x 1.714450 0.000000 -0.010170 
#    y 0.000000 1.700100 0.000000 
#    z -0.010170 0.000000 1.721660 
# 
# From -- ./inp_files/66009.got.cif
#   From: 2010.06.25/outbox.cif.g09.slc.cpg/sg12_34_cif.got.tgz:66009.got - 2010.06.28 00:19:55.
