data_PCOD8096831
_publ_section_title
;
Structure prediction by ZEFSAII (Michael W. Deem and Ramdas Pophale) SiO2 
 PCOD8096831
Probable space group: C 2/M
;
_chemical_formula_sum "Si O2"
_cell_formula_units_Z 48
_cell_length_a 14.054003
_cell_length_b 9.169328
_cell_length_c 22.438977
_cell_angle_alpha 90.000000
_cell_angle_beta 111.591972
_cell_angle_gamma 90.000000
_cell_volume 2688.705590
_symmetry_space_group_name_H-M "C 2/M"
_symmetry_group_IT_number 12
_symmetry_cell_setting 'monoclinic'
loop_
_space_group_symop_operation_xyz
x,y,z
-x,y,-z
-x,-y,-z
x,-y,z
1/2+x,1/2+y,z
1/2-x,1/2+y,-z
1/2-x,1/2-y,-z
1/2+x,1/2-y,z
loop_
_atom_site_type_symbol
_atom_site_label
_atom_site_fract_x
_atom_site_fract_y
_atom_site_fract_z
Si Si1 0.314276 0.831198 0.600219
Si Si2 0.434276 0.330545 0.158664
Si Si3 0.353328 0.329216 0.731621
Si Si4 0.101933 0.832181 0.489487
Si Si5 0.519831 0.169815 0.070732
Si Si6 0.767677 0.670085 0.820494
O O1 0.334639 0.743089 0.664298
O O2 0.196347 0.808104 0.555708
O O3 0.387836 0.768816 0.565924
O O4 0.340983 0.000000 0.616203
O O5 0.426515 0.500000 0.141842
O O6 0.530635 0.295100 0.222676
O O7 0.442401 0.248190 0.097881
O O8 0.333440 0.275198 0.169177
O O9 0.331200 0.500000 0.722167
O O10 0.275670 0.260139 0.761392
O O11 0.000000 0.783285 0.500000
O O12 0.095537 0.000000 0.466986
O O13 0.636775 0.203727 0.114691
O O14 0.494520 0.000000 0.068248
O O15 0.500000 0.230989 0.000000
O O16 0.761016 0.500000 0.802306
#
# Coordination Sequence:
#
# PCOD8096831 Si02
#       6
#     8   8   8   8   8   8
#     4  10  20  34  53  76 101 129 162 200 243 288
#     4   9  19  34  51  71  96 130 167 201 239 287
#     4  10  20  34  51  72  99 129 164 203 242 286
#     4   9  19  36  55  74  99 131 164 198 238 287
#     4   9  18  32  50  73 100 128 159 200 248 292
#     4   9  18  34  52  70  97 130 164 201 242 290
#
# _framework density 17.852457999999999
#
# number of rings (size 3 to 8) (size 9 to 14) (size 15 to 20)
#    0.000    2.667    0.000    1.000    0.000    4.667 
#    0.000    6.667    0.000    0.000    0.000    0.000 
#    0.000    0.000    0.000    0.000    0.000    0.000 
#
# Total GULP energy -297683.310072 kJ/mol
# GULP energy per Si atom -12403.471253 kJ/mol
# Density = 1.781182 g / cm^3
# Si number density = 17.852458 Si / 1000 Ang^3
#
#
#
# Elastic Constant Matrix: (Units=GPa)
#
#
# Indices 1 2 3 4 5 6 
#
# 1 152.7951 56.2738 63.6269 0.0000 -26.9089 0.0000
# 2 56.2738 79.4525 65.8042 0.0000 -16.2293 0.0000
# 3 63.6269 65.8042 136.8824 0.0000 -25.6949 0.0000
# 4 0.0000 0.0000 0.0000 35.0830 0.0000 -7.9519
# 5 -26.9089 -16.2293 -25.6949 0.0000 18.6481 0.0000
# 6 0.0000 0.0000 0.0000 -7.9519 0.0000 29.7765
#
#
#
# Elastic Compliance Matrix: (Units=1/GPa)
#
#
# Indices 1 2 3 4 5 6 
#
# 1 0.010295 -0.004734 -0.000667 0.000000 0.009816 0.000000
# 2 -0.004734 0.023576 -0.008854 0.000000 0.001487 0.000000
# 3 -0.000667 -0.008854 0.013819 0.000000 0.010373 0.000000
# 4 0.000000 0.000000 0.000000 0.030340 0.000000 0.008102
# 5 0.009816 0.001487 0.010373 0.000000 0.083377 0.000000
# 6 0.000000 0.000000 0.000000 0.008102 0.000000 0.035747
#
#
# Mechanical properties :
#
#
# Convention : Reuss Voigt Hill
#
# Bulk Modulus (GPa) = 52.13788 82.28222 67.21005
# Shear Modulus (GPa) = 21.54635 28.92986 25.23810
#
# Velocity S-wave (km/s) = 3.47783 4.02991 3.76401
# Velocity P-wave (km/s) = 6.73761 8.23673 7.52460
#
# Compressibility (1/GPa) = 0.01917991
#
# Stress axis : x y z
#
# Youngs Moduli (GPa) = 97.13769 42.41588 72.36281
#
# Poissons Ratio (x) = 0.20080 0.04825
# Poissons Ratio (y) = 0.45985 0.64072
# Poissons Ratio (z) = 0.06477 0.37556
#
# Static dielectric constant tensor:
#      x y z
#    x 3.426660 0.000000 -0.053320 
#    y 0.000000 3.325050 0.000000 
#    z -0.053320 0.000000 3.303680 
# 
# 
# High freq. dielectric constant tensor:
#      x y z
#    x 1.692540 0.000000 -0.006050 
#    y 0.000000 1.692410 0.000000 
#    z -0.006050 0.000000 1.691910 
# 
# From -- ./inp_files/267720.got.cif
#   From: 2010.06.25/outbox.cif.g09.slc.cpg/sg12_134_cif.got.tgz:267720.got - 2010.06.28 00:19:55.
