data_PCOD8096721
_publ_section_title
;
Structure prediction by ZEFSAII (Michael W. Deem and Ramdas Pophale) SiO2 
 PCOD8096721
Probable space group: C 2/M
;
_chemical_formula_sum "Si O2"
_cell_formula_units_Z 64
_cell_length_a 8.791442
_cell_length_b 21.816566
_cell_length_c 23.752054
_cell_angle_alpha 90.000000
_cell_angle_beta 131.722379
_cell_angle_gamma 90.000000
_cell_volume 3400.217364
_symmetry_space_group_name_H-M "C 2/M"
_symmetry_group_IT_number 12
_symmetry_cell_setting 'monoclinic'
loop_
_space_group_symop_operation_xyz
x,y,z
-x,y,-z
-x,-y,-z
x,-y,z
1/2+x,1/2+y,z
1/2-x,1/2+y,-z
1/2-x,1/2-y,-z
1/2+x,1/2-y,z
loop_
_atom_site_type_symbol
_atom_site_label
_atom_site_fract_x
_atom_site_fract_y
_atom_site_fract_z
Si Si1 0.156530 0.070509 0.081764
Si Si2 0.495096 0.429347 0.725072
Si Si3 0.427515 0.871979 0.823493
Si Si4 0.522931 0.726723 0.446318
Si Si5 0.629570 0.691091 0.354474
Si Si6 0.162996 0.702194 0.089498
Si Si7 0.435203 0.630495 0.824862
Si Si8 0.606140 0.212945 0.780001
O O1 0.388061 0.081735 0.121182
O O2 0.122610 0.094390 0.134907
O O3 0.106841 0.000000 0.070260
O O4 0.000000 0.103070 0.000000
O O5 0.446889 0.500000 0.696495
O O6 0.727930 0.413477 0.768754
O O7 0.352959 0.380692 0.656630
O O8 0.447285 0.419306 0.778658
O O9 0.432097 0.828969 0.879049
O O10 0.443232 0.832620 0.769092
O O11 0.500000 0.687858 0.500000
O O12 0.750000 0.750000 0.500000
O O13 0.501633 0.691382 0.382027
O O14 0.356737 0.781297 0.411684
O O15 0.497650 0.727952 0.274938
O O16 0.349582 0.662821 0.111754
O O17 0.248857 0.767388 0.131993
O O18 0.000000 0.712102 0.000000
O O19 0.249939 0.679445 0.768843
#
# Coordination Sequence:
#
# PCOD8096721 Si02
#       8
#     8   8   8   8   8   8   8   8
#     4  10  20  34  50  66  92 143 200 247 295 342
#     4  11  22  36  56  83 113 153 193 234 276 331
#     4  10  21  35  51  73 109 142 195 243 299 336
#     4   9  20  36  61  95 121 144 171 216 275 331
#     4  11  19  35  61  86 120 143 183 225 272 336
#     4  11  22  33  49  76 114 146 186 239 307 362
#     4  10  21  35  51  73 109 140 194 243 296 334
#     4  11  21  34  56  84 107 147 186 237 298 336
#
# _framework density 18.822326
#
# number of rings (size 3 to 8) (size 9 to 14) (size 15 to 20)
#    0.000    1.625    2.500    3.750    0.000    4.000 
#    0.000    0.000    0.000    9.750    0.000    0.000 
#    0.000    0.000    0.000    0.000    0.000    0.000 
#
# Total GULP energy -396507.312711 kJ/mol
# GULP energy per Si atom -12390.853522 kJ/mol
# Density = 1.877949 g / cm^3
# Si number density = 18.822326 Si / 1000 Ang^3
#
#
#
# Elastic Constant Matrix: (Units=GPa)
#
#
# Indices 1 2 3 4 5 6 
#
# 1 95.2782 22.6573 27.2680 0.0000 8.0856 0.0001
# 2 22.6573 95.1773 25.9276 0.0000 4.2273 0.0000
# 3 27.2680 25.9276 77.8577 0.0001 1.5131 0.0001
# 4 0.0000 0.0000 0.0001 12.6960 0.0001 4.9897
# 5 8.0856 4.2273 1.5131 0.0001 18.8595 0.0001
# 6 0.0001 0.0000 0.0001 4.9897 0.0001 8.2376
#
#
#
# Elastic Compliance Matrix: (Units=1/GPa)
#
#
# Indices 1 2 3 4 5 6 
#
# 1 0.012346 -0.001739 -0.003656 0.000000 -0.004610 0.000000
# 2 -0.001739 0.011899 -0.003321 0.000000 -0.001655 0.000000
# 3 -0.003656 -0.003321 0.015209 0.000000 0.001091 0.000000
# 4 0.000000 0.000000 0.000000 0.103374 -0.000001 -0.062616
# 5 -0.004610 -0.001655 0.001091 -0.000001 0.055284 0.000000
# 6 0.000000 0.000000 0.000000 -0.062616 0.000000 0.159323
#
#
# Mechanical properties :
#
#
# Convention : Reuss Voigt Hill
#
# Bulk Modulus (GPa) = 45.40618 46.66877 46.03748
# Shear Modulus (GPa) = 13.08189 20.78928 16.93559
#
# Velocity S-wave (km/s) = 2.63918 3.32701 3.00286
# Velocity P-wave (km/s) = 5.78472 6.29340 6.04441
#
# Compressibility (1/GPa) = 0.02202343
#
# Stress axis : x y z
#
# Youngs Moduli (GPa) = 80.99501 84.04142 65.75012
#
# Poissons Ratio (x) = 0.14611 0.24035
# Poissons Ratio (y) = 0.14081 0.21839
# Poissons Ratio (z) = 0.29608 0.27914
#
# Static dielectric constant tensor:
#      x y z
#    x 4.170680 0.000000 0.076700 
#    y 0.000000 3.551770 0.000000 
#    z 0.076700 0.000000 4.085640 
# 
# 
# High freq. dielectric constant tensor:
#      x y z
#    x 1.760600 0.000000 -0.003270 
#    y 0.000000 1.704320 0.000000 
#    z -0.003270 0.000000 1.719210 
# 
# From -- ./inp_files/333752.got.cif
#   From: 2010.06.25/outbox.cif.g09.slc.cpg/sg12_167_cif.got.tgz:333752.got - 2010.06.28 00:19:55.
