data_PCOD8096559
_publ_section_title
;
Structure prediction by ZEFSAII (Michael W. Deem and Ramdas Pophale) SiO2 
 PCOD8096559
Probable space group: C 2/M
;
_chemical_formula_sum "Si O2"
_cell_formula_units_Z 56
_cell_length_a 13.396044
_cell_length_b 13.797278
_cell_length_c 19.715936
_cell_angle_alpha 90.000000
_cell_angle_beta 54.367593
_cell_angle_gamma 90.000000
_cell_volume 2961.800355
_symmetry_space_group_name_H-M "C 2/M"
_symmetry_group_IT_number 12
_symmetry_cell_setting 'monoclinic'
loop_
_space_group_symop_operation_xyz
x,y,z
-x,y,-z
-x,-y,-z
x,-y,z
1/2+x,1/2+y,z
1/2-x,1/2+y,-z
1/2-x,1/2-y,-z
1/2+x,1/2-y,z
loop_
_atom_site_type_symbol
_atom_site_label
_atom_site_fract_x
_atom_site_fract_y
_atom_site_fract_z
Si Si1 0.944196 0.390265 0.121208
Si Si2 0.731148 0.888078 0.021246
Si Si3 0.725467 0.890141 0.687291
Si Si4 0.745822 0.775007 0.888016
Si Si5 0.413703 0.729766 0.693077
Si Si6 0.691788 0.269683 0.595099
Si Si7 0.888161 0.613125 0.593871
O O1 0.921353 0.500000 0.103258
O O2 0.890340 0.378444 0.217492
O O3 0.879174 0.315743 0.095773
O O4 0.086863 0.366775 0.069538
O O5 0.781868 0.828902 0.066028
O O6 0.762740 0.000000 0.020490
O O7 0.794078 0.849373 0.927075
O O8 0.848010 0.852023 0.674668
O O9 0.695585 0.832741 0.631382
O O10 0.748686 0.000000 0.656566
O O11 0.852680 0.761828 0.790875
O O12 0.552739 0.694006 0.644761
O O13 0.406510 0.833384 0.658298
O O14 0.750000 0.250000 0.500000
O O15 0.763191 0.352626 0.607789
O O16 0.880322 0.500000 0.612897
O O17 0.000000 0.639364 0.500000
#
# Coordination Sequence:
#
# PCOD8096559 Si02
#       7
#     8   8   8   8   8   8   8
#     4   9  17  34  58  81 105 140 185 223 261 313
#     4  10  20  34  55  82 110 141 185 225 259 315
#     4   9  20  35  54  81 110 139 177 225 269 315
#     4  10  20  33  55  82 110 143 177 223 273 309
#     4  10  21  37  56  79 111 142 177 222 269 321
#     4  11  21  35  56  78 106 140 179 219 266 325
#     4  10  21  38  57  79 105 136 177 221 265 317
#
# _framework density 18.907419000000001
#
# number of rings (size 3 to 8) (size 9 to 14) (size 15 to 20)
#    0.000    2.143    1.429    1.714    0.000    4.000 
#    0.000    0.714    0.000    7.714    0.000    0.000 
#    0.000    0.000    0.000    0.000    0.000    0.000 
#
# Total GULP energy -347265.174504 kJ/mol
# GULP energy per Si atom -12402.327661 kJ/mol
# Density = 1.886438 g / cm^3
# Si number density = 18.907419 Si / 1000 Ang^3
#
#
#
# Elastic Constant Matrix: (Units=GPa)
#
#
# Indices 1 2 3 4 5 6 
#
# 1 76.2748 28.3462 46.0472 0.0000 -4.6964 0.0000
# 2 28.3462 115.1423 53.3814 0.0000 1.5811 0.0000
# 3 46.0472 53.3814 118.3515 0.0000 9.0095 0.0000
# 4 0.0000 0.0000 0.0000 26.1217 0.0000 3.1880
# 5 -4.6964 1.5811 9.0095 0.0000 23.4588 0.0000
# 6 0.0000 0.0000 0.0000 3.1880 0.0000 22.8759
#
#
#
# Elastic Compliance Matrix: (Units=1/GPa)
#
#
# Indices 1 2 3 4 5 6 
#
# 1 0.018211 -0.001340 -0.006969 0.000000 0.006412 0.000000
# 2 -0.001340 0.011113 -0.004546 0.000000 0.000729 0.000000
# 3 -0.006969 -0.004546 0.013695 0.000000 -0.006348 0.000000
# 4 0.000000 0.000000 0.000000 0.038945 0.000000 -0.005427
# 5 0.006412 0.000729 -0.006348 0.000000 0.046301 0.000000
# 6 0.000000 0.000000 0.000000 -0.005427 0.000000 0.044471
#
#
# Mechanical properties :
#
#
# Convention : Reuss Voigt Hill
#
# Bulk Modulus (GPa) = 57.78039 62.81314 60.29676
# Shear Modulus (GPa) = 24.48421 26.62419 25.55420
#
# Velocity S-wave (km/s) = 3.60245 3.75658 3.68032
# Velocity P-wave (km/s) = 6.92311 7.21869 7.07244
#
# Compressibility (1/GPa) = 0.01730691
#
# Stress axis : x y z
#
# Youngs Moduli (GPa) = 54.91332 89.98844 73.02190
#
# Poissons Ratio (x) = 0.12062 0.50887
# Poissons Ratio (y) = 0.07361 0.33197
# Poissons Ratio (z) = 0.38268 0.40910
#
# Static dielectric constant tensor:
#      x y z
#    x 3.494500 0.000000 0.009340 
#    y 0.000000 3.479740 0.000000 
#    z 0.009340 0.000000 3.627170 
# 
# 
# High freq. dielectric constant tensor:
#      x y z
#    x 1.728810 0.000000 0.006890 
#    y 0.000000 1.731400 0.000000 
#    z 0.006890 0.000000 1.747340 
# 
# From -- ./inp_files/263242.got.cif
#   From: 2010.06.25/outbox.cif.g09.slc.cpg/sg12_132_cif.got.tgz:263242.got - 2010.06.28 00:19:55.
