data_PCOD8096490
_publ_section_title
;
Structure prediction by ZEFSAII (Michael W. Deem and Ramdas Pophale) SiO2 
 PCOD8096490
Probable space group: C 2/M
;
_chemical_formula_sum "Si O2"
_cell_formula_units_Z 40
_cell_length_a 12.869297
_cell_length_b 12.889088
_cell_length_c 12.055323
_cell_angle_alpha 90.000000
_cell_angle_beta 115.918218
_cell_angle_gamma 90.000000
_cell_volume 1798.530665
_symmetry_space_group_name_H-M "C 2/M"
_symmetry_group_IT_number 12
_symmetry_cell_setting 'monoclinic'
loop_
_space_group_symop_operation_xyz
x,y,z
-x,y,-z
-x,-y,-z
x,-y,z
1/2+x,1/2+y,z
1/2-x,1/2+y,-z
1/2-x,1/2-y,-z
1/2+x,1/2-y,z
loop_
_atom_site_type_symbol
_atom_site_label
_atom_site_fract_x
_atom_site_fract_y
_atom_site_fract_z
Si Si1 0.706994 0.879013 0.376791
Si Si2 0.776981 0.384389 0.035028
Si Si3 0.068159 0.790919 0.420805
Si Si4 0.673902 0.759504 0.142141
Si Si5 0.986413 0.116387 0.165479
O O1 0.820252 0.861800 0.503357
O O2 0.600848 0.821616 0.387155
O O3 0.725135 0.829595 0.263802
O O4 0.677977 0.000000 0.351982
O O5 0.821687 0.500000 0.078994
O O6 0.858605 0.332653 0.979057
O O7 0.645761 0.379130 0.931227
O O8 0.777439 0.318644 0.149905
O O9 0.992057 0.854488 0.297598
O O10 0.000000 0.769857 0.500000
O O11 0.562653 0.693990 0.127069
O O12 0.034747 0.000000 0.169430
#
# Coordination Sequence:
#
# PCOD8096490 Si02
#       5
#     8   8   8   8   8
#     4  10  21  37  56  80 111 144 177 219 270 320
#     4  10  20  35  57  81 107 142 181 223 270 317
#     4  10  21  36  57  83 109 139 180 224 266 320
#     4  10  20  33  54  80 110 140 177 219 265 318
#     4  10  20  35  57  82 108 140 179 225 272 316
#
# _framework density 22.240376000000001
#
# number of rings (size 3 to 8) (size 9 to 14) (size 15 to 20)
#    0.000    2.000    0.000    3.600    0.000    5.200 
#    0.000    1.000    0.000   74.400    0.000    0.000 
#    0.000    0.000    0.000    0.000    0.000    0.000 
#
# Total GULP energy -247965.793781 kJ/mol
# GULP energy per Si atom -12398.289689 kJ/mol
# Density = 2.218976 g / cm^3
# Si number density = 22.240376 Si / 1000 Ang^3
#
#
#
# Elastic Constant Matrix: (Units=GPa)
#
#
# Indices 1 2 3 4 5 6 
#
# 1 65.1391 32.4586 24.5025 0.0000 -27.9948 0.0000
# 2 32.4586 188.8299 34.9706 0.0000 -18.3766 0.0000
# 3 24.5025 34.9706 78.6773 0.0000 -24.3131 0.0000
# 4 0.0000 0.0000 0.0000 28.0355 0.0000 -1.2335
# 5 -27.9948 -18.3766 -24.3131 0.0000 39.6156 0.0000
# 6 0.0000 0.0000 0.0000 -1.2335 0.0000 20.4845
#
#
#
# Elastic Compliance Matrix: (Units=1/GPa)
#
#
# Indices 1 2 3 4 5 6 
#
# 1 0.023321 -0.002278 -0.001832 0.000000 0.014299 0.000000
# 2 -0.002278 0.006053 -0.001988 0.000000 -0.000022 0.000000
# 3 -0.001832 -0.001988 0.016634 0.000000 0.007992 0.000000
# 4 0.000000 0.000000 0.000000 0.035764 0.000000 0.002153
# 5 0.014299 -0.000022 0.007992 0.000000 0.040242 0.000000
# 6 0.000000 0.000000 0.000000 0.002153 0.000000 0.048947
#
#
# Mechanical properties :
#
#
# Convention : Reuss Voigt Hill
#
# Bulk Modulus (GPa) = 29.57383 57.38996 43.48190
# Shear Modulus (GPa) = 25.71645 33.67476 29.69561
#
# Velocity S-wave (km/s) = 3.40412 3.89540 3.65802
# Velocity P-wave (km/s) = 5.36442 6.78915 6.11840
#
# Compressibility (1/GPa) = 0.03381368
#
# Stress axis : x y z
#
# Youngs Moduli (GPa) = 42.87928 165.19713 60.11809
#
# Poissons Ratio (x) = 0.37631 0.11011
# Poissons Ratio (y) = 0.09768 0.11951
# Poissons Ratio (z) = 0.07854 0.32840
#
# Static dielectric constant tensor:
#      x y z
#    x 3.801940 0.000000 -0.248820 
#    y 0.000000 4.362550 0.000000 
#    z -0.248820 0.000000 4.230460 
# 
# 
# High freq. dielectric constant tensor:
#      x y z
#    x 1.862350 0.000000 -0.022350 
#    y 0.000000 1.885440 0.000000 
#    z -0.022350 0.000000 1.877740 
# 
# From -- ./inp_files/140244.got.cif
#   From: 2010.06.25/outbox.cif.g09.slc.cpg/sg12_71_cif.got.tgz:140244.got - 2010.06.28 00:19:55.
