data_PCOD8096912
_publ_section_title
;
Structure prediction by ZEFSAII (Michael W. Deem and Ramdas Pophale) SiO2 
 PCOD8096912
Probable space group: C 2/M
;
_chemical_formula_sum "Si O2"
_cell_formula_units_Z 56
_cell_length_a 25.028514
_cell_length_b 9.129302
_cell_length_c 15.984682
_cell_angle_alpha 90.000000
_cell_angle_beta 56.292069
_cell_angle_gamma 90.000000
_cell_volume 3038.336841
_symmetry_space_group_name_H-M "C 2/M"
_symmetry_group_IT_number 12
_symmetry_cell_setting 'monoclinic'
loop_
_space_group_symop_operation_xyz
x,y,z
-x,y,-z
-x,-y,-z
x,-y,z
1/2+x,1/2+y,z
1/2-x,1/2+y,-z
1/2-x,1/2-y,-z
1/2+x,1/2-y,z
loop_
_atom_site_type_symbol
_atom_site_label
_atom_site_fract_x
_atom_site_fract_y
_atom_site_fract_z
Si Si1 0.490398 0.827093 0.770299
Si Si2 0.256044 0.328072 0.864818
Si Si3 0.113090 0.169240 0.705581
Si Si4 0.345597 0.829341 0.907975
Si Si5 0.771426 0.831274 0.282155
Si Si6 0.335588 0.832361 0.496907
Si Si7 0.971713 0.667783 0.441851
O O1 0.544849 0.749784 0.779576
O O2 0.419274 0.785840 0.863348
O O3 0.498760 0.764701 0.668730
O O4 0.503759 0.000000 0.762756
O O5 0.267098 0.500000 0.849721
O O6 0.319712 0.257324 0.849725
O O7 0.243157 0.267843 0.784377
O O8 0.194710 0.286938 0.975024
O O9 0.154793 0.189780 0.753656
O O10 0.154036 0.232920 0.592978
O O11 0.100013 0.000000 0.698136
O O12 0.339912 0.000000 0.891066
O O13 0.726898 0.780485 0.398274
O O14 0.756699 0.000000 0.272202
O O15 0.395132 0.815542 0.508883
O O16 0.329266 0.000000 0.471735
O O17 0.994193 0.500000 0.424283
O O18 0.000000 0.748003 0.500000
#
# Coordination Sequence:
#
# PCOD8096912 Si02
#       7
#     8   8   8   8   8   8   8
#     4   9  18  33  55  75  98 139 179 211 255 311
#     4  10  21  35  54  82 108 133 170 220 268 309
#     4  10  20  34  51  76 109 139 173 219 266 309
#     4   9  19  37  58  78 104 138 175 212 261 322
#     4  10  21  35  53  76 104 143 182 214 258 314
#     4   9  18  32  51  73 101 140 181 212 250 310
#     4   8  14  24  43  73  98 120 163 211 243 287
#
# _framework density 18.431135999999999
#
# number of rings (size 3 to 8) (size 9 to 14) (size 15 to 20)
#    0.000    2.714    0.000    2.143    2.000    2.857 
#    0.000    0.714    0.000    6.000    0.000    0.000 
#    0.000    0.000    0.000    0.000    0.000    0.000 
#
# Total GULP energy -347156.841196 kJ/mol
# GULP energy per Si atom -12398.458614 kJ/mol
# Density = 1.838919 g / cm^3
# Si number density = 18.431136 Si / 1000 Ang^3
#
#
#
# Elastic Constant Matrix: (Units=GPa)
#
#
# Indices 1 2 3 4 5 6 
#
# 1 102.6320 47.7993 41.6965 0.0000 -11.3004 0.0000
# 2 47.7993 71.1551 34.2183 -0.0001 -0.6609 -0.0001
# 3 41.6965 34.2183 53.5858 0.0000 -10.2844 0.0000
# 4 0.0000 -0.0001 0.0000 25.5607 0.0000 0.7882
# 5 -11.3004 -0.6609 -10.2844 0.0000 29.9540 0.0000
# 6 0.0000 -0.0001 0.0000 0.7882 0.0000 30.0462
#
#
#
# Elastic Compliance Matrix: (Units=1/GPa)
#
#
# Indices 1 2 3 4 5 6 
#
# 1 0.016710 -0.007604 -0.007460 0.000000 0.003575 0.000000
# 2 -0.007604 0.024269 -0.010736 0.000000 -0.006019 0.000000
# 3 -0.007460 -0.010736 0.032905 0.000000 0.008246 0.000000
# 4 0.000000 0.000000 0.000000 0.039154 0.000000 -0.001027
# 5 0.003575 -0.006019 0.008246 0.000000 0.037431 0.000000
# 6 0.000000 0.000000 0.000000 -0.001027 0.000000 0.033309
#
#
# Mechanical properties :
#
#
# Convention : Reuss Voigt Hill
#
# Bulk Modulus (GPa) = 44.87708 52.75568 48.81638
# Shear Modulus (GPa) = 20.59260 24.02277 22.30769
#
# Velocity S-wave (km/s) = 3.34619 3.61415 3.48275
# Velocity P-wave (km/s) = 6.27142 6.78980 6.53575
#
# Compressibility (1/GPa) = 0.02228309
#
# Stress axis : x y z
#
# Youngs Moduli (GPa) = 59.84617 41.20531 30.39055
#
# Poissons Ratio (x) = 0.31332 0.22673
# Poissons Ratio (y) = 0.45507 0.32626
# Poissons Ratio (z) = 0.44648 0.44237
#
# Static dielectric constant tensor:
#      x y z
#    x 3.540260 0.000000 -0.086690 
#    y 0.000000 3.211130 0.000000 
#    z -0.086690 0.000000 3.279810 
# 
# 
# High freq. dielectric constant tensor:
#      x y z
#    x 1.724900 0.000000 -0.006470 
#    y 0.000000 1.696710 0.000000 
#    z -0.006470 0.000000 1.696280 
# 
# From -- ./inp_files/243598.got.cif
#   From: 2010.06.25/outbox.cif.g09.slc.cpg/sg12_122_cif.got.tgz:243598.got - 2010.06.28 00:19:55.
