data_PCOD8096875
_publ_section_title
;
Structure prediction by ZEFSAII (Michael W. Deem and Ramdas Pophale) SiO2 
 PCOD8096875
Probable space group: C 2/M
;
_chemical_formula_sum "Si O2"
_cell_formula_units_Z 64
_cell_length_a 17.534992
_cell_length_b 14.466962
_cell_length_c 15.786214
_cell_angle_alpha 90.000000
_cell_angle_beta 103.856183
_cell_angle_gamma 90.000000
_cell_volume 3888.081506
_symmetry_space_group_name_H-M "C 2/M"
_symmetry_group_IT_number 12
_symmetry_cell_setting 'monoclinic'
loop_
_space_group_symop_operation_xyz
x,y,z
-x,y,-z
-x,-y,-z
x,-y,z
1/2+x,1/2+y,z
1/2-x,1/2+y,-z
1/2-x,1/2-y,-z
1/2+x,1/2-y,z
loop_
_atom_site_type_symbol
_atom_site_label
_atom_site_fract_x
_atom_site_fract_y
_atom_site_fract_z
Si Si1 0.081789 0.605750 0.621768
Si Si2 0.091112 0.894940 0.295095
Si Si3 0.913855 0.109671 0.211975
Si Si4 0.691865 0.760528 0.736366
Si Si5 0.187629 0.105352 0.154384
Si Si6 0.597165 0.895257 0.436943
Si Si7 0.424891 0.607109 0.025264
Si Si8 0.204426 0.250016 0.399716
O O1 0.089497 0.500000 0.652962
O O2 0.121150 0.669322 0.701765
O O3 0.124403 0.618495 0.541847
O O4 0.992286 0.637094 0.592442
O O5 0.119087 0.882306 0.205695
O O6 0.146871 0.838028 0.373762
O O7 0.999148 0.866651 0.275300
O O8 0.100972 0.000000 0.327626
O O9 0.843600 0.164482 0.239489
O O10 0.896360 0.000000 0.214142
O O11 0.911445 0.147742 0.115077
O O12 0.747574 0.814832 0.816957
O O13 0.736537 0.738252 0.661751
O O14 0.152160 0.122085 0.052095
O O15 0.221833 0.000000 0.170613
O O16 0.648741 0.838953 0.384663
O O17 0.606149 0.000000 0.410911
O O18 0.445095 0.500000 0.043364
O O19 0.500000 0.655070 0.000000
O O20 0.250000 0.250000 0.500000
#
# Coordination Sequence:
#
# PCOD8096875 Si02
#       8
#     8   8   8   8   8   8   8   8
#     4   9  17  32  52  70  87 116 161 213 251 274
#     4   9  18  33  52  72  96 127 169 212 243 281
#     4  10  20  34  51  74 103 135 165 197 245 302
#     4  11  21  31  48  73 107 131 154 204 254 299
#     4   9  17  30  51  79 101 123 161 208 251 288
#     4   9  18  32  50  67  86 119 167 208 238 283
#     4   9  15  29  54  77  99 128 164 202 241 293
#     4  11  21  33  47  69  98 132 166 199 249 298
#
# _framework density 16.460560000000001
#
# number of rings (size 3 to 8) (size 9 to 14) (size 15 to 20)
#    0.000    2.375    2.500    1.875    0.000    2.000 
#    0.000    0.000    0.000    1.500    0.000    0.000 
#    0.000    1.500    0.000    0.000    0.000    0.000 
#
# Total GULP energy -396647.602072 kJ/mol
# GULP energy per Si atom -12395.237565 kJ/mol
# Density = 1.642310 g / cm^3
# Si number density = 16.460560 Si / 1000 Ang^3
#
#
#
# Elastic Constant Matrix: (Units=GPa)
#
#
# Indices 1 2 3 4 5 6 
#
# 1 90.3660 60.0746 45.7693 0.0000 -1.3210 0.0000
# 2 60.0746 73.4358 40.4341 0.0000 1.0192 0.0000
# 3 45.7693 40.4341 88.0633 0.0000 5.8924 0.0000
# 4 0.0000 0.0000 0.0000 18.3464 0.0000 0.4505
# 5 -1.3210 1.0192 5.8924 0.0000 19.1619 0.0000
# 6 0.0000 0.0000 0.0000 0.4505 0.0000 33.5314
#
#
#
# Elastic Compliance Matrix: (Units=1/GPa)
#
#
# Indices 1 2 3 4 5 6 
#
# 1 0.026156 -0.018482 -0.005406 0.000000 0.004448 0.000000
# 2 -0.018482 0.031335 -0.004681 0.000000 -0.001501 0.000000
# 3 -0.005406 -0.004681 0.016665 0.000000 -0.005248 0.000000
# 4 0.000000 0.000000 0.000000 0.054525 0.000000 -0.000733
# 5 0.004448 -0.001501 -0.005248 0.000000 0.054187 0.000000
# 6 0.000000 0.000000 0.000000 -0.000733 0.000000 0.029833
#
#
# Mechanical properties :
#
#
# Convention : Reuss Voigt Hill
#
# Bulk Modulus (GPa) = 58.76008 60.49123 59.62565
# Shear Modulus (GPa) = 18.14800 21.24708 19.69754
#
# Velocity S-wave (km/s) = 3.32402 3.59665 3.46302
# Velocity P-wave (km/s) = 7.10683 7.35370 7.23132
#
# Compressibility (1/GPa) = 0.01701836
#
# Stress axis : x y z
#
# Youngs Moduli (GPa) = 38.23221 31.91284 60.00446
#
# Poissons Ratio (x) = 0.58983 0.32436
# Poissons Ratio (y) = 0.70663 0.28089
# Poissons Ratio (z) = 0.20667 0.14939
#
# Static dielectric constant tensor:
#      x y z
#    x 3.107330 0.000000 0.085410 
#    y 0.000000 2.966330 0.000000 
#    z 0.085410 0.000000 3.047620 
# 
# 
# High freq. dielectric constant tensor:
#      x y z
#    x 1.633860 0.000000 0.013400 
#    y 0.000000 1.617580 0.000000 
#    z 0.013400 0.000000 1.623090 
# 
# From -- ./inp_files/224814.got.cif
#   From: 2010.06.25/outbox.cif.g09.slc.cpg/sg12_113_cif.got.tgz:224814.got - 2010.06.28 00:19:55.
