data_PCOD8096471
_publ_section_title
;
Structure prediction by ZEFSAII (Michael W. Deem and Ramdas Pophale) SiO2 
 PCOD8096471
Probable space group: C 2/M
;
_chemical_formula_sum "Si O2"
_cell_formula_units_Z 56
_cell_length_a 18.570445
_cell_length_b 12.761867
_cell_length_c 12.140161
_cell_angle_alpha 90.000000
_cell_angle_beta 79.095190
_cell_angle_gamma 90.000000
_cell_volume 2825.186853
_symmetry_space_group_name_H-M "C 2/M"
_symmetry_group_IT_number 12
_symmetry_cell_setting 'monoclinic'
loop_
_space_group_symop_operation_xyz
x,y,z
-x,y,-z
-x,-y,-z
x,-y,z
1/2+x,1/2+y,z
1/2-x,1/2+y,-z
1/2-x,1/2-y,-z
1/2+x,1/2-y,z
loop_
_atom_site_type_symbol
_atom_site_label
_atom_site_fract_x
_atom_site_fract_y
_atom_site_fract_z
Si Si1 0.944868 0.261212 0.419791
Si Si2 0.817959 0.620337 0.348462
Si Si3 0.651376 0.621060 0.417765
Si Si4 0.680558 0.877889 0.102939
Si Si5 0.921789 0.879832 0.984326
Si Si6 0.921235 0.229401 0.763543
Si Si7 0.308457 0.767650 0.122703
O O1 0.881819 0.347159 0.415215
O O2 0.901611 0.155024 0.466374
O O3 0.000000 0.301682 0.500000
O O4 0.993991 0.238062 0.298159
O O5 0.829094 0.500000 0.315310
O O6 0.736963 0.638574 0.424001
O O7 0.827147 0.685133 0.234602
O O8 0.635573 0.500000 0.394571
O O9 0.631292 0.694364 0.320611
O O10 0.601655 0.841823 0.175060
O O11 0.732587 0.795362 0.150442
O O12 0.694895 0.000000 0.125869
O O13 0.690412 0.860459 0.968958
O O14 0.866859 0.818990 0.076807
O O15 0.907720 0.000000 0.013432
O O16 0.911815 0.859829 0.857984
O O17 0.000000 0.839990 0.000000
#
# Coordination Sequence:
#
# PCOD8096471 Si02
#       7
#     8   8   8   8   8   8   8
#     4  10  23  40  62  85 118 152 197 250 298 346
#     4  11  22  39  63  87 117 155 195 240 295 356
#     4  10  21  39  63  88 113 150 198 248 299 348
#     4  10  20  35  57  87 121 154 192 235 285 346
#     4  10  20  33  53  84 121 156 191 237 292 344
#     4  10  20  37  58  86 117 157 193 245 287 351
#     4  10  20  36  57  85 119 154 195 234 283 346
#
# _framework density 19.821698000000001
#
# number of rings (size 3 to 8) (size 9 to 14) (size 15 to 20)
#    0.000    1.857    1.429    2.571    0.000    4.000 
#    0.000    3.571    0.000    4.714    0.000    0.000 
#    0.000    0.000    0.000    0.000    0.000    0.000 
#
# Total GULP energy -347111.376964 kJ/mol
# GULP energy per Si atom -12396.834892 kJ/mol
# Density = 1.977658 g / cm^3
# Si number density = 19.821698 Si / 1000 Ang^3
#
#
#
# Elastic Constant Matrix: (Units=GPa)
#
#
# Indices 1 2 3 4 5 6 
#
# 1 123.0129 58.9494 45.4749 0.0000 -6.9514 0.0000
# 2 58.9494 232.4680 43.1098 0.0000 -2.8915 0.0000
# 3 45.4749 43.1098 83.7838 0.0000 -16.6541 0.0000
# 4 0.0000 0.0000 0.0000 23.3162 0.0000 1.7626
# 5 -6.9514 -2.8915 -16.6541 0.0000 36.2389 0.0000
# 6 0.0000 0.0000 0.0000 1.7626 0.0000 27.1271
#
#
#
# Elastic Compliance Matrix: (Units=1/GPa)
#
#
# Indices 1 2 3 4 5 6 
#
# 1 0.010836 -0.001822 -0.005018 0.000000 -0.000373 0.000000
# 2 -0.001822 0.005084 -0.001778 0.000000 -0.000761 0.000000
# 3 -0.005018 -0.001778 0.016898 0.000000 0.006661 0.000000
# 4 0.000000 0.000000 0.000000 0.043100 0.000000 -0.002800
# 5 -0.000373 -0.000761 0.006661 0.000000 0.030524 0.000000
# 6 0.000000 0.000000 0.000000 -0.002800 0.000000 0.037045
#
#
# Mechanical properties :
#
#
# Convention : Reuss Voigt Hill
#
# Bulk Modulus (GPa) = 64.17794 81.59252 72.88523
# Shear Modulus (GPa) = 30.13517 36.78515 33.46016
#
# Velocity S-wave (km/s) = 3.90335 4.31258 4.11305
# Velocity P-wave (km/s) = 7.26380 8.12714 7.70756
#
# Compressibility (1/GPa) = 0.01558168
#
# Stress axis : x y z
#
# Youngs Moduli (GPa) = 92.28176 196.69624 59.17744
#
# Poissons Ratio (x) = 0.35837 0.29697
# Poissons Ratio (y) = 0.16813 0.10524
# Poissons Ratio (z) = 0.46310 0.34978
#
# Static dielectric constant tensor:
#      x y z
#    x 4.260350 0.000000 -0.193820 
#    y 0.000000 3.432590 0.000000 
#    z -0.193820 0.000000 3.584410 
# 
# 
# High freq. dielectric constant tensor:
#      x y z
#    x 1.785880 0.000000 -0.013010 
#    y 0.000000 1.761830 0.000000 
#    z -0.013010 0.000000 1.769450 
# 
# From -- ./inp_files/164857.got.cif
#   From: 2010.06.25/outbox.cif.g09.slc.cpg/sg12_83_cif.got.tgz:164857.got - 2010.06.28 00:19:55.
