data_PCOD8096373
_publ_section_title
;
Structure prediction by ZEFSAII (Michael W. Deem and Ramdas Pophale) SiO2 
 PCOD8096373
Probable space group: C 2/M
;
_chemical_formula_sum "Si O2"
_cell_formula_units_Z 56
_cell_length_a 18.064784
_cell_length_b 7.679292
_cell_length_c 30.086486
_cell_angle_alpha 90.000000
_cell_angle_beta 41.741599
_cell_angle_gamma 90.000000
_cell_volume 2778.760537
_symmetry_space_group_name_H-M "C 2/M"
_symmetry_group_IT_number 12
_symmetry_cell_setting 'monoclinic'
loop_
_space_group_symop_operation_xyz
x,y,z
-x,y,-z
-x,-y,-z
x,-y,z
1/2+x,1/2+y,z
1/2-x,1/2+y,-z
1/2-x,1/2-y,-z
1/2+x,1/2-y,z
loop_
_atom_site_type_symbol
_atom_site_label
_atom_site_fract_x
_atom_site_fract_y
_atom_site_fract_z
Si Si1 0.491662 0.500000 0.075814
Si Si2 0.286152 0.795820 0.306633
Si Si3 0.303703 0.299039 0.829082
Si Si4 0.179749 0.000000 0.927358
Si Si5 0.456641 0.697780 0.303707
Si Si6 0.875403 0.205002 0.432901
Si Si7 0.038704 0.792490 0.434972
Si Si8 0.368050 0.802035 0.172568
O O1 0.412323 0.500000 0.069228
O O2 0.469110 0.674014 0.114621
O O3 0.619784 0.500000 0.002313
O O4 0.366483 0.704619 0.305467
O O5 0.162176 0.723217 0.369497
O O6 0.324016 0.746872 0.240374
O O7 0.291144 0.000000 0.313153
O O8 0.304111 0.500000 0.845793
O O9 0.252468 0.176186 0.890408
O O10 0.426425 0.221191 0.764556
O O11 0.234774 0.280951 0.814661
O O12 0.484634 0.500000 0.302948
O O13 0.410061 0.787860 0.369630
O O14 0.750000 0.250000 0.500000
O O15 0.955414 0.283544 0.435055
O O16 0.889357 0.000000 0.424969
O O17 0.000000 0.720008 0.500000
O O18 0.036396 0.000000 0.435527
O O19 0.413569 0.000000 0.151613
#
# Coordination Sequence:
#
# PCOD8096373 Si02
#       8
#     4   8   8   4   8   8   8   8
#     4   9  18  32  54  84 115 140 173 225 277 325
#     4  10  20  33  53  79 101 137 185 226 265 327
#     4   9  18  34  54  79 111 143 179 227 274 323
#     4   9  18  32  54  86 112 140 180 219 273 335
#     4  10  21  34  51  76 105 142 176 222 279 323
#     4  10  20  35  53  75 106 140 178 224 272 325
#     4   9  17  31  52  75 102 138 178 223 269 319
#     4   9  18  33  54  80 108 142 183 225 271 327
#
# _framework density 20.152868999999999
#
# number of rings (size 3 to 8) (size 9 to 14) (size 15 to 20)
#    0.000    2.571    0.000    1.714    2.000    5.714 
#    0.000    3.571    0.000    3.429    0.000    0.000 
#    0.000    0.000    0.000    0.000    0.000    0.000 
#
# Total GULP energy -347161.352200 kJ/mol
# GULP energy per Si atom -12398.619721 kJ/mol
# Density = 2.010700 g / cm^3
# Si number density = 20.152869 Si / 1000 Ang^3
#
#
#
# Elastic Constant Matrix: (Units=GPa)
#
#
# Indices 1 2 3 4 5 6 
#
# 1 105.5099 24.8982 71.3318 -0.0077 -4.2713 -0.0294
# 2 24.8982 68.3513 61.7188 -0.0531 1.3223 0.0006
# 3 71.3318 61.7188 213.4859 0.0072 -4.5501 -0.0010
# 4 -0.0077 -0.0531 0.0072 22.0068 0.0012 -5.1742
# 5 -4.2713 1.3223 -4.5501 0.0012 26.5464 -0.0024
# 6 -0.0294 0.0006 -0.0010 -5.1742 -0.0024 17.7278
#
#
#
# Elastic Compliance Matrix: (Units=1/GPa)
#
#
# Indices 1 2 3 4 5 6 
#
# 1 0.012349 -0.001118 -0.003773 0.000008 0.001396 0.000023
# 2 -0.001118 0.020004 -0.005454 0.000053 -0.002111 0.000012
# 3 -0.003773 -0.005454 0.007542 -0.000020 0.000957 -0.000011
# 4 0.000008 0.000053 -0.000020 0.048789 -0.000006 0.014240
# 5 0.001396 -0.002111 0.000957 -0.000006 0.038164 0.000006
# 6 0.000023 0.000012 -0.000011 0.014240 0.000006 0.060565
#
#
# Mechanical properties :
#
#
# Convention : Reuss Voigt Hill
#
# Bulk Modulus (GPa) = 52.07486 78.13829 65.10657
# Shear Modulus (GPa) = 23.30950 28.54943 25.92947
#
# Velocity S-wave (km/s) = 3.40462 3.76792 3.59087
# Velocity P-wave (km/s) = 6.43050 7.60175 7.04052
#
# Compressibility (1/GPa) = 0.01920312
#
# Stress axis : x y z
#
# Youngs Moduli (GPa) = 80.97759 49.99080 132.58875
#
# Poissons Ratio (x) = 0.05591 0.50027
# Poissons Ratio (y) = 0.09057 0.72319
# Poissons Ratio (z) = 0.30554 0.27267
#
# Static dielectric constant tensor:
#      x y z
#    x 3.477380 0.000050 0.070650 
#    y 0.000050 3.533770 -0.000060 
#    z 0.070650 -0.000060 3.895180 
# 
# 
# High freq. dielectric constant tensor:
#      x y z
#    x 1.770790 0.000000 -0.000130 
#    y 0.000000 1.774590 0.000000 
#    z -0.000130 0.000000 1.791770 
# 
# From -- ./inp_files/377704.got.cif
#   From: 2010.06.25/outbox.cif.g09.slc.cpg/sg12_189_cif.got.tgz:377704.got - 2010.06.28 00:19:55.
