data_PCOD8096435
_publ_section_title
;
Structure prediction by ZEFSAII (Michael W. Deem and Ramdas Pophale) SiO2 
 PCOD8096435
Probable space group: C 2/M
;
_chemical_formula_sum "Si O2"
_cell_formula_units_Z 56
_cell_length_a 27.954526
_cell_length_b 18.114493
_cell_length_c 18.080605
_cell_angle_alpha 90.000000
_cell_angle_beta 160.581982
_cell_angle_gamma 90.000000
_cell_volume 3043.881315
_symmetry_space_group_name_H-M "C 2/M"
_symmetry_group_IT_number 12
_symmetry_cell_setting 'monoclinic'
loop_
_space_group_symop_operation_xyz
x,y,z
-x,y,-z
-x,-y,-z
x,-y,z
1/2+x,1/2+y,z
1/2-x,1/2+y,-z
1/2-x,1/2-y,-z
1/2+x,1/2-y,z
loop_
_atom_site_type_symbol
_atom_site_label
_atom_site_fract_x
_atom_site_fract_y
_atom_site_fract_z
Si Si1 0.091854 0.189028 0.707140
Si Si2 0.894943 0.804336 0.636947
Si Si3 0.563627 0.412961 0.793824
Si Si4 0.157007 0.414923 0.714133
Si Si5 0.160831 0.414446 0.550126
Si Si6 0.854096 0.197918 0.747325
Si Si7 0.580199 0.802365 0.820469
O O1 0.050645 0.114019 0.690511
O O2 0.061810 0.258300 0.716735
O O3 0.000000 0.198073 0.500000
O O4 0.255899 0.182343 0.920983
O O5 0.888187 0.822474 0.713025
O O6 0.744131 0.770772 0.388712
O O7 0.930578 0.880334 0.646733
O O8 0.017881 0.744233 0.798205
O O9 0.552858 0.500000 0.782788
O O10 0.716493 0.381421 0.049564
O O11 0.142813 0.500000 0.715830
O O12 0.206084 0.404932 0.701421
O O13 0.000000 0.377158 0.500000
O O14 0.154588 0.500000 0.517823
O O15 0.280608 0.373705 0.676251
O O16 0.002974 0.379982 0.307553
O O17 0.000000 0.218867 0.000000
#
# Coordination Sequence:
#
# PCOD8096435 Si02
#       7
#     8   8   8   8   8   8   8
#     4  10  21  35  54  78 105 140 181 216 250 301
#     4   9  20  36  52  75 100 134 178 212 262 320
#     4  10  20  34  52  76 108 142 175 215 261 311
#     4   9  17  29  48  76 109 141 168 199 251 316
#     4  10  20  33  53  82 109 135 169 212 268 322
#     4  10  20  35  56  76 101 133 171 223 269 310
#     4   9  20  36  53  76 107 140 173 214 260 309
#
# _framework density 18.397563999999999
#
# number of rings (size 3 to 8) (size 9 to 14) (size 15 to 20)
#    0.000    2.429    0.000    1.714    0.000   10.286 
#    0.000    0.000    0.000    0.429    0.000    0.000 
#    0.000    0.000    0.000    0.000    0.000    0.000 
#
# Total GULP energy -347199.012787 kJ/mol
# GULP energy per Si atom -12399.964742 kJ/mol
# Density = 1.835569 g / cm^3
# Si number density = 18.397564 Si / 1000 Ang^3
#
#
#
# Elastic Constant Matrix: (Units=GPa)
#
#
# Indices 1 2 3 4 5 6 
#
# 1 118.5521 43.9344 64.9883 0.0000 6.4093 0.0000
# 2 43.9344 94.3797 49.3276 0.0000 1.0597 0.0000
# 3 64.9883 49.3276 126.5561 0.0000 1.7806 0.0000
# 4 0.0000 0.0000 0.0000 10.8740 0.0000 21.5053
# 5 6.4093 1.0597 1.7806 0.0000 28.1459 0.0000
# 6 0.0000 0.0000 0.0000 21.5053 0.0000 -23.1910
#
#
#
# Elastic Compliance Matrix: (Units=1/GPa)
#
#
# Indices 1 2 3 4 5 6 
#
# 1 0.012573 -0.003101 -0.005214 0.000000 -0.002416 0.000000
# 2 -0.003101 0.014072 -0.003898 0.000000 0.000423 0.000000
# 3 -0.005214 -0.003898 0.012090 0.000000 0.000569 0.000000
# 4 0.000000 0.000000 0.000000 0.032451 0.000000 0.030092
# 5 -0.002416 0.000423 0.000569 0.000000 0.036027 0.000000
# 6 0.000000 0.000000 0.000000 0.030092 0.000000 -0.015216
#
#
# Mechanical properties :
#
#
# Convention : Reuss Voigt Hill
#
# Bulk Modulus (GPa) = 69.88477 72.88760 71.38619
# Shear Modulus (GPa) = 41.25651 15.24829 28.25240
#
# Velocity S-wave (km/s) = 4.74064 2.88205 3.92300
# Velocity P-wave (km/s) = 8.24823 7.12594 7.70754
#
# Compressibility (1/GPa) = 0.01430927
#
# Stress axis : x y z
#
# Youngs Moduli (GPa) = 79.53567 71.06498 82.70960
#
# Poissons Ratio (x) = 0.22035 0.43124
# Poissons Ratio (y) = 0.24661 0.32244
# Poissons Ratio (z) = 0.41469 0.27704
#
# Static dielectric constant tensor:
#      x y z
#    x 3.478350 0.000000 0.173180 
#    y 0.000000 3.288210 0.000000 
#    z 0.173180 0.000000 3.457120 
# 
# 
# High freq. dielectric constant tensor:
#      x y z
#    x 1.719920 0.000000 0.012530 
#    y 0.000000 1.703830 0.000000 
#    z 0.012530 0.000000 1.708140 
# 
# From -- ./inp_files/133242.got.cif
#   From: 2010.06.25/outbox.cif.g09.slc.cpg/sg12_67_cif.got.tgz:133242.got - 2010.06.28 00:19:55.
