data_PCOD8096929
_publ_section_title
;
Structure prediction by ZEFSAII (Michael W. Deem and Ramdas Pophale) SiO2 
 PCOD8096929
Probable space group: C 2/M
;
_chemical_formula_sum "Si O2"
_cell_formula_units_Z 56
_cell_length_a 19.476987
_cell_length_b 9.016046
_cell_length_c 20.500579
_cell_angle_alpha 90.000000
_cell_angle_beta 118.383851
_cell_angle_gamma 90.000000
_cell_volume 3167.228420
_symmetry_space_group_name_H-M "C 2/M"
_symmetry_group_IT_number 12
_symmetry_cell_setting 'monoclinic'
loop_
_space_group_symop_operation_xyz
x,y,z
-x,y,-z
-x,-y,-z
x,-y,z
1/2+x,1/2+y,z
1/2-x,1/2+y,-z
1/2-x,1/2-y,-z
1/2+x,1/2-y,z
loop_
_atom_site_type_symbol
_atom_site_label
_atom_site_fract_x
_atom_site_fract_y
_atom_site_fract_z
Si Si1 0.509507 0.332981 0.355362
Si Si2 0.581979 0.832831 0.500072
Si Si3 0.067089 0.327391 0.791176
Si Si4 0.276090 0.827399 0.208692
Si Si5 0.890331 0.823751 0.923607
Si Si6 0.033057 0.323742 0.923481
Si Si7 0.154099 0.832982 0.644782
O O1 0.538624 0.500000 0.358002
O O2 0.574737 0.247834 0.427006
O O3 0.498807 0.257373 0.280139
O O4 0.428404 0.327530 0.356691
O O5 0.500000 0.828636 0.500000
O O6 0.647772 0.752171 0.573193
O O7 0.609598 0.000000 0.500096
O O8 0.052521 0.500000 0.772935
O O9 0.153690 0.280597 0.807633
O O10 0.058862 0.283005 0.862473
O O11 0.196582 0.783078 0.137300
O O12 0.281415 0.742611 0.279944
O O13 0.279765 0.000000 0.226951
O O14 0.949187 0.749984 0.898593
O O15 0.904494 0.000000 0.933654
O O16 0.903407 0.750001 0.000080
O O17 0.029000 0.500000 0.933537
O O18 0.180601 0.000000 0.642185
#
# Coordination Sequence:
#
# PCOD8096929 Si02
#       7
#     8   8   8   8   8   8   8
#     4   9  16  25  39  62  91 121 154 193 233 272
#     4   9  15  23  37  57  86 125 160 189 226 273
#     4   9  18  32  48  68  95 125 156 191 234 281
#     4   9  18  32  48  68  95 125 156 191 234 281
#     4  10  20  34  52  71  93 122 156 194 233 278
#     4  10  20  34  52  71  93 122 156 194 233 278
#     4   9  16  25  39  62  91 121 154 193 233 272
#
# _framework density 17.681073999999999
#
# number of rings (size 3 to 8) (size 9 to 14) (size 15 to 20)
#    0.000    2.714    0.000    3.000    0.000    8.000 
#    0.000    0.000    0.000    0.000    0.000    1.000 
#    0.000    0.000    0.000    0.000    0.000    0.000 
#
# Total GULP energy -347181.334981 kJ/mol
# GULP energy per Si atom -12399.333392 kJ/mol
# Density = 1.764083 g / cm^3
# Si number density = 17.681074 Si / 1000 Ang^3
#
#
#
# Elastic Constant Matrix: (Units=GPa)
#
#
# Indices 1 2 3 4 5 6 
#
# 1 44.8183 37.0662 63.6120 0.0000 -1.0078 0.0000
# 2 37.0662 125.3321 92.2980 0.0000 -2.3396 0.0000
# 3 63.6120 92.2980 180.0122 0.0000 -4.8066 0.0000
# 4 0.0000 0.0000 0.0000 36.4345 0.0000 -0.8049
# 5 -1.0078 -2.3396 -4.8066 0.0000 1.4675 0.0000
# 6 0.0000 0.0000 0.0000 -0.8049 0.0000 16.1273
#
#
#
# Elastic Compliance Matrix: (Units=1/GPa)
#
#
# Indices 1 2 3 4 5 6 
#
# 1 0.046006 -0.002587 -0.015558 0.000000 -0.023486 0.000000
# 2 -0.002587 0.012967 -0.005731 0.000000 0.000125 0.000000
# 3 -0.015558 -0.005731 0.014752 0.000000 0.028497 0.000000
# 4 0.000000 0.000000 0.000000 0.027477 0.000000 0.001371
# 5 -0.023486 0.000125 0.028497 0.000000 0.758830 0.000000
# 6 0.000000 0.000000 0.000000 0.001371 0.000000 0.062075
#
#
# Mechanical properties :
#
#
# Convention : Reuss Voigt Hill
#
# Bulk Modulus (GPa) = 38.50177 81.79058 60.14617
# Shear Modulus (GPa) = 5.10978 21.28497 13.19738
#
# Velocity S-wave (km/s) = 1.70184 3.47339 2.73502
# Velocity P-wave (km/s) = 5.06800 7.90222 6.63814
#
# Compressibility (1/GPa) = 0.02597283
#
# Stress axis : x y z
#
# Youngs Moduli (GPa) = 21.73649 77.12130 67.78610
#
# Poissons Ratio (x) = 0.19951 1.05461
# Poissons Ratio (y) = 0.05623 0.38847
# Poissons Ratio (z) = 0.33818 0.44197
#
# Static dielectric constant tensor:
#      x y z
#    x 2.816390 0.000000 -0.024940 
#    y 0.000000 3.426830 0.000000 
#    z -0.024940 0.000000 3.443400 
# 
# 
# High freq. dielectric constant tensor:
#      x y z
#    x 1.624680 0.000000 -0.002960 
#    y 0.000000 1.697650 0.000000 
#    z -0.002960 0.000000 1.699290 
# 
# From -- ./inp_files/257599.got.cif
#   From: 2010.06.25/outbox.cif.g09.slc.cpg/sg12_129_cif.got.tgz:257599.got - 2010.06.28 00:19:55.
