data_PCOD8096443
_publ_section_title
;
Structure prediction by ZEFSAII (Michael W. Deem and Ramdas Pophale) SiO2 
 PCOD8096443
Probable space group: C 2/M
;
_chemical_formula_sum "Si O2"
_cell_formula_units_Z 56
_cell_length_a 30.038759
_cell_length_b 8.886836
_cell_length_c 19.457049
_cell_angle_alpha 90.000000
_cell_angle_beta 144.073356
_cell_angle_gamma 90.000000
_cell_volume 3047.603549
_symmetry_space_group_name_H-M "C 2/M"
_symmetry_group_IT_number 12
_symmetry_cell_setting 'monoclinic'
loop_
_space_group_symop_operation_xyz
x,y,z
-x,y,-z
-x,-y,-z
x,-y,z
1/2+x,1/2+y,z
1/2-x,1/2+y,-z
1/2-x,1/2-y,-z
1/2+x,1/2-y,z
loop_
_atom_site_type_symbol
_atom_site_label
_atom_site_fract_x
_atom_site_fract_y
_atom_site_fract_z
Si Si1 0.818597 0.326147 0.624749
Si Si2 0.442491 0.822968 0.987716
Si Si3 0.847965 0.176129 0.393053
Si Si4 0.579520 0.830665 0.637845
Si Si5 0.495973 0.674925 0.337294
Si Si6 0.982303 0.671791 0.775205
Si Si7 0.694608 0.678215 0.248769
O O1 0.799609 0.500000 0.615804
O O2 0.750000 0.250000 0.500000
O O3 0.892196 0.309053 0.669439
O O4 0.834820 0.244073 0.716328
O O5 0.363269 0.734809 0.881957
O O6 0.426810 0.000000 0.962353
O O7 0.500000 0.770828 0.000000
O O8 0.477159 0.777435 0.104181
O O9 0.860762 0.232710 0.331123
O O10 0.920378 0.215024 0.530568
O O11 0.778653 0.264413 0.339308
O O12 0.830147 0.000000 0.369305
O O13 0.500000 0.827831 0.500000
O O14 0.568497 0.759924 0.699377
O O15 0.610810 0.000000 0.684270
O O16 0.479343 0.500000 0.323790
O O17 0.487792 0.723576 0.248306
O O18 0.002612 0.500000 0.782846
O O19 0.695615 0.500000 0.253397
#
# Coordination Sequence:
#
# PCOD8096443 Si02
#       7
#     8   8   8   8   8   8   8
#     4  11  22  37  54  78 110 145 180 221 274 329
#     4  10  20  40  61  76 100 142 189 232 277 325
#     4  10  20  35  55  80 112 149 184 222 270 325
#     4   9  17  31  53  80 111 144 179 221 268 323
#     4  10  20  33  53  82 114 145 180 221 268 324
#     4  10  21  36  56  77 104 142 183 225 272 324
#     4  12  24  36  54  81 110 143 183 229 274 325
#
# _framework density 18.375091999999999
#
# number of rings (size 3 to 8) (size 9 to 14) (size 15 to 20)
#    0.000    1.714    1.429    3.857    0.000    7.714 
#    0.000    0.000    0.000    0.857    0.000    0.000 
#    0.000    0.000    0.000    0.000    0.000    0.000 
#
# Total GULP energy -347319.342890 kJ/mol
# GULP energy per Si atom -12404.262246 kJ/mol
# Density = 1.833327 g / cm^3
# Si number density = 18.375092 Si / 1000 Ang^3
#
#
#
# Elastic Constant Matrix: (Units=GPa)
#
#
# Indices 1 2 3 4 5 6 
#
# 1 81.0022 33.2583 17.9569 0.0000 -27.1254 0.0000
# 2 33.2583 99.3898 32.9333 0.0000 -10.8164 0.0000
# 3 17.9569 32.9333 72.9254 0.0000 -18.1160 0.0000
# 4 0.0000 0.0000 0.0000 27.7396 0.0000 -2.9795
# 5 -27.1254 -10.8164 -18.1160 0.0000 23.3100 0.0000
# 6 0.0000 0.0000 0.0000 -2.9795 0.0000 36.7065
#
#
#
# Elastic Compliance Matrix: (Units=1/GPa)
#
#
# Indices 1 2 3 4 5 6 
#
# 1 0.022971 -0.005998 0.003720 0.000000 0.026839 0.000000
# 2 -0.005998 0.013450 -0.005925 0.000000 -0.005343 0.000000
# 3 0.003720 -0.005925 0.019660 0.000000 0.016859 0.000000
# 4 0.000000 0.000000 0.000000 0.036367 0.000000 0.002952
# 5 0.026839 -0.005343 0.016859 0.000000 0.084754 0.000000
# 6 0.000000 0.000000 0.000000 0.002952 0.000000 0.027483
#
#
# Mechanical properties :
#
#
# Convention : Reuss Voigt Hill
#
# Bulk Modulus (GPa) = 25.20469 46.84606 36.02537
# Shear Modulus (GPa) = 21.33863 28.82914 25.08389
#
# Velocity S-wave (km/s) = 3.41145 3.96526 3.69874
# Velocity P-wave (km/s) = 5.40961 6.82012 6.15540
#
# Compressibility (1/GPa) = 0.03967516
#
# Stress axis : x y z
#
# Youngs Moduli (GPa) = 43.53293 74.34811 50.86389
#
# Poissons Ratio (x) = 0.44598 -0.18920
# Poissons Ratio (y) = 0.26113 0.30135
# Poissons Ratio (z) = -0.16193 0.44048
#
# Static dielectric constant tensor:
#      x y z
#    x 3.415670 0.000000 -0.078580 
#    y 0.000000 3.458380 0.000000 
#    z -0.078580 0.000000 3.215360 
# 
# 
# High freq. dielectric constant tensor:
#      x y z
#    x 1.714010 0.000000 -0.009540 
#    y 0.000000 1.722110 0.000000 
#    z -0.009540 0.000000 1.689290 
# 
# From -- ./inp_files/288229.got.cif
#   From: 2010.06.25/outbox.cif.g09.slc.cpg/sg12_145_cif.got.tgz:288229.got - 2010.06.28 00:19:55.
