data_PCOD8096243
_publ_section_title
;
Structure prediction by ZEFSAII (Michael W. Deem and Ramdas Pophale) SiO2 
 PCOD8096243
Probable space group: C 2/M
;
_chemical_formula_sum "Si O2"
_cell_formula_units_Z 52
_cell_length_a 22.104227
_cell_length_b 9.435792
_cell_length_c 19.226555
_cell_angle_alpha 90.000000
_cell_angle_beta 43.079966
_cell_angle_gamma 90.000000
_cell_volume 2738.971946
_symmetry_space_group_name_H-M "C 2/M"
_symmetry_group_IT_number 12
_symmetry_cell_setting 'monoclinic'
loop_
_space_group_symop_operation_xyz
x,y,z
-x,y,-z
-x,-y,-z
x,-y,z
1/2+x,1/2+y,z
1/2-x,1/2+y,-z
1/2-x,1/2-y,-z
1/2+x,1/2-y,z
loop_
_atom_site_type_symbol
_atom_site_label
_atom_site_fract_x
_atom_site_fract_y
_atom_site_fract_z
Si Si1 0.500000 0.258817 0.500000
Si Si2 0.713676 0.836672 0.135680
Si Si3 0.128792 0.159576 0.088349
Si Si4 0.580977 0.156973 0.569618
Si Si5 0.063166 0.838222 0.715986
Si Si6 0.734935 0.334651 0.650942
Si Si7 0.814099 0.159428 0.704323
O O1 0.524139 0.163672 0.546483
O O2 0.585851 0.352030 0.409199
O O3 0.658419 0.780203 0.116749
O O4 0.687300 0.742065 0.222570
O O5 0.687611 0.000000 0.172114
O O6 0.818222 0.822278 0.028860
O O7 0.023945 0.178163 0.162752
O O8 0.147329 0.000000 0.102490
O O9 0.545140 0.263254 0.657623
O O10 0.683759 0.190893 0.469390
O O11 0.570435 0.000000 0.608889
O O12 0.146703 0.775814 0.687652
O O13 0.083717 0.000000 0.680054
O O14 0.726968 0.500000 0.678938
O O15 0.748330 0.242732 0.708621
O O16 0.778700 0.000000 0.744183
#
# Coordination Sequence:
#
# PCOD8096243 Si02
#       7
#     4   8   8   8   8   8   8
#     4  10  22  36  52  78 108 138 172 208 252 308
#     4  10  20  35  55  79 107 137 168 210 264 309
#     4   9  19  35  55  79 105 135 174 214 252 304
#     4  10  20  33  52  78 108 139 171 211 257 304
#     4  10  20  35  55  77 103 137 176 214 253 302
#     4   9  20  37  53  73 104 140 175 211 254 306
#     4  11  22  36  55  77 103 136 173 214 257 305
#
# _framework density 18.985223999999999
#
# number of rings (size 3 to 8) (size 9 to 14) (size 15 to 20)
#    0.000    2.154    0.000    2.769    0.000    9.231 
#    0.000    0.769    0.000    4.615    0.000    0.000 
#    0.000    0.000    0.000    0.000    0.000    0.000 
#
# Total GULP energy -322363.176757 kJ/mol
# GULP energy per Si atom -12398.583721 kJ/mol
# Density = 1.894201 g / cm^3
# Si number density = 18.985224 Si / 1000 Ang^3
#
#
#
# Elastic Constant Matrix: (Units=GPa)
#
#
# Indices 1 2 3 4 5 6 
#
# 1 92.2893 23.1402 38.7666 0.0000 -10.7403 0.0000
# 2 23.1402 93.4555 33.4403 -0.0001 6.4982 0.0000
# 3 38.7666 33.4403 79.9304 -0.0001 -2.7138 0.0001
# 4 0.0000 -0.0001 -0.0001 24.5949 0.0000 5.0800
# 5 -10.7403 6.4982 -2.7138 0.0000 29.4222 0.0000
# 6 0.0000 0.0000 0.0001 5.0800 0.0000 19.9808
#
#
#
# Elastic Compliance Matrix: (Units=1/GPa)
#
#
# Indices 1 2 3 4 5 6 
#
# 1 0.014425 -0.001745 -0.006093 0.000000 0.005089 0.000000
# 2 -0.001745 0.013118 -0.004777 0.000000 -0.003975 0.000000
# 3 -0.006093 -0.004777 0.017480 0.000000 0.000443 0.000000
# 4 0.000000 0.000000 0.000000 0.042912 0.000000 -0.010910
# 5 0.005089 -0.003975 0.000443 0.000000 0.036764 0.000000
# 6 0.000000 0.000000 0.000000 -0.010910 0.000000 0.052822
#
#
# Mechanical properties :
#
#
# Convention : Reuss Voigt Hill
#
# Bulk Modulus (GPa) = 50.52494 50.70770 50.61632
# Shear Modulus (GPa) = 23.88363 26.15478 25.01920
#
# Velocity S-wave (km/s) = 3.55069 3.71568 3.63412
# Velocity P-wave (km/s) = 6.59397 6.72127 6.65792
#
# Compressibility (1/GPa) = 0.01979220
#
# Stress axis : x y z
#
# Youngs Moduli (GPa) = 69.32501 76.23125 57.20980
#
# Poissons Ratio (x) = 0.13304 0.34859
# Poissons Ratio (y) = 0.12099 0.27327
# Poissons Ratio (z) = 0.42241 0.36413
#
# Static dielectric constant tensor:
#      x y z
#    x 3.397710 0.000000 -0.198640 
#    y 0.000000 3.442110 0.000000 
#    z -0.198640 0.000000 3.597340 
# 
# 
# High freq. dielectric constant tensor:
#      x y z
#    x 1.722770 0.000000 -0.011870 
#    y 0.000000 1.739910 0.000000 
#    z -0.011870 0.000000 1.736810 
# 
# From -- ./inp_files/282090.got.cif
#   From: 2010.06.25/outbox.cif.g09.slc.cpg/sg12_142_cif.got.tgz:282090.got - 2010.06.28 00:19:55.
