data_PCOD8096088
_publ_section_title
;
Structure prediction by ZEFSAII (Michael W. Deem and Ramdas Pophale) SiO2 
 PCOD8096088
Probable space group: C 2/M
;
_chemical_formula_sum "Si O2"
_cell_formula_units_Z 64
_cell_length_a 19.535883
_cell_length_b 8.778803
_cell_length_c 25.202170
_cell_angle_alpha 90.000000
_cell_angle_beta 125.975399
_cell_angle_gamma 90.000000
_cell_volume 3497.835243
_symmetry_space_group_name_H-M "C 2/M"
_symmetry_group_IT_number 12
_symmetry_cell_setting 'monoclinic'
loop_
_space_group_symop_operation_xyz
x,y,z
-x,y,-z
-x,-y,-z
x,-y,z
1/2+x,1/2+y,z
1/2-x,1/2+y,-z
1/2-x,1/2-y,-z
1/2+x,1/2-y,z
loop_
_atom_site_type_symbol
_atom_site_label
_atom_site_fract_x
_atom_site_fract_y
_atom_site_fract_z
Si Si1 0.119397 0.828699 0.932867
Si Si2 0.978067 0.676336 0.200871
Si Si3 0.814451 0.323847 0.197156
Si Si4 0.346562 0.320322 0.695158
Si Si5 0.246526 0.176674 0.555468
Si Si6 0.589860 0.676127 0.554548
Si Si7 0.206835 0.180763 0.700014
Si Si8 0.715079 0.828752 0.063392
O O1 0.049088 0.731090 0.870036
O O2 0.205033 0.831640 0.938641
O O3 0.085684 0.000000 0.926417
O O4 0.136735 0.751218 0.997738
O O5 0.003466 0.500000 0.209389
O O6 0.902620 0.704755 0.207828
O O7 0.055886 0.775874 0.256037
O O8 0.799762 0.500000 0.203491
O O9 0.816523 0.228045 0.251665
O O10 0.736570 0.266028 0.125929
O O11 0.336717 0.500000 0.691334
O O12 0.313098 0.257322 0.624179
O O13 0.295839 0.251210 0.721955
O O14 0.250000 0.250000 0.500000
O O15 0.151500 0.200726 0.532972
O O16 0.270882 0.000000 0.563731
O O17 0.500000 0.756890 0.500000
O O18 0.572786 0.500000 0.558178
O O19 0.633055 0.744393 0.627316
O O20 0.215130 0.000000 0.699054
O O21 0.688912 0.000000 0.067454
#
# Coordination Sequence:
#
# PCOD8096088 Si02
#       8
#     8   8   8   8   8   8   8   8
#     4   9  16  27  45  71 102 135 172 213 260 311
#     4  10  20  34  52  77 108 138 174 221 267 310
#     4  10  20  33  51  77 107 137 173 219 265 310
#     4  11  22  37  56  76 103 141 181 218 261 313
#     4  10  20  35  55  79 106 136 171 213 261 311
#     4   8  16  32  53  76 100 129 167 208 250 300
#     4  10  20  35  55  77 105 140 175 213 260 315
#     4   9  16  27  45  70 101 136 172 212 260 309
#
# _framework density 18.297032000000002
#
# number of rings (size 3 to 8) (size 9 to 14) (size 15 to 20)
#    0.000    2.375    0.000    4.125    0.000    5.500 
#    0.000    1.250    0.000   13.500    0.000    5.250 
#    0.000    0.000    0.000    0.000    0.000    0.000 
#
# Total GULP energy -396812.827919 kJ/mol
# GULP energy per Si atom -12400.400872 kJ/mol
# Density = 1.825539 g / cm^3
# Si number density = 18.297032 Si / 1000 Ang^3
#
#
#
# Elastic Constant Matrix: (Units=GPa)
#
#
# Indices 1 2 3 4 5 6 
#
# 1 50.2588 37.0754 53.9621 0.0000 -1.5562 0.0000
# 2 37.0754 119.7337 54.3285 0.0000 0.1610 0.0000
# 3 53.9621 54.3285 127.3938 0.0000 -2.3578 0.0000
# 4 0.0000 0.0000 0.0000 35.0865 0.0000 -4.0522
# 5 -1.5562 0.1610 -2.3578 0.0000 19.5432 0.0000
# 6 0.0000 0.0000 0.0000 -4.0522 0.0000 24.2965
#
#
#
# Elastic Compliance Matrix: (Units=1/GPa)
#
#
# Indices 1 2 3 4 5 6 
#
# 1 0.039485 -0.005768 -0.014238 0.000000 0.001474 0.000000
# 2 -0.005768 0.011206 -0.002351 0.000000 -0.000835 0.000000
# 3 -0.014238 -0.002351 0.014896 0.000000 0.000683 0.000000
# 4 0.000000 0.000000 0.000000 0.029061 0.000000 0.004847
# 5 0.001474 -0.000835 0.000683 0.000000 0.051375 0.000000
# 6 0.000000 0.000000 0.000000 0.004847 0.000000 0.041966
#
#
# Mechanical properties :
#
#
# Convention : Reuss Voigt Hill
#
# Bulk Modulus (GPa) = 47.91020 65.34648 56.62834
# Shear Modulus (GPa) = 20.86280 25.91994 23.39137
#
# Velocity S-wave (km/s) = 3.38039 3.76788 3.57938
# Velocity P-wave (km/s) = 6.44031 7.39737 6.93537
#
# Compressibility (1/GPa) = 0.02087238
#
# Stress axis : x y z
#
# Youngs Moduli (GPa) = 25.32615 89.23936 67.13200
#
# Poissons Ratio (x) = 0.51473 0.95583
# Poissons Ratio (y) = 0.14608 0.15783
# Poissons Ratio (z) = 0.36060 0.20981
#
# Static dielectric constant tensor:
#      x y z
#    x 3.079640 0.000000 0.075970 
#    y 0.000000 3.440350 0.000000 
#    z 0.075970 0.000000 3.608460 
# 
# 
# High freq. dielectric constant tensor:
#      x y z
#    x 1.674790 0.000000 0.000520 
#    y 0.000000 1.715860 0.000000 
#    z 0.000520 0.000000 1.722450 
# 
# From -- ./inp_files/346159.got.cif
#   From: 2010.06.25/outbox.cif.g09.slc.cpg/sg12_174_cif.got.tgz:346159.got - 2010.06.28 00:19:55.
