data_PCOD8096055
_publ_section_title
;
Structure prediction by ZEFSAII (Michael W. Deem and Ramdas Pophale) SiO2 
 PCOD8096055
Probable space group: C 2/M
;
_chemical_formula_sum "Si O2"
_cell_formula_units_Z 44
_cell_length_a 28.785996
_cell_length_b 9.794018
_cell_length_c 11.426483
_cell_angle_alpha 90.000000
_cell_angle_beta 41.416513
_cell_angle_gamma 90.000000
_cell_volume 2131.095851
_symmetry_space_group_name_H-M "C 2/M"
_symmetry_group_IT_number 12
_symmetry_cell_setting 'monoclinic'
loop_
_space_group_symop_operation_xyz
x,y,z
-x,y,-z
-x,-y,-z
x,-y,z
1/2+x,1/2+y,z
1/2-x,1/2+y,-z
1/2-x,1/2-y,-z
1/2+x,1/2-y,z
loop_
_atom_site_type_symbol
_atom_site_label
_atom_site_fract_x
_atom_site_fract_y
_atom_site_fract_z
Si Si1 0.221691 0.656512 0.888726
Si Si2 0.000000 0.253711 0.500000
Si Si3 0.930588 0.155224 0.209358
Si Si4 0.499411 0.150426 0.755666
Si Si5 0.650191 0.347445 0.203978
Si Si6 0.361655 0.154535 0.166876
O O1 0.201386 0.500000 0.953452
O O2 0.302554 0.687821 0.770368
O O3 0.209340 0.686137 0.773594
O O4 0.168896 0.746800 0.064266
O O5 0.008761 0.345401 0.368475
O O6 0.068445 0.160546 0.389917
O O7 0.868858 0.236470 0.258016
O O8 0.946637 0.234272 0.299830
O O9 0.906142 0.000000 0.282430
O O10 0.000000 0.155610 0.000000
O O11 0.528132 0.000000 0.735647
O O12 0.424248 0.173558 0.956150
O O13 0.667387 0.500000 0.128388
O O14 0.361065 0.000000 0.219015
#
# Coordination Sequence:
#
# PCOD8096055 Si02
#       6
#     8   4   8   8   8   8
#     4   9  18  35  55  77 104 140 185 225 262 311
#     4  12  22  34  52  82 114 146 178 216 266 324
#     4   9  18  31  49  76 107 136 171 220 272 319
#     4  10  20  33  51  76 106 143 181 219 262 314
#     4  10  21  34  51  76 110 146 179 219 267 319
#     4   9  16  31  54  77 101 134 178 224 265 309
#
# _framework density 20.646654000000002
#
# number of rings (size 3 to 8) (size 9 to 14) (size 15 to 20)
#    0.000    2.364    1.818    1.091    0.000    5.091 
#    0.000    0.000    0.000    1.091    0.000    0.000 
#    0.000    0.000    0.000    0.000    0.000    0.000 
#
# Total GULP energy -272684.721465 kJ/mol
# GULP energy per Si atom -12394.760067 kJ/mol
# Density = 2.059966 g / cm^3
# Si number density = 20.646654 Si / 1000 Ang^3
#
#
#
# Elastic Constant Matrix: (Units=GPa)
#
#
# Indices 1 2 3 4 5 6 
#
# 1 150.9253 73.8504 25.6447 0.0000 3.6805 0.0000
# 2 73.8504 128.7890 15.6672 0.0000 8.1112 0.0000
# 3 25.6447 15.6672 33.9216 0.0000 -1.6817 0.0000
# 4 0.0000 0.0000 0.0000 12.0981 0.0000 3.0972
# 5 3.6805 8.1112 -1.6817 0.0000 33.4971 0.0000
# 6 0.0000 0.0000 0.0000 3.0972 0.0000 33.7200
#
#
#
# Elastic Compliance Matrix: (Units=1/GPa)
#
#
# Indices 1 2 3 4 5 6 
#
# 1 0.010010 -0.005097 -0.005220 0.000000 -0.000128 0.000000
# 2 -0.005097 0.010985 -0.001328 0.000000 -0.002167 0.000000
# 3 -0.005220 -0.001328 0.034169 0.000000 0.002611 0.000000
# 4 0.000000 0.000000 0.000000 0.084648 0.000000 -0.007775
# 5 -0.000128 -0.002167 0.002611 0.000000 0.030523 0.000000
# 6 0.000000 0.000000 0.000000 -0.007775 0.000000 0.030370
#
#
# Mechanical properties :
#
#
# Convention : Reuss Voigt Hill
#
# Bulk Modulus (GPa) = 31.37283 60.44008 45.90646
# Shear Modulus (GPa) = 21.31117 29.09461 25.20289
#
# Velocity S-wave (km/s) = 3.21625 3.75796 3.49761
# Velocity P-wave (km/s) = 5.38706 6.94023 6.21238
#
# Compressibility (1/GPa) = 0.03187471
#
# Stress axis : x y z
#
# Youngs Moduli (GPa) = 99.90237 91.03106 29.26670
#
# Poissons Ratio (x) = 0.46397 0.15276
# Poissons Ratio (y) = 0.50918 0.03886
# Poissons Ratio (z) = 0.52146 0.12088
#
# Static dielectric constant tensor:
#      x y z
#    x 4.119270 0.000000 -0.004530 
#    y 0.000000 3.793730 0.000000 
#    z -0.004530 0.000000 3.151380 
# 
# 
# High freq. dielectric constant tensor:
#      x y z
#    x 1.825920 0.000000 0.005130 
#    y 0.000000 1.809790 0.000000 
#    z 0.005130 0.000000 1.750430 
# 
# From -- ./inp_files/186254.got.cif
#   From: 2010.06.25/outbox.cif.g09.slc.cpg/sg12_94_cif.got.tgz:186254.got - 2010.06.28 00:19:55.
