data_PCOD8096815
_publ_section_title
;
Structure prediction by ZEFSAII (Michael W. Deem and Ramdas Pophale) SiO2 
 PCOD8096815
Probable space group: C 2/M
;
_chemical_formula_sum "Si O2"
_cell_formula_units_Z 56
_cell_length_a 18.548703
_cell_length_b 9.262801
_cell_length_c 25.697399
_cell_angle_alpha 90.000000
_cell_angle_beta 135.255445
_cell_angle_gamma 90.000000
_cell_volume 3108.029652
_symmetry_space_group_name_H-M "C 2/M"
_symmetry_group_IT_number 12
_symmetry_cell_setting 'monoclinic'
loop_
_space_group_symop_operation_xyz
x,y,z
-x,y,-z
-x,-y,-z
x,-y,z
1/2+x,1/2+y,z
1/2-x,1/2+y,-z
1/2-x,1/2-y,-z
1/2+x,1/2-y,z
loop_
_atom_site_type_symbol
_atom_site_label
_atom_site_fract_x
_atom_site_fract_y
_atom_site_fract_z
Si Si1 0.666053 0.333555 0.341664
Si Si2 0.903096 0.168487 0.068551
Si Si3 0.866985 0.828615 0.789804
Si Si4 0.670987 0.831825 0.495826
Si Si5 0.479914 0.330301 0.641889
Si Si6 0.287477 0.331404 0.214996
Si Si7 0.745479 0.831613 0.076041
O O1 0.637248 0.500000 0.320576
O O2 0.655130 0.263043 0.279103
O O3 0.783342 0.313450 0.422307
O O4 0.582862 0.270846 0.339991
O O5 0.841650 0.210788 0.089239
O O6 0.019422 0.218187 0.135435
O O7 0.895119 0.000000 0.052976
O O8 0.856481 0.249931 0.994923
O O9 0.788750 0.758989 0.789306
O O10 0.852609 0.000000 0.783912
O O11 0.750000 0.750000 0.500000
O O12 0.560973 0.755023 0.430569
O O13 0.663856 0.000000 0.477227
O O14 0.460275 0.500000 0.623700
O O15 0.597973 0.292793 0.709183
O O16 0.264758 0.500000 0.210444
O O17 0.272847 0.282749 0.148073
O O18 0.721898 0.000000 0.060842
#
# Coordination Sequence:
#
# PCOD8096815 Si02
#       7
#     8   8   8   8   8   8   8
#     4   8  15  30  52  73  93 124 164 201 238 284
#     4   9  18  33  54  77  97 122 161 205 244 283
#     4  10  20  34  51  71  98 131 165 200 239 287
#     4   9  16  28  49  76 101 125 160 204 247 290
#     4   9  17  32  53  73  96 127 165 206 244 286
#     4  10  21  35  50  71 100 133 165 198 242 293
#     4   9  18  34  55  75  97 127 162 200 243 291
#
# _framework density 18.017845999999999
#
# number of rings (size 3 to 8) (size 9 to 14) (size 15 to 20)
#    0.000    2.857    0.000    2.143    0.000    5.714 
#    0.000    7.143    0.000   11.143    0.000    0.000 
#    0.000    0.000    0.000    0.000    0.000    0.000 
#
# Total GULP energy -347087.907279 kJ/mol
# GULP energy per Si atom -12395.996689 kJ/mol
# Density = 1.797684 g / cm^3
# Si number density = 18.017846 Si / 1000 Ang^3
#
#
#
# Elastic Constant Matrix: (Units=GPa)
#
#
# Indices 1 2 3 4 5 6 
#
# 1 90.5944 36.7754 69.6512 0.0000 16.3496 0.0000
# 2 36.7754 49.9270 58.7984 0.0000 9.7464 0.0000
# 3 69.6512 58.7984 155.5503 0.0000 28.7291 0.0000
# 4 0.0000 0.0000 0.0000 32.0217 0.0000 3.2538
# 5 16.3496 9.7464 28.7291 0.0000 12.9387 0.0000
# 6 0.0000 0.0000 0.0000 3.2538 0.0000 27.6924
#
#
#
# Elastic Compliance Matrix: (Units=1/GPa)
#
#
# Indices 1 2 3 4 5 6 
#
# 1 0.018707 -0.007442 -0.003785 0.000000 -0.009628 0.000000
# 2 -0.007442 0.039273 -0.013199 0.000000 0.009127 0.000000
# 3 -0.003785 -0.013199 0.017618 0.000000 -0.024394 0.000000
# 4 0.000000 0.000000 0.000000 0.031606 0.000000 -0.003714
# 5 -0.009628 0.009127 -0.024394 0.000000 0.136745 0.000000
# 6 0.000000 0.000000 0.000000 -0.003714 0.000000 0.036547
#
#
# Mechanical properties :
#
#
# Convention : Reuss Voigt Hill
#
# Bulk Modulus (GPa) = 37.38763 69.61352 53.50058
# Shear Modulus (GPa) = 14.78138 23.25367 19.01753
#
# Velocity S-wave (km/s) = 2.86733 3.59638 3.25234
# Velocity P-wave (km/s) = 5.63538 7.48097 6.62278
#
# Compressibility (1/GPa) = 0.02674681
#
# Stress axis : x y z
#
# Youngs Moduli (GPa) = 53.45640 25.46275 56.75940
#
# Poissons Ratio (x) = 0.18949 0.21484
# Poissons Ratio (y) = 0.39782 0.74914
# Poissons Ratio (z) = 0.20234 0.33607
#
# Static dielectric constant tensor:
#      x y z
#    x 3.150720 0.000000 0.041350 
#    y 0.000000 3.227370 0.000000 
#    z 0.041350 0.000000 3.848140 
# 
# 
# High freq. dielectric constant tensor:
#      x y z
#    x 1.673310 0.000000 0.005900 
#    y 0.000000 1.679010 0.000000 
#    z 0.005900 0.000000 1.717750 
# 
# From -- ./inp_files/342586.got.cif
#   From: 2010.06.25/outbox.cif.g09.slc.cpg/sg12_172_cif.got.tgz:342586.got - 2010.06.28 00:19:55.
