data_PCOD8096854
_publ_section_title
;
Structure prediction by ZEFSAII (Michael W. Deem and Ramdas Pophale) SiO2 
 PCOD8096854
Probable space group: C 2/M
;
_chemical_formula_sum "Si O2"
_cell_formula_units_Z 56
_cell_length_a 14.809900
_cell_length_b 9.158228
_cell_length_c 21.560581
_cell_angle_alpha 90.000000
_cell_angle_beta 89.285247
_cell_angle_gamma 90.000000
_cell_volume 2924.086689
_symmetry_space_group_name_H-M "C 2/M"
_symmetry_group_IT_number 12
_symmetry_cell_setting 'monoclinic'
loop_
_space_group_symop_operation_xyz
x,y,z
-x,y,-z
-x,-y,-z
x,-y,z
1/2+x,1/2+y,z
1/2-x,1/2+y,-z
1/2-x,1/2-y,-z
1/2+x,1/2-y,z
loop_
_atom_site_type_symbol
_atom_site_label
_atom_site_fract_x
_atom_site_fract_y
_atom_site_fract_z
Si Si1 0.225661 0.170125 0.709838
Si Si2 0.766903 0.327448 0.849233
Si Si3 0.383149 0.831158 0.614924
Si Si4 0.113014 0.827151 0.940974
Si Si5 0.893156 0.164404 0.494370
Si Si6 0.587463 0.672696 0.078922
Si Si7 0.590353 0.828282 0.627638
O O1 0.241837 0.218153 0.780077
O O2 0.316727 0.207255 0.671622
O O3 0.140955 0.263204 0.686680
O O4 0.200891 0.000000 0.704563
O O5 0.777633 0.500000 0.855482
O O6 0.690479 0.263170 0.895986
O O7 0.861124 0.253339 0.866212
O O8 0.350683 0.739813 0.555377
O O9 0.484515 0.789373 0.635001
O O10 0.379010 0.000000 0.595889
O O11 0.016029 0.773737 0.916902
O O12 0.113312 0.000000 0.938420
O O13 0.128482 0.777609 0.011945
O O14 0.865695 0.254190 0.433574
O O15 0.000000 0.165690 0.500000
O O16 0.855424 0.000000 0.488653
O O17 0.595812 0.500000 0.087945
O O18 0.606631 0.000000 0.623262
#
# Coordination Sequence:
#
# PCOD8096854 Si02
#       7
#     8   8   8   8   8   8   8
#     4  10  22  37  51  71 102 139 173 204 247 302
#     4  10  20  34  51  73 103 136 169 208 252 295
#     4   9  19  36  54  73 101 134 166 205 254 302
#     4   8  16  32  53  76 103 134 166 203 253 305
#     4   9  17  31  54  81 103 126 162 208 256 302
#     4   9  17  32  54  77 101 132 169 207 249 300
#     4  10  20  35  55  76 100 131 168 210 252 297
#
# _framework density 19.15128
#
# number of rings (size 3 to 8) (size 9 to 14) (size 15 to 20)
#    0.000    2.714    0.000    2.143    0.000    5.143 
#    0.000    2.143    0.000    0.000    0.000    0.000 
#    0.000    0.000    0.000    0.000    0.000    0.000 
#
# Total GULP energy -347226.132721 kJ/mol
# GULP energy per Si atom -12400.933311 kJ/mol
# Density = 1.910769 g / cm^3
# Si number density = 19.151280 Si / 1000 Ang^3
#
#
#
# Elastic Constant Matrix: (Units=GPa)
#
#
# Indices 1 2 3 4 5 6 
#
# 1 61.4851 23.1181 30.3939 0.0000 11.0820 0.0000
# 2 23.1181 56.0108 33.7062 0.0000 10.3929 0.0000
# 3 30.3939 33.7062 97.4615 0.0000 17.2627 0.0000
# 4 0.0000 0.0000 0.0000 25.4311 0.0000 8.7119
# 5 11.0820 10.3929 17.2627 0.0000 33.0625 0.0000
# 6 0.0000 0.0000 0.0000 8.7119 0.0000 27.1396
#
#
#
# Elastic Compliance Matrix: (Units=1/GPa)
#
#
# Indices 1 2 3 4 5 6 
#
# 1 0.020940 -0.005638 -0.004023 0.000000 -0.003146 0.000000
# 2 -0.005638 0.024400 -0.006233 0.000000 -0.002526 0.000000
# 3 -0.004023 -0.006233 0.014418 0.000000 -0.004220 0.000000
# 4 0.000000 0.000000 0.000000 0.044180 0.000000 -0.014182
# 5 -0.003146 -0.002526 -0.004220 0.000000 0.034298 0.000000
# 6 0.000000 0.000000 0.000000 -0.014182 0.000000 0.041399
#
#
# Mechanical properties :
#
#
# Convention : Reuss Voigt Hill
#
# Bulk Modulus (GPa) = 35.75253 43.26598 39.50926
# Shear Modulus (GPa) = 22.65041 25.64260 24.14650
#
# Velocity S-wave (km/s) = 3.44279 3.66314 3.55467
# Velocity P-wave (km/s) = 5.87475 6.36649 6.12556
#
# Compressibility (1/GPa) = 0.02797005
#
# Stress axis : x y z
#
# Youngs Moduli (GPa) = 47.75623 40.98306 69.35662
#
# Poissons Ratio (x) = 0.23106 0.27903
# Poissons Ratio (y) = 0.26925 0.43230
# Poissons Ratio (z) = 0.19213 0.25545
#
# Static dielectric constant tensor:
#      x y z
#    x 3.548250 0.000000 -0.094890 
#    y 0.000000 3.304630 0.000000 
#    z -0.094890 0.000000 3.567450 
# 
# 
# High freq. dielectric constant tensor:
#      x y z
#    x 1.746860 0.000000 0.003160 
#    y 0.000000 1.726400 0.000000 
#    z 0.003160 0.000000 1.742380 
# 
# From -- ./inp_files/309055.got.cif
#   From: 2010.06.25/outbox.cif.g09.slc.cpg/sg12_155_cif.got.tgz:309055.got - 2010.06.28 00:19:55.
