data_PCOD8096340
_publ_section_title
;
Structure prediction by ZEFSAII (Michael W. Deem and Ramdas Pophale) SiO2 
 PCOD8096340
Probable space group: C 2/M
;
_chemical_formula_sum "Si O2"
_cell_formula_units_Z 56
_cell_length_a 18.751102
_cell_length_b 10.219772
_cell_length_c 15.904912
_cell_angle_alpha 90.000000
_cell_angle_beta 72.019667
_cell_angle_gamma 90.000000
_cell_volume 2899.038666
_symmetry_space_group_name_H-M "C 2/M"
_symmetry_group_IT_number 12
_symmetry_cell_setting 'monoclinic'
loop_
_space_group_symop_operation_xyz
x,y,z
-x,y,-z
-x,-y,-z
x,-y,z
1/2+x,1/2+y,z
1/2-x,1/2+y,-z
1/2-x,1/2-y,-z
1/2+x,1/2-y,z
loop_
_atom_site_type_symbol
_atom_site_label
_atom_site_fract_x
_atom_site_fract_y
_atom_site_fract_z
Si Si1 0.650628 0.351631 0.781076
Si Si2 0.544148 0.348295 0.668640
Si Si3 0.123773 0.852775 0.263694
Si Si4 0.224666 0.225746 0.372104
Si Si5 0.419100 0.350052 0.030092
Si Si6 0.195092 0.151666 0.068670
Si Si7 0.846635 0.356513 0.452293
O O1 0.674959 0.500000 0.783621
O O2 0.577106 0.336435 0.749952
O O3 0.722702 0.284599 0.717471
O O4 0.632299 0.284936 0.878108
O O5 0.548198 0.500000 0.635309
O O6 0.459552 0.290050 0.699406
O O7 0.594579 0.258410 0.589087
O O8 0.162420 0.851793 0.341202
O O9 0.176341 0.794082 0.169630
O O10 0.109169 0.000000 0.239695
O O11 0.183467 0.336124 0.442290
O O12 0.274906 0.137813 0.415843
O O13 0.430442 0.500000 0.055155
O O14 0.500000 0.279490 0.000000
O O15 0.383333 0.340381 0.951818
O O16 0.225491 0.000000 0.057189
O O17 0.250000 0.250000 0.000000
O O18 0.885006 0.500000 0.433708
#
# Coordination Sequence:
#
# PCOD8096340 Si02
#       7
#     8   8   8   8   8   8   8
#     4   9  16  29  49  73 101 134 172 210 249 296
#     4   9  19  35  55  77 104 138 175 214 256 306
#     4  10  20  35  54  77 104 138 177 213 254 308
#     4  10  20  33  53  75 101 136 173 210 256 313
#     4   9  16  27  48  76 102 132 172 213 249 290
#     4  10  20  34  53  78 109 140 172 213 258 304
#     4  10  21  37  55  77 104 133 171 218 265 311
#
# _framework density 19.316748
#
# number of rings (size 3 to 8) (size 9 to 14) (size 15 to 20)
#    0.000    2.429    0.000    2.571    0.000    8.000 
#    0.000    5.000    0.000    0.429    0.000    0.000 
#    0.000    0.000    0.000    0.000    0.000    0.000 
#
# Total GULP energy -346962.166944 kJ/mol
# GULP energy per Si atom -12391.505962 kJ/mol
# Density = 1.927278 g / cm^3
# Si number density = 19.316748 Si / 1000 Ang^3
#
#
#
# Elastic Constant Matrix: (Units=GPa)
#
#
# Indices 1 2 3 4 5 6 
#
# 1 87.5195 22.7651 32.2161 0.0000 -4.5179 0.0000
# 2 22.7651 72.7648 29.5373 0.0000 -9.1406 0.0000
# 3 32.2161 29.5373 116.0503 0.0000 1.1697 0.0000
# 4 0.0000 0.0000 0.0000 17.8736 0.0000 -0.6148
# 5 -4.5179 -9.1406 1.1697 0.0000 26.1781 0.0000
# 6 0.0000 0.0000 0.0000 -0.6148 0.0000 15.8168
#
#
#
# Elastic Compliance Matrix: (Units=1/GPa)
#
#
# Indices 1 2 3 4 5 6 
#
# 1 0.013329 -0.002763 -0.003012 0.000000 0.001470 0.000000
# 2 -0.002763 0.016743 -0.003550 0.000000 0.005528 0.000000
# 3 -0.003012 -0.003550 0.010379 0.000000 -0.002223 0.000000
# 4 0.000000 0.000000 0.000000 0.056023 0.000000 0.002178
# 5 0.001470 0.005528 -0.002223 0.000000 0.040483 0.000000
# 6 0.000000 0.000000 0.000000 0.002178 0.000000 0.063309
#
#
# Mechanical properties :
#
#
# Convention : Reuss Voigt Hill
#
# Bulk Modulus (GPa) = 45.86871 49.48574 47.67723
# Shear Modulus (GPa) = 22.10599 24.76145 23.43372
#
# Velocity S-wave (km/s) = 3.38656 3.58420 3.48678
# Velocity P-wave (km/s) = 6.25211 6.54235 6.39887
#
# Compressibility (1/GPa) = 0.02180135
#
# Stress axis : x y z
#
# Youngs Moduli (GPa) = 75.02291 59.72717 96.34789
#
# Poissons Ratio (x) = 0.16502 0.29019
# Poissons Ratio (y) = 0.20728 0.34205
# Poissons Ratio (z) = 0.22596 0.21204
#
# Static dielectric constant tensor:
#      x y z
#    x 3.508370 0.000000 -0.039080 
#    y 0.000000 3.169190 0.000000 
#    z -0.039080 0.000000 3.735570 
# 
# 
# High freq. dielectric constant tensor:
#      x y z
#    x 1.751270 0.000000 -0.000510 
#    y 0.000000 1.707310 0.000000 
#    z -0.000510 0.000000 1.767210 
# 
# From -- ./inp_files/223132.got.cif
#   From: 2010.06.25/outbox.cif.g09.slc.cpg/sg12_112_cif.got.tgz:223132.got - 2010.06.28 00:19:55.
