data_PCOD8096303
_publ_section_title
;
Structure prediction by ZEFSAII (Michael W. Deem and Ramdas Pophale) SiO2 
 PCOD8096303
Probable space group: C 2/M
;
_chemical_formula_sum "Si O2"
_cell_formula_units_Z 56
_cell_length_a 14.900177
_cell_length_b 24.106199
_cell_length_c 9.264200
_cell_angle_alpha 90.000000
_cell_angle_beta 122.408167
_cell_angle_gamma 90.000000
_cell_volume 2809.311833
_symmetry_space_group_name_H-M "C 2/M"
_symmetry_group_IT_number 12
_symmetry_cell_setting 'monoclinic'
loop_
_space_group_symop_operation_xyz
x,y,z
-x,y,-z
-x,-y,-z
x,-y,z
1/2+x,1/2+y,z
1/2-x,1/2+y,-z
1/2-x,1/2-y,-z
1/2+x,1/2-y,z
loop_
_atom_site_type_symbol
_atom_site_label
_atom_site_fract_x
_atom_site_fract_y
_atom_site_fract_z
Si Si1 0.409824 0.744458 0.741101
Si Si2 0.806209 0.064433 0.954675
Si Si3 0.896764 0.373671 0.219286
Si Si4 0.155950 0.119396 0.308340
Si Si5 0.353974 0.771710 0.006952
Si Si6 0.521745 0.564459 0.673850
Si Si7 0.378095 0.150742 0.527084
O O1 0.376993 0.681850 0.683881
O O2 0.347692 0.766243 0.829338
O O3 0.374490 0.786614 0.584798
O O4 0.537618 0.740707 0.854929
O O5 0.678291 0.072193 0.860561
O O6 0.847878 0.104976 0.864740
O O7 0.829087 0.000000 0.938712
O O8 0.870355 0.084709 0.152653
O O9 0.878800 0.341209 0.354543
O O10 0.023451 0.385816 0.325033
O O11 0.865478 0.336003 0.056792
O O12 0.274681 0.113975 0.476045
O O13 0.080721 0.075114 0.317652
O O14 0.250000 0.750000 0.000000
O O15 0.500000 0.593954 0.500000
O O16 0.535030 0.500000 0.659480
#
# Coordination Sequence:
#
# PCOD8096303 Si02
#       7
#     8   8   8   8   8   8   8
#     4  10  22  35  53  83 120 153 196 236 287 353
#     4  10  21  38  63  87 112 149 195 247 295 347
#     4   9  19  36  59  79 116 153 193 235 291 335
#     4  11  21  35  58  83 116 153 192 235 290 347
#     4  10  20  33  52  80 111 155 193 242 282 343
#     4  10  23  41  57  81 113 145 188 244 297 342
#     4   9  19  38  52  81 119 156 184 238 281 339
#
# _framework density 19.933706999999998
#
# number of rings (size 3 to 8) (size 9 to 14) (size 15 to 20)
#    0.000    2.143    0.000    3.000    6.000    2.286 
#    5.143    6.429    0.000    0.000    0.000   11.000 
#    0.000    0.000    0.000    0.000    0.000    0.000 
#
# Total GULP energy -346941.534781 kJ/mol
# GULP energy per Si atom -12390.769099 kJ/mol
# Density = 1.988834 g / cm^3
# Si number density = 19.933707 Si / 1000 Ang^3
#
#
#
# Elastic Constant Matrix: (Units=GPa)
#
#
# Indices 1 2 3 4 5 6 
#
# 1 114.7746 22.3943 52.6222 0.0000 19.7993 0.0000
# 2 22.3943 35.8392 32.4275 0.0000 10.5784 0.0000
# 3 52.6222 32.4275 116.7345 0.0000 13.2999 0.0000
# 4 0.0000 0.0000 0.0000 24.7792 0.0000 1.4067
# 5 19.7993 10.5784 13.2999 0.0000 26.5960 0.0000
# 6 0.0000 0.0000 0.0000 1.4067 0.0000 34.0015
#
#
#
# Elastic Compliance Matrix: (Units=1/GPa)
#
#
# Indices 1 2 3 4 5 6 
#
# 1 0.012075 -0.001930 -0.004210 0.000000 -0.006116 0.000000
# 2 -0.001930 0.040402 -0.009211 0.000000 -0.010027 0.000000
# 3 -0.004210 -0.009211 0.012988 0.000000 0.000303 0.000000
# 4 0.000000 0.000000 0.000000 0.040452 0.000000 -0.001674
# 5 -0.006116 -0.010027 0.000303 0.000000 0.045989 0.000000
# 6 0.000000 0.000000 0.000000 -0.001674 0.000000 0.029480
#
#
# Mechanical properties :
#
#
# Convention : Reuss Voigt Hill
#
# Bulk Modulus (GPa) = 28.76636 53.58180 41.17408
# Shear Modulus (GPa) = 22.35380 27.73560 25.04470
#
# Velocity S-wave (km/s) = 3.35237 3.73418 3.54842
# Velocity P-wave (km/s) = 5.42650 6.74763 6.12280
#
# Compressibility (1/GPa) = 0.03476283
#
# Stress axis : x y z
#
# Youngs Moduli (GPa) = 82.81837 24.75120 76.99167
#
# Poissons Ratio (x) = 0.04778 0.32414
# Poissons Ratio (y) = 0.15988 0.70914
# Poissons Ratio (z) = 0.34867 0.22797
#
# Static dielectric constant tensor:
#      x y z
#    x 4.025130 0.000000 0.210320 
#    y 0.000000 3.284630 0.000000 
#    z 0.210320 0.000000 3.942430 
# 
# 
# High freq. dielectric constant tensor:
#      x y z
#    x 1.786150 0.000000 0.015820 
#    y 0.000000 1.745710 0.000000 
#    z 0.015820 0.000000 1.784600 
# 
# From -- ./inp_files/65939.got.cif
#   From: 2010.06.25/outbox.cif.g09.slc.cpg/sg12_33_cif.got.tgz:65939.got - 2010.06.28 00:19:55.
