data_PCOD8096908
_publ_section_title
;
Structure prediction by ZEFSAII (Michael W. Deem and Ramdas Pophale) SiO2 
 PCOD8096908
Probable space group: C 2/M
;
_chemical_formula_sum "Si O2"
_cell_formula_units_Z 56
_cell_length_a 14.337556
_cell_length_b 14.303078
_cell_length_c 14.873574
_cell_angle_alpha 90.000000
_cell_angle_beta 80.914597
_cell_angle_gamma 90.000000
_cell_volume 3011.874531
_symmetry_space_group_name_H-M "C 2/M"
_symmetry_group_IT_number 12
_symmetry_cell_setting 'monoclinic'
loop_
_space_group_symop_operation_xyz
x,y,z
-x,y,-z
-x,-y,-z
x,-y,z
1/2+x,1/2+y,z
1/2-x,1/2+y,-z
1/2-x,1/2-y,-z
1/2+x,1/2-y,z
loop_
_atom_site_type_symbol
_atom_site_label
_atom_site_fract_x
_atom_site_fract_y
_atom_site_fract_z
Si Si1 0.220571 0.292509 0.806464
Si Si2 0.029873 0.269347 0.594015
Si Si3 0.902816 0.303484 0.775464
Si Si4 0.267541 0.601553 0.263534
Si Si5 0.544099 0.108547 0.895938
Si Si6 0.666202 0.394703 0.551414
Si Si7 0.799652 0.389844 0.373212
O O1 0.326658 0.272119 0.829716
O O2 0.174952 0.190345 0.786468
O O3 0.149004 0.345550 0.884382
O O4 0.236899 0.356666 0.717305
O O5 0.073710 0.166674 0.578495
O O6 0.098917 0.346347 0.624092
O O7 0.000000 0.304688 0.500000
O O8 0.945974 0.258640 0.678691
O O9 0.841449 0.393314 0.753030
O O10 0.981047 0.334066 0.835140
O O11 0.309495 0.500000 0.227071
O O12 0.267777 0.610046 0.371008
O O13 0.551699 0.000000 0.865914
O O14 0.500000 0.118698 0.000000
O O15 0.632086 0.500000 0.537256
O O16 0.726235 0.354345 0.459261
O O17 0.811320 0.500000 0.373395
#
# Coordination Sequence:
#
# PCOD8096908 Si02
#       7
#     8   8   8   8   8   8   8
#     4  10  21  38  60  86 119 153 190 246 307 345
#     4  12  21  33  54  81 121 155 200 243 291 346
#     4  10  21  36  60  89 118 155 195 244 295 347
#     4   9  18  34  57  82 112 151 195 236 288 346
#     4  11  23  41  66  93 121 154 195 246 300 355
#     4  10  20  34  51  75 114 163 204 242 290 345
#     4  11  21  34  54  80 116 157 198 247 295 340
#
# _framework density 18.593071999999999
#
# number of rings (size 3 to 8) (size 9 to 14) (size 15 to 20)
#    0.857    0.714    2.857    3.000    0.000    1.714 
#    0.000    1.429    0.000    2.143    0.000    0.000 
#    0.000    0.000    0.000    0.000    0.000    0.000 
#
# Total GULP energy -346935.990486 kJ/mol
# GULP energy per Si atom -12390.571089 kJ/mol
# Density = 1.855075 g / cm^3
# Si number density = 18.593072 Si / 1000 Ang^3
#
#
#
# Elastic Constant Matrix: (Units=GPa)
#
#
# Indices 1 2 3 4 5 6 
#
# 1 79.2131 37.0078 32.2488 0.0000 -14.7845 0.0000
# 2 37.0078 85.1005 26.4313 0.0000 -19.1308 0.0000
# 3 32.2488 26.4313 71.7800 0.0000 -15.8618 0.0000
# 4 0.0000 0.0000 0.0000 19.6228 0.0000 -6.8559
# 5 -14.7845 -19.1308 -15.8618 0.0000 27.0784 0.0000
# 6 0.0000 0.0000 0.0000 -6.8559 0.0000 18.8456
#
#
#
# Elastic Compliance Matrix: (Units=1/GPa)
#
#
# Indices 1 2 3 4 5 6 
#
# 1 0.017904 -0.005491 -0.005421 0.000000 0.002721 0.000000
# 2 -0.005491 0.016417 -0.001927 0.000000 0.007472 0.000000
# 3 -0.005421 -0.001927 0.018519 0.000000 0.006527 0.000000
# 4 0.000000 0.000000 0.000000 0.058382 0.000000 0.021239
# 5 0.002721 0.007472 0.006527 0.000000 0.047517 0.000000
# 6 0.000000 0.000000 0.000000 0.021239 0.000000 0.060789
#
#
# Mechanical properties :
#
#
# Convention : Reuss Voigt Hill
#
# Bulk Modulus (GPa) = 36.81566 47.49658 42.15612
# Shear Modulus (GPa) = 19.66500 22.46975 21.06737
#
# Velocity S-wave (km/s) = 3.25568 3.48012 3.36977
# Velocity P-wave (km/s) = 5.82892 6.46135 6.15327
#
# Compressibility (1/GPa) = 0.02716235
#
# Stress axis : x y z
#
# Youngs Moduli (GPa) = 55.85314 60.91337 53.99936
#
# Poissons Ratio (x) = 0.33446 0.29272
# Poissons Ratio (y) = 0.30667 0.10407
# Poissons Ratio (z) = 0.30277 0.11739
#
# Static dielectric constant tensor:
#      x y z
#    x 3.330510 0.000000 -0.043340 
#    y 0.000000 3.523490 0.000000 
#    z -0.043340 0.000000 3.257150 
# 
# 
# High freq. dielectric constant tensor:
#      x y z
#    x 1.710930 0.000000 -0.000520 
#    y 0.000000 1.728150 0.000000 
#    z -0.000520 0.000000 1.701130 
# 
# From -- ./inp_files/214185.got.cif
#   From: 2010.06.25/outbox.cif.g09.slc.cpg/sg12_108_cif.got.tgz:214185.got - 2010.06.28 00:19:55.
