data_PCOD8096794
_publ_section_title
;
Structure prediction by ZEFSAII (Michael W. Deem and Ramdas Pophale) SiO2 
 PCOD8096794
Probable space group: C 2/M
;
_chemical_formula_sum "Si O2"
_cell_formula_units_Z 56
_cell_length_a 29.297458
_cell_length_b 9.129719
_cell_length_c 18.865609
_cell_angle_alpha 90.000000
_cell_angle_beta 142.113109
_cell_angle_gamma 90.000000
_cell_volume 3098.850059
_symmetry_space_group_name_H-M "C 2/M"
_symmetry_group_IT_number 12
_symmetry_cell_setting 'monoclinic'
loop_
_space_group_symop_operation_xyz
x,y,z
-x,y,-z
-x,-y,-z
x,-y,z
1/2+x,1/2+y,z
1/2-x,1/2+y,-z
1/2-x,1/2-y,-z
1/2+x,1/2-y,z
loop_
_atom_site_type_symbol
_atom_site_label
_atom_site_fract_x
_atom_site_fract_y
_atom_site_fract_z
Si Si1 0.522946 0.329255 0.951986
Si Si2 0.406598 0.170885 0.291244
Si Si3 0.812219 0.171023 0.895171
Si Si4 0.855064 0.661925 0.077814
Si Si5 0.476571 0.838504 0.766046
Si Si6 0.428830 0.827998 0.557301
Si Si7 0.830820 0.825912 0.327572
O O1 0.507938 0.500000 0.932068
O O2 0.608793 0.291602 0.043122
O O3 0.500000 0.262840 0.000000
O O4 0.469174 0.264303 0.825459
O O5 0.354585 0.209183 0.159671
O O6 0.492007 0.209058 0.380886
O O7 0.380434 0.270506 0.323391
O O8 0.397767 0.000000 0.300379
O O9 0.751797 0.260509 0.777077
O O10 0.793309 0.000000 0.869811
O O11 0.810345 0.221982 0.975203
O O12 0.819441 0.500000 0.024701
O O13 0.939625 0.655025 0.157568
O O14 0.427976 0.783140 0.639557
O O15 0.450008 0.000000 0.756300
O O16 0.366114 0.730424 0.443887
O O17 0.411469 0.000000 0.527062
O O18 0.827242 0.000000 0.322858
#
# Coordination Sequence:
#
# PCOD8096794 Si02
#       7
#     8   8   8   8   8   8   8
#     4   9  18  33  55  82 105 123 149 191 242 294
#     4   9  18  33  52  71  94 129 169 207 247 287
#     4  10  20  34  51  70  97 132 162 192 241 299
#     4   8  15  30  50  71  96 124 159 203 243 284
#     4   8  15  29  51  77 100 125 157 194 238 286
#     4   9  18  34  53  71  96 131 170 206 240 284
#     4  12  24  33  45  68  99 133 169 210 245 278
#
# _framework density 18.07122
#
# number of rings (size 3 to 8) (size 9 to 14) (size 15 to 20)
#    0.000    2.714    0.000    3.857    0.000    4.857 
#    0.000    2.857    0.000    0.857    0.000    0.000 
#    0.000    0.000    0.000    0.000    0.000    0.000 
#
# Total GULP energy -347115.428239 kJ/mol
# GULP energy per Si atom -12396.979580 kJ/mol
# Density = 1.803009 g / cm^3
# Si number density = 18.071220 Si / 1000 Ang^3
#
#
#
# Elastic Constant Matrix: (Units=GPa)
#
#
# Indices 1 2 3 4 5 6 
#
# 1 40.8801 36.5375 55.5318 0.0000 -23.8983 0.0000
# 2 36.5375 98.9334 75.8006 0.0000 -12.3804 0.0000
# 3 55.5318 75.8006 142.8686 0.0000 -24.0691 0.0000
# 4 0.0000 0.0000 0.0000 34.4914 0.0000 -6.0688
# 5 -23.8983 -12.3804 -24.0691 0.0000 26.3964 0.0000
# 6 0.0000 0.0000 0.0000 -6.0688 0.0000 20.3537
#
#
#
# Elastic Compliance Matrix: (Units=1/GPa)
#
#
# Indices 1 2 3 4 5 6 
#
# 1 0.112181 -0.014002 -0.023831 0.000000 0.073267 0.000000
# 2 -0.014002 0.018781 -0.006112 0.000000 -0.009442 0.000000
# 3 -0.023831 -0.006112 0.018180 0.000000 -0.007865 0.000000
# 4 0.000000 0.000000 0.000000 0.030598 0.000000 0.009123
# 5 0.073267 -0.009442 -0.007865 0.000000 0.092617 0.000000
# 6 0.000000 0.000000 0.000000 0.009123 0.000000 0.051851
#
#
# Mechanical properties :
#
#
# Convention : Reuss Voigt Hill
#
# Bulk Modulus (GPa) = 16.32664 68.71356 42.52010
# Shear Modulus (GPa) = 11.56024 23.90245 17.73134
#
# Velocity S-wave (km/s) = 2.53198 3.64081 3.13580
# Velocity P-wave (km/s) = 4.19549 7.46862 6.05733
#
# Compressibility (1/GPa) = 0.06124960
#
# Stress axis : x y z
#
# Youngs Moduli (GPa) = 8.91418 53.24602 55.00417
#
# Poissons Ratio (x) = 0.74557 1.31082
# Poissons Ratio (y) = 0.12482 0.33621
# Poissons Ratio (z) = 0.21244 0.32546
#
# Static dielectric constant tensor:
#      x y z
#    x 3.160800 0.000000 -0.256930 
#    y 0.000000 3.334430 0.000000 
#    z -0.256930 0.000000 3.549980 
# 
# 
# High freq. dielectric constant tensor:
#      x y z
#    x 1.666560 0.000000 -0.017740 
#    y 0.000000 1.694450 0.000000 
#    z -0.017740 0.000000 1.705150 
# 
# From -- ./inp_files/281028.got.cif
#   From: 2010.06.25/outbox.cif.g09.slc.cpg/sg12_141_cif.got.tgz:281028.got - 2010.06.28 00:19:55.
