data_PCOD8096935
_publ_section_title
;
Structure prediction by ZEFSAII (Michael W. Deem and Ramdas Pophale) SiO2 
 PCOD8096935
Probable space group: C 2/M
;
_chemical_formula_sum "Si O2"
_cell_formula_units_Z 56
_cell_length_a 17.916059
_cell_length_b 9.769442
_cell_length_c 19.443845
_cell_angle_alpha 90.000000
_cell_angle_beta 115.104514
_cell_angle_gamma 90.000000
_cell_volume 3081.767100
_symmetry_space_group_name_H-M "C 2/M"
_symmetry_group_IT_number 12
_symmetry_cell_setting 'monoclinic'
loop_
_space_group_symop_operation_xyz
x,y,z
-x,y,-z
-x,-y,-z
x,-y,z
1/2+x,1/2+y,z
1/2-x,1/2+y,-z
1/2-x,1/2-y,-z
1/2+x,1/2-y,z
loop_
_atom_site_type_symbol
_atom_site_label
_atom_site_fract_x
_atom_site_fract_y
_atom_site_fract_z
Si Si1 0.370279 0.650932 0.552287
Si Si2 0.032222 0.161135 0.278097
Si Si3 0.308429 0.662529 0.739099
Si Si4 0.082015 0.657533 0.991946
Si Si5 0.784811 0.159887 0.884751
Si Si6 0.903131 0.344337 0.159595
Si Si7 0.704794 0.847595 0.575579
O O1 0.389469 0.500000 0.530494
O O2 0.441763 0.695384 0.633411
O O3 0.366043 0.753680 0.485967
O O4 0.284452 0.647519 0.558649
O O5 0.103290 0.214686 0.253852
O O6 0.949441 0.243563 0.229643
O O7 0.016119 0.000000 0.262083
O O8 0.307520 0.500000 0.733433
O O9 0.293989 0.714894 0.810451
O O10 0.233729 0.714551 0.660660
O O11 0.106111 0.500000 0.016541
O O12 0.155797 0.754820 0.043314
O O13 0.064956 0.680763 0.904962
O O14 0.000000 0.701084 0.000000
O O15 0.693327 0.188275 0.875123
O O16 0.808309 0.000000 0.898857
O O17 0.919986 0.500000 0.189719
O O18 0.667712 0.000000 0.569178
#
# Coordination Sequence:
#
# PCOD8096935 Si02
#       7
#     8   8   8   8   8   8   8
#     4   8  14  24  39  64  94 118 147 190 233 272
#     4   9  17  30  49  70  93 124 159 194 233 277
#     4   8  15  29  48  70  94 120 156 199 235 271
#     4  10  21  36  52  72  99 125 151 190 236 278
#     4  10  20  34  52  72  95 124 158 194 230 274
#     4  10  21  34  48  70  98 125 155 193 234 275
#     4   8  13  23  41  64  90 119 149 186 234 278
#
# _framework density 18.171392999999998
#
# number of rings (size 3 to 8) (size 9 to 14) (size 15 to 20)
#    0.000    3.000    0.000    3.000    0.000    2.000 
#    0.000    2.857    0.000    0.857    0.000    6.000 
#    0.000    0.000    0.000    0.000    0.000    0.000 
#
# Total GULP energy -347131.647525 kJ/mol
# GULP energy per Si atom -12397.558840 kJ/mol
# Density = 1.813003 g / cm^3
# Si number density = 18.171393 Si / 1000 Ang^3
#
#
#
# Elastic Constant Matrix: (Units=GPa)
#
#
# Indices 1 2 3 4 5 6 
#
# 1 47.7176 28.2192 21.6824 0.0000 16.2095 0.0000
# 2 28.2192 76.3713 57.9969 0.0000 23.2193 0.0000
# 3 21.6824 57.9969 95.2914 0.0000 27.1595 0.0000
# 4 0.0000 0.0000 0.0000 34.2328 0.0000 8.7756
# 5 16.2095 23.2193 27.1595 0.0000 20.0595 0.0000
# 6 0.0000 0.0000 0.0000 8.7756 0.0000 18.9039
#
#
#
# Elastic Compliance Matrix: (Units=1/GPa)
#
#
# Indices 1 2 3 4 5 6 
#
# 1 0.031086 -0.007951 0.003749 0.000000 -0.020993 0.000000
# 2 -0.007951 0.028743 -0.013081 0.000000 -0.009134 0.000000
# 3 0.003749 -0.013081 0.023042 0.000000 -0.019086 0.000000
# 4 0.000000 0.000000 0.000000 0.033158 0.000000 -0.015393
# 5 -0.020993 -0.009134 -0.019086 0.000000 0.103230 0.000000
# 6 0.000000 0.000000 0.000000 -0.015393 0.000000 0.060045
#
#
# Mechanical properties :
#
#
# Convention : Reuss Voigt Hill
#
# Bulk Modulus (GPa) = 20.70159 48.35304 34.52732
# Shear Modulus (GPa) = 15.15280 22.07135 18.61208
#
# Velocity S-wave (km/s) = 2.89083 3.48892 3.20386
# Velocity P-wave (km/s) = 4.74971 6.54960 5.72088
#
# Compressibility (1/GPa) = 0.04830546
#
# Stress axis : x y z
#
# Youngs Moduli (GPa) = 32.16852 34.79130 43.39832
#
# Poissons Ratio (x) = 0.27663 -0.16271
# Poissons Ratio (y) = 0.25578 0.56770
# Poissons Ratio (z) = -0.12061 0.45511
#
# Static dielectric constant tensor:
#      x y z
#    x 3.082770 0.000000 -0.099210 
#    y 0.000000 3.319390 0.000000 
#    z -0.099210 0.000000 3.513360 
# 
# 
# High freq. dielectric constant tensor:
#      x y z
#    x 1.674090 0.000000 0.000700 
#    y 0.000000 1.687460 0.000000 
#    z 0.000700 0.000000 1.713110 
# 
# From -- ./inp_files/276660.got.cif
#   From: 2010.06.25/outbox.cif.g09.slc.cpg/sg12_139_cif.got.tgz:276660.got - 2010.06.28 00:19:55.
