data_PCOD8096848
_publ_section_title
;
Structure prediction by ZEFSAII (Michael W. Deem and Ramdas Pophale) SiO2 
 PCOD8096848
Probable space group: C 2/M
;
_chemical_formula_sum "Si O2"
_cell_formula_units_Z 64
_cell_length_a 14.083079
_cell_length_b 9.213976
_cell_length_c 31.607940
_cell_angle_alpha 90.000000
_cell_angle_beta 62.011243
_cell_angle_gamma 90.000000
_cell_volume 3621.772052
_symmetry_space_group_name_H-M "C 2/M"
_symmetry_group_IT_number 12
_symmetry_cell_setting 'monoclinic'
loop_
_space_group_symop_operation_xyz
x,y,z
-x,y,-z
-x,-y,-z
x,-y,z
1/2+x,1/2+y,z
1/2-x,1/2+y,-z
1/2-x,1/2-y,-z
1/2+x,1/2-y,z
loop_
_atom_site_type_symbol
_atom_site_label
_atom_site_fract_x
_atom_site_fract_y
_atom_site_fract_z
Si Si1 0.334170 0.829936 0.260526
Si Si2 0.099918 0.166703 0.507817
Si Si3 0.165464 0.667914 0.574653
Si Si4 0.635403 0.668262 0.245945
Si Si5 0.432745 0.168764 0.819172
Si Si6 0.680745 0.169518 0.072318
Si Si7 0.613462 0.170159 0.993534
Si Si8 0.400530 0.669970 0.327455
O O1 0.233868 0.776286 0.253806
O O2 0.441749 0.792372 0.211868
O O3 0.330702 0.741374 0.304796
O O4 0.326361 0.000000 0.273043
O O5 0.100085 0.269520 0.548532
O O6 0.207491 0.188658 0.458164
O O7 0.000000 0.214424 0.500000
O O8 0.088683 0.000000 0.525208
O O9 0.134419 0.500000 0.586919
O O10 0.132138 0.757676 0.622209
O O11 0.648091 0.500000 0.232806
O O12 0.638717 0.750269 0.200720
O O13 0.526155 0.701533 0.293905
O O14 0.395881 0.219178 0.873344
O O15 0.412374 0.000000 0.816460
O O16 0.793500 0.252156 0.052547
O O17 0.706066 0.000000 0.068857
O O18 0.620648 0.211490 0.041485
O O19 0.626298 0.000000 0.983221
O O20 0.500000 0.227507 0.000000
O O21 0.374963 0.500000 0.334403
#
# Coordination Sequence:
#
# PCOD8096848 Si02
#       8
#     8   8   8   8   8   8   8   8
#     4   9  18  34  53  72  96 127 163 201 241 285
#     4   9  19  36  55  74  99 131 165 203 246 291
#     4  10  20  34  53  76 101 130 165 203 244 291
#     4   9  19  34  52  73  97 128 165 202 239 285
#     4   9  18  32  50  71  97 127 158 198 244 289
#     4   9  18  32  48  70  99 127 157 196 245 292
#     4   9  18  32  50  71  95 126 164 202 238 283
#     4  10  20  34  51  73 102 132 163 201 243 287
#
# _framework density 17.670908000000001
#
# number of rings (size 3 to 8) (size 9 to 14) (size 15 to 20)
#    0.000    2.750    0.000    0.750    0.000    4.500 
#    0.000    7.500    0.000    0.000    0.000    0.000 
#    0.000    0.000    0.000    0.000    0.000    0.000 
#
# Total GULP energy -396886.982913 kJ/mol
# GULP energy per Si atom -12402.718216 kJ/mol
# Density = 1.763069 g / cm^3
# Si number density = 17.670908 Si / 1000 Ang^3
#
#
#
# Elastic Constant Matrix: (Units=GPa)
#
#
# Indices 1 2 3 4 5 6 
#
# 1 143.8856 45.1350 49.9699 0.0000 12.0144 0.0000
# 2 45.1350 61.1841 49.0699 0.0000 7.3061 0.0000
# 3 49.9699 49.0699 117.7286 0.0000 12.1116 0.0000
# 4 0.0000 0.0000 0.0000 32.9443 0.0000 2.7239
# 5 12.0144 7.3061 12.1116 0.0000 15.1425 0.0000
# 6 0.0000 0.0000 0.0000 2.7239 0.0000 31.0099
#
#
#
# Elastic Compliance Matrix: (Units=1/GPa)
#
#
# Indices 1 2 3 4 5 6 
#
# 1 0.009438 -0.005422 -0.001356 0.000000 -0.003787 0.000000
# 2 -0.005422 0.027889 -0.009133 0.000000 -0.001849 0.000000
# 3 -0.001356 -0.009133 0.013416 0.000000 -0.005248 0.000000
# 4 0.000000 0.000000 0.000000 0.030576 0.000000 -0.002686
# 5 -0.003787 -0.001849 -0.005248 0.000000 0.074134 0.000000
# 6 0.000000 0.000000 0.000000 -0.002686 0.000000 0.032484
#
#
# Mechanical properties :
#
#
# Convention : Reuss Voigt Hill
#
# Bulk Modulus (GPa) = 52.85099 67.90531 60.37815
# Shear Modulus (GPa) = 22.11721 27.72757 24.92239
#
# Velocity S-wave (km/s) = 3.54166 3.96549 3.75955
# Velocity P-wave (km/s) = 6.83358 7.71220 7.28615
#
# Compressibility (1/GPa) = 0.01892112
#
# Stress axis : x y z
#
# Youngs Moduli (GPa) = 105.95248 35.85580 74.53632
#
# Poissons Ratio (x) = 0.19443 0.10109
# Poissons Ratio (y) = 0.57452 0.68072
# Poissons Ratio (z) = 0.14370 0.32746
#
# Static dielectric constant tensor:
#      x y z
#    x 3.380260 0.000000 0.012830 
#    y 0.000000 3.279390 0.000000 
#    z 0.012830 0.000000 3.315850 
# 
# 
# High freq. dielectric constant tensor:
#      x y z
#    x 1.684410 0.000000 0.002640 
#    y 0.000000 1.683030 0.000000 
#    z 0.002640 0.000000 1.684040 
# 
# From -- ./inp_files/338800.got.cif
#   From: 2010.06.25/outbox.cif.g09.slc.cpg/sg12_170_cif.got.tgz:338800.got - 2010.06.28 00:19:55.
