data_PCOD8096002
_publ_section_title
;
Structure prediction by ZEFSAII (Michael W. Deem and Ramdas Pophale) SiO2 
 PCOD8096002
Probable space group: C 2/M
;
_chemical_formula_sum "Si O2"
_cell_formula_units_Z 64
_cell_length_a 22.188187
_cell_length_b 9.074459
_cell_length_c 22.145949
_cell_angle_alpha 90.000000
_cell_angle_beta 130.940363
_cell_angle_gamma 90.000000
_cell_volume 3368.288315
_symmetry_space_group_name_H-M "C 2/M"
_symmetry_group_IT_number 12
_symmetry_cell_setting 'monoclinic'
loop_
_space_group_symop_operation_xyz
x,y,z
-x,y,-z
-x,-y,-z
x,-y,z
1/2+x,1/2+y,z
1/2-x,1/2+y,-z
1/2-x,1/2-y,-z
1/2+x,1/2-y,z
loop_
_atom_site_type_symbol
_atom_site_label
_atom_site_fract_x
_atom_site_fract_y
_atom_site_fract_z
Si Si1 0.962692 0.675203 0.645782
Si Si2 0.628410 0.169367 0.806577
Si Si3 0.915898 0.173060 0.973760
Si Si4 0.053263 0.330426 0.885237
Si Si5 0.076305 0.325180 0.512165
Si Si6 0.227098 0.828040 0.668590
Si Si7 0.764211 0.671534 0.829532
Si Si8 0.391234 0.175276 0.720766
O O1 0.963131 0.500000 0.646063
O O2 0.933241 0.736634 0.562208
O O3 0.903690 0.732598 0.660098
O O4 0.052798 0.728170 0.718395
O O5 0.611148 0.186373 0.866010
O O6 0.704473 0.267694 0.840842
O O7 0.647029 0.000000 0.802377
O O8 0.848744 0.247997 0.888767
O O9 0.901240 0.000000 0.964745
O O10 0.910427 0.231821 0.038216
O O11 0.000000 0.216790 0.000000
O O12 0.049572 0.500000 0.903991
O O13 0.964810 0.270753 0.810552
O O14 0.084255 0.500000 0.518287
O O15 0.154712 0.258238 0.592159
O O16 0.000000 0.272463 0.500000
O O17 0.227261 0.797240 0.739742
O O18 0.308356 0.763958 0.692479
O O19 0.217958 0.000000 0.648060
O O20 0.778488 0.500000 0.850260
O O21 0.392565 0.000000 0.722287
#
# Coordination Sequence:
#
# PCOD8096002 Si02
#       8
#     8   8   8   8   8   8   8   8
#     4   8  15  30  53  78 103 136 175 211 255 312
#     4   9  18  35  59  83 107 138 177 219 261 308
#     4  11  24  39  56  80 109 140 175 219 267 312
#     4   9  18  35  60  84 106 139 178 214 259 315
#     4  10  20  33  51  75 103 137 175 214 258 311
#     4  10  21  35  52  76 104 135 173 218 264 308
#     4  11  23  37  55  78 105 140 179 219 266 319
#     4   8  15  31  54  77 103 135 172 213 256 309
#
# _framework density 19.000748999999999
#
# number of rings (size 3 to 8) (size 9 to 14) (size 15 to 20)
#    0.000    2.500    0.000    3.750    0.000    5.750 
#    0.000    1.250    0.000    1.500    0.000    0.000 
#    0.000    0.000    0.000    0.000    0.000    0.000 
#
# Total GULP energy -396828.794454 kJ/mol
# GULP energy per Si atom -12400.899827 kJ/mol
# Density = 1.895750 g / cm^3
# Si number density = 19.000749 Si / 1000 Ang^3
#
#
#
# Elastic Constant Matrix: (Units=GPa)
#
#
# Indices 1 2 3 4 5 6 
#
# 1 99.2965 33.9229 28.5922 0.0000 8.3337 0.0000
# 2 33.9229 52.5272 32.4633 0.0000 1.7761 0.0000
# 3 28.5922 32.4633 86.2283 0.0000 -1.7850 0.0000
# 4 0.0000 0.0000 0.0000 32.2486 0.0000 2.5090
# 5 8.3337 1.7761 -1.7850 0.0000 31.6512 0.0000
# 6 0.0000 0.0000 0.0000 2.5090 0.0000 19.4583
#
#
#
# Elastic Compliance Matrix: (Units=1/GPa)
#
#
# Indices 1 2 3 4 5 6 
#
# 1 0.013385 -0.007496 -0.001682 0.000000 -0.003198 0.000000
# 2 -0.007496 0.029126 -0.008483 0.000000 -0.000139 0.000000
# 3 -0.001682 -0.008483 0.015385 0.000000 0.001787 0.000000
# 4 0.000000 0.000000 0.000000 0.031323 0.000000 -0.004039
# 5 -0.003198 -0.000139 0.001787 0.000000 0.032545 0.000000
# 6 0.000000 0.000000 0.000000 -0.004039 0.000000 0.051913
#
#
# Mechanical properties :
#
#
# Convention : Reuss Voigt Hill
#
# Bulk Modulus (GPa) = 44.29858 47.55652 45.92755
# Shear Modulus (GPa) = 23.09212 26.20988 24.65100
#
# Velocity S-wave (km/s) = 3.48994 3.71807 3.60581
# Velocity P-wave (km/s) = 6.29319 6.59660 6.44668
#
# Compressibility (1/GPa) = 0.02257409
#
# Stress axis : x y z
#
# Youngs Moduli (GPa) = 74.71272 34.33345 64.99644
#
# Poissons Ratio (x) = 0.25737 0.10934
# Poissons Ratio (y) = 0.56006 0.55134
# Poissons Ratio (z) = 0.12568 0.29124
#
# Static dielectric constant tensor:
#      x y z
#    x 3.742090 0.000000 -0.088780 
#    y 0.000000 3.148420 0.000000 
#    z -0.088780 0.000000 3.525210 
# 
# 
# High freq. dielectric constant tensor:
#      x y z
#    x 1.750670 0.000000 -0.003180 
#    y 0.000000 1.707130 0.000000 
#    z -0.003180 0.000000 1.743490 
# 
# From -- ./inp_files/346132.got.cif
#   From: 2010.06.25/outbox.cif.g09.slc.cpg/sg12_174_cif.got.tgz:346132.got - 2010.06.28 00:19:55.
