data_PCOD8096283
_publ_section_title
;
Structure prediction by ZEFSAII (Michael W. Deem and Ramdas Pophale) SiO2 
 PCOD8096283
Probable space group: C 2/M
;
_chemical_formula_sum "Si O2"
_cell_formula_units_Z 56
_cell_length_a 32.785910
_cell_length_b 8.917440
_cell_length_c 12.002414
_cell_angle_alpha 90.000000
_cell_angle_beta 56.736739
_cell_angle_gamma 90.000000
_cell_volume 2934.168364
_symmetry_space_group_name_H-M "C 2/M"
_symmetry_group_IT_number 12
_symmetry_cell_setting 'monoclinic'
loop_
_space_group_symop_operation_xyz
x,y,z
-x,y,-z
-x,-y,-z
x,-y,z
1/2+x,1/2+y,z
1/2-x,1/2+y,-z
1/2-x,1/2-y,-z
1/2+x,1/2-y,z
loop_
_atom_site_type_symbol
_atom_site_label
_atom_site_fract_x
_atom_site_fract_y
_atom_site_fract_z
Si Si1 0.393619 0.327950 0.518018
Si Si2 0.537528 0.830125 0.033946
Si Si3 0.690178 0.175691 0.489300
Si Si4 0.005524 0.669671 0.658094
Si Si5 0.869313 0.175575 0.031617
Si Si6 0.711378 0.824127 0.707979
Si Si7 0.411894 0.327920 0.734415
O O1 0.387475 0.500000 0.489716
O O2 0.360001 0.224408 0.492255
O O3 0.449199 0.279768 0.420061
O O4 0.380330 0.308476 0.669031
O O5 0.511139 0.824202 0.190490
O O6 0.553025 0.000000 0.979437
O O7 0.500000 0.764441 0.000000
O O8 0.585622 0.728416 0.959709
O O9 0.688442 0.219105 0.622449
O O10 0.734327 0.259598 0.362313
O O11 0.697848 0.000000 0.462187
O O12 0.018899 0.500000 0.602089
O O13 0.960765 0.727990 0.649202
O O14 0.820416 0.255723 0.145218
O O15 0.862249 0.000000 0.056639
O O16 0.878830 0.222769 0.888772
O O17 0.714251 0.000000 0.720997
O O18 0.428440 0.500000 0.726661
#
# Coordination Sequence:
#
# PCOD8096283 Si02
#       7
#     8   8   8   8   8   8   8
#     4  11  22  36  56  80 111 147 185 226 274 323
#     4   9  19  34  50  73 109 147 182 222 268 319
#     4  10  22  39  59  84 111 139 178 226 271 322
#     4  10  20  33  52  79 110 147 188 227 270 319
#     4  10  20  35  57  81 107 142 184 223 268 322
#     4  10  21  39  61  83 111 142 175 219 277 332
#     4   9  20  38  55  77 111 150 186 225 269 320
#
# _framework density 19.085476
#
# number of rings (size 3 to 8) (size 9 to 14) (size 15 to 20)
#    0.000    2.143    0.000    2.571    2.000    6.000 
#    0.000    0.714    0.000    0.000    0.000    0.000 
#    0.000    0.000    0.000    0.000    0.000    0.000 
#
# Total GULP energy -347291.807800 kJ/mol
# GULP energy per Si atom -12403.278850 kJ/mol
# Density = 1.904204 g / cm^3
# Si number density = 19.085476 Si / 1000 Ang^3
#
#
#
# Elastic Constant Matrix: (Units=GPa)
#
#
# Indices 1 2 3 4 5 6 
#
# 1 64.6686 19.5785 24.0098 0.0000 2.3289 0.0000
# 2 19.5785 74.7294 30.3741 0.0000 -7.2507 0.0000
# 3 24.0098 30.3741 64.8721 0.0000 -22.0965 0.0000
# 4 0.0000 0.0000 0.0000 32.0801 0.0000 -6.0355
# 5 2.3289 -7.2507 -22.0965 0.0000 21.4843 0.0000
# 6 0.0000 0.0000 0.0000 -6.0355 0.0000 35.7613
#
#
#
# Elastic Compliance Matrix: (Units=1/GPa)
#
#
# Indices 1 2 3 4 5 6 
#
# 1 0.021155 -0.002124 -0.012099 0.000000 -0.015454 0.000000
# 2 -0.002124 0.016930 -0.007875 0.000000 -0.002155 0.000000
# 3 -0.012099 -0.007875 0.035589 0.000000 0.035257 0.000000
# 4 0.000000 0.000000 0.000000 0.032194 0.000000 0.005433
# 5 -0.015454 -0.002155 0.035257 0.000000 0.083755 0.000000
# 6 0.000000 0.000000 0.000000 0.005433 0.000000 0.028880
#
#
# Mechanical properties :
#
#
# Convention : Reuss Voigt Hill
#
# Bulk Modulus (GPa) = 33.92331 39.13278 36.52804
# Shear Modulus (GPa) = 18.34690 26.55232 22.44961
#
# Velocity S-wave (km/s) = 3.10385 3.73397 3.43340
# Velocity P-wave (km/s) = 5.53698 6.25608 5.90748
#
# Compressibility (1/GPa) = 0.02947826
#
# Stress axis : x y z
#
# Youngs Moduli (GPa) = 47.26983 59.06764 28.09844
#
# Poissons Ratio (x) = 0.12547 0.33996
# Poissons Ratio (y) = 0.10041 0.22127
# Poissons Ratio (z) = 0.57192 0.46514
#
# Static dielectric constant tensor:
#      x y z
#    x 3.376860 0.000000 0.122970 
#    y 0.000000 3.594700 0.000000 
#    z 0.122970 0.000000 3.559180 
# 
# 
# High freq. dielectric constant tensor:
#      x y z
#    x 1.729210 0.000000 0.005750 
#    y 0.000000 1.751290 0.000000 
#    z 0.005750 0.000000 1.744880 
# 
# From -- ./inp_files/187249.got.cif
#   From: 2010.06.25/outbox.cif.g09.slc.cpg/sg12_94_cif.got.tgz:187249.got - 2010.06.28 00:19:55.
