data_PCOD8096645
_publ_section_title
;
Structure prediction by ZEFSAII (Michael W. Deem and Ramdas Pophale) SiO2 
 PCOD8096645
Probable space group: C 2/M
;
_chemical_formula_sum "Si O2"
_cell_formula_units_Z 40
_cell_length_a 15.509560
_cell_length_b 10.652863
_cell_length_c 13.009709
_cell_angle_alpha 90.000000
_cell_angle_beta 59.808893
_cell_angle_gamma 90.000000
_cell_volume 1857.909169
_symmetry_space_group_name_H-M "C 2/M"
_symmetry_group_IT_number 12
_symmetry_cell_setting 'monoclinic'
loop_
_space_group_symop_operation_xyz
x,y,z
-x,y,-z
-x,-y,-z
x,-y,z
1/2+x,1/2+y,z
1/2-x,1/2+y,-z
1/2-x,1/2-y,-z
1/2+x,1/2-y,z
loop_
_atom_site_type_symbol
_atom_site_label
_atom_site_fract_x
_atom_site_fract_y
_atom_site_fract_z
Si Si1 0.977548 0.000000 0.178328
Si Si2 0.729727 0.787878 0.219348
Si Si3 0.339094 0.000000 0.611260
Si Si4 0.889235 0.362022 0.026023
Si Si5 0.334908 0.500000 0.065157
Si Si6 0.975670 0.500000 0.345343
Si Si7 0.042495 0.249544 0.214475
O O1 0.968585 0.871449 0.250802
O O2 0.900665 0.000000 0.131347
O O3 0.093116 0.000000 0.074398
O O4 0.724554 0.872100 0.327584
O O5 0.817291 0.683651 0.163334
O O6 0.621894 0.727287 0.259179
O O7 0.761193 0.881467 0.107745
O O8 0.373896 0.000000 0.472815
O O9 0.430065 0.000000 0.636368
O O10 0.852552 0.500000 0.013055
O O11 0.892837 0.266218 0.928379
O O12 0.000000 0.368349 0.000000
O O13 0.976902 0.374992 0.274593
#
# Coordination Sequence:
#
# PCOD8096645 Si02
#       7
#     4   8   4   8   4   4   8
#     4  11  22  32  52  84 120 149 185 231 295 332
#     4  10  20  33  57  81 107 145 199 235 275 331
#     4   8  18  36  61  81 100 152 202 240 268 346
#     4  11  22  33  50  81 120 157 177 226 297 354
#     4  10  20  34  52  75 115 161 182 219 276 369
#     4   9  18  38  59  80 113 148 203 232 287 339
#     4  11  21  33  57  87 112 151 191 243 279 341
#
# _framework density 21.529578000000001
#
# number of rings (size 3 to 8) (size 9 to 14) (size 15 to 20)
#    0.000    1.800    3.000    2.400    1.400    0.000 
#    0.000    0.000    2.200   13.200    0.000    0.000 
#    0.000    0.000    0.000    0.000    0.000    0.000 
#
# Total GULP energy -247771.093320 kJ/mol
# GULP energy per Si atom -12388.554666 kJ/mol
# Density = 2.148058 g / cm^3
# Si number density = 21.529578 Si / 1000 Ang^3
#
#
#
# Elastic Constant Matrix: (Units=GPa)
#
#
# Indices 1 2 3 4 5 6 
#
# 1 27.4323 20.0041 8.9343 0.0000 -1.5762 0.0000
# 2 20.0041 150.0224 35.3557 0.0000 -1.3189 0.0000
# 3 8.9343 35.3557 96.6937 0.0000 -18.1542 0.0000
# 4 0.0000 0.0000 0.0000 28.2829 0.0000 -3.6984
# 5 -1.5762 -1.3189 -18.1542 0.0000 19.9384 0.0000
# 6 0.0000 0.0000 0.0000 -3.6984 0.0000 12.4855
#
#
#
# Elastic Compliance Matrix: (Units=1/GPa)
#
#
# Indices 1 2 3 4 5 6 
#
# 1 0.040741 -0.005027 -0.001669 0.000000 0.001368 0.000000
# 2 -0.005027 0.008007 -0.002941 0.000000 -0.002546 0.000000
# 3 -0.001669 -0.002941 0.013884 0.000000 0.012315 0.000000
# 4 0.000000 0.000000 0.000000 0.036782 0.000000 0.010895
# 5 0.001368 -0.002546 0.012315 0.000000 0.061307 0.000000
# 6 0.000000 0.000000 0.000000 0.010895 0.000000 0.083320
#
#
# Mechanical properties :
#
#
# Convention : Reuss Voigt Hill
#
# Bulk Modulus (GPa) = 23.06447 44.74851 33.90649
# Shear Modulus (GPa) = 18.00061 26.13165 22.06613
#
# Velocity S-wave (km/s) = 2.89465 3.48768 3.20491
# Velocity P-wave (km/s) = 4.68062 6.08673 5.42939
#
# Compressibility (1/GPa) = 0.04335673
#
# Stress axis : x y z
#
# Youngs Moduli (GPa) = 24.54503 124.89503 72.02705
#
# Poissons Ratio (x) = 0.62785 0.12024
# Poissons Ratio (y) = 0.12339 0.21184
# Poissons Ratio (z) = 0.04098 0.36733
#
# Static dielectric constant tensor:
#      x y z
#    x 3.621640 0.000000 -0.238120 
#    y 0.000000 4.204990 0.000000 
#    z -0.238120 0.000000 3.736670 
# 
# 
# High freq. dielectric constant tensor:
#      x y z
#    x 1.825810 0.000000 -0.019870 
#    y 0.000000 1.854510 0.000000 
#    z -0.019870 0.000000 1.791500 
# 
# From -- ./inp_files/153386.got.cif
#   From: 2010.06.25/outbox.cif.g09.slc.cpg/sg12_77_cif.got.tgz:153386.got - 2010.06.28 00:19:55.
