data_PCOD8096795
_publ_section_title
;
Structure prediction by ZEFSAII (Michael W. Deem and Ramdas Pophale) SiO2 
 PCOD8096795
Probable space group: C 2/M
;
_chemical_formula_sum "Si O2"
_cell_formula_units_Z 64
_cell_length_a 27.301709
_cell_length_b 9.118402
_cell_length_c 19.263601
_cell_angle_alpha 90.000000
_cell_angle_beta 130.718275
_cell_angle_gamma 90.000000
_cell_volume 3634.737258
_symmetry_space_group_name_H-M "C 2/M"
_symmetry_group_IT_number 12
_symmetry_cell_setting 'monoclinic'
loop_
_space_group_symop_operation_xyz
x,y,z
-x,y,-z
-x,-y,-z
x,-y,z
1/2+x,1/2+y,z
1/2-x,1/2+y,-z
1/2-x,1/2-y,-z
1/2+x,1/2-y,z
loop_
_atom_site_type_symbol
_atom_site_label
_atom_site_fract_x
_atom_site_fract_y
_atom_site_fract_z
Si Si1 0.705389 0.324962 0.401389
Si Si2 0.328000 0.668293 0.257759
Si Si3 0.720002 0.332342 0.641126
Si Si4 0.955436 0.335262 0.382171
Si Si5 0.695649 0.175084 0.904342
Si Si6 0.435623 0.338942 0.693861
Si Si7 0.922473 0.836339 0.519319
Si Si8 0.554147 0.838423 0.791700
O O1 0.709931 0.500000 0.413304
O O2 0.750000 0.250000 0.500000
O O3 0.727014 0.272638 0.344927
O O4 0.632089 0.267951 0.344608
O O5 0.338428 0.500000 0.243370
O O6 0.275534 0.677344 0.271218
O O7 0.396288 0.730206 0.351130
O O8 0.299775 0.765125 0.169675
O O9 0.730137 0.500000 0.625042
O O10 0.649717 0.273755 0.552705
O O11 0.946811 0.500000 0.403754
O O12 0.955189 0.339791 0.299146
O O13 0.025810 0.270637 0.471627
O O14 0.626507 0.221279 0.873613
O O15 0.703966 0.000000 0.910058
O O16 0.750000 0.250000 0.000000
O O17 0.440198 0.500000 0.730805
O O18 0.440902 0.345271 0.616385
O O19 0.498569 0.252766 0.779608
O O20 0.925403 0.000000 0.488790
O O21 0.547658 0.000000 0.816711
#
# Coordination Sequence:
#
# PCOD8096795 Si02
#       8
#     8   8   8   8   8   8   8   8
#     4  11  21  33  49  70  96 131 176 222 262 297
#     4  10  20  34  51  70  98 133 165 202 250 298
#     4  10  21  35  48  67  95 130 174 215 253 300
#     4   9  17  29  44  65  94 126 167 207 244 292
#     4  10  20  35  56  82 108 130 160 196 240 301
#     4   9  17  29  46  67  94 128 168 211 250 292
#     4   9  16  29  45  62  90 127 170 211 249 292
#     4   8  16  29  46  71  99 126 158 198 240 289
#
# _framework density 17.607876000000001
#
# number of rings (size 3 to 8) (size 9 to 14) (size 15 to 20)
#    0.000    2.500    1.250    2.250    0.000    6.500 
#    0.000    2.500    0.000    0.000    0.000    0.875 
#    0.000    7.000    0.000    0.000    0.000    0.000 
#
# Total GULP energy -396704.767932 kJ/mol
# GULP energy per Si atom -12397.023998 kJ/mol
# Density = 1.756780 g / cm^3
# Si number density = 17.607876 Si / 1000 Ang^3
#
#
#
# Elastic Constant Matrix: (Units=GPa)
#
#
# Indices 1 2 3 4 5 6 
#
# 1 110.8181 56.8984 33.7919 0.0000 22.2523 0.0000
# 2 56.8984 95.7542 32.6310 0.0000 14.5254 0.0000
# 3 33.7919 32.6310 72.5738 0.0000 22.3125 0.0000
# 4 0.0000 0.0000 0.0000 23.6986 0.0000 4.2021
# 5 22.2523 14.5254 22.3125 0.0000 23.5794 0.0000
# 6 0.0000 0.0000 0.0000 4.2021 0.0000 31.7809
#
#
#
# Elastic Compliance Matrix: (Units=1/GPa)
#
#
# Indices 1 2 3 4 5 6 
#
# 1 0.014686 -0.007082 -0.001035 0.000000 -0.008517 0.000000
# 2 -0.007082 0.015934 -0.004095 0.000000 0.000742 0.000000
# 3 -0.001035 -0.004095 0.021192 0.000000 -0.016553 0.000000
# 4 0.000000 0.000000 0.000000 0.043210 0.000000 -0.005713
# 5 -0.008517 0.000742 -0.016553 0.000000 0.065654 0.000000
# 6 0.000000 0.000000 0.000000 -0.005713 0.000000 0.032221
#
#
# Mechanical properties :
#
#
# Convention : Reuss Voigt Hill
#
# Bulk Modulus (GPa) = 36.51370 58.42096 47.46733
# Shear Modulus (GPa) = 22.07992 26.20010 24.14001
#
# Velocity S-wave (km/s) = 3.54500 3.86161 3.70669
# Velocity P-wave (km/s) = 6.12684 7.28928 6.73320
#
# Compressibility (1/GPa) = 0.02738698
#
# Stress axis : x y z
#
# Youngs Moduli (GPa) = 68.09343 62.75729 47.18816
#
# Poissons Ratio (x) = 0.44442 0.04886
# Poissons Ratio (y) = 0.48221 0.19326
# Poissons Ratio (z) = 0.07050 0.25702
#
# Static dielectric constant tensor:
#      x y z
#    x 3.351250 0.000000 0.188450 
#    y 0.000000 3.495360 0.000000 
#    z 0.188450 0.000000 3.016610 
# 
# 
# High freq. dielectric constant tensor:
#      x y z
#    x 1.674250 0.000000 0.012280 
#    y 0.000000 1.688130 0.000000 
#    z 0.012280 0.000000 1.642170 
# 
# From -- ./inp_files/326944.got.cif
#   From: 2010.06.25/outbox.cif.g09.slc.cpg/sg12_164_cif.got.tgz:326944.got - 2010.06.28 00:19:55.
