data_PCOD8096110
_publ_section_title
;
Structure prediction by ZEFSAII (Michael W. Deem and Ramdas Pophale) SiO2 
 PCOD8096110
Probable space group: C 2/M
;
_chemical_formula_sum "Si O2"
_cell_formula_units_Z 64
_cell_length_a 25.515275
_cell_length_b 9.417812
_cell_length_c 13.529799
_cell_angle_alpha 90.000000
_cell_angle_beta 87.937412
_cell_angle_gamma 90.000000
_cell_volume 3249.078076
_symmetry_space_group_name_H-M "C 2/M"
_symmetry_group_IT_number 12
_symmetry_cell_setting 'monoclinic'
loop_
_space_group_symop_operation_xyz
x,y,z
-x,y,-z
-x,-y,-z
x,-y,z
1/2+x,1/2+y,z
1/2-x,1/2+y,-z
1/2-x,1/2-y,-z
1/2+x,1/2-y,z
loop_
_atom_site_type_symbol
_atom_site_label
_atom_site_fract_x
_atom_site_fract_y
_atom_site_fract_z
Si Si1 0.490788 0.832717 0.653587
Si Si2 0.443111 0.343955 0.008659
Si Si3 0.413992 0.833410 0.482691
Si Si4 0.923655 0.157100 0.784778
Si Si5 0.172367 0.333441 0.174865
Si Si6 0.650340 0.163055 0.950904
Si Si7 0.202047 0.664678 0.551903
Si Si8 0.270265 0.837756 0.226556
O O1 0.443211 0.793662 0.581881
O O2 0.547362 0.782690 0.608667
O O3 0.477479 0.737053 0.749751
O O4 0.490774 0.000000 0.678286
O O5 0.447691 0.500000 0.059091
O O6 0.421768 0.362213 0.900919
O O7 0.500000 0.269603 0.000000
O O8 0.402551 0.248114 0.071598
O O9 0.354602 0.771426 0.480103
O O10 0.408897 0.000000 0.471923
O O11 0.874715 0.258231 0.762448
O O12 0.919198 0.000000 0.735517
O O13 0.168211 0.500000 0.195916
O O14 0.223501 0.272791 0.223324
O O15 0.173565 0.299919 0.057421
O O16 0.691023 0.205330 0.864119
O O17 0.634405 0.000000 0.946550
O O18 0.208348 0.500000 0.520702
O O19 0.250000 0.750000 0.500000
O O20 0.201911 0.681090 0.670146
O O21 0.250448 0.000000 0.213577
#
# Coordination Sequence:
#
# PCOD8096110 Si02
#       8
#     8   8   8   8   8   8   8   8
#     4   9  17  33  58  82 102 135 180 224 269 320
#     4   9  19  35  52  73 106 145 176 210 261 318
#     4   8  17  35  56  77 105 138 176 223 271 318
#     4  10  20  33  51  78 110 139 172 218 271 317
#     4  10  20  34  54  79 107 141 184 223 261 322
#     4   9  19  35  54  79 108 138 176 223 269 318
#     4  10  22  39  56  78 110 147 183 222 271 328
#     4  10  21  36  54  78 108 141 177 222 277 320
#
# _framework density 19.697894999999999
#
# number of rings (size 3 to 8) (size 9 to 14) (size 15 to 20)
#    0.000    2.625    0.000    1.875    1.750    3.250 
#    0.000    3.125    0.000    0.000    0.000    0.000 
#    0.000    0.000    0.000    0.000    0.000    0.000 
#
# Total GULP energy -396615.980865 kJ/mol
# GULP energy per Si atom -12394.249402 kJ/mol
# Density = 1.965306 g / cm^3
# Si number density = 19.697895 Si / 1000 Ang^3
#
#
#
# Elastic Constant Matrix: (Units=GPa)
#
#
# Indices 1 2 3 4 5 6 
#
# 1 139.8139 47.8339 15.8019 0.0000 -7.3461 0.0000
# 2 47.8339 77.5498 15.8440 0.0000 -10.3180 0.0000
# 3 15.8019 15.8440 34.2574 0.0000 -14.9286 0.0000
# 4 0.0000 0.0000 0.0000 11.9750 0.0000 -5.5330
# 5 -7.3461 -10.3180 -14.9286 0.0000 30.3466 0.0000
# 6 0.0000 0.0000 0.0000 -5.5330 0.0000 28.2439
#
#
#
# Elastic Compliance Matrix: (Units=1/GPa)
#
#
# Indices 1 2 3 4 5 6 
#
# 1 0.009171 -0.005321 -0.002024 0.000000 -0.000585 0.000000
# 2 -0.005321 0.017428 -0.004563 0.000000 0.002393 0.000000
# 3 -0.002024 -0.004563 0.039899 0.000000 0.017586 0.000000
# 4 0.000000 0.000000 0.000000 0.091818 0.000000 0.017987
# 5 -0.000585 0.002393 0.017586 0.000000 0.042276 0.000000
# 6 0.000000 0.000000 0.000000 0.017987 0.000000 0.038930
#
#
# Mechanical properties :
#
#
# Convention : Reuss Voigt Hill
#
# Bulk Modulus (GPa) = 23.42999 45.62006 34.52503
# Shear Modulus (GPa) = 18.01386 25.58919 21.80152
#
# Velocity S-wave (km/s) = 3.02736 3.60819 3.33046
# Velocity P-wave (km/s) = 4.91329 6.36937 5.68811
#
# Compressibility (1/GPa) = 0.04268034
#
# Stress axis : x y z
#
# Youngs Moduli (GPa) = 109.04119 57.38011 25.06358
#
# Poissons Ratio (x) = 0.30532 0.05073
# Poissons Ratio (y) = 0.58021 0.11437
# Poissons Ratio (z) = 0.22072 0.26184
#
# Static dielectric constant tensor:
#      x y z
#    x 3.822610 0.000000 -0.081420 
#    y 0.000000 3.634490 0.000000 
#    z -0.081420 0.000000 3.523200 
# 
# 
# High freq. dielectric constant tensor:
#      x y z
#    x 1.773650 0.000000 -0.010780 
#    y 0.000000 1.752700 0.000000 
#    z -0.010780 0.000000 1.755150 
# 
# From -- ./inp_files/238718.got.cif
#   From: 2010.06.25/outbox.cif.g09.slc.cpg/sg12_120_cif.got.tgz:238718.got - 2010.06.28 00:19:55.
