data_PCOD8096801
_publ_section_title
;
Structure prediction by ZEFSAII (Michael W. Deem and Ramdas Pophale) SiO2 
 PCOD8096801
Probable space group: C 2/M
;
_chemical_formula_sum "Si O2"
_cell_formula_units_Z 48
_cell_length_a 18.602356
_cell_length_b 9.090263
_cell_length_c 16.727367
_cell_angle_alpha 90.000000
_cell_angle_beta 89.514117
_cell_angle_gamma 90.000000
_cell_volume 2828.501211
_symmetry_space_group_name_H-M "C 2/M"
_symmetry_group_IT_number 12
_symmetry_cell_setting 'monoclinic'
loop_
_space_group_symop_operation_xyz
x,y,z
-x,y,-z
-x,-y,-z
x,-y,z
1/2+x,1/2+y,z
1/2-x,1/2+y,-z
1/2-x,1/2-y,-z
1/2+x,1/2-y,z
loop_
_atom_site_type_symbol
_atom_site_label
_atom_site_fract_x
_atom_site_fract_y
_atom_site_fract_z
Si Si1 0.014772 0.166894 0.587246
Si Si2 0.433167 0.333105 0.738487
Si Si3 0.419680 0.174209 0.997892
Si Si4 0.069669 0.670514 0.724844
Si Si5 0.170330 0.674003 0.154324
Si Si6 0.819903 0.670886 0.142981
O O1 0.075330 0.261437 0.634718
O O2 0.000000 0.235847 0.500000
O O3 0.941179 0.170396 0.641169
O O4 0.043415 0.000000 0.577809
O O5 0.430314 0.500000 0.770392
O O6 0.504277 0.251106 0.773271
O O7 0.361313 0.247795 0.765097
O O8 0.379753 0.226757 0.918181
O O9 0.424976 0.000000 0.999926
O O10 0.500000 0.242540 0.000000
O O11 0.374428 0.228056 0.074672
O O12 0.049704 0.500000 0.719824
O O13 0.143811 0.695444 0.770858
O O14 0.171759 0.500000 0.164569
O O15 0.250028 0.729883 0.137917
O O16 0.799645 0.500000 0.130268
#
# Coordination Sequence:
#
# PCOD8096801 Si02
#       6
#     8   8   8   8   8   8
#     4   8  16  31  52  77 103 131 162 202 253 302
#     4   9  18  32  51  73 101 132 164 203 253 304
#     4   9  18  33  52  72  97 132 172 213 253 294
#     4   9  17  30  51  77 100 128 168 208 247 294
#     4  11  21  32  50  74 101 134 175 214 248 294
#     4  10  20  34  51  71 103 140 170 205 254 302
#
# _framework density 16.970119
#
# number of rings (size 3 to 8) (size 9 to 14) (size 15 to 20)
#    1.000    1.667    0.000    2.500    0.000    4.333 
#    0.000    0.833    0.000    4.500    0.000    0.000 
#    0.000    0.000    0.000    0.000    0.000    0.000 
#
# Total GULP energy -297404.723988 kJ/mol
# GULP energy per Si atom -12391.863499 kJ/mol
# Density = 1.693149 g / cm^3
# Si number density = 16.970119 Si / 1000 Ang^3
#
#
#
# Elastic Constant Matrix: (Units=GPa)
#
#
# Indices 1 2 3 4 5 6 
#
# 1 112.7437 48.7290 51.2195 0.0000 -1.4849 0.0000
# 2 48.7290 87.3253 42.2613 0.0000 3.8801 0.0000
# 3 51.2195 42.2613 102.8050 0.0000 6.0119 0.0000
# 4 0.0000 0.0000 0.0000 21.2769 0.0000 -2.2238
# 5 -1.4849 3.8801 6.0119 0.0000 14.5617 0.0000
# 6 0.0000 0.0000 0.0000 -2.2238 0.0000 28.6905
#
#
#
# Elastic Compliance Matrix: (Units=1/GPa)
#
#
# Indices 1 2 3 4 5 6 
#
# 1 0.013425 -0.005407 -0.004745 0.000000 0.004769 0.000000
# 2 -0.005407 0.016502 -0.003894 0.000000 -0.003341 0.000000
# 3 -0.004745 -0.003894 0.013998 0.000000 -0.005225 0.000000
# 4 0.000000 0.000000 0.000000 0.047383 0.000000 0.003673
# 5 0.004769 -0.003341 -0.005225 0.000000 0.072207 0.000000
# 6 0.000000 0.000000 0.000000 0.003673 0.000000 0.035139
#
#
# Mechanical properties :
#
#
# Convention : Reuss Voigt Hill
#
# Bulk Modulus (GPa) = 63.16287 65.25486 64.20887
# Shear Modulus (GPa) = 21.54955 23.61675 22.58315
#
# Velocity S-wave (km/s) = 3.56737 3.73455 3.65192
# Velocity P-wave (km/s) = 7.36675 7.55858 7.46328
#
# Compressibility (1/GPa) = 0.01583209
#
# Stress axis : x y z
#
# Youngs Moduli (GPa) = 74.48792 60.59955 71.44127
#
# Poissons Ratio (x) = 0.32766 0.33897
# Poissons Ratio (y) = 0.40276 0.27822
# Poissons Ratio (z) = 0.35342 0.23599
#
# Static dielectric constant tensor:
#      x y z
#    x 2.996330 0.000000 0.007370 
#    y 0.000000 3.063260 0.000000 
#    z 0.007370 0.000000 3.167410 
# 
# 
# High freq. dielectric constant tensor:
#      x y z
#    x 1.633080 0.000000 -0.001300 
#    y 0.000000 1.649980 0.000000 
#    z -0.001300 0.000000 1.645850 
# 
# From -- ./inp_files/273609.got.cif
#   From: 2010.06.25/outbox.cif.g09.slc.cpg/sg12_137_cif.got.tgz:273609.got - 2010.06.28 00:19:55.
