data_PCOD8096472
_publ_section_title
;
Structure prediction by ZEFSAII (Michael W. Deem and Ramdas Pophale) SiO2 
 PCOD8096472
Probable space group: C 2/M
;
_chemical_formula_sum "Si O2"
_cell_formula_units_Z 64
_cell_length_a 20.145057
_cell_length_b 19.470776
_cell_length_c 16.450282
_cell_angle_alpha 90.000000
_cell_angle_beta 31.256897
_cell_angle_gamma 90.000000
_cell_volume 3348.026059
_symmetry_space_group_name_H-M "C 2/M"
_symmetry_group_IT_number 12
_symmetry_cell_setting 'monoclinic'
loop_
_space_group_symop_operation_xyz
x,y,z
-x,y,-z
-x,-y,-z
x,-y,z
1/2+x,1/2+y,z
1/2-x,1/2+y,-z
1/2-x,1/2-y,-z
1/2+x,1/2-y,z
loop_
_atom_site_type_symbol
_atom_site_label
_atom_site_fract_x
_atom_site_fract_y
_atom_site_fract_z
Si Si1 0.715023 0.332578 0.866746
Si Si2 0.531436 0.138361 0.311325
Si Si3 0.292333 0.077374 0.638377
Si Si4 0.830497 0.577723 0.982165
Si Si5 0.088643 0.079381 0.135426
Si Si6 0.863029 0.699719 0.361752
Si Si7 0.439979 0.196269 0.977472
Si Si8 0.301528 0.576782 0.442599
O O1 0.855684 0.325042 0.757810
O O2 0.722951 0.372912 0.774122
O O3 0.621852 0.373162 0.024371
O O4 0.662475 0.256752 0.904135
O O5 0.440414 0.097625 0.468687
O O6 0.584820 0.085505 0.187971
O O7 0.452818 0.197713 0.347373
O O8 0.211588 0.083450 0.640608
O O9 0.289920 0.000000 0.675470
O O10 0.846300 0.500000 0.998050
O O11 0.872393 0.630152 0.008366
O O12 0.683361 0.593191 0.111919
O O13 0.946030 0.097795 0.314862
O O14 0.096972 0.000000 0.098377
O O15 0.750000 0.750000 0.500000
O O16 0.801544 0.625309 0.405603
O O17 0.945128 0.724276 0.199234
O O18 0.500000 0.173800 0.000000
O O19 0.270215 0.500000 0.505084
#
# Coordination Sequence:
#
# PCOD8096472 Si02
#       8
#     8   8   8   8   8   8   8   8
#     4  11  22  33  52  78 124 155 181 226 277 337
#     4   9  20  35  56  85 108 146 192 231 276 336
#     4  10  20  33  53  84 122 157 186 221 273 337
#     4   9  19  39  62  82 107 142 194 250 291 331
#     4   9  18  33  58  88 112 145 188 229 279 342
#     4  10  21  37  59  78 105 149 190 232 281 328
#     4  11  26  39  55  83 114 150 193 240 288 342
#     4   9  19  35  57  85 111 141 185 229 277 339
#
# _framework density 19.115741
#
# number of rings (size 3 to 8) (size 9 to 14) (size 15 to 20)
#    0.000    2.250    0.000    1.875    5.250   10.750 
#    0.000    1.875    0.000    0.000    0.000    2.625 
#    0.000    0.000    0.000    0.000    0.000    0.000 
#
# Total GULP energy -396822.132797 kJ/mol
# GULP energy per Si atom -12400.691650 kJ/mol
# Density = 1.907223 g / cm^3
# Si number density = 19.115741 Si / 1000 Ang^3
#
#
#
# Elastic Constant Matrix: (Units=GPa)
#
#
# Indices 1 2 3 4 5 6 
#
# 1 86.8475 46.9168 35.7523 0.0020 -10.2351 -0.0015
# 2 46.9168 105.9001 44.7252 0.0007 -0.6097 -0.0010
# 3 35.7523 44.7252 78.7213 0.0031 -13.9310 -0.0032
# 4 0.0020 0.0007 0.0031 33.3853 -0.0015 -5.0343
# 5 -10.2351 -0.6097 -13.9310 -0.0015 30.8478 0.0014
# 6 -0.0015 -0.0010 -0.0032 -5.0343 0.0014 21.0747
#
#
#
# Elastic Compliance Matrix: (Units=1/GPa)
#
#
# Indices 1 2 3 4 5 6 
#
# 1 0.016563 -0.005818 -0.003549 0.000000 0.003778 0.000000
# 2 -0.005818 0.014764 -0.006560 0.000000 -0.004601 0.000000
# 3 -0.003549 -0.006560 0.019358 -0.000001 0.007435 0.000002
# 4 0.000000 0.000000 -0.000001 0.031073 0.000001 0.007423
# 5 0.003778 -0.004601 0.007435 0.000001 0.036937 -0.000001
# 6 0.000000 0.000000 0.000002 0.007423 -0.000001 0.049223
#
#
# Mechanical properties :
#
#
# Convention : Reuss Voigt Hill
#
# Bulk Modulus (GPa) = 53.10073 58.47306 55.78689
# Shear Modulus (GPa) = 24.26600 26.66653 25.46626
#
# Velocity S-wave (km/s) = 3.56676 3.73903 3.65391
# Velocity P-wave (km/s) = 6.69337 7.02110 6.85919
#
# Compressibility (1/GPa) = 0.01883213
#
# Stress axis : x y z
#
# Youngs Moduli (GPa) = 60.37449 67.73040 51.65890
#
# Poissons Ratio (x) = 0.39402 0.18332
# Poissons Ratio (y) = 0.35123 0.33891
# Poissons Ratio (z) = 0.21425 0.44434
#
# Static dielectric constant tensor:
#      x y z
#    x 3.500800 0.000000 -0.277480 
#    y 0.000000 3.644670 0.000000 
#    z -0.277480 0.000000 3.542410 
# 
# 
# High freq. dielectric constant tensor:
#      x y z
#    x 1.732580 0.000000 -0.026840 
#    y 0.000000 1.741320 0.000000 
#    z -0.026840 0.000000 1.741530 
# 
# From -- ./inp_files/285183.got.cif
#   From: 2010.06.25/outbox.cif.g09.slc.cpg/sg12_143_cif.got.tgz:285183.got - 2010.06.28 00:19:55.
