data_PCOD8096297
_publ_section_title
;
Structure prediction by ZEFSAII (Michael W. Deem and Ramdas Pophale) SiO2 
 PCOD8096297
Probable space group: C 2/M
;
_chemical_formula_sum "Si O2"
_cell_formula_units_Z 64
_cell_length_a 24.610499
_cell_length_b 8.832921
_cell_length_c 31.660925
_cell_angle_alpha 90.000000
_cell_angle_beta 28.292684
_cell_angle_gamma 90.000000
_cell_volume 3262.154405
_symmetry_space_group_name_H-M "C 2/M"
_symmetry_group_IT_number 12
_symmetry_cell_setting 'monoclinic'
loop_
_space_group_symop_operation_xyz
x,y,z
-x,y,-z
-x,-y,-z
x,-y,z
1/2+x,1/2+y,z
1/2-x,1/2+y,-z
1/2-x,1/2-y,-z
1/2+x,1/2-y,z
loop_
_atom_site_type_symbol
_atom_site_label
_atom_site_fract_x
_atom_site_fract_y
_atom_site_fract_z
Si Si1 0.526616 0.678256 0.435106
Si Si2 0.248307 0.319210 0.767826
Si Si3 0.126294 0.677779 0.081813
Si Si4 0.708797 0.179342 0.888573
Si Si5 0.588930 0.674710 0.190397
Si Si6 0.100722 0.669161 0.633681
Si Si7 0.351483 0.328657 0.483357
Si Si8 0.998634 0.679998 0.915555
O O1 0.500000 0.747623 0.500000
O O2 0.542765 0.500000 0.428711
O O3 0.643718 0.744415 0.333321
O O4 0.417948 0.719472 0.480281
O O5 0.253056 0.500000 0.764936
O O6 0.249023 0.255409 0.815605
O O7 0.128470 0.258943 0.830292
O O8 0.140041 0.500000 0.067951
O O9 0.060298 0.723403 0.169387
O O10 0.055501 0.743272 0.090682
O O11 0.250000 0.750000 0.000000
O O12 0.795542 0.232110 0.865847
O O13 0.711779 0.000000 0.882938
O O14 0.581153 0.233089 0.990178
O O15 0.599022 0.500000 0.170555
O O16 0.484110 0.700380 0.293374
O O17 0.047993 0.500000 0.672683
O O18 0.215070 0.676062 0.584110
O O19 0.122685 0.705446 0.569856
O O20 0.388747 0.500000 0.444511
O O21 0.001279 0.500000 0.913020
#
# Coordination Sequence:
#
# PCOD8096297 Si02
#       8
#     8   8   8   8   8   8   8   8
#     4   9  17  29  47  73 105 138 172 214 264 313
#     4   9  16  26  45  73 102 132 167 214 268 312
#     4  11  21  35  52  74 106 142 178 214 258 311
#     4   9  16  28  47  72 102 133 168 214 268 315
#     4  11  21  34  53  78 108 141 177 217 262 315
#     4  10  20  33  52  80 108 138 176 219 266 317
#     4   9  18  34  54  76 107 141 174 220 271 317
#     4   9  17  29  46  72 104 133 168 217 266 310
#
# _framework density 19.618936999999999
#
# number of rings (size 3 to 8) (size 9 to 14) (size 15 to 20)
#    0.000    2.375    1.250    2.250    0.000    5.000 
#    0.000    3.750    0.000    0.375    0.000   11.375 
#    0.000    0.000    0.000    0.000    0.000    0.000 
#
# Total GULP energy -396601.297732 kJ/mol
# GULP energy per Si atom -12393.790554 kJ/mol
# Density = 1.957428 g / cm^3
# Si number density = 19.618937 Si / 1000 Ang^3
#
#
#
# Elastic Constant Matrix: (Units=GPa)
#
#
# Indices 1 2 3 4 5 6 
#
# 1 144.4162 21.7037 57.1260 -0.0264 0.3076 0.2014
# 2 21.7037 27.7924 14.0130 -0.0755 -3.1415 0.2833
# 3 57.1260 14.0130 107.1348 0.1177 -1.4090 -0.0535
# 4 -0.0264 -0.0755 0.1177 22.0473 -0.0352 1.2213
# 5 0.3076 -3.1415 -1.4090 -0.0352 29.4775 0.0014
# 6 0.2014 0.2833 -0.0535 1.2213 0.0014 19.1801
#
#
#
# Elastic Compliance Matrix: (Units=1/GPa)
#
#
# Indices 1 2 3 4 5 6 
#
# 1 0.009442 -0.005275 -0.004356 0.000017 -0.000869 -0.000034
# 2 -0.005275 0.041922 -0.002613 0.000191 0.004398 -0.000584
# 3 -0.004356 -0.002613 0.012003 -0.000085 0.000341 0.000123
# 4 0.000017 0.000191 -0.000085 0.045519 0.000071 -0.002902
# 5 -0.000869 0.004398 0.000341 0.000071 0.034418 -0.000062
# 6 -0.000034 -0.000584 0.000123 -0.002902 -0.000062 0.052332
#
#
# Mechanical properties :
#
#
# Convention : Reuss Voigt Hill
#
# Bulk Modulus (GPa) = 25.72132 51.66985 38.69559
# Shear Modulus (GPa) = 21.45143 26.57435 24.01289
#
# Velocity S-wave (km/s) = 3.31025 3.68438 3.50232
# Velocity P-wave (km/s) = 5.26776 6.67034 6.01011
#
# Compressibility (1/GPa) = 0.03887825
#
# Stress axis : x y z
#
# Youngs Moduli (GPa) = 105.90647 23.85401 83.31040
#
# Poissons Ratio (x) = 0.12583 0.36292
# Poissons Ratio (y) = 0.55866 0.21770
# Poissons Ratio (z) = 0.46136 0.06233
#
# Static dielectric constant tensor:
#      x y z
#    x 3.955970 0.000070 0.084720 
#    y 0.000070 3.098670 0.000150 
#    z 0.084720 0.000150 3.851020 
# 
# 
# High freq. dielectric constant tensor:
#      x y z
#    x 1.771920 -0.000030 -0.002060 
#    y -0.000030 1.705330 0.000000 
#    z -0.002060 0.000000 1.770470 
# 
# From -- ./inp_files/382367.got.cif
#   From: 2010.06.25/outbox.cif.g09.slc.cpg/sg12_192_cif.got.tgz:382367.got - 2010.06.28 00:19:55.
