data_PCOD8096702
_publ_section_title
;
Structure prediction by ZEFSAII (Michael W. Deem and Ramdas Pophale) SiO2 
 PCOD8096702
Probable space group: C 2/M
;
_chemical_formula_sum "Si O2"
_cell_formula_units_Z 56
_cell_length_a 23.418698
_cell_length_b 13.699372
_cell_length_c 9.725822
_cell_angle_alpha 90.000000
_cell_angle_beta 63.037419
_cell_angle_gamma 90.000000
_cell_volume 2781.089764
_symmetry_space_group_name_H-M "C 2/M"
_symmetry_group_IT_number 12
_symmetry_cell_setting 'monoclinic'
loop_
_space_group_symop_operation_xyz
x,y,z
-x,y,-z
-x,-y,-z
x,-y,z
1/2+x,1/2+y,z
1/2-x,1/2+y,-z
1/2-x,1/2-y,-z
1/2+x,1/2-y,z
loop_
_atom_site_type_symbol
_atom_site_label
_atom_site_fract_x
_atom_site_fract_y
_atom_site_fract_z
Si Si1 0.574086 0.212224 0.962993
Si Si2 0.567358 0.195941 0.493313
Si Si3 0.145972 0.777375 0.629222
Si Si4 0.738904 0.111134 0.579768
Si Si5 0.937992 0.500000 0.978698
Si Si6 0.523097 0.000000 0.628870
Si Si7 0.645698 0.230060 0.147281
Si Si8 0.755204 0.114557 0.879965
O O1 0.600033 0.098627 0.939099
O O2 0.588390 0.252862 0.100233
O O3 0.500000 0.217215 0.000000
O O4 0.614408 0.277022 0.813705
O O5 0.500000 0.226871 0.500000
O O6 0.591887 0.280484 0.569139
O O7 0.616844 0.180584 0.314937
O O8 0.563371 0.099996 0.597886
O O9 0.191220 0.871648 0.565319
O O10 0.187685 0.679294 0.559444
O O11 0.742261 0.140146 0.735812
O O12 0.718518 0.000000 0.578780
O O13 0.960917 0.500000 0.795081
O O14 0.000000 0.500000 0.000000
O O15 0.500000 0.000000 0.500000
O O16 0.679696 0.332409 0.143947
O O17 0.695747 0.152054 0.033833
O O18 0.764264 0.000000 0.894531
#
# Coordination Sequence:
#
# PCOD8096702 Si02
#       8
#     8   8   8   8   4   4   8   8
#     4  11  22  36  60  88 124 157 195 238 295 362
#     4  11  22  36  55  85 127 159 189 239 295 357
#     4  11  22  38  61  90 115 155 200 243 294 356
#     4  10  22  41  62  86 115 157 203 251 293 344
#     4  10  20  34  52  84 122 164 196 216 277 368
#     4  10  20  34  48  80 126 158 188 224 283 348
#     4  11  22  38  61  90 116 157 200 243 299 357
#     4  10  22  41  63  85 115 157 205 250 292 346
#
# _framework density 20.13599
#
# number of rings (size 3 to 8) (size 9 to 14) (size 15 to 20)
#    0.000    1.429    2.857    4.286    4.000    0.000 
#    0.000    2.143    0.000    5.143    0.000    0.000 
#    0.000    0.000    0.000    0.000    0.000    0.000 
#
# Total GULP energy -347112.559631 kJ/mol
# GULP energy per Si atom -12396.877130 kJ/mol
# Density = 2.009016 g / cm^3
# Si number density = 20.135990 Si / 1000 Ang^3
#
#
#
# Elastic Constant Matrix: (Units=GPa)
#
#
# Indices 1 2 3 4 5 6 
#
# 1 84.6665 19.2723 -7.0740 0.0000 8.5190 0.0000
# 2 19.2723 55.8089 6.0041 0.0000 -0.6258 0.0000
# 3 -7.0740 6.0041 90.9956 0.0000 -1.5253 0.0000
# 4 0.0000 0.0000 0.0000 27.5999 0.0000 -1.7053
# 5 8.5190 -0.6258 -1.5253 0.0000 32.1655 0.0000
# 6 0.0000 0.0000 0.0000 -1.7053 0.0000 24.0249
#
#
#
# Elastic Compliance Matrix: (Units=1/GPa)
#
#
# Indices 1 2 3 4 5 6 
#
# 1 0.013371 -0.004797 0.001296 0.000000 -0.003573 0.000000
# 2 -0.004797 0.019770 -0.001651 0.000000 0.001577 0.000000
# 3 0.001296 -0.001651 0.011202 0.000000 0.000156 0.000000
# 4 0.000000 0.000000 0.000000 0.036392 0.000000 0.002583
# 5 -0.003573 0.001577 0.000156 0.000000 0.032074 0.000000
# 6 0.000000 0.000000 0.000000 0.002583 0.000000 0.041807
#
#
# Mechanical properties :
#
#
# Convention : Reuss Voigt Hill
#
# Bulk Modulus (GPa) = 29.37783 29.76398 29.57091
# Shear Modulus (GPa) = 28.36648 30.97597 29.67122
#
# Velocity S-wave (km/s) = 3.75740 3.92642 3.84284
# Velocity P-wave (km/s) = 5.78320 5.94721 5.86578
#
# Compressibility (1/GPa) = 0.03403927
#
# Stress axis : x y z
#
# Youngs Moduli (GPa) = 74.79030 50.58158 89.27097
#
# Poissons Ratio (x) = 0.24263 -0.11570
# Poissons Ratio (y) = 0.35875 0.14738
# Poissons Ratio (z) = -0.09693 0.08351
#
# Static dielectric constant tensor:
#      x y z
#    x 3.804600 0.000000 0.064750 
#    y 0.000000 4.873190 0.000000 
#    z 0.064750 0.000000 3.734740 
# 
# 
# High freq. dielectric constant tensor:
#      x y z
#    x 1.795570 0.000000 0.005330 
#    y 0.000000 1.745920 0.000000 
#    z 0.005330 0.000000 1.798910 
# 
# From -- ./inp_files/96818.got.cif
#   From: 2010.06.25/outbox.cif.g09.slc.cpg/sg12_49_cif.got.tgz:96818.got - 2010.06.28 00:19:55.
