data_PCOD8096290
_publ_section_title
;
Structure prediction by ZEFSAII (Michael W. Deem and Ramdas Pophale) SiO2 
 PCOD8096290
Probable space group: C 2/M
;
_chemical_formula_sum "Si O2"
_cell_formula_units_Z 64
_cell_length_a 26.835874
_cell_length_b 13.258442
_cell_length_c 9.337847
_cell_angle_alpha 90.000000
_cell_angle_beta 75.168254
_cell_angle_gamma 90.000000
_cell_volume 3211.726021
_symmetry_space_group_name_H-M "C 2/M"
_symmetry_group_IT_number 12
_symmetry_cell_setting 'monoclinic'
loop_
_space_group_symop_operation_xyz
x,y,z
-x,y,-z
-x,-y,-z
x,-y,z
1/2+x,1/2+y,z
1/2-x,1/2+y,-z
1/2-x,1/2-y,-z
1/2+x,1/2-y,z
loop_
_atom_site_type_symbol
_atom_site_label
_atom_site_fract_x
_atom_site_fract_y
_atom_site_fract_z
Si Si1 0.128234 0.724118 0.208061
Si Si2 0.344515 0.119818 0.245780
Si Si3 0.782533 0.116901 0.345817
Si Si4 0.715554 0.118428 0.983229
Si Si5 0.683257 0.763548 0.454009
Si Si6 0.523951 0.885596 0.339353
Si Si7 0.175093 0.883955 0.988374
Si Si8 0.956263 0.613887 0.124909
O O1 0.170289 0.642461 0.127950
O O2 0.140375 0.753914 0.364025
O O3 0.070975 0.679301 0.242017
O O4 0.130180 0.820277 0.098982
O O5 0.333893 0.159171 0.410973
O O6 0.399855 0.163967 0.152396
O O7 0.347071 0.000000 0.253263
O O8 0.301117 0.156000 0.163902
O O9 0.733704 0.187137 0.344878
O O10 0.806593 0.154976 0.478482
O O11 0.766261 0.000000 0.373793
O O12 0.823455 0.129543 0.185249
O O13 0.722995 0.000000 0.981296
O O14 0.771475 0.162844 0.985801
O O15 0.500000 0.837521 0.500000
O O16 0.474609 0.884698 0.273750
O O17 0.543883 0.000000 0.350576
O O18 0.166539 0.000000 0.035602
O O19 0.951303 0.500000 0.067603
O O20 0.000000 0.671977 0.000000
#
# Coordination Sequence:
#
# PCOD8096290 Si02
#       8
#     8   8   8   8   8   8   8   8
#     4  12  22  34  57  82 112 145 192 232 273 331
#     4  10  20  33  52  79 113 148 186 226 269 328
#     4  10  22  39  53  72 108 148 184 225 270 319
#     4  10  20  33  53  81 114 152 188 225 271 324
#     4  11  23  33  53  79 105 142 185 223 274 324
#     4  10  21  36  55  81 115 149 180 221 279 338
#     4  10  22  39  56  77 111 152 191 231 271 319
#     4   9  17  31  49  73 105 141 179 222 270 319
#
# _framework density 19.92698
#
# number of rings (size 3 to 8) (size 9 to 14) (size 15 to 20)
#    0.000    1.750    1.250    3.375    3.500    5.000 
#    0.000    0.000    0.000    0.375    0.000    0.875 
#    0.000   10.000    0.000    0.000    0.000    0.000 
#
# Total GULP energy -396667.486602 kJ/mol
# GULP energy per Si atom -12395.858956 kJ/mol
# Density = 1.988163 g / cm^3
# Si number density = 19.926980 Si / 1000 Ang^3
#
#
#
# Elastic Constant Matrix: (Units=GPa)
#
#
# Indices 1 2 3 4 5 6 
#
# 1 51.8629 18.4491 12.5871 0.0000 -9.3259 0.0000
# 2 18.4491 64.5979 27.1360 0.0000 -5.1235 0.0000
# 3 12.5871 27.1360 100.3434 0.0000 -5.5009 0.0000
# 4 0.0000 0.0000 0.0000 32.8590 0.0000 -5.9903
# 5 -9.3259 -5.1235 -5.5009 0.0000 35.0503 0.0000
# 6 0.0000 0.0000 0.0000 -5.9903 0.0000 15.8732
#
#
#
# Elastic Compliance Matrix: (Units=1/GPa)
#
#
# Indices 1 2 3 4 5 6 
#
# 1 0.022411 -0.005572 -0.001031 0.000000 0.004987 0.000000
# 2 -0.005572 0.018966 -0.004397 0.000000 0.000600 0.000000
# 3 -0.001031 -0.004397 0.011331 0.000000 0.000861 0.000000
# 4 0.000000 0.000000 0.000000 0.032681 0.000000 0.012333
# 5 0.004987 0.000600 0.000861 0.000000 0.030080 0.000000
# 6 0.000000 0.000000 0.000000 0.012333 0.000000 0.067654
#
#
# Mechanical properties :
#
#
# Convention : Reuss Voigt Hill
#
# Bulk Modulus (GPa) = 32.56460 37.01651 34.79055
# Shear Modulus (GPa) = 23.21693 27.33197 25.27445
#
# Velocity S-wave (km/s) = 3.41706 3.70754 3.56526
# Velocity P-wave (km/s) = 5.65206 6.07817 5.86899
#
# Compressibility (1/GPa) = 0.03070819
#
# Stress axis : x y z
#
# Youngs Moduli (GPa) = 44.62183 52.72464 88.24962
#
# Poissons Ratio (x) = 0.29377 0.09099
# Poissons Ratio (y) = 0.24863 0.38806
# Poissons Ratio (z) = 0.04601 0.23185
#
# Static dielectric constant tensor:
#      x y z
#    x 3.579420 0.000000 0.063990 
#    y 0.000000 3.465410 0.000000 
#    z 0.063990 0.000000 3.753970 
# 
# 
# High freq. dielectric constant tensor:
#      x y z
#    x 1.753940 0.000000 0.008220 
#    y 0.000000 1.753830 0.000000 
#    z 0.008220 0.000000 1.795170 
# 
# From -- ./inp_files/104548.got.cif
#   From: 2010.06.25/outbox.cif.g09.slc.cpg/sg12_53_cif.got.tgz:104548.got - 2010.06.28 00:19:55.
