data_PCOD8096564
_publ_section_title
;
Structure prediction by ZEFSAII (Michael W. Deem and Ramdas Pophale) SiO2 
 PCOD8096564
Probable space group: C 2/M
;
_chemical_formula_sum "Si O2"
_cell_formula_units_Z 48
_cell_length_a 22.378172
_cell_length_b 10.523341
_cell_length_c 24.643012
_cell_angle_alpha 90.000000
_cell_angle_beta 155.047522
_cell_angle_gamma 90.000000
_cell_volume 2448.200531
_symmetry_space_group_name_H-M "C 2/M"
_symmetry_group_IT_number 12
_symmetry_cell_setting 'monoclinic'
loop_
_space_group_symop_operation_xyz
x,y,z
-x,y,-z
-x,-y,-z
x,-y,z
1/2+x,1/2+y,z
1/2-x,1/2+y,-z
1/2-x,1/2-y,-z
1/2+x,1/2-y,z
loop_
_atom_site_type_symbol
_atom_site_label
_atom_site_fract_x
_atom_site_fract_y
_atom_site_fract_z
Si Si1 0.471048 0.720527 0.199596
Si Si2 0.845197 0.650218 0.886524
Si Si3 0.199368 0.641166 0.030808
Si Si4 0.833255 0.852295 0.363239
Si Si5 0.243376 0.639219 0.616177
Si Si6 0.139239 0.641248 0.420422
O O1 0.354416 0.631513 0.131695
O O2 0.609730 0.642390 0.296788
O O3 0.502135 0.829089 0.270713
O O4 0.408665 0.778176 0.093419
O O5 0.853946 0.500000 0.894911
O O6 0.794924 0.701551 0.903898
O O7 0.730348 0.690335 0.746826
O O8 0.000000 0.707677 0.000000
O O9 0.136199 0.500000 0.982664
O O10 0.763942 0.758775 0.350102
O O11 0.000000 0.830146 0.500000
O O12 0.797096 0.000000 0.347632
O O13 0.235379 0.500000 0.639032
O O14 0.115447 0.646457 0.466300
O O15 0.193915 0.500000 0.449323
O O16 0.250000 0.750000 0.500000
#
# Coordination Sequence:
#
# PCOD8096564 Si02
#       6
#     8   8   8   8   8   8
#     4  10  20  34  55  82 114 151 190 231 279 347
#     4   9  18  34  56  81 110 144 187 238 288 337
#     4  10  20  33  55  83 113 149 187 235 287 335
#     4  10  22  38  59  87 113 144 195 248 288 336
#     4  10  21  37  57  82 116 153 189 230 287 350
#     4   9  19  34  53  80 112 147 185 227 275 334
#
# _framework density 19.606238000000001
#
# number of rings (size 3 to 8) (size 9 to 14) (size 15 to 20)
#    0.000    2.333    0.000    2.000    2.333    5.667 
#    0.000    0.000    0.000    5.500    0.000    0.000 
#    0.000    0.000    0.000    0.000    0.000    0.000 
#
# Total GULP energy -297350.159212 kJ/mol
# GULP energy per Si atom -12389.589967 kJ/mol
# Density = 1.956161 g / cm^3
# Si number density = 19.606238 Si / 1000 Ang^3
#
#
#
# Elastic Constant Matrix: (Units=GPa)
#
#
# Indices 1 2 3 4 5 6 
#
# 1 100.7706 30.9159 52.2852 -0.0004 -20.6932 -0.0003
# 2 30.9159 96.2544 30.3205 0.0009 -16.3883 0.0003
# 3 52.2852 30.3205 133.3596 0.0032 -24.9935 0.0015
# 4 -0.0004 0.0009 0.0032 4.3254 0.0009 -4.2816
# 5 -20.6932 -16.3883 -24.9935 0.0009 36.1193 0.0002
# 6 -0.0003 0.0003 0.0015 -4.2816 0.0002 25.4359
#
#
#
# Elastic Compliance Matrix: (Units=1/GPa)
#
#
# Indices 1 2 3 4 5 6 
#
# 1 0.013558 -0.002423 -0.004039 0.000005 0.003873 0.000001
# 2 -0.002423 0.012100 -0.001186 -0.000003 0.003281 -0.000001
# 3 -0.004039 -0.001186 0.010131 -0.000011 0.004158 -0.000003
# 4 0.000005 -0.000003 -0.000011 0.277417 -0.000013 0.046697
# 5 0.003873 0.003281 0.004158 -0.000013 0.034271 -0.000003
# 6 0.000001 -0.000001 -0.000003 0.046697 -0.000003 0.047175
#
#
# Mechanical properties :
#
#
# Convention : Reuss Voigt Hill
#
# Bulk Modulus (GPa) = 48.79735 61.93643 55.36689
# Shear Modulus (GPa) = 11.99681 27.63366 19.81523
#
# Velocity S-wave (km/s) = 2.47632 3.75831 3.18254
# Velocity P-wave (km/s) = 5.75490 7.10577 6.46571
#
# Compressibility (1/GPa) = 0.02049292
#
# Stress axis : x y z
#
# Youngs Moduli (GPa) = 73.75855 82.64723 98.70758
#
# Poissons Ratio (x) = 0.20025 0.39865
# Poissons Ratio (y) = 0.17871 0.11708
# Poissons Ratio (z) = 0.29789 0.09803
#
# Static dielectric constant tensor:
#      x y z
#    x 3.510910 0.000010 -0.301700 
#    y 0.000010 3.556080 -0.000040 
#    z -0.301700 -0.000040 4.019340 
# 
# 
# High freq. dielectric constant tensor:
#      x y z
#    x 1.747430 0.000000 -0.017950 
#    y 0.000000 1.744700 0.000000 
#    z -0.017950 0.000000 1.778490 
# 
# From -- ./inp_files/321327.got.cif
#   From: 2010.06.25/outbox.cif.g09.slc.cpg/sg12_161_cif.got.tgz:321327.got - 2010.06.28 00:19:55.
