data_PCOD8096045
_publ_section_title
;
Structure prediction by ZEFSAII (Michael W. Deem and Ramdas Pophale) SiO2 
 PCOD8096045
Probable space group: C 2/M
;
_chemical_formula_sum "Si O2"
_cell_formula_units_Z 64
_cell_length_a 27.732883
_cell_length_b 9.261482
_cell_length_c 13.088985
_cell_angle_alpha 90.000000
_cell_angle_beta 89.884953
_cell_angle_gamma 90.000000
_cell_volume 3361.867563
_symmetry_space_group_name_H-M "C 2/M"
_symmetry_group_IT_number 12
_symmetry_cell_setting 'monoclinic'
loop_
_space_group_symop_operation_xyz
x,y,z
-x,y,-z
-x,-y,-z
x,-y,z
1/2+x,1/2+y,z
1/2-x,1/2+y,-z
1/2-x,1/2-y,-z
1/2+x,1/2-y,z
loop_
_atom_site_type_symbol
_atom_site_label
_atom_site_fract_x
_atom_site_fract_y
_atom_site_fract_z
Si Si1 0.847087 0.165541 0.709257
Si Si2 0.145846 0.168641 0.701302
Si Si3 0.051237 0.832406 0.799028
Si Si4 0.699285 0.671302 0.502422
Si Si5 0.191083 0.164207 0.908569
Si Si6 0.443381 0.665557 0.807901
Si Si7 0.057273 0.337699 0.996152
Si Si8 0.694658 0.163636 0.103475
O O1 0.831173 0.214704 0.597112
O O2 0.905211 0.185293 0.716336
O O3 0.820023 0.261517 0.791679
O O4 0.832552 0.000000 0.730105
O O5 0.087968 0.199293 0.705025
O O6 0.169170 0.234520 0.598914
O O7 0.170652 0.232254 0.803448
O O8 0.156751 0.000000 0.698952
O O9 0.996738 0.783329 0.770421
O O10 0.052110 0.000000 0.828394
O O11 0.073403 0.748498 0.895736
O O12 0.707495 0.500000 0.508988
O O13 0.750000 0.750000 0.500000
O O14 0.248242 0.170618 0.903656
O O15 0.172930 0.000000 0.923929
O O16 0.171488 0.257275 0.004698
O O17 0.446016 0.500000 0.844725
O O18 0.423315 0.760223 0.901996
O O19 0.077718 0.500000 0.992017
O O20 0.000000 0.335848 0.000000
O O21 0.675725 0.000000 0.104205
#
# Coordination Sequence:
#
# PCOD8096045 Si02
#       8
#     8   8   8   8   8   8   8   8
#     4  10  21  35  53  76 105 140 176 215 262 312
#     4   9  18  33  55  78 101 134 175 217 264 313
#     4   9  17  31  51  74 102 139 179 213 252 310
#     4  10  21  39  60  81 105 135 175 221 268 316
#     4   9  18  33  51  73 104 136 166 209 267 322
#     4   9  18  32  49  72 104 141 179 213 251 307
#     4   9  17  29  46  71 104 139 173 214 260 301
#     4  10  20  33  51  76 105 136 172 214 261 317
#
# _framework density 19.037037999999999
#
# number of rings (size 3 to 8) (size 9 to 14) (size 15 to 20)
#    0.000    2.625    0.000    1.500    1.750    4.000 
#    0.000    1.875    0.000    3.750    0.000    0.000 
#    0.000    6.000    0.000    0.000    0.000    0.000 
#
# Total GULP energy -396717.913485 kJ/mol
# GULP energy per Si atom -12397.434796 kJ/mol
# Density = 1.899371 g / cm^3
# Si number density = 19.037038 Si / 1000 Ang^3
#
#
#
# Elastic Constant Matrix: (Units=GPa)
#
#
# Indices 1 2 3 4 5 6 
#
# 1 80.5497 33.3807 69.1207 0.0000 0.2529 0.0000
# 2 33.3807 72.1365 57.2381 0.0000 -2.3497 0.0000
# 3 69.1207 57.2381 161.4367 0.0000 -2.3330 0.0000
# 4 0.0000 0.0000 0.0000 16.4558 0.0000 -3.5233
# 5 0.2529 -2.3497 -2.3330 0.0000 34.3405 0.0000
# 6 0.0000 0.0000 0.0000 -3.5233 0.0000 18.2610
#
#
#
# Elastic Compliance Matrix: (Units=1/GPa)
#
#
# Indices 1 2 3 4 5 6 
#
# 1 0.020255 -0.003493 -0.007447 0.000000 -0.000894 0.000000
# 2 -0.003493 0.019917 -0.005551 0.000000 0.001011 0.000000
# 3 -0.007447 -0.005551 0.011358 0.000000 0.000447 0.000000
# 4 0.000000 0.000000 0.000000 0.063387 0.000000 0.012230
# 5 -0.000894 0.001011 0.000447 0.000000 0.029226 0.000000
# 6 0.000000 0.000000 0.000000 0.012230 0.000000 0.057121
#
#
# Mechanical properties :
#
#
# Convention : Reuss Voigt Hill
#
# Bulk Modulus (GPa) = 53.91766 70.40021 62.15893
# Shear Modulus (GPa) = 20.79605 24.10367 22.44986
#
# Velocity S-wave (km/s) = 3.30873 3.56215 3.43778
# Velocity P-wave (km/s) = 6.55599 7.34708 6.96277
#
# Compressibility (1/GPa) = 0.01854680
#
# Stress axis : x y z
#
# Youngs Moduli (GPa) = 49.36936 50.20873 88.04711
#
# Poissons Ratio (x) = 0.17539 0.65568
# Poissons Ratio (y) = 0.17246 0.48878
# Poissons Ratio (z) = 0.36765 0.27872
#
# Static dielectric constant tensor:
#      x y z
#    x 3.623600 0.000000 0.017440 
#    y 0.000000 3.450360 0.000000 
#    z 0.017440 0.000000 3.517620 
# 
# 
# High freq. dielectric constant tensor:
#      x y z
#    x 1.755100 0.000000 0.001080 
#    y 0.000000 1.720960 0.000000 
#    z 0.001080 0.000000 1.721210 
# 
# From -- ./inp_files/187624.got.cif
#   From: 2010.06.25/outbox.cif.g09.slc.cpg/sg12_94_cif.got.tgz:187624.got - 2010.06.28 00:19:55.
