data_PCOD8096187
_publ_section_title
;
Structure prediction by ZEFSAII (Michael W. Deem and Ramdas Pophale) SiO2 
 PCOD8096187
Probable space group: C 2/M
;
_chemical_formula_sum "Si O2"
_cell_formula_units_Z 48
_cell_length_a 24.031400
_cell_length_b 9.132953
_cell_length_c 11.997924
_cell_angle_alpha 90.000000
_cell_angle_beta 101.699059
_cell_angle_gamma 90.000000
_cell_volume 2578.572818
_symmetry_space_group_name_H-M "C 2/M"
_symmetry_group_IT_number 12
_symmetry_cell_setting 'monoclinic'
loop_
_space_group_symop_operation_xyz
x,y,z
-x,y,-z
-x,-y,-z
x,-y,z
1/2+x,1/2+y,z
1/2-x,1/2+y,-z
1/2-x,1/2-y,-z
1/2+x,1/2-y,z
loop_
_atom_site_type_symbol
_atom_site_label
_atom_site_fract_x
_atom_site_fract_y
_atom_site_fract_z
Si Si1 0.531652 0.673121 0.256448
Si Si2 0.391109 0.669888 0.910200
Si Si3 0.377895 0.829534 0.571621
Si Si4 0.796198 0.170785 0.702245
Si Si5 0.903738 0.173160 0.161788
Si Si6 0.831693 0.330645 0.313363
O O1 0.541241 0.500000 0.273762
O O2 0.559931 0.730281 0.152546
O O3 0.562869 0.752839 0.371521
O O4 0.465952 0.717230 0.231243
O O5 0.403065 0.500000 0.931603
O O6 0.329515 0.700526 0.831396
O O7 0.395204 0.741355 0.034388
O O8 0.324444 0.760606 0.613900
O O9 0.369866 0.803210 0.437374
O O10 0.380677 0.000000 0.602570
O O11 0.732100 0.225858 0.690642
O O12 0.799092 0.000000 0.670991
O O13 0.856416 0.240887 0.221157
O O14 0.895577 0.000000 0.158809
O O15 0.830577 0.500000 0.279121
#
# Coordination Sequence:
#
# PCOD8096187 Si02
#       6
#     8   8   8   8   8   8
#     4   9  18  34  55  76 100 131 168 209 251 295
#     4   8  15  31  55  78  98 125 165 210 251 292
#     4  10  20  34  53  76 101 130 168 211 252 293
#     4   9  18  35  57  76  98 131 168 205 250 301
#     4  10  20  33  52  77 102 133 171 206 243 295
#     4  10  22  36  49  72 107 140 164 199 254 302
#
# _framework density 18.614947000000001
#
# number of rings (size 3 to 8) (size 9 to 14) (size 15 to 20)
#    0.000    2.667    0.000    2.500    0.000    6.000 
#    0.000    6.667    0.000    5.000    0.000    0.000 
#    0.000    0.000    0.000    0.000    0.000    0.000 
#
# Total GULP energy -297598.624313 kJ/mol
# GULP energy per Si atom -12399.942680 kJ/mol
# Density = 1.857258 g / cm^3
# Si number density = 18.614947 Si / 1000 Ang^3
#
#
#
# Elastic Constant Matrix: (Units=GPa)
#
#
# Indices 1 2 3 4 5 6 
#
# 1 49.6848 17.5077 11.2333 0.0000 3.1997 0.0000
# 2 17.5077 40.0761 22.3611 0.0000 1.4648 0.0000
# 3 11.2333 22.3611 57.1867 0.0000 -0.1258 0.0000
# 4 0.0000 0.0000 0.0000 22.5472 0.0000 -3.6584
# 5 3.1997 1.4648 -0.1258 0.0000 22.8719 0.0000
# 6 0.0000 0.0000 0.0000 -3.6584 0.0000 30.9525
#
#
#
# Elastic Compliance Matrix: (Units=1/GPa)
#
#
# Indices 1 2 3 4 5 6 
#
# 1 0.023984 -0.009908 -0.000843 0.000000 -0.002725 0.000000
# 2 -0.009908 0.036111 -0.012176 0.000000 -0.000994 0.000000
# 3 -0.000843 -0.012176 0.022416 0.000000 0.001021 0.000000
# 4 0.000000 0.000000 0.000000 0.045219 0.000000 0.005345
# 5 -0.002725 -0.000994 0.001021 0.000000 0.044172 0.000000
# 6 0.000000 0.000000 0.000000 0.005345 0.000000 0.032939
#
#
# Mechanical properties :
#
#
# Convention : Reuss Voigt Hill
#
# Bulk Modulus (GPa) = 27.28003 27.68353 27.48178
# Shear Modulus (GPa) = 19.01765 21.66403 20.34084
#
# Velocity S-wave (km/s) = 3.19977 3.41515 3.30921
# Velocity P-wave (km/s) = 5.32335 5.51860 5.42185
#
# Compressibility (1/GPa) = 0.03665685
#
# Stress axis : x y z
#
# Youngs Moduli (GPa) = 41.69400 27.69242 44.61192
#
# Poissons Ratio (x) = 0.27437 0.03761
# Poissons Ratio (y) = 0.41309 0.54320
# Poissons Ratio (z) = 0.03515 0.33719
#
# Static dielectric constant tensor:
#      x y z
#    x 3.422710 0.000000 0.110850 
#    y 0.000000 3.168170 0.000000 
#    z 0.110850 0.000000 3.547900 
# 
# 
# High freq. dielectric constant tensor:
#      x y z
#    x 1.723440 0.000000 0.009070 
#    y 0.000000 1.696700 0.000000 
#    z 0.009070 0.000000 1.729480 
# 
# From -- ./inp_files/172080.got.cif
#   From: 2010.06.25/outbox.cif.g09.slc.cpg/sg12_87_cif.got.tgz:172080.got - 2010.06.28 00:19:55.
