data_PCOD8096920
_publ_section_title
;
Structure prediction by ZEFSAII (Michael W. Deem and Ramdas Pophale) SiO2 
 PCOD8096920
Probable space group: C 2/M
;
_chemical_formula_sum "Si O2"
_cell_formula_units_Z 64
_cell_length_a 9.139939
_cell_length_b 27.487791
_cell_length_c 14.676269
_cell_angle_alpha 90.000000
_cell_angle_beta 75.805458
_cell_angle_gamma 90.000000
_cell_volume 3574.642371
_symmetry_space_group_name_H-M "C 2/M"
_symmetry_group_IT_number 12
_symmetry_cell_setting 'monoclinic'
loop_
_space_group_symop_operation_xyz
x,y,z
-x,y,-z
-x,-y,-z
x,-y,z
1/2+x,1/2+y,z
1/2-x,1/2+y,-z
1/2-x,1/2-y,-z
1/2+x,1/2-y,z
loop_
_atom_site_type_symbol
_atom_site_label
_atom_site_fract_x
_atom_site_fract_y
_atom_site_fract_z
Si Si1 0.526848 0.801154 0.726653
Si Si2 0.138444 0.944650 0.358517
Si Si3 0.207195 0.944458 0.553744
Si Si4 0.878225 0.645427 0.592953
Si Si5 0.296212 0.357960 0.768511
Si Si6 0.401486 0.697421 0.300048
Si Si7 0.826158 0.321045 0.040398
Si Si8 0.237384 0.216058 0.872779
O O1 0.455257 0.844771 0.678591
O O2 0.680247 0.819808 0.744796
O O3 0.562064 0.751236 0.666627
O O4 0.415059 0.782912 0.822971
O O5 0.199206 0.929513 0.448809
O O6 0.221312 0.911600 0.270845
O O7 0.958435 0.938235 0.378434
O O8 0.183404 0.000000 0.330759
O O9 0.329447 0.910822 0.586880
O O10 0.262082 0.000000 0.556492
O O11 0.727403 0.677945 0.611989
O O12 0.000000 0.662081 0.500000
O O13 0.459146 0.338704 0.715231
O O14 0.261106 0.359983 0.881947
O O15 0.353457 0.697382 0.200907
O O16 0.822701 0.268588 0.089487
O O17 0.729193 0.319985 0.961404
O O18 0.000000 0.337238 0.000000
#
# Coordination Sequence:
#
# PCOD8096920 Si02
#       8
#     8   8   8   8   8   8   8   8
#     4  11  21  37  52  77 118 152 189 225 265 325
#     4   9  19  36  61  87 107 135 184 234 280 334
#     4   9  18  38  63  85 107 133 178 242 290 324
#     4  11  23  37  53  81 112 147 185 227 272 333
#     4  12  20  34  57  82 109 151 180 227 282 326
#     4  11  21  37  53  76 115 156 189 221 265 325
#     4  11  20  31  55  83 112 146 187 230 278 323
#     4  10  20  34  51  79 114 145 188 233 270 312
#
# _framework density 17.903888999999999
#
# number of rings (size 3 to 8) (size 9 to 14) (size 15 to 20)
#    0.000    1.500    5.000    2.250    1.750    0.750 
#    0.000    1.875    0.000    0.375    0.000    2.625 
#    0.000    0.000    0.000    0.000    0.000    0.000 
#
# Total GULP energy -396639.965476 kJ/mol
# GULP energy per Si atom -12394.998921 kJ/mol
# Density = 1.786314 g / cm^3
# Si number density = 17.903889 Si / 1000 Ang^3
#
#
#
# Elastic Constant Matrix: (Units=GPa)
#
#
# Indices 1 2 3 4 5 6 
#
# 1 75.4887 25.6282 24.7318 0.0000 -7.0015 0.0000
# 2 25.6282 87.8926 40.2118 0.0000 0.8974 0.0000
# 3 24.7318 40.2118 67.0259 0.0000 -9.3061 0.0000
# 4 0.0000 0.0000 0.0000 28.1334 0.0000 -1.5278
# 5 -7.0015 0.8974 -9.3061 0.0000 31.5679 0.0000
# 6 0.0000 0.0000 0.0000 -1.5278 0.0000 28.0521
#
#
#
# Elastic Compliance Matrix: (Units=1/GPa)
#
#
# Indices 1 2 3 4 5 6 
#
# 1 0.015673 -0.002903 -0.003699 0.000000 0.002468 0.000000
# 2 -0.002903 0.016568 -0.009409 0.000000 -0.003889 0.000000
# 3 -0.003699 -0.009409 0.022785 0.000000 0.006164 0.000000
# 4 0.000000 0.000000 0.000000 0.035650 0.000000 0.001942
# 5 0.002468 -0.003889 0.006164 0.000000 0.034153 0.000000
# 6 0.000000 0.000000 0.000000 0.001942 0.000000 0.035754
#
#
# Mechanical properties :
#
#
# Convention : Reuss Voigt Hill
#
# Bulk Modulus (GPa) = 43.46832 45.72787 44.59810
# Shear Modulus (GPa) = 24.96586 26.87304 25.91945
#
# Velocity S-wave (km/s) = 3.73827 3.87843 3.80899
# Velocity P-wave (km/s) = 6.55471 6.75666 6.65645
#
# Compressibility (1/GPa) = 0.02300526
#
# Stress axis : x y z
#
# Youngs Moduli (GPa) = 63.80251 60.35620 43.88851
#
# Poissons Ratio (x) = 0.17522 0.16234
# Poissons Ratio (y) = 0.18522 0.41294
# Poissons Ratio (z) = 0.23600 0.56788
#
# Static dielectric constant tensor:
#      x y z
#    x 3.399330 0.000000 -0.105950 
#    y 0.000000 3.126450 0.000000 
#    z -0.105950 0.000000 3.494310 
# 
# 
# High freq. dielectric constant tensor:
#      x y z
#    x 1.704540 0.000000 -0.005780 
#    y 0.000000 1.663540 0.000000 
#    z -0.005780 0.000000 1.684820 
# 
# From -- ./inp_files/199788.got.cif
#   From: 2010.06.25/outbox.cif.g09.slc.cpg/sg12_100_cif.got.tgz:199788.got - 2010.06.28 00:19:55.
