data_PCOD8096161
_publ_section_title
;
Structure prediction by ZEFSAII (Michael W. Deem and Ramdas Pophale) SiO2 
 PCOD8096161
Probable space group: C 2/M
;
_chemical_formula_sum "Si O2"
_cell_formula_units_Z 64
_cell_length_a 19.276819
_cell_length_b 8.864373
_cell_length_c 21.905156
_cell_angle_alpha 90.000000
_cell_angle_beta 121.003399
_cell_angle_gamma 90.000000
_cell_volume 3208.336084
_symmetry_space_group_name_H-M "C 2/M"
_symmetry_group_IT_number 12
_symmetry_cell_setting 'monoclinic'
loop_
_space_group_symop_operation_xyz
x,y,z
-x,y,-z
-x,-y,-z
x,-y,z
1/2+x,1/2+y,z
1/2-x,1/2+y,-z
1/2-x,1/2-y,-z
1/2+x,1/2-y,z
loop_
_atom_site_type_symbol
_atom_site_label
_atom_site_fract_x
_atom_site_fract_y
_atom_site_fract_z
Si Si1 0.217765 0.329681 0.163109
Si Si2 0.789391 0.319937 0.077227
Si Si3 0.893845 0.834739 0.290781
Si Si4 0.134212 0.821191 0.234920
Si Si5 0.347535 0.830930 0.522643
Si Si6 0.523302 0.832178 0.573148
Si Si7 0.547833 0.321041 0.810658
Si Si8 0.233236 0.321211 0.390056
O O1 0.188035 0.500000 0.133697
O O2 0.235505 0.236973 0.109737
O O3 0.298849 0.339192 0.238660
O O4 0.152120 0.245771 0.175848
O O5 0.787165 0.500000 0.074619
O O6 0.882594 0.264124 0.119806
O O7 0.750000 0.250000 0.000000
O O8 0.904473 0.741271 0.356961
O O9 0.941128 0.765316 0.254220
O O10 0.929498 0.000000 0.318901
O O11 0.195164 0.754859 0.313051
O O12 0.041361 0.775877 0.207341
O O13 0.145006 0.000000 0.238275
O O14 0.443133 0.830213 0.577725
O O15 0.323426 0.737011 0.449773
O O16 0.314755 0.764147 0.571450
O O17 0.314550 0.000000 0.498178
O O18 0.500000 0.746343 0.500000
O O19 0.553639 0.000000 0.570299
O O20 0.564412 0.500000 0.823012
O O21 0.232160 0.500000 0.379143
#
# Coordination Sequence:
#
# PCOD8096161 Si02
#       8
#     8   8   8   8   8   8   8   8
#     4  10  22  40  60  88 124 156 195 242 290 346
#     4  11  22  40  68  97 125 160 196 231 278 336
#     4   9  19  36  56  77 106 146 189 237 291 349
#     4  11  22  36  58  86 118 154 194 241 296 348
#     4   9  19  35  49  68  99 138 186 236 292 355
#     4  10  21  33  47  70 100 136 181 237 292 342
#     4   9  20  39  61  88 120 154 194 239 286 342
#     4  10  20  33  52  74 101 141 187 237 292 351
#
# _framework density 19.948035000000001
#
# number of rings (size 3 to 8) (size 9 to 14) (size 15 to 20)
#    0.000    2.125    0.000    3.750    1.750    4.750 
#    0.000    0.625    0.000    3.750    0.000    0.000 
#    0.000    0.000    0.000    0.000    0.000    0.000 
#
# Total GULP energy -396620.125157 kJ/mol
# GULP energy per Si atom -12394.378911 kJ/mol
# Density = 1.990263 g / cm^3
# Si number density = 19.948035 Si / 1000 Ang^3
#
#
#
# Elastic Constant Matrix: (Units=GPa)
#
#
# Indices 1 2 3 4 5 6 
#
# 1 71.4250 22.3149 22.3087 0.0000 -12.7168 0.0000
# 2 22.3149 102.6470 48.1217 0.0000 -2.6585 0.0000
# 3 22.3087 48.1217 120.2362 0.0000 -8.3100 0.0000
# 4 0.0000 0.0000 0.0000 35.6203 0.0000 -2.4651
# 5 -12.7168 -2.6585 -8.3100 0.0000 19.9138 0.0000
# 6 0.0000 0.0000 0.0000 -2.4651 0.0000 25.0951
#
#
#
# Elastic Compliance Matrix: (Units=1/GPa)
#
#
# Indices 1 2 3 4 5 6 
#
# 1 0.017078 -0.002821 -0.001351 0.000000 0.009966 0.000000
# 2 -0.002821 0.012462 -0.004606 0.000000 -0.002060 0.000000
# 3 -0.001351 -0.004606 0.010615 0.000000 0.002952 0.000000
# 4 0.000000 0.000000 0.000000 0.028266 0.000000 0.002777
# 5 0.009966 -0.002060 0.002952 0.000000 0.057537 0.000000
# 6 0.000000 0.000000 0.000000 0.002777 0.000000 0.040121
#
#
# Mechanical properties :
#
#
# Convention : Reuss Voigt Hill
#
# Bulk Modulus (GPa) = 44.25133 53.31098 48.78116
# Shear Modulus (GPa) = 26.15476 29.56336 27.85906
#
# Velocity S-wave (km/s) = 3.62490 3.85388 3.74114
# Velocity P-wave (km/s) = 6.30487 6.82540 6.57029
#
# Compressibility (1/GPa) = 0.02259819
#
# Stress axis : x y z
#
# Youngs Moduli (GPa) = 58.55337 80.24631 94.20427
#
# Poissons Ratio (x) = 0.22641 0.12725
# Poissons Ratio (y) = 0.16520 0.43394
# Poissons Ratio (z) = 0.07909 0.36965
#
# Static dielectric constant tensor:
#      x y z
#    x 3.677890 0.000000 -0.070710 
#    y 0.000000 3.688070 0.000000 
#    z -0.070710 0.000000 3.563920 
# 
# 
# High freq. dielectric constant tensor:
#      x y z
#    x 1.781000 0.000000 -0.008290 
#    y 0.000000 1.777160 0.000000 
#    z -0.008290 0.000000 1.767930 
# 
# From -- ./inp_files/320151.got.cif
#   From: 2010.06.25/outbox.cif.g09.slc.cpg/sg12_161_cif.got.tgz:320151.got - 2010.06.28 00:19:55.
