data_PCOD8096663
_publ_section_title
;
Structure prediction by ZEFSAII (Michael W. Deem and Ramdas Pophale) SiO2 
 PCOD8096663
Probable space group: C 2/M
;
_chemical_formula_sum "Si O2"
_cell_formula_units_Z 56
_cell_length_a 25.141443
_cell_length_b 12.880354
_cell_length_c 8.618714
_cell_angle_alpha 90.000000
_cell_angle_beta 74.902183
_cell_angle_gamma 90.000000
_cell_volume 2694.665738
_symmetry_space_group_name_H-M "C 2/M"
_symmetry_group_IT_number 12
_symmetry_cell_setting 'monoclinic'
loop_
_space_group_symop_operation_xyz
x,y,z
-x,y,-z
-x,-y,-z
x,-y,z
1/2+x,1/2+y,z
1/2-x,1/2+y,-z
1/2-x,1/2-y,-z
1/2+x,1/2-y,z
loop_
_atom_site_type_symbol
_atom_site_label
_atom_site_fract_x
_atom_site_fract_y
_atom_site_fract_z
Si Si1 0.462804 0.737915 0.658338
Si Si2 0.797148 0.122013 0.043680
Si Si3 0.743125 0.694556 0.249312
Si Si4 0.406747 0.247594 0.999684
Si Si5 0.549459 0.616160 0.780281
Si Si6 0.646097 0.882139 0.708307
Si Si7 0.870333 0.204630 0.500293
O O1 0.500000 0.800381 0.500000
O O2 0.502009 0.647363 0.694520
O O3 0.409260 0.689439 0.618656
O O4 0.438618 0.800285 0.824812
O O5 0.759985 0.185793 0.197085
O O6 0.857157 0.175006 0.989223
O O7 0.800958 0.000000 0.087501
O O8 0.767906 0.130897 0.899275
O O9 0.789763 0.637974 0.312733
O O10 0.691825 0.686336 0.403314
O O11 0.450787 0.313458 0.065555
O O12 0.385700 0.149063 0.110400
O O13 0.539518 0.500000 0.842746
O O14 0.609589 0.626094 0.650492
O O15 0.623622 0.819734 0.576920
O O16 0.633551 0.000000 0.679564
#
# Coordination Sequence:
#
# PCOD8096663 Si02
#       7
#     8   8   8   8   8   8   8
#     4  10  21  38  59  83 116 152 186 237 294 347
#     4  10  20  33  57  89 122 158 196 233 287 353
#     4  10  20  37  55  86 124 157 195 243 288 336
#     4  10  20  39  61  85 123 153 190 242 293 346
#     4  10  22  37  59  90 120 155 194 230 289 362
#     4  10  22  39  61  86 113 156 203 243 293 349
#     4  10  21  39  58  83 122 157 190 245 291 338
#
# _framework density 20.781798999999999
#
# number of rings (size 3 to 8) (size 9 to 14) (size 15 to 20)
#    0.000    2.000    1.429    1.714    0.000    6.000 
#    0.000    0.714    0.000   26.571    0.000    0.000 
#    0.000    0.000    0.000    0.000    0.000    0.000 
#
# Total GULP energy -346987.435156 kJ/mol
# GULP energy per Si atom -12392.408398 kJ/mol
# Density = 2.073450 g / cm^3
# Si number density = 20.781799 Si / 1000 Ang^3
#
#
#
# Elastic Constant Matrix: (Units=GPa)
#
#
# Indices 1 2 3 4 5 6 
#
# 1 97.6823 22.4265 37.0260 0.0000 -3.7359 0.0000
# 2 22.4265 80.4595 -1.7191 0.0000 2.4200 0.0000
# 3 37.0260 -1.7191 109.8700 0.0000 -16.2933 0.0000
# 4 0.0000 0.0000 0.0000 7.3437 0.0000 4.4142
# 5 -3.7359 2.4200 -16.2933 0.0000 40.7614 0.0000
# 6 0.0000 0.0000 0.0000 4.4142 0.0000 17.8570
#
#
#
# Elastic Compliance Matrix: (Units=1/GPa)
#
#
# Indices 1 2 3 4 5 6 
#
# 1 0.012724 -0.003629 -0.004401 0.000000 -0.000377 0.000000
# 2 -0.003629 0.013487 0.001346 0.000000 -0.000595 0.000000
# 3 -0.004401 0.001346 0.011198 0.000000 0.003993 0.000000
# 4 0.000000 0.000000 0.000000 0.159937 0.000000 -0.039536
# 5 -0.000377 -0.000595 0.003993 0.000000 0.026130 0.000000
# 6 0.000000 0.000000 0.000000 -0.039536 0.000000 0.065774
#
#
# Mechanical properties :
#
#
# Convention : Reuss Voigt Hill
#
# Bulk Modulus (GPa) = 41.59667 44.83096 43.21381
# Shear Modulus (GPa) = 16.09624 28.54430 22.32027
#
# Velocity S-wave (km/s) = 2.78607 3.71013 3.28079
# Velocity P-wave (km/s) = 5.51443 6.32238 5.93217
#
# Compressibility (1/GPa) = 0.02404039
#
# Stress axis : x y z
#
# Youngs Moduli (GPa) = 78.59060 74.14617 89.30243
#
# Poissons Ratio (x) = 0.26910 0.39300
# Poissons Ratio (y) = 0.28523 -0.12018
# Poissons Ratio (z) = 0.34586 -0.09979
#
# Static dielectric constant tensor:
#      x y z
#    x 3.972480 0.000000 -0.021680 
#    y 0.000000 3.325930 0.000000 
#    z -0.021680 0.000000 4.056640 
# 
# 
# High freq. dielectric constant tensor:
#      x y z
#    x 1.833100 0.000000 -0.000090 
#    y 0.000000 1.758840 0.000000 
#    z -0.000090 0.000000 1.831630 
# 
# From -- ./inp_files/103142.got.cif
#   From: 2010.06.25/outbox.cif.g09.slc.cpg/sg12_52_cif.got.tgz:103142.got - 2010.06.28 00:19:55.
