data_PCOD8096044
_publ_section_title
;
Structure prediction by ZEFSAII (Michael W. Deem and Ramdas Pophale) SiO2 
 PCOD8096044
Probable space group: C 2/M
;
_chemical_formula_sum "Si O2"
_cell_formula_units_Z 48
_cell_length_a 19.598279
_cell_length_b 8.975348
_cell_length_c 20.851650
_cell_angle_alpha 90.000000
_cell_angle_beta 46.292577
_cell_angle_gamma 90.000000
_cell_volume 2651.395077
_symmetry_space_group_name_H-M "C 2/M"
_symmetry_group_IT_number 12
_symmetry_cell_setting 'monoclinic'
loop_
_space_group_symop_operation_xyz
x,y,z
-x,y,-z
-x,-y,-z
x,-y,z
1/2+x,1/2+y,z
1/2-x,1/2+y,-z
1/2-x,1/2-y,-z
1/2+x,1/2-y,z
loop_
_atom_site_type_symbol
_atom_site_label
_atom_site_fract_x
_atom_site_fract_y
_atom_site_fract_z
Si Si1 0.760163 0.825694 0.590829
Si Si2 0.606196 0.175025 0.588698
Si Si3 0.747886 0.676481 0.070227
Si Si4 0.747711 0.331162 0.730984
Si Si5 0.608213 0.672230 0.933343
Si Si6 0.393282 0.826172 0.745458
O O1 0.668773 0.776319 0.609107
O O2 0.853811 0.749390 0.501736
O O3 0.744117 0.779997 0.674168
O O4 0.775875 0.000000 0.576979
O O5 0.500094 0.230906 0.669317
O O6 0.608068 0.000000 0.576138
O O7 0.745345 0.500000 0.065363
O O8 0.841833 0.725097 0.046713
O O9 0.654446 0.731501 0.167417
O O10 0.750000 0.750000 0.000000
O O11 0.749702 0.500000 0.703854
O O12 0.654589 0.302414 0.833761
O O13 0.840580 0.297568 0.712578
O O14 0.619859 0.500000 0.946732
O O15 0.500000 0.721160 0.000000
O O16 0.387274 0.000000 0.768282
#
# Coordination Sequence:
#
# PCOD8096044 Si02
#       6
#     8   8   8   8   8   8
#     4  10  20  33  51  76 105 134 168 212 257 307
#     4   9  19  36  55  74 100 135 173 213 257 306
#     4  11  22  36  55  79 109 142 177 218 264 314
#     4   9  18  33  53  75 102 135 168 208 257 308
#     4   9  19  37  58  80 107 139 177 219 264 315
#     4   9  19  37  57  76 100 134 177 218 258 307
#
# _framework density 18.103677000000001
#
# number of rings (size 3 to 8) (size 9 to 14) (size 15 to 20)
#    0.000    2.500    0.000    3.000    0.000    6.333 
#    0.000    6.667    0.000    0.000    0.000    0.000 
#    0.000    0.000    0.000    0.000    0.000    0.000 
#
# Total GULP energy -297670.487820 kJ/mol
# GULP energy per Si atom -12402.936992 kJ/mol
# Density = 1.806247 g / cm^3
# Si number density = 18.103677 Si / 1000 Ang^3
#
#
#
# Elastic Constant Matrix: (Units=GPa)
#
#
# Indices 1 2 3 4 5 6 
#
# 1 91.7150 43.2150 87.9438 0.0000 -10.6413 0.0001
# 2 43.2150 75.1645 55.6520 0.0001 0.3557 0.0001
# 3 87.9438 55.6520 136.9492 0.0000 -14.3740 0.0000
# 4 0.0000 0.0001 0.0000 33.1883 0.0000 5.9039
# 5 -10.6413 0.3557 -14.3740 0.0000 40.5762 0.0000
# 6 0.0001 0.0001 0.0000 5.9039 0.0000 30.0033
#
#
#
# Elastic Compliance Matrix: (Units=1/GPa)
#
#
# Indices 1 2 3 4 5 6 
#
# 1 0.029377 -0.004387 -0.016898 0.000000 0.001757 0.000000
# 2 -0.004387 0.020048 -0.005680 0.000000 -0.003338 0.000000
# 3 -0.016898 -0.005680 0.020774 0.000000 0.002977 0.000000
# 4 0.000000 0.000000 0.000000 0.031224 0.000000 -0.006144
# 5 0.001757 -0.003338 0.002977 0.000000 0.026190 0.000000
# 6 0.000000 0.000000 0.000000 -0.006144 0.000000 0.034539
#
#
# Mechanical properties :
#
#
# Convention : Reuss Voigt Hill
#
# Bulk Modulus (GPa) = 61.46675 75.27226 68.36950
# Shear Modulus (GPa) = 22.57294 28.55478 25.56386
#
# Velocity S-wave (km/s) = 3.53494 3.97582 3.76184
# Velocity P-wave (km/s) = 7.11951 7.92117 7.53101
#
# Compressibility (1/GPa) = 0.01626896
#
# Stress axis : x y z
#
# Youngs Moduli (GPa) = 34.03971 49.88097 48.13773
#
# Poissons Ratio (x) = 0.21885 0.81342
# Poissons Ratio (y) = 0.14934 0.27341
# Poissons Ratio (z) = 0.57520 0.28331
#
# Static dielectric constant tensor:
#      x y z
#    x 3.398110 0.000000 -0.151250 
#    y 0.000000 3.265770 0.000000 
#    z -0.151250 0.000000 3.427630 
# 
# 
# High freq. dielectric constant tensor:
#      x y z
#    x 1.699080 0.000000 -0.003240 
#    y 0.000000 1.698160 0.000000 
#    z -0.003240 0.000000 1.707090 
# 
# From -- ./inp_files/229874.got.cif
#   From: 2010.06.25/outbox.cif.g09.slc.cpg/sg12_115_cif.got.tgz:229874.got - 2010.06.28 00:19:55.
