data_PCOD8096513
_publ_section_title
;
Structure prediction by ZEFSAII (Michael W. Deem and Ramdas Pophale) SiO2 
 PCOD8096513
Probable space group: C 2/M
;
_chemical_formula_sum "Si O2"
_cell_formula_units_Z 40
_cell_length_a 27.419725
_cell_length_b 9.412385
_cell_length_c 10.520843
_cell_angle_alpha 90.000000
_cell_angle_beta 131.234139
_cell_angle_gamma 90.000000
_cell_volume 2041.944993
_symmetry_space_group_name_H-M "C 2/M"
_symmetry_group_IT_number 12
_symmetry_cell_setting 'monoclinic'
loop_
_space_group_symop_operation_xyz
x,y,z
-x,y,-z
-x,-y,-z
x,-y,z
1/2+x,1/2+y,z
1/2-x,1/2+y,-z
1/2-x,1/2-y,-z
1/2+x,1/2-y,z
loop_
_atom_site_type_symbol
_atom_site_label
_atom_site_fract_x
_atom_site_fract_y
_atom_site_fract_z
Si Si1 0.024524 0.832785 0.182064
Si Si2 0.786701 0.157413 0.720620
Si Si3 0.650870 0.164366 0.381884
Si Si4 0.547928 0.331354 0.690274
Si Si5 0.690788 0.659823 0.948054
O O1 0.089972 0.750518 0.329791
O O2 0.973608 0.787443 0.203977
O O3 0.038830 0.000000 0.209674
O O4 0.000000 0.786185 0.000000
O O5 0.709716 0.188291 0.581776
O O6 0.827639 0.275070 0.717418
O O7 0.800522 0.000000 0.686086
O O8 0.810331 0.161660 0.903314
O O9 0.632177 0.000000 0.333877
O O10 0.500000 0.267694 0.500000
O O11 0.548639 0.500000 0.682904
O O12 0.620906 0.275753 0.786365
O O13 0.699518 0.500000 0.911050
O O14 0.750000 0.750000 0.000000
#
# Coordination Sequence:
#
# PCOD8096513 Si02
#       5
#     8   8   8   8   8
#     4  10  20  35  57  80 107 147 188 226 281 339
#     4   9  19  36  54  77 112 149 184 225 278 335
#     4  10  20  33  54  83 111 141 182 233 281 327
#     4   9  19  35  55  81 110 144 188 231 269 327
#     4  10  21  37  58  81 110 146 187 231 278 332
#
# _framework density 19.589165999999999
#
# number of rings (size 3 to 8) (size 9 to 14) (size 15 to 20)
#    0.000    2.400    0.000    1.800    2.800    5.200 
#    0.000    1.000    0.000    1.200    0.000    0.000 
#    0.000    0.000    0.000    0.000    0.000    0.000 
#
# Total GULP energy -247956.507858 kJ/mol
# GULP energy per Si atom -12397.825393 kJ/mol
# Density = 1.954458 g / cm^3
# Si number density = 19.589166 Si / 1000 Ang^3
#
#
#
# Elastic Constant Matrix: (Units=GPa)
#
#
# Indices 1 2 3 4 5 6 
#
# 1 113.6162 36.0291 61.2996 0.0000 26.8383 0.0000
# 2 36.0291 58.1459 30.8849 0.0000 17.4258 0.0000
# 3 61.2996 30.8849 115.8822 0.0000 18.3262 0.0000
# 4 0.0000 0.0000 0.0000 23.9152 0.0000 9.0149
# 5 26.8383 17.4258 18.3262 0.0000 38.3643 0.0000
# 6 0.0000 0.0000 0.0000 9.0149 0.0000 30.1827
#
#
#
# Elastic Compliance Matrix: (Units=1/GPa)
#
#
# Indices 1 2 3 4 5 6 
#
# 1 0.014531 -0.004355 -0.005659 0.000000 -0.005484 0.000000
# 2 -0.004355 0.023293 -0.002935 0.000000 -0.006132 0.000000
# 3 -0.005659 -0.002935 0.012513 0.000000 -0.000686 0.000000
# 4 0.000000 0.000000 0.000000 0.047119 0.000000 -0.014074
# 5 -0.005484 -0.006132 -0.000686 0.000000 0.033015 0.000000
# 6 0.000000 0.000000 0.000000 -0.014074 0.000000 0.037335
#
#
# Mechanical properties :
#
#
# Convention : Reuss Voigt Hill
#
# Bulk Modulus (GPa) = 40.91470 60.45239 50.68354
# Shear Modulus (GPa) = 24.77080 29.12116 26.94598
#
# Velocity S-wave (km/s) = 3.55986 3.85982 3.71287
# Velocity P-wave (km/s) = 6.15049 7.12681 6.65657
#
# Compressibility (1/GPa) = 0.02444110
#
# Stress axis : x y z
#
# Youngs Moduli (GPa) = 68.81812 42.93160 79.91382
#
# Poissons Ratio (x) = 0.18695 0.45221
# Poissons Ratio (y) = 0.29968 0.23453
# Poissons Ratio (z) = 0.38943 0.12599
#
# Static dielectric constant tensor:
#      x y z
#    x 3.580050 0.000000 0.108680 
#    y 0.000000 3.523990 0.000000 
#    z 0.108680 0.000000 3.844000 
# 
# 
# High freq. dielectric constant tensor:
#      x y z
#    x 1.759120 0.000000 0.011580 
#    y 0.000000 1.734220 0.000000 
#    z 0.011580 0.000000 1.776030 
# 
# From -- ./inp_files/151713.got.cif
#   From: 2010.06.25/outbox.cif.g09.slc.cpg/sg12_76_cif.got.tgz:151713.got - 2010.06.28 00:19:55.
