data_PCOD8096902
_publ_section_title
;
Structure prediction by ZEFSAII (Michael W. Deem and Ramdas Pophale) SiO2 
 PCOD8096902
Probable space group: C 2/M
;
_chemical_formula_sum "Si O2"
_cell_formula_units_Z 64
_cell_length_a 28.884931
_cell_length_b 8.669400
_cell_length_c 15.670908
_cell_angle_alpha 90.000000
_cell_angle_beta 117.206950
_cell_angle_gamma 90.000000
_cell_volume 3490.057475
_symmetry_space_group_name_H-M "C 2/M"
_symmetry_group_IT_number 12
_symmetry_cell_setting 'monoclinic'
loop_
_space_group_symop_operation_xyz
x,y,z
-x,y,-z
-x,-y,-z
x,-y,z
1/2+x,1/2+y,z
1/2-x,1/2+y,-z
1/2-x,1/2-y,-z
1/2+x,1/2-y,z
loop_
_atom_site_type_symbol
_atom_site_label
_atom_site_fract_x
_atom_site_fract_y
_atom_site_fract_z
Si Si1 0.222221 0.317482 0.099328
Si Si2 0.067941 0.180213 0.723883
Si Si3 0.361908 0.680465 0.644008
Si Si4 0.960553 0.320172 0.655347
Si Si5 0.672929 0.317420 0.900225
Si Si6 0.587959 0.175643 0.564694
Si Si7 0.705826 0.180991 0.277213
Si Si8 0.806302 0.677357 0.438021
O O1 0.219774 0.500000 0.093230
O O2 0.279179 0.257833 0.117848
O O3 0.211237 0.257481 0.185203
O O4 0.178204 0.249300 0.999905
O O5 0.119411 0.243691 0.814278
O O6 0.072612 0.210552 0.627241
O O7 0.019307 0.269484 0.723989
O O8 0.059964 0.000000 0.732215
O O9 0.355245 0.500000 0.622595
O O10 0.422248 0.727088 0.685650
O O11 0.342367 0.727924 0.721486
O O12 0.326634 0.773549 0.547525
O O13 0.952563 0.500000 0.666787
O O14 0.947260 0.280238 0.546088
O O15 0.672842 0.500000 0.904679
O O16 0.648408 0.198767 0.593373
O O17 0.576637 0.000000 0.583579
O O18 0.758752 0.214943 0.372371
O O19 0.694489 0.000000 0.270516
O O20 0.787997 0.500000 0.427579
#
# Coordination Sequence:
#
# PCOD8096902 Si02
#       8
#     8   8   8   8   8   8   8   8
#     4   9  19  35  55  78 104 136 170 205 250 304
#     4  11  21  32  51  78 105 136 173 211 256 307
#     4  11  22  36  53  74 102 137 176 215 258 303
#     4  10  21  37  53  72 102 138 176 216 257 300
#     4   9  19  35  53  77 108 135 164 206 253 303
#     4   9  19  33  49  72 104 139 173 211 253 299
#     4  11  21  34  53  77 105 136 173 214 256 305
#     4  10  20  34  51  75 107 141 176 212 254 302
#
# _framework density 18.337807000000002
#
# number of rings (size 3 to 8) (size 9 to 14) (size 15 to 20)
#    0.000    2.000    0.000    4.875    0.000    7.500 
#    0.000    2.500    0.000    0.750    0.000    5.250 
#    0.000    0.000    0.000    0.000    0.000    0.000 
#
# Total GULP energy -396935.843774 kJ/mol
# GULP energy per Si atom -12404.245118 kJ/mol
# Density = 1.829607 g / cm^3
# Si number density = 18.337807 Si / 1000 Ang^3
#
#
#
# Elastic Constant Matrix: (Units=GPa)
#
#
# Indices 1 2 3 4 5 6 
#
# 1 111.1448 26.4480 62.9873 0.0000 1.0893 0.0000
# 2 26.4480 47.7132 17.2741 0.0000 -0.8696 0.0000
# 3 62.9873 17.2741 78.7783 0.0000 0.7052 0.0000
# 4 0.0000 0.0000 0.0000 26.8005 0.0000 0.3045
# 5 1.0893 -0.8696 0.7052 0.0000 29.8798 0.0000
# 6 0.0000 0.0000 0.0000 0.3045 0.0000 32.0929
#
#
#
# Elastic Compliance Matrix: (Units=1/GPa)
#
#
# Indices 1 2 3 4 5 6 
#
# 1 0.017505 -0.005047 -0.012885 0.000000 -0.000481 0.000000
# 2 -0.005047 0.024239 -0.001288 0.000000 0.000920 0.000000
# 3 -0.012885 -0.001288 0.023280 0.000000 -0.000117 0.000000
# 4 0.000000 0.000000 0.000000 0.037317 0.000000 -0.000354
# 5 -0.000481 0.000920 -0.000117 0.000000 0.033514 0.000000
# 6 0.000000 0.000000 0.000000 -0.000354 0.000000 0.031163
#
#
# Mechanical properties :
#
#
# Convention : Reuss Voigt Hill
#
# Bulk Modulus (GPa) = 37.61708 50.11722 43.86715
# Shear Modulus (GPa) = 23.32954 26.48310 24.90632
#
# Velocity S-wave (km/s) = 3.57067 3.80436 3.68937
# Velocity P-wave (km/s) = 6.12842 6.83278 6.49016
#
# Compressibility (1/GPa) = 0.02658367
#
# Stress axis : x y z
#
# Youngs Moduli (GPa) = 57.12552 41.25535 42.95568
#
# Poissons Ratio (x) = 0.20822 0.55350
# Poissons Ratio (y) = 0.28832 0.05532
# Poissons Ratio (z) = 0.73608 0.05313
#
# Static dielectric constant tensor:
#      x y z
#    x 3.557990 0.000000 -0.002220 
#    y 0.000000 3.300790 0.000000 
#    z -0.002220 0.000000 3.271830 
# 
# 
# High freq. dielectric constant tensor:
#      x y z
#    x 1.714550 0.000000 0.000250 
#    y 0.000000 1.714340 0.000000 
#    z 0.000250 0.000000 1.685810 
# 
# From -- ./inp_files/249130.got.cif
#   From: 2010.06.25/outbox.cif.g09.slc.cpg/sg12_125_cif.got.tgz:249130.got - 2010.06.28 00:19:55.
