data_PCOD8096692
_publ_section_title
;
Structure prediction by ZEFSAII (Michael W. Deem and Ramdas Pophale) SiO2 
 PCOD8096692
Probable space group: C 2/M
;
_chemical_formula_sum "Si O2"
_cell_formula_units_Z 64
_cell_length_a 24.089534
_cell_length_b 18.393110
_cell_length_c 9.367633
_cell_angle_alpha 90.000000
_cell_angle_beta 100.773210
_cell_angle_gamma 90.000000
_cell_volume 4077.468641
_symmetry_space_group_name_H-M "C 2/M"
_symmetry_group_IT_number 12
_symmetry_cell_setting 'monoclinic'
loop_
_space_group_symop_operation_xyz
x,y,z
-x,y,-z
-x,-y,-z
x,-y,z
1/2+x,1/2+y,z
1/2-x,1/2+y,-z
1/2-x,1/2-y,-z
1/2+x,1/2-y,z
loop_
_atom_site_type_symbol
_atom_site_label
_atom_site_fract_x
_atom_site_fract_y
_atom_site_fract_z
Si Si1 0.637326 0.161281 0.256863
Si Si2 0.800513 0.785792 0.196721
Si Si3 0.731823 0.917593 0.134224
Si Si4 0.745102 0.583248 0.182121
Si Si5 0.179081 0.213732 0.103296
Si Si6 0.336870 0.164363 0.405539
Si Si7 0.976914 0.417172 0.841373
Si Si8 0.552210 0.082229 0.617745
O O1 0.672490 0.106780 0.173615
O O2 0.636187 0.241539 0.183438
O O3 0.666712 0.166651 0.425340
O O4 0.573815 0.132159 0.242952
O O5 0.784393 0.869960 0.220646
O O6 0.741582 0.745743 0.145067
O O7 0.831880 0.747031 0.343740
O O8 0.839232 0.780864 0.072132
O O9 0.744690 0.000000 0.183827
O O10 0.726118 0.908098 0.960293
O O11 0.729799 0.500000 0.208128
O O12 0.686302 0.629530 0.156977
O O13 0.788144 0.611776 0.322859
O O14 0.396217 0.135210 0.379969
O O15 0.954568 0.500000 0.844921
O O16 0.032318 0.414349 0.770548
O O17 0.000000 0.385439 0.000000
O O18 0.500000 0.110264 0.500000
O O19 0.569364 0.000000 0.580464
#
# Coordination Sequence:
#
# PCOD8096692 Si02
#       8
#     8   8   8   8   8   8   8   8
#     4  11  20  30  44  65  91 118 148 182 221 257
#     4   8  16  30  45  63  85 115 148 177 216 263
#     4   9  18  31  47  65  89 117 148 184 216 257
#     4   9  18  31  47  66  87 117 151 179 217 265
#     4   8  16  30  45  62  87 114 145 183 215 256
#     4  11  20  29  45  65  89 121 150 178 219 261
#     4  10  22  34  45  63  86 115 152 188 217 249
#     4  10  20  34  45  59  88 119 148 183 217 252
#
# _framework density 15.696013000000001
#
# number of rings (size 3 to 8) (size 9 to 14) (size 15 to 20)
#    0.000    2.500    1.250    3.000    3.500    6.000 
#    0.000    0.000    0.000    0.000    0.000    0.000 
#    0.000    2.000    0.000    0.125    0.000    0.000 
#
# Total GULP energy -396625.607416 kJ/mol
# GULP energy per Si atom -12394.550232 kJ/mol
# Density = 1.566029 g / cm^3
# Si number density = 15.696013 Si / 1000 Ang^3
#
#
#
# Elastic Constant Matrix: (Units=GPa)
#
#
# Indices 1 2 3 4 5 6 
#
# 1 33.8648 21.3452 4.3472 0.0000 -4.4173 0.0000
# 2 21.3452 101.5399 23.0342 0.0000 -0.2033 0.0000
# 3 4.3472 23.0342 72.2878 0.0000 -0.8011 0.0000
# 4 0.0000 0.0000 0.0000 16.6688 0.0000 4.6813
# 5 -4.4173 -0.2033 -0.8011 0.0000 17.8496 0.0000
# 6 0.0000 0.0000 0.0000 4.6813 0.0000 17.7744
#
#
#
# Elastic Compliance Matrix: (Units=1/GPa)
#
#
# Indices 1 2 3 4 5 6 
#
# 1 0.035337 -0.007492 0.000358 0.000000 0.008676 0.000000
# 2 -0.007492 0.012204 -0.003459 0.000000 -0.001870 0.000000
# 3 0.000358 -0.003459 0.014922 0.000000 0.000719 0.000000
# 4 0.000000 0.000000 0.000000 0.064784 0.000000 -0.017062
# 5 0.008676 -0.001870 0.000719 0.000000 0.058182 0.000000
# 6 0.000000 0.000000 0.000000 -0.017062 0.000000 0.060754
#
#
# Mechanical properties :
#
#
# Convention : Reuss Voigt Hill
#
# Bulk Modulus (GPa) = 24.22599 33.90508 29.06553
# Shear Modulus (GPa) = 17.78544 21.05630 19.42087
#
# Velocity S-wave (km/s) = 3.36983 3.66663 3.52136
# Velocity P-wave (km/s) = 5.53254 6.29075 5.92379
#
# Compressibility (1/GPa) = 0.04127799
#
# Stress axis : x y z
#
# Youngs Moduli (GPa) = 28.29867 81.93845 67.01428
#
# Poissons Ratio (x) = 0.61391 -0.02402
# Poissons Ratio (y) = 0.21202 0.23180
# Poissons Ratio (z) = -0.01014 0.28343
#
# Static dielectric constant tensor:
#      x y z
#    x 2.723230 0.000000 -0.064940 
#    y 0.000000 3.425340 0.000000 
#    z -0.064940 0.000000 3.118240 
# 
# 
# High freq. dielectric constant tensor:
#      x y z
#    x 1.557880 0.000000 -0.012260 
#    y 0.000000 1.595910 0.000000 
#    z -0.012260 0.000000 1.610490 
# 
# From -- ./inp_files/97785.got.cif
#   From: 2010.06.25/outbox.cif.g09.slc.cpg/sg12_49_cif.got.tgz:97785.got - 2010.06.28 00:19:55.
