data_PCOD8096629
_publ_section_title
;
Structure prediction by ZEFSAII (Michael W. Deem and Ramdas Pophale) SiO2 
 PCOD8096629
Probable space group: C 2/M
;
_chemical_formula_sum "Si O2"
_cell_formula_units_Z 56
_cell_length_a 19.258400
_cell_length_b 9.061173
_cell_length_c 18.603914
_cell_angle_alpha 90.000000
_cell_angle_beta 113.156790
_cell_angle_gamma 90.000000
_cell_volume 2984.892154
_symmetry_space_group_name_H-M "C 2/M"
_symmetry_group_IT_number 12
_symmetry_cell_setting 'monoclinic'
loop_
_space_group_symop_operation_xyz
x,y,z
-x,y,-z
-x,-y,-z
x,-y,z
1/2+x,1/2+y,z
1/2-x,1/2+y,-z
1/2-x,1/2-y,-z
1/2+x,1/2-y,z
loop_
_atom_site_type_symbol
_atom_site_label
_atom_site_fract_x
_atom_site_fract_y
_atom_site_fract_z
Si Si1 0.778998 0.325941 0.858516
Si Si2 0.084408 0.827664 0.009090
Si Si3 0.962913 0.166117 0.555682
Si Si4 0.714159 0.172138 0.697812
Si Si5 0.711237 0.333103 0.548195
Si Si6 0.945081 0.670256 0.296243
Si Si7 0.121364 0.828411 0.861577
O O1 0.784344 0.500000 0.848992
O O2 0.857013 0.267837 0.921972
O O3 0.768455 0.248113 0.777733
O O4 0.708977 0.284720 0.882867
O O5 0.101373 0.000000 0.028473
O O6 0.096554 0.783810 0.931216
O O7 0.000000 0.786929 0.000000
O O8 0.875199 0.166833 0.507648
O O9 0.000000 0.239000 0.500000
O O10 0.983238 0.259272 0.634656
O O11 0.994449 0.000000 0.579211
O O12 0.729504 0.246571 0.628157
O O13 0.627627 0.199165 0.683957
O O14 0.734160 0.000000 0.701752
O O15 0.741639 0.500000 0.568461
O O16 0.750000 0.250000 0.500000
O O17 0.961695 0.500000 0.290553
O O18 0.934313 0.742178 0.214071
O O19 0.109177 0.000000 0.841765
#
# Coordination Sequence:
#
# PCOD8096629 Si02
#       7
#     8   8   8   8   8   8   8
#     4  10  20  35  59  86 110 143 185 232 280 330
#     4  10  21  38  58  82 113 149 184 224 277 337
#     4  10  20  36  59  83 111 149 189 230 280 336
#     4  10  20  36  58  84 114 147 187 234 282 334
#     4  11  23  39  58  82 114 152 191 233 281 336
#     4  10  20  33  56  88 115 142 184 240 285 324
#     4   9  19  36  58  82 111 146 186 229 277 336
#
# _framework density 18.761146
#
# number of rings (size 3 to 8) (size 9 to 14) (size 15 to 20)
#    0.000    2.000    1.429    2.143    0.000    4.000 
#    2.571    0.000    0.000    0.000    0.000    0.000 
#    0.000    0.000    0.000    0.000    0.000    0.000 
#
# Total GULP energy -347279.638447 kJ/mol
# GULP energy per Si atom -12402.844230 kJ/mol
# Density = 1.871844 g / cm^3
# Si number density = 18.761146 Si / 1000 Ang^3
#
#
#
# Elastic Constant Matrix: (Units=GPa)
#
#
# Indices 1 2 3 4 5 6 
#
# 1 80.5887 44.8799 61.0506 0.0000 -12.3436 0.0000
# 2 44.8799 109.6965 84.4975 0.0000 -4.5886 0.0000
# 3 61.0506 84.4975 160.2258 0.0000 -9.3674 0.0000
# 4 0.0000 0.0000 0.0000 37.3961 0.0000 2.4465
# 5 -12.3436 -4.5886 -9.3674 0.0000 26.9163 0.0000
# 6 0.0000 0.0000 0.0000 2.4465 0.0000 27.1517
#
#
#
# Elastic Compliance Matrix: (Units=1/GPa)
#
#
# Indices 1 2 3 4 5 6 
#
# 1 0.019271 -0.003788 -0.004968 0.000000 0.006463 0.000000
# 2 -0.003788 0.016098 -0.007133 0.000000 -0.001475 0.000000
# 3 -0.004968 -0.007133 0.011934 0.000000 0.000659 0.000000
# 4 0.000000 0.000000 0.000000 0.026899 0.000000 -0.002424
# 5 0.006463 -0.001475 0.000659 0.000000 0.040094 0.000000
# 6 0.000000 0.000000 0.000000 -0.002424 0.000000 0.037049
#
#
# Mechanical properties :
#
#
# Convention : Reuss Voigt Hill
#
# Bulk Modulus (GPa) = 64.40090 81.26299 72.83195
# Shear Modulus (GPa) = 26.55383 28.96501 27.75942
#
# Velocity S-wave (km/s) = 3.76621 3.93349 3.85076
# Velocity P-wave (km/s) = 7.30163 8.00240 7.66003
#
# Compressibility (1/GPa) = 0.01552773
#
# Stress axis : x y z
#
# Youngs Moduli (GPa) = 51.89108 62.11897 83.79401
#
# Poissons Ratio (x) = 0.23528 0.41625
# Poissons Ratio (y) = 0.19654 0.59767
# Poissons Ratio (z) = 0.25777 0.44307
#
# Static dielectric constant tensor:
#      x y z
#    x 3.218490 0.000000 0.000130 
#    y 0.000000 3.594600 0.000000 
#    z 0.000130 0.000000 3.428960 
# 
# 
# High freq. dielectric constant tensor:
#      x y z
#    x 1.711740 0.000000 -0.000570 
#    y 0.000000 1.735870 0.000000 
#    z -0.000570 0.000000 1.739540 
# 
# From -- ./inp_files/275219.got.cif
#   From: 2010.06.25/outbox.cif.g09.slc.cpg/sg12_138_cif.got.tgz:275219.got - 2010.06.28 00:19:55.
