data_PCOD8096820
_publ_section_title
;
Structure prediction by ZEFSAII (Michael W. Deem and Ramdas Pophale) SiO2 
 PCOD8096820
Probable space group: C 2/M
;
_chemical_formula_sum "Si O2"
_cell_formula_units_Z 56
_cell_length_a 14.215520
_cell_length_b 9.715525
_cell_length_c 22.574121
_cell_angle_alpha 90.000000
_cell_angle_beta 72.427937
_cell_angle_gamma 90.000000
_cell_volume 2972.259828
_symmetry_space_group_name_H-M "C 2/M"
_symmetry_group_IT_number 12
_symmetry_cell_setting 'monoclinic'
loop_
_space_group_symop_operation_xyz
x,y,z
-x,y,-z
-x,-y,-z
x,-y,z
1/2+x,1/2+y,z
1/2-x,1/2+y,-z
1/2-x,1/2-y,-z
1/2+x,1/2-y,z
loop_
_atom_site_type_symbol
_atom_site_label
_atom_site_fract_x
_atom_site_fract_y
_atom_site_fract_z
Si Si1 0.892797 0.153762 0.959749
Si Si2 0.711298 0.661863 0.202590
Si Si3 0.316388 0.338589 0.271521
Si Si4 0.018229 0.163161 0.174266
Si Si5 0.694708 0.658271 0.589550
Si Si6 0.102070 0.340503 0.510709
Si Si7 0.316373 0.152442 0.065409
O O1 0.968366 0.217003 0.896117
O O2 0.785795 0.152569 0.950478
O O3 0.923365 0.000000 0.972960
O O4 0.893776 0.244009 0.019606
O O5 0.710103 0.500000 0.218077
O O6 0.730335 0.749607 0.258080
O O7 0.606076 0.715987 0.199486
O O8 0.794743 0.695814 0.137314
O O9 0.296781 0.500000 0.264844
O O10 0.416906 0.287034 0.221946
O O11 0.320675 0.302414 0.339554
O O12 0.026961 0.000000 0.169479
O O13 0.667011 0.500000 0.582460
O O14 0.808727 0.687048 0.551841
O O15 0.619943 0.751617 0.566180
O O16 0.096216 0.500000 0.530470
O O17 0.000000 0.292685 0.500000
O O18 0.362726 0.000000 0.054653
#
# Coordination Sequence:
#
# PCOD8096820 Si02
#       7
#     8   8   8   8   8   8   8
#     4   8  13  24  44  65  84 114 157 197 237 291
#     4   9  18  33  50  68  94 129 165 198 241 298
#     4  10  20  34  51  72 100 130 162 202 240 277
#     4   8  16  32  50  67  93 129 162 196 245 298
#     4   9  19  34  51  75 104 131 162 199 236 277
#     4   9  18  34  55  77 103 133 161 193 236 282
#     4   8  14  25  42  64  89 116 150 198 248 286
#
# _framework density 18.840883000000002
#
# number of rings (size 3 to 8) (size 9 to 14) (size 15 to 20)
#    0.000    3.286    0.000    1.714    0.000    2.571 
#    0.000    4.286    0.000    4.286    0.000    0.000 
#    0.000    0.000    0.000    0.000    0.000    0.000 
#
# Total GULP energy -347113.516703 kJ/mol
# GULP energy per Si atom -12396.911311 kJ/mol
# Density = 1.879800 g / cm^3
# Si number density = 18.840883 Si / 1000 Ang^3
#
#
#
# Elastic Constant Matrix: (Units=GPa)
#
#
# Indices 1 2 3 4 5 6 
#
# 1 67.7237 24.5106 25.1315 0.0000 11.1706 0.0000
# 2 24.5106 57.3655 36.5751 0.0000 12.6821 0.0000
# 3 25.1315 36.5751 86.5133 0.0000 11.2541 0.0000
# 4 0.0000 0.0000 0.0000 32.2054 0.0000 8.0098
# 5 11.1706 12.6821 11.2541 0.0000 25.4400 0.0000
# 6 0.0000 0.0000 0.0000 8.0098 0.0000 20.1345
#
#
#
# Elastic Compliance Matrix: (Units=1/GPa)
#
#
# Indices 1 2 3 4 5 6 
#
# 1 0.018321 -0.005258 -0.002540 0.000000 -0.004300 0.000000
# 2 -0.005258 0.026965 -0.008939 0.000000 -0.007179 0.000000
# 3 -0.002540 -0.008939 0.016288 0.000000 -0.001634 0.000000
# 4 0.000000 0.000000 0.000000 0.034460 0.000000 -0.013709
# 5 -0.004300 -0.007179 -0.001634 0.000000 0.045498 0.000000
# 6 0.000000 0.000000 0.000000 -0.013709 0.000000 0.055120
#
#
# Mechanical properties :
#
#
# Convention : Reuss Voigt Hill
#
# Bulk Modulus (GPa) = 35.58580 42.67077 39.12828
# Shear Modulus (GPa) = 20.87760 23.91499 22.39630
#
# Velocity S-wave (km/s) = 3.33243 3.56661 3.45150
# Velocity P-wave (km/s) = 5.80821 6.29746 6.05778
#
# Compressibility (1/GPa) = 0.02810110
#
# Stress axis : x y z
#
# Youngs Moduli (GPa) = 54.58352 37.08534 61.39393
#
# Poissons Ratio (x) = 0.19499 0.15593
# Poissons Ratio (y) = 0.28700 0.54877
# Poissons Ratio (z) = 0.13863 0.33149
#
# Static dielectric constant tensor:
#      x y z
#    x 3.300390 0.000000 -0.099920 
#    y 0.000000 3.354730 0.000000 
#    z -0.099920 0.000000 3.534630 
# 
# 
# High freq. dielectric constant tensor:
#      x y z
#    x 1.723700 0.000000 0.000680 
#    y 0.000000 1.712380 0.000000 
#    z 0.000680 0.000000 1.730830 
# 
# From -- ./inp_files/337836.got.cif
#   From: 2010.06.25/outbox.cif.g09.slc.cpg/sg12_169_cif.got.tgz:337836.got - 2010.06.28 00:19:55.
