data_PCOD8096869
_publ_section_title
;
Structure prediction by ZEFSAII (Michael W. Deem and Ramdas Pophale) SiO2 
 PCOD8096869
Probable space group: C 2/M
;
_chemical_formula_sum "Si O2"
_cell_formula_units_Z 64
_cell_length_a 14.287676
_cell_length_b 9.171953
_cell_length_c 27.467048
_cell_angle_alpha 90.000000
_cell_angle_beta 105.068235
_cell_angle_gamma 90.000000
_cell_volume 3475.683815
_symmetry_space_group_name_H-M "C 2/M"
_symmetry_group_IT_number 12
_symmetry_cell_setting 'monoclinic'
loop_
_space_group_symop_operation_xyz
x,y,z
-x,y,-z
-x,-y,-z
x,-y,z
1/2+x,1/2+y,z
1/2-x,1/2+y,-z
1/2-x,1/2-y,-z
1/2+x,1/2-y,z
loop_
_atom_site_type_symbol
_atom_site_label
_atom_site_fract_x
_atom_site_fract_y
_atom_site_fract_z
Si Si1 0.637888 0.671546 0.826180
Si Si2 0.394132 0.672534 0.286583
Si Si3 0.539090 0.829456 0.895597
Si Si4 0.472566 0.672783 0.443968
Si Si5 0.217959 0.172736 0.635456
Si Si6 0.669956 0.167749 0.091120
Si Si7 0.392235 0.664722 0.006091
Si Si8 0.085060 0.172280 0.365230
O O1 0.615200 0.500000 0.826093
O O2 0.633057 0.731640 0.770442
O O3 0.557177 0.758528 0.845532
O O4 0.743681 0.709414 0.861093
O O5 0.391696 0.500000 0.286965
O O6 0.315099 0.727029 0.315288
O O7 0.502175 0.723214 0.315978
O O8 0.428187 0.796376 0.893468
O O9 0.562250 0.000000 0.897870
O O10 0.611395 0.753286 0.944002
O O11 0.500000 0.742395 0.500000
O O12 0.473786 0.500000 0.447034
O O13 0.364839 0.722785 0.413933
O O14 0.551531 0.722147 0.414613
O O15 0.316821 0.248525 0.634799
O O16 0.232759 0.000000 0.636258
O O17 0.678941 0.261284 0.042851
O O18 0.672795 0.000000 0.075475
O O19 0.357671 0.500000 0.011446
O O20 0.500000 0.669774 0.000000
O O21 0.101601 0.000000 0.365019
#
# Coordination Sequence:
#
# PCOD8096869 Si02
#       8
#     8   8   8   8   8   8   8   8
#     4  10  20  35  53  71  93 125 164 199 237 291
#     4   8  17  34  51  67  93 129 164 198 241 297
#     4  10  20  34  51  74 102 126 153 195 245 290
#     4   8  15  29  48  71 103 140 171 199 239 296
#     4   9  17  31  52  74  96 129 171 207 243 290
#     4   9  19  34  51  71  96 125 155 193 241 288
#     4   9  17  31  52  74  96 126 161 193 229 283
#     4   9  17  31  51  73  97 129 168 206 245 288
#
# _framework density 18.413644000000001
#
# number of rings (size 3 to 8) (size 9 to 14) (size 15 to 20)
#    0.000    3.000    0.000    2.250    0.000    4.500 
#    0.000    5.000    0.000    0.750    0.000    0.000 
#    0.000    0.000    0.000    0.000    0.000    0.000 
#
# Total GULP energy -396739.117025 kJ/mol
# GULP energy per Si atom -12398.097407 kJ/mol
# Density = 1.837173 g / cm^3
# Si number density = 18.413644 Si / 1000 Ang^3
#
#
#
# Elastic Constant Matrix: (Units=GPa)
#
#
# Indices 1 2 3 4 5 6 
#
# 1 113.0473 32.0600 59.0550 0.0000 -2.2139 0.0000
# 2 32.0600 50.7284 34.9738 0.0000 -2.4415 0.0000
# 3 59.0550 34.9738 160.1474 0.0000 -7.2472 0.0000
# 4 0.0000 0.0000 0.0000 19.0010 0.0000 -2.1827
# 5 -2.2139 -2.4415 -7.2472 0.0000 21.1709 0.0000
# 6 0.0000 0.0000 0.0000 -2.1827 0.0000 30.8386
#
#
#
# Elastic Compliance Matrix: (Units=1/GPa)
#
#
# Indices 1 2 3 4 5 6 
#
# 1 0.012090 -0.005386 -0.003304 0.000000 -0.000488 0.000000
# 2 -0.005386 0.025626 -0.003557 0.000000 0.001174 0.000000
# 3 -0.003304 -0.003557 0.008334 0.000000 0.002097 0.000000
# 4 0.000000 0.000000 0.000000 0.053060 0.000000 0.003756
# 5 -0.000488 0.001174 0.002097 0.000000 0.048037 0.000000
# 6 0.000000 0.000000 0.000000 0.003756 0.000000 0.032693
#
#
# Mechanical properties :
#
#
# Convention : Reuss Voigt Hill
#
# Bulk Modulus (GPa) = 46.39198 64.01120 55.20159
# Shear Modulus (GPa) = 23.63849 27.39103 25.51476
#
# Velocity S-wave (km/s) = 3.58683 3.86105 3.72646
# Velocity P-wave (km/s) = 6.51175 7.39698 6.96843
#
# Compressibility (1/GPa) = 0.02155545
#
# Stress axis : x y z
#
# Youngs Moduli (GPa) = 82.71429 39.02332 119.98639
#
# Poissons Ratio (x) = 0.21019 0.39643
# Poissons Ratio (y) = 0.44553 0.42678
# Poissons Ratio (z) = 0.27328 0.13880
#
# Static dielectric constant tensor:
#      x y z
#    x 3.344440 0.000000 -0.073010 
#    y 0.000000 3.111220 0.000000 
#    z -0.073010 0.000000 3.873590 
# 
# 
# High freq. dielectric constant tensor:
#      x y z
#    x 1.716970 0.000000 -0.002790 
#    y 0.000000 1.685300 0.000000 
#    z -0.002790 0.000000 1.717340 
# 
# From -- ./inp_files/360005.got.cif
#   From: 2010.06.25/outbox.cif.g09.slc.cpg/sg12_181_cif.got.tgz:360005.got - 2010.06.28 00:19:55.
