data_PCOD8096560
_publ_section_title
;
Structure prediction by ZEFSAII (Michael W. Deem and Ramdas Pophale) SiO2 
 PCOD8096560
Probable space group: C 2/M
;
_chemical_formula_sum "Si O2"
_cell_formula_units_Z 64
_cell_length_a 20.331550
_cell_length_b 9.039972
_cell_length_c 22.942911
_cell_angle_alpha 90.000000
_cell_angle_beta 126.852956
_cell_angle_gamma 90.000000
_cell_volume 3374.211984
_symmetry_space_group_name_H-M "C 2/M"
_symmetry_group_IT_number 12
_symmetry_cell_setting 'monoclinic'
loop_
_space_group_symop_operation_xyz
x,y,z
-x,y,-z
-x,-y,-z
x,-y,z
1/2+x,1/2+y,z
1/2-x,1/2+y,-z
1/2-x,1/2-y,-z
1/2+x,1/2-y,z
loop_
_atom_site_type_symbol
_atom_site_label
_atom_site_fract_x
_atom_site_fract_y
_atom_site_fract_z
Si Si1 0.918413 0.838676 0.490385
Si Si2 0.279770 0.826875 0.352315
Si Si3 0.130381 0.334631 0.315031
Si Si4 0.007810 0.830070 0.822827
Si Si5 0.771336 0.825331 0.805274
Si Si6 0.878794 0.173362 0.221619
Si Si7 0.956758 0.172794 0.920455
Si Si8 0.479847 0.832599 0.633598
O O1 0.862558 0.752452 0.414830
O O2 0.936857 0.739713 0.555788
O O3 0.000000 0.872012 0.500000
O O4 0.880641 0.000000 0.488298
O O5 0.208730 0.771533 0.357755
O O6 0.257797 0.782066 0.274785
O O7 0.291051 0.000000 0.365931
O O8 0.156110 0.500000 0.310071
O O9 0.092426 0.333134 0.358399
O O10 0.065200 0.275884 0.234248
O O11 0.089536 0.796076 0.828063
O O12 0.017202 0.799126 0.897008
O O13 0.980419 0.000000 0.797711
O O14 0.710837 0.746538 0.819497
O O15 0.864279 0.763852 0.862954
O O16 0.766203 0.000000 0.812888
O O17 0.941418 0.242382 0.301891
O O18 0.872830 0.000000 0.231247
O O19 0.946070 0.000000 0.925535
O O20 0.000000 0.246586 0.000000
O O21 0.509281 0.000000 0.635076
#
# Coordination Sequence:
#
# PCOD8096560 Si02
#       8
#     8   8   8   8   8   8   8   8
#     4  11  24  39  54  76 106 141 182 228 281 330
#     4  11  22  36  56  79 106 143 185 228 273 325
#     4  10  20  34  55  82 108 139 179 227 276 323
#     4   9  17  34  56  81 111 145 187 224 269 329
#     4  10  20  35  56  83 111 142 186 232 272 326
#     4  10  20  33  55  82 112 149 184 229 278 325
#     4   9  17  33  59  86 110 142 186 230 270 322
#     4  10  21  37  56  79 108 143 185 227 274 328
#
# _framework density 18.967393000000001
#
# number of rings (size 3 to 8) (size 9 to 14) (size 15 to 20)
#    0.000    2.000    1.250    2.625    0.000    6.500 
#    0.000    0.625    0.000    1.500    0.000    0.000 
#    0.000    0.000    0.000    0.000    0.000    0.000 
#
# Total GULP energy -396721.651248 kJ/mol
# GULP energy per Si atom -12397.551601 kJ/mol
# Density = 1.892422 g / cm^3
# Si number density = 18.967393 Si / 1000 Ang^3
#
#
#
# Elastic Constant Matrix: (Units=GPa)
#
#
# Indices 1 2 3 4 5 6 
#
# 1 98.7845 45.8156 57.9627 0.0000 6.5670 0.0000
# 2 45.8156 84.8992 46.1312 0.0000 -3.3223 0.0000
# 3 57.9627 46.1312 128.5564 0.0000 -9.0921 0.0000
# 4 0.0000 0.0000 0.0000 17.9999 0.0000 4.4616
# 5 6.5670 -3.3223 -9.0921 0.0000 24.5432 0.0000
# 6 0.0000 0.0000 0.0000 4.4616 0.0000 29.2723
#
#
#
# Elastic Compliance Matrix: (Units=1/GPa)
#
#
# Indices 1 2 3 4 5 6 
#
# 1 0.017032 -0.006241 -0.005978 0.000000 -0.007617 0.000000
# 2 -0.006241 0.016918 -0.003057 0.000000 0.002827 0.000000
# 3 -0.005978 -0.003057 0.011969 0.000000 0.005620 0.000000
# 4 0.000000 0.000000 0.000000 0.057737 0.000000 -0.008800
# 5 -0.007617 0.002827 0.005620 0.000000 0.045247 0.000000
# 6 0.000000 0.000000 0.000000 -0.008800 0.000000 0.035503
#
#
# Mechanical properties :
#
#
# Convention : Reuss Voigt Hill
#
# Bulk Modulus (GPa) = 65.07879 68.00657 66.54268
# Shear Modulus (GPa) = 22.71895 25.18511 23.95203
#
# Velocity S-wave (km/s) = 3.46466 3.64787 3.55745
# Velocity P-wave (km/s) = 7.09863 7.32631 7.21337
#
# Compressibility (1/GPa) = 0.01536599
#
# Stress axis : x y z
#
# Youngs Moduli (GPa) = 58.71423 59.10768 83.55131
#
# Poissons Ratio (x) = 0.36887 0.49950
# Poissons Ratio (y) = 0.36642 0.25544
# Poissons Ratio (z) = 0.35102 0.18071
#
# Static dielectric constant tensor:
#      x y z
#    x 3.848560 0.000000 -0.132210 
#    y 0.000000 3.544870 0.000000 
#    z -0.132210 0.000000 3.530100 
# 
# 
# High freq. dielectric constant tensor:
#      x y z
#    x 1.746080 0.000000 -0.004630 
#    y 0.000000 1.735950 0.000000 
#    z -0.004630 0.000000 1.716060 
# 
# From -- ./inp_files/346280.got.cif
#   From: 2010.06.25/outbox.cif.g09.slc.cpg/sg12_174_cif.got.tgz:346280.got - 2010.06.28 00:19:55.
