data_PCOD8096737
_publ_section_title
;
Structure prediction by ZEFSAII (Michael W. Deem and Ramdas Pophale) SiO2 
 PCOD8096737
Probable space group: C 2/M
;
_chemical_formula_sum "Si O2"
_cell_formula_units_Z 56
_cell_length_a 14.297721
_cell_length_b 9.033436
_cell_length_c 30.686383
_cell_angle_alpha 90.000000
_cell_angle_beta 134.149568
_cell_angle_gamma 90.000000
_cell_volume 2843.818728
_symmetry_space_group_name_H-M "C 2/M"
_symmetry_group_IT_number 12
_symmetry_cell_setting 'monoclinic'
loop_
_space_group_symop_operation_xyz
x,y,z
-x,y,-z
-x,-y,-z
x,-y,z
1/2+x,1/2+y,z
1/2-x,1/2+y,-z
1/2-x,1/2-y,-z
1/2+x,1/2-y,z
loop_
_atom_site_type_symbol
_atom_site_label
_atom_site_fract_x
_atom_site_fract_y
_atom_site_fract_z
Si Si1 0.954053 0.175890 0.773676
Si Si2 0.072040 0.329453 0.448935
Si Si3 0.835203 0.329086 0.320759
Si Si4 0.391756 0.673483 0.091402
Si Si5 0.406697 0.826004 0.008061
Si Si6 0.717961 0.669878 0.420913
Si Si7 0.520906 0.825420 0.303731
O O1 0.807289 0.244213 0.725339
O O2 0.026875 0.250902 0.756530
O O3 0.024455 0.228639 0.840432
O O4 0.961023 0.000000 0.770680
O O5 0.102198 0.500000 0.443630
O O6 0.127621 0.306786 0.516373
O O7 0.141184 0.212693 0.439816
O O8 0.915173 0.304137 0.392431
O O9 0.808767 0.500000 0.303710
O O10 0.921535 0.268803 0.308634
O O11 0.406675 0.500000 0.088895
O O12 0.448725 0.752029 0.067089
O O13 0.241760 0.717716 0.051469
O O14 0.424242 0.000000 0.019304
O O15 0.500000 0.765464 0.000000
O O16 0.690934 0.500000 0.399603
O O17 0.666991 0.768622 0.364076
O O18 0.523601 0.000000 0.299468
#
# Coordination Sequence:
#
# PCOD8096737 Si02
#       7
#     8   8   8   8   8   8   8
#     4  10  20  35  53  73 100 132 167 206 244 286
#     4   8  14  26  45  68  93 123 161 204 252 304
#     4   8  16  32  51  69  94 129 164 201 249 302
#     4   9  19  34  52  77 105 132 166 205 240 281
#     4   9  18  34  55  78 106 137 164 195 240 289
#     4   9  15  25  45  70  93 122 162 207 253 298
#     4  10  20  34  50  70  98 131 167 205 249 302
#
# _framework density 19.691832000000002
#
# number of rings (size 3 to 8) (size 9 to 14) (size 15 to 20)
#    0.000    3.000    0.000    1.714    0.000    2.571 
#    0.000    4.286    0.000    4.286    0.000    0.000 
#    0.000    0.000    0.000    0.000    0.000    0.000 
#
# Total GULP energy -346962.861683 kJ/mol
# GULP energy per Si atom -12391.530774 kJ/mol
# Density = 1.964701 g / cm^3
# Si number density = 19.691832 Si / 1000 Ang^3
#
#
#
# Elastic Constant Matrix: (Units=GPa)
#
#
# Indices 1 2 3 4 5 6 
#
# 1 57.5695 13.9355 30.4818 0.0000 -4.8323 0.0000
# 2 13.9355 38.8179 28.0552 0.0000 -5.6048 0.0000
# 3 30.4818 28.0552 133.1675 0.0000 -11.1321 0.0000
# 4 0.0000 0.0000 0.0000 30.3576 0.0000 -7.7560
# 5 -4.8323 -5.6048 -11.1321 0.0000 27.3478 0.0000
# 6 0.0000 0.0000 0.0000 -7.7560 0.0000 19.5059
#
#
#
# Elastic Compliance Matrix: (Units=1/GPa)
#
#
# Indices 1 2 3 4 5 6 
#
# 1 0.020498 -0.004560 -0.003630 0.000000 0.001210 0.000000
# 2 -0.004560 0.031779 -0.005356 0.000000 0.003527 0.000000
# 3 -0.003630 -0.005356 0.009652 0.000000 0.002190 0.000000
# 4 0.000000 0.000000 0.000000 0.036666 0.000000 0.014579
# 5 0.001210 0.003527 0.002190 0.000000 0.038394 0.000000
# 6 0.000000 0.000000 0.000000 0.014579 0.000000 0.057064
#
#
# Mechanical properties :
#
#
# Convention : Reuss Voigt Hill
#
# Bulk Modulus (GPa) = 28.70687 41.61111 35.15899
# Shear Modulus (GPa) = 21.48166 25.91441 23.69803
#
# Velocity S-wave (km/s) = 3.30645 3.63160 3.47283
# Velocity P-wave (km/s) = 5.40245 6.22589 5.82873
#
# Compressibility (1/GPa) = 0.03483487
#
# Stress axis : x y z
#
# Youngs Moduli (GPa) = 48.78580 31.46731 103.60834
#
# Poissons Ratio (x) = 0.14351 0.37610
# Poissons Ratio (y) = 0.22249 0.55496
# Poissons Ratio (z) = 0.17709 0.16855
#
# Static dielectric constant tensor:
#      x y z
#    x 3.479310 0.000000 0.143300 
#    y 0.000000 3.330520 0.000000 
#    z 0.143300 0.000000 3.904040 
# 
# 
# High freq. dielectric constant tensor:
#      x y z
#    x 1.745320 0.000000 0.000550 
#    y 0.000000 1.744120 0.000000 
#    z 0.000550 0.000000 1.777690 
# 
# From -- ./inp_files/337860.got.cif
#   From: 2010.06.25/outbox.cif.g09.slc.cpg/sg12_169_cif.got.tgz:337860.got - 2010.06.28 00:19:55.
