data_PCOD8096515
_publ_section_title
;
Structure prediction by ZEFSAII (Michael W. Deem and Ramdas Pophale) SiO2 
 PCOD8096515
Probable space group: C 2/M
;
_chemical_formula_sum "Si O2"
_cell_formula_units_Z 48
_cell_length_a 21.223059
_cell_length_b 12.091150
_cell_length_c 12.161100
_cell_angle_alpha 90.000000
_cell_angle_beta 55.238908
_cell_angle_gamma 90.000000
_cell_volume 2563.748112
_symmetry_space_group_name_H-M "C 2/M"
_symmetry_group_IT_number 12
_symmetry_cell_setting 'monoclinic'
loop_
_space_group_symop_operation_xyz
x,y,z
-x,y,-z
-x,-y,-z
x,-y,z
1/2+x,1/2+y,z
1/2-x,1/2+y,-z
1/2-x,1/2-y,-z
1/2+x,1/2-y,z
loop_
_atom_site_type_symbol
_atom_site_label
_atom_site_fract_x
_atom_site_fract_y
_atom_site_fract_z
Si Si1 0.046223 0.500000 0.794245
Si Si2 0.861641 0.292622 0.340095
Si Si3 0.914982 0.125996 0.103535
Si Si4 0.296468 0.382419 0.043928
Si Si5 0.696822 0.623378 0.442109
Si Si6 0.121071 0.500000 0.959095
Si Si7 0.739155 0.657892 0.158765
O O1 0.072938 0.386174 0.708142
O O2 0.953373 0.500000 0.887665
O O3 0.088052 0.500000 0.869876
O O4 0.873095 0.210875 0.225851
O O5 0.782188 0.355761 0.400986
O O6 0.859865 0.215622 0.450807
O O7 0.912507 0.000000 0.153011
O O8 0.878809 0.131791 0.018311
O O9 0.000000 0.169650 0.000000
O O10 0.260058 0.500000 0.116458
O O11 0.306947 0.384441 0.901678
O O12 0.240041 0.289703 0.145841
O O13 0.672054 0.500000 0.503991
O O14 0.693010 0.626820 0.313613
O O15 0.174212 0.607810 0.925826
#
# Coordination Sequence:
#
# PCOD8096515 Si02
#       7
#     4   8   8   8   8   4   8
#     4  11  22  34  54  85 119 146 191 221 296 323
#     4  11  21  34  52  81 112 152 183 230 281 335
#     4  10  21  36  54  82 115 145 184 231 284 334
#     4  10  20  33  54  83 114 144 183 229 284 335
#     4  11  20  35  54  77 115 146 190 233 271 331
#     4  11  20  34  58  83 116 149 180 244 271 347
#     4  11  19  36  56  85 112 145 188 232 283 325
#
# _framework density 18.722588999999999
#
# number of rings (size 3 to 8) (size 9 to 14) (size 15 to 20)
#    0.000    1.333    5.833    0.500    4.667    0.000 
#    1.500    0.000    0.000    1.000    0.000    9.333 
#    0.000    0.000    0.000    0.000    0.000    0.000 
#
# Total GULP energy -297454.207292 kJ/mol
# GULP energy per Si atom -12393.925304 kJ/mol
# Density = 1.867998 g / cm^3
# Si number density = 18.722589 Si / 1000 Ang^3
#
#
#
# Elastic Constant Matrix: (Units=GPa)
#
#
# Indices 1 2 3 4 5 6 
#
# 1 68.1270 31.3871 39.8471 0.0000 5.5267 0.0000
# 2 31.3871 150.4050 58.0456 0.0000 2.0773 0.0000
# 3 39.8471 58.0456 99.5307 0.0000 2.9537 0.0000
# 4 0.0000 0.0000 0.0000 22.8301 0.0000 0.6310
# 5 5.5267 2.0773 2.9537 0.0000 20.9004 0.0000
# 6 0.0000 0.0000 0.0000 0.6310 0.0000 16.4382
#
#
#
# Elastic Compliance Matrix: (Units=1/GPa)
#
#
# Indices 1 2 3 4 5 6 
#
# 1 0.019721 -0.001366 -0.006977 0.000000 -0.004093 0.000000
# 2 -0.001366 0.008675 -0.004516 0.000000 0.000137 0.000000
# 3 -0.006977 -0.004516 0.015471 0.000000 0.000107 0.000000
# 4 0.000000 0.000000 0.000000 0.043848 0.000000 -0.001683
# 5 -0.004093 0.000137 0.000107 0.000000 0.048900 0.000000
# 6 0.000000 0.000000 0.000000 -0.001683 0.000000 0.060898
#
#
# Mechanical properties :
#
#
# Convention : Reuss Voigt Hill
#
# Bulk Modulus (GPa) = 55.10316 64.06916 59.58616
# Shear Modulus (GPa) = 21.80731 24.61926 23.21328
#
# Velocity S-wave (km/s) = 3.41656 3.63016 3.52498
# Velocity P-wave (km/s) = 6.71261 7.20175 6.96148
#
# Compressibility (1/GPa) = 0.01814778
#
# Stress axis : x y z
#
# Youngs Moduli (GPa) = 50.70803 115.27537 64.63704
#
# Poissons Ratio (x) = 0.15750 0.45097
# Poissons Ratio (y) = 0.06928 0.29191
# Poissons Ratio (z) = 0.35379 0.52061
#
# Static dielectric constant tensor:
#      x y z
#    x 3.279230 0.000000 0.122880 
#    y 0.000000 3.900050 0.000000 
#    z 0.122880 0.000000 3.390000 
# 
# 
# High freq. dielectric constant tensor:
#      x y z
#    x 1.693970 0.000000 0.014420 
#    y 0.000000 1.762040 0.000000 
#    z 0.014420 0.000000 1.699090 
# 
# From -- ./inp_files/174419.got.cif
#   From: 2010.06.25/outbox.cif.g09.slc.cpg/sg12_88_cif.got.tgz:174419.got - 2010.06.28 00:19:55.
