data_PCOD8096982
_publ_section_title
;
Structure prediction by ZEFSAII (Michael W. Deem and Ramdas Pophale) SiO2 
 PCOD8096982
Probable space group: C 2/M
;
_chemical_formula_sum "Si O2"
_cell_formula_units_Z 52
_cell_length_a 8.462605
_cell_length_b 12.245211
_cell_length_c 26.876846
_cell_angle_alpha 90.000000
_cell_angle_beta 84.706049
_cell_angle_gamma 90.000000
_cell_volume 2773.270147
_symmetry_space_group_name_H-M "C 2/M"
_symmetry_group_IT_number 12
_symmetry_cell_setting 'monoclinic'
loop_
_space_group_symop_operation_xyz
x,y,z
-x,y,-z
-x,-y,-z
x,-y,z
1/2+x,1/2+y,z
1/2-x,1/2+y,-z
1/2-x,1/2-y,-z
1/2+x,1/2-y,z
loop_
_atom_site_type_symbol
_atom_site_label
_atom_site_fract_x
_atom_site_fract_y
_atom_site_fract_z
Si Si1 0.500000 0.274936 0.000000
Si Si2 0.878797 0.123886 0.593054
Si Si3 0.830510 0.374756 0.826269
Si Si4 0.568710 0.725290 0.766803
Si Si5 0.796376 0.374787 0.940430
Si Si6 0.611784 0.798091 0.536527
Si Si7 0.192119 0.874015 0.293069
O O1 0.365120 0.352972 0.025404
O O2 0.562518 0.199273 0.042691
O O3 0.698611 0.129777 0.575906
O O4 0.869193 0.158419 0.650699
O O5 0.006727 0.201772 0.563620
O O6 0.940059 0.000000 0.585215
O O7 0.883129 0.500000 0.820065
O O8 0.689854 0.352505 0.791831
O O9 0.771425 0.346790 0.883325
O O10 0.982545 0.301431 0.809588
O O11 0.655560 0.800921 0.723820
O O12 0.446507 0.646830 0.742454
O O13 0.845845 0.500000 0.946638
O O14 0.500000 0.864361 0.500000
O O15 0.750000 0.750000 0.500000
O O16 0.243647 0.000000 0.289455
#
# Coordination Sequence:
#
# PCOD8096982 Si02
#       7
#     4   8   8   8   8   8   8
#     4  10  20  34  52  74 100 132 170 208 254 300
#     4  10  20  35  54  75 102 134 166 205 250 293
#     4  10  20  34  52  75 102 133 168 206 251 300
#     4  10  20  34  53  75 103 133 165 207 250 294
#     4  10  20  34  52  74 101 132 168 209 251 299
#     4   9  19  34  52  75 101 129 166 204 242 293
#     4  10  20  34  53  76 101 132 168 204 247 297
#
# _framework density 18.750426999999998
#
# number of rings (size 3 to 8) (size 9 to 14) (size 15 to 20)
#    0.000    2.154    0.000    3.231    0.000    3.077 
#    0.000    2.308    0.000   27.692    0.000    0.000 
#    0.000    0.000    0.000    0.000    0.000    0.000 
#
# Total GULP energy -322367.104194 kJ/mol
# GULP energy per Si atom -12398.734777 kJ/mol
# Density = 1.870775 g / cm^3
# Si number density = 18.750427 Si / 1000 Ang^3
#
#
#
# Elastic Constant Matrix: (Units=GPa)
#
#
# Indices 1 2 3 4 5 6 
#
# 1 53.5417 6.8433 11.2280 0.0000 -2.0902 0.0000
# 2 6.8433 60.7915 32.4814 0.0000 -5.3228 0.0000
# 3 11.2280 32.4814 94.3829 0.0000 -1.3090 0.0000
# 4 0.0000 0.0000 0.0000 13.8141 0.0000 1.8618
# 5 -2.0902 -5.3228 -1.3090 0.0000 27.9016 0.0000
# 6 0.0000 0.0000 0.0000 1.8618 0.0000 20.7658
#
#
#
# Elastic Compliance Matrix: (Units=1/GPa)
#
#
# Indices 1 2 3 4 5 6 
#
# 1 0.019257 -0.001043 -0.001916 0.000000 0.001154 0.000000
# 2 -0.001043 0.020564 -0.006904 0.000000 0.003521 0.000000
# 3 -0.001916 -0.006904 0.013187 0.000000 -0.000842 0.000000
# 4 0.000000 0.000000 0.000000 0.073275 0.000000 -0.006570
# 5 0.001154 0.003521 -0.000842 0.000000 0.036559 0.000000
# 6 0.000000 0.000000 0.000000 -0.006570 0.000000 0.048745
#
#
# Mechanical properties :
#
#
# Convention : Reuss Voigt Hill
#
# Bulk Modulus (GPa) = 30.04573 34.42458 32.23516
# Shear Modulus (GPa) = 20.62635 23.04055 21.83345
#
# Velocity S-wave (km/s) = 3.32029 3.50923 3.41607
# Velocity P-wave (km/s) = 5.54598 5.90075 5.72611
#
# Compressibility (1/GPa) = 0.03328260
#
# Stress axis : x y z
#
# Youngs Moduli (GPa) = 51.92878 48.62785 75.82985
#
# Poissons Ratio (x) = 0.05072 0.14528
# Poissons Ratio (y) = 0.05417 0.52354
# Poissons Ratio (z) = 0.09949 0.33574
#
# Static dielectric constant tensor:
#      x y z
#    x 3.698790 0.000000 0.222550 
#    y 0.000000 3.262440 0.000000 
#    z 0.222550 0.000000 3.688510 
# 
# 
# High freq. dielectric constant tensor:
#      x y z
#    x 1.732750 0.000000 0.004000 
#    y 0.000000 1.721200 0.000000 
#    z 0.004000 0.000000 1.743180 
# 
# From -- ./inp_files/355528.got.cif
#   From: 2010.06.25/outbox.cif.g09.slc.cpg/sg12_178_cif.got.tgz:355528.got - 2010.06.28 00:19:55.
