data_PCOD8096696
_publ_section_title
;
Structure prediction by ZEFSAII (Michael W. Deem and Ramdas Pophale) SiO2 
 PCOD8096696
Probable space group: C 2/M
;
_chemical_formula_sum "Si O2"
_cell_formula_units_Z 56
_cell_length_a 12.480299
_cell_length_b 27.168133
_cell_length_c 14.063245
_cell_angle_alpha 90.000000
_cell_angle_beta 40.949642
_cell_angle_gamma 90.000000
_cell_volume 3125.170749
_symmetry_space_group_name_H-M "C 2/M"
_symmetry_group_IT_number 12
_symmetry_cell_setting 'monoclinic'
loop_
_space_group_symop_operation_xyz
x,y,z
-x,y,-z
-x,-y,-z
x,-y,z
1/2+x,1/2+y,z
1/2-x,1/2+y,-z
1/2-x,1/2-y,-z
1/2+x,1/2-y,z
loop_
_atom_site_type_symbol
_atom_site_label
_atom_site_fract_x
_atom_site_fract_y
_atom_site_fract_z
Si Si1 0.329021 0.894767 0.154179
Si Si2 0.522273 0.827891 0.382673
Si Si3 0.259830 0.132469 0.410109
Si Si4 0.503099 0.554502 0.610657
Si Si5 0.173151 0.803615 0.931659
Si Si6 0.298129 0.305249 0.873992
Si Si7 0.093075 0.224872 0.563042
O O1 0.341788 0.888580 0.259885
O O2 0.303952 0.842435 0.121974
O O3 0.174958 0.929350 0.230839
O O4 0.500000 0.917619 0.000000
O O5 0.500000 0.854779 0.500000
O O6 0.395606 0.850506 0.393388
O O7 0.702048 0.833642 0.218923
O O8 0.506108 0.769390 0.417003
O O9 0.147374 0.092461 0.540966
O O10 0.149166 0.180470 0.454845
O O11 0.500000 0.553763 0.500000
O O12 0.542185 0.500000 0.625063
O O13 0.203661 0.745766 0.923197
O O14 0.193451 0.825451 0.024008
O O15 0.000000 0.813554 0.000000
O O16 0.486494 0.300408 0.716972
O O17 0.250000 0.250000 0.500000
#
# Coordination Sequence:
#
# PCOD8096696 Si02
#       7
#     8   8   8   8   8   8   8
#     4  11  21  32  54  76 108 140 171 215 261 321
#     4  10  22  33  50  75 104 140 181 218 252 302
#     4  10  20  36  53  76 104 138 177 218 263 313
#     4   9  19  35  56  80 103 132 171 217 270 320
#     4  10  22  33  48  70 106 142 179 216 255 297
#     4  10  20  34  47  72 101 141 181 213 256 310
#     4   9  19  30  50  69 100 135 178 215 249 295
#
# _framework density 17.919021000000001
#
# number of rings (size 3 to 8) (size 9 to 14) (size 15 to 20)
#    0.000    2.143    1.429    1.286    8.000    3.714 
#    0.000    0.000    0.000    0.429    0.000    0.000 
#    0.000    3.429    0.000    0.000    0.000    0.000 
#
# Total GULP energy -346940.525558 kJ/mol
# GULP energy per Si atom -12390.733056 kJ/mol
# Density = 1.787824 g / cm^3
# Si number density = 17.919021 Si / 1000 Ang^3
#
#
#
# Elastic Constant Matrix: (Units=GPa)
#
#
# Indices 1 2 3 4 5 6 
#
# 1 89.7567 18.7551 51.3659 0.0000 -0.9402 0.0000
# 2 18.7551 71.0035 27.1302 0.0000 -10.7200 0.0000
# 3 51.3659 27.1302 144.0538 0.0000 -12.0126 0.0000
# 4 0.0000 0.0000 0.0000 15.6019 0.0000 -4.6887
# 5 -0.9402 -10.7200 -12.0126 0.0000 32.1829 0.0000
# 6 0.0000 0.0000 0.0000 -4.6887 0.0000 13.5173
#
#
#
# Elastic Compliance Matrix: (Units=1/GPa)
#
#
# Indices 1 2 3 4 5 6 
#
# 1 0.014386 -0.002259 -0.004884 0.000000 -0.002155 0.000000
# 2 -0.002259 0.016078 -0.001839 0.000000 0.004603 0.000000
# 3 -0.004884 -0.001839 0.009255 0.000000 0.002699 0.000000
# 4 0.000000 0.000000 0.000000 0.071553 0.000000 0.024819
# 5 -0.002155 0.004603 0.002699 0.000000 0.033550 0.000000
# 6 0.000000 0.000000 0.000000 0.024819 0.000000 0.082588
#
#
# Mechanical properties :
#
#
# Convention : Reuss Voigt Hill
#
# Bulk Modulus (GPa) = 45.96603 55.47959 50.72281
# Shear Modulus (GPa) = 19.79215 26.09793 22.94504
#
# Velocity S-wave (km/s) = 3.32706 3.82047 3.58227
# Velocity P-wave (km/s) = 6.36136 7.10562 6.74376
#
# Compressibility (1/GPa) = 0.02175520
#
# Stress axis : x y z
#
# Youngs Moduli (GPa) = 69.51384 62.19647 108.05370
#
# Poissons Ratio (x) = 0.14051 0.52771
# Poissons Ratio (y) = 0.15704 0.19867
# Poissons Ratio (z) = 0.33949 0.11436
#
# Static dielectric constant tensor:
#      x y z
#    x 2.779010 0.000000 -0.518030 
#    y 0.000000 3.330000 0.000000 
#    z -0.518030 0.000000 2.799840 
# 
# 
# High freq. dielectric constant tensor:
#      x y z
#    x 1.676910 0.000000 -0.008080 
#    y 0.000000 1.651550 0.000000 
#    z -0.008080 0.000000 1.711930 
# 
# From -- ./inp_files/209129.got.cif
#   From: 2010.06.25/outbox.cif.g09.slc.cpg/sg12_105_cif.got.tgz:209129.got - 2010.06.28 00:19:55.
