data_PCOD8096867
_publ_section_title
;
Structure prediction by ZEFSAII (Michael W. Deem and Ramdas Pophale) SiO2 
 PCOD8096867
Probable space group: C 2/M
;
_chemical_formula_sum "Si O2"
_cell_formula_units_Z 48
_cell_length_a 14.166832
_cell_length_b 8.662157
_cell_length_c 22.100341
_cell_angle_alpha 90.000000
_cell_angle_beta 106.335643
_cell_angle_gamma 90.000000
_cell_volume 2602.566381
_symmetry_space_group_name_H-M "C 2/M"
_symmetry_group_IT_number 12
_symmetry_cell_setting 'monoclinic'
loop_
_space_group_symop_operation_xyz
x,y,z
-x,y,-z
-x,-y,-z
x,-y,z
1/2+x,1/2+y,z
1/2-x,1/2+y,-z
1/2-x,1/2-y,-z
1/2+x,1/2-y,z
loop_
_atom_site_type_symbol
_atom_site_label
_atom_site_fract_x
_atom_site_fract_y
_atom_site_fract_z
Si Si1 0.377207 0.681174 0.763134
Si Si2 0.196065 0.182360 0.673070
Si Si3 0.960668 0.183780 0.906341
Si Si4 0.853976 0.315985 0.999354
Si Si5 0.521648 0.682605 0.341436
Si Si6 0.704270 0.182125 0.431751
O O1 0.361653 0.500000 0.760456
O O2 0.269818 0.756723 0.737815
O O3 0.427391 0.736847 0.833923
O O4 0.446669 0.733727 0.720243
O O5 0.230933 0.240500 0.613434
O O6 0.087464 0.247715 0.666475
O O7 0.195825 0.000000 0.676495
O O8 0.065804 0.261858 0.937219
O O9 0.970342 0.000000 0.914374
O O10 0.880226 0.246172 0.938815
O O11 0.851574 0.500000 0.995328
O O12 0.750000 0.250000 0.000000
O O13 0.526455 0.500000 0.350602
O O14 0.593069 0.758162 0.403994
O O15 0.750000 0.250000 0.500000
O O16 0.703886 0.000000 0.436216
#
# Coordination Sequence:
#
# PCOD8096867 Si02
#       6
#     8   8   8   8   8   8
#     4   9  19  34  54  78 105 134 167 208 256 303
#     4   9  19  34  53  75 102 135 173 211 252 303
#     4  10  20  36  55  80 111 141 175 217 261 316
#     4  11  22  37  56  79 106 141 180 221 267 314
#     4   9  18  35  54  74 101 134 168 207 252 302
#     4  10  20  34  51  74 101 133 170 212 257 304
#
# _framework density 18.443332999999999
#
# number of rings (size 3 to 8) (size 9 to 14) (size 15 to 20)
#    0.000    2.333    0.000    3.500    0.000    4.667 
#    0.000    5.000    0.000    0.000    0.000    0.000 
#    0.000    0.000    0.000    0.000    0.000    0.000 
#
# Total GULP energy -297646.267211 kJ/mol
# GULP energy per Si atom -12401.927800 kJ/mol
# Density = 1.840136 g / cm^3
# Si number density = 18.443333 Si / 1000 Ang^3
#
#
#
# Elastic Constant Matrix: (Units=GPa)
#
#
# Indices 1 2 3 4 5 6 
#
# 1 156.8431 24.7860 62.8309 0.0000 13.9818 0.0000
# 2 24.7860 44.7783 27.7259 0.0000 1.5975 0.0000
# 3 62.8309 27.7259 150.5254 0.0000 14.1145 0.0000
# 4 0.0000 0.0000 0.0000 31.2825 0.0000 5.4568
# 5 13.9818 1.5975 14.1145 0.0000 15.9176 0.0000
# 6 0.0000 0.0000 0.0000 5.4568 0.0000 30.5924
#
#
#
# Elastic Compliance Matrix: (Units=1/GPa)
#
#
# Indices 1 2 3 4 5 6 
#
# 1 0.008241 -0.002865 -0.002465 0.000000 -0.004765 0.000000
# 2 -0.002865 0.026247 -0.003957 0.000000 0.003391 0.000000
# 3 -0.002465 -0.003957 0.008901 0.000000 -0.005330 0.000000
# 4 0.000000 0.000000 0.000000 0.032993 0.000000 -0.005885
# 5 -0.004765 0.003391 -0.005330 0.000000 0.071395 0.000000
# 6 0.000000 0.000000 0.000000 -0.005885 0.000000 0.033738
#
#
# Mechanical properties :
#
#
# Convention : Reuss Voigt Hill
#
# Bulk Modulus (GPa) = 40.29820 64.75915 52.52868
# Shear Modulus (GPa) = 23.99686 31.34544 27.67115
#
# Velocity S-wave (km/s) = 3.61101 4.12704 3.87762
# Velocity P-wave (km/s) = 6.26762 7.60912 6.97071
#
# Compressibility (1/GPa) = 0.02481500
#
# Stress axis : x y z
#
# Youngs Moduli (GPa) = 121.34512 38.09955 112.34669
#
# Poissons Ratio (x) = 0.10916 0.27697
# Poissons Ratio (y) = 0.34767 0.44451
# Poissons Ratio (z) = 0.29915 0.15074
#
# Static dielectric constant tensor:
#      x y z
#    x 3.573010 0.000000 -0.008820 
#    y 0.000000 3.368360 0.000000 
#    z -0.008820 0.000000 3.512690 
# 
# 
# High freq. dielectric constant tensor:
#      x y z
#    x 1.719630 0.000000 0.005790 
#    y 0.000000 1.717280 0.000000 
#    z 0.005790 0.000000 1.718260 
# 
# From -- ./inp_files/308596.got.cif
#   From: 2010.06.25/outbox.cif.g09.slc.cpg/sg12_155_cif.got.tgz:308596.got - 2010.06.28 00:19:55.
