data_PCOD8096235
_publ_section_title
;
Structure prediction by ZEFSAII (Michael W. Deem and Ramdas Pophale) SiO2 
 PCOD8096235
Probable space group: C 2/M
;
_chemical_formula_sum "Si O2"
_cell_formula_units_Z 40
_cell_length_a 14.376124
_cell_length_b 8.635492
_cell_length_c 33.548928
_cell_angle_alpha 90.000000
_cell_angle_beta 150.148101
_cell_angle_gamma 90.000000
_cell_volume 2073.133890
_symmetry_space_group_name_H-M "C 2/M"
_symmetry_group_IT_number 12
_symmetry_cell_setting 'monoclinic'
loop_
_space_group_symop_operation_xyz
x,y,z
-x,y,-z
-x,-y,-z
x,-y,z
1/2+x,1/2+y,z
1/2-x,1/2+y,-z
1/2-x,1/2-y,-z
1/2+x,1/2-y,z
loop_
_atom_site_type_symbol
_atom_site_label
_atom_site_fract_x
_atom_site_fract_y
_atom_site_fract_z
Si Si1 0.010471 0.316917 0.571471
Si Si2 0.844179 0.317829 0.592651
Si Si3 0.418277 0.317262 0.700707
Si Si4 0.261125 0.184274 0.882303
Si Si5 0.852966 0.815340 0.999669
O O1 0.003081 0.500000 0.565064
O O2 0.218376 0.253670 0.641260
O O3 0.951891 0.258701 0.593499
O O4 0.866957 0.248586 0.485585
O O5 0.834553 0.500000 0.590718
O O6 0.960771 0.255428 0.673475
O O7 0.417557 0.500000 0.696159
O O8 0.575783 0.263795 0.790166
O O9 0.245234 0.257287 0.920282
O O10 0.281434 0.000000 0.893446
O O11 0.436371 0.251352 0.923097
O O12 0.855309 0.000000 0.001697
O O13 0.750000 0.750000 0.000000
#
# Coordination Sequence:
#
# PCOD8096235 Si02
#       5
#     8   8   8   8   8
#     4   9  19  36  53  72 104 145 183 220 269 323
#     4  10  20  33  52  78 106 140 185 230 267 311
#     4  10  21  36  55  78 108 144 177 217 271 325
#     4  10  21  38  58  85 115 143 183 229 274 330
#     4  11  22  39  62  85 111 146 182 221 274 330
#
# _framework density 19.294460999999998
#
# number of rings (size 3 to 8) (size 9 to 14) (size 15 to 20)
#    0.000    2.000    0.000    4.800    0.000    7.200 
#    0.000    2.000    0.000    0.000    0.000    0.000 
#    0.000    0.000    0.000    0.000    0.000    0.000 
#
# Total GULP energy -248050.988173 kJ/mol
# GULP energy per Si atom -12402.549409 kJ/mol
# Density = 1.925055 g / cm^3
# Si number density = 19.294461 Si / 1000 Ang^3
#
#
#
# Elastic Constant Matrix: (Units=GPa)
#
#
# Indices 1 2 3 4 5 6 
#
# 1 107.0456 30.3827 54.0745 -0.0001 -11.2585 0.0001
# 2 30.3827 66.0272 38.0950 0.0000 -3.9124 0.0000
# 3 54.0745 38.0950 142.0437 0.0000 -5.5131 0.0000
# 4 -0.0001 0.0000 0.0000 31.9776 0.0000 -5.2993
# 5 -11.2585 -3.9124 -5.5131 0.0000 20.6938 0.0000
# 6 0.0001 0.0000 0.0000 -5.2993 0.0000 31.2027
#
#
#
# Elastic Compliance Matrix: (Units=1/GPa)
#
#
# Indices 1 2 3 4 5 6 
#
# 1 0.012751 -0.003397 -0.003738 0.000000 0.005299 0.000000
# 2 -0.003397 0.018916 -0.003752 0.000000 0.000729 0.000000
# 3 -0.003738 -0.003752 0.009460 0.000000 -0.000222 0.000000
# 4 0.000000 0.000000 0.000000 0.032177 0.000000 0.005465
# 5 0.005299 0.000729 -0.000222 0.000000 0.051285 0.000000
# 6 0.000000 0.000000 0.000000 0.005465 0.000000 0.032977
#
#
# Mechanical properties :
#
#
# Convention : Reuss Voigt Hill
#
# Bulk Modulus (GPa) = 51.66525 62.24676 56.95600
# Shear Modulus (GPa) = 26.91182 29.61246 28.26214
#
# Velocity S-wave (km/s) = 3.73875 3.92186 3.83140
# Velocity P-wave (km/s) = 6.74337 7.26908 7.01115
#
# Compressibility (1/GPa) = 0.01935537
#
# Stress axis : x y z
#
# Youngs Moduli (GPa) = 78.42245 52.86475 105.70308
#
# Poissons Ratio (x) = 0.17959 0.39507
# Poissons Ratio (y) = 0.26642 0.39656
# Poissons Ratio (z) = 0.29311 0.19833
#
# Static dielectric constant tensor:
#      x y z
#    x 3.936350 0.000000 -0.074750 
#    y 0.000000 3.468850 0.000000 
#    z -0.074750 0.000000 3.709710 
# 
# 
# High freq. dielectric constant tensor:
#      x y z
#    x 1.756570 0.000000 -0.006270 
#    y 0.000000 1.753110 0.000000 
#    z -0.006270 0.000000 1.752890 
# 
# From -- ./inp_files/266709.got.cif
#   From: 2010.06.25/outbox.cif.g09.slc.cpg/sg12_134_cif.got.tgz:266709.got - 2010.06.28 00:19:55.
