data_PCOD8096482
_publ_section_title
;
Structure prediction by ZEFSAII (Michael W. Deem and Ramdas Pophale) SiO2 
 PCOD8096482
Probable space group: C 2/M
;
_chemical_formula_sum "Si O2"
_cell_formula_units_Z 64
_cell_length_a 24.249758
_cell_length_b 9.346061
_cell_length_c 28.655724
_cell_angle_alpha 90.000000
_cell_angle_beta 34.541245
_cell_angle_gamma 90.000000
_cell_volume 3682.391540
_symmetry_space_group_name_H-M "C 2/M"
_symmetry_group_IT_number 12
_symmetry_cell_setting 'monoclinic'
loop_
_space_group_symop_operation_xyz
x,y,z
-x,y,-z
-x,-y,-z
x,-y,z
1/2+x,1/2+y,z
1/2-x,1/2+y,-z
1/2-x,1/2-y,-z
1/2+x,1/2-y,z
loop_
_atom_site_type_symbol
_atom_site_label
_atom_site_fract_x
_atom_site_fract_y
_atom_site_fract_z
Si Si1 0.515113 0.665475 0.563555
Si Si2 0.896991 0.666129 0.828330
Si Si3 0.551448 0.162140 0.308411
Si Si4 0.162545 0.168975 0.777201
Si Si5 0.157050 0.166917 0.384157
Si Si6 0.207667 0.334097 0.938619
Si Si7 0.981139 0.336933 0.868269
Si Si8 0.776494 0.164303 0.162761
O O1 0.504584 0.500000 0.581930
O O2 0.520224 0.745083 0.609558
O O3 0.613076 0.696076 0.466188
O O4 0.421668 0.717236 0.599177
O O5 0.864253 0.500000 0.848897
O O6 0.958855 0.705374 0.738831
O O7 0.799941 0.760018 0.898366
O O8 0.964378 0.697457 0.825549
O O9 0.661791 0.189032 0.247500
O O10 0.519804 0.000000 0.338442
O O11 0.246114 0.240743 0.687925
O O12 0.174189 0.210618 0.823270
O O13 0.059204 0.226435 0.832860
O O14 0.168168 0.000000 0.765778
O O15 0.181900 0.000000 0.360502
O O16 0.231389 0.500000 0.913733
O O17 0.180245 0.262957 0.908217
O O18 0.118728 0.311778 0.035260
O O19 0.017725 0.500000 0.849393
O O20 0.799844 0.000000 0.134057
#
# Coordination Sequence:
#
# PCOD8096482 Si02
#       8
#     8   8   8   8   8   8   8   8
#     4   9  17  29  49  77 105 133 164 199 246 300
#     4   9  19  36  55  74 102 135 167 208 260 306
#     4   9  16  29  50  75 102 131 164 204 249 299
#     4  11  22  35  52  74 102 137 175 210 246 300
#     4   9  18  32  49  73 106 138 164 197 247 304
#     4  10  20  33  54  80 100 125 170 219 256 295
#     4  10  22  38  53  72 100 137 173 209 257 305
#     4   9  19  34  49  71 105 139 166 200 258 309
#
# _framework density 17.380009000000001
#
# number of rings (size 3 to 8) (size 9 to 14) (size 15 to 20)
#    0.000    2.500    1.250    2.625    0.000    5.500 
#    0.000    3.750    0.000    0.750    0.000    0.000 
#    0.000    0.000    0.000    0.000    0.000    0.000 
#
# Total GULP energy -396819.148238 kJ/mol
# GULP energy per Si atom -12400.598382 kJ/mol
# Density = 1.734045 g / cm^3
# Si number density = 17.380009 Si / 1000 Ang^3
#
#
#
# Elastic Constant Matrix: (Units=GPa)
#
#
# Indices 1 2 3 4 5 6 
#
# 1 96.4672 36.3990 27.7265 0.0331 18.9736 -0.0529
# 2 36.3990 65.5483 28.4370 0.0140 13.2208 -0.0301
# 3 27.7265 28.4370 37.1091 0.0165 22.9772 -0.0346
# 4 0.0331 0.0140 0.0165 30.1877 -0.0170 1.9055
# 5 18.9736 13.2208 22.9772 -0.0170 24.4030 0.0359
# 6 -0.0529 -0.0301 -0.0346 1.9055 0.0359 26.7182
#
#
#
# Elastic Compliance Matrix: (Units=1/GPa)
#
#
# Indices 1 2 3 4 5 6 
#
# 1 0.014416 -0.005485 -0.003519 -0.000016 -0.004923 0.000026
# 2 -0.005485 0.025973 -0.023341 0.000015 0.012171 -0.000029
# 3 -0.003519 -0.023341 0.090984 -0.000086 -0.070287 0.000185
# 4 -0.000016 0.000015 -0.000086 0.033276 0.000112 -0.002373
# 5 -0.004923 0.012171 -0.070287 0.000112 0.104393 -0.000235
# 6 0.000026 -0.000029 0.000185 -0.002373 -0.000235 0.037598
#
#
# Mechanical properties :
#
#
# Convention : Reuss Voigt Hill
#
# Bulk Modulus (GPa) = 14.99655 42.69438 28.84547
# Shear Modulus (GPa) = 12.70463 23.36591 18.03527
#
# Velocity S-wave (km/s) = 2.70662 3.67060 3.22483
# Velocity P-wave (km/s) = 4.29128 6.52556 5.52259
#
# Compressibility (1/GPa) = 0.06668198
#
# Stress axis : x y z
#
# Youngs Moduli (GPa) = 69.36863 38.50118 10.99099
#
# Poissons Ratio (x) = 0.21120 0.03868
# Poissons Ratio (y) = 0.38052 0.25654
# Poissons Ratio (z) = 0.24410 0.89865
#
# Static dielectric constant tensor:
#      x y z
#    x 3.256940 0.000000 0.232120 
#    y 0.000000 3.228140 0.000000 
#    z 0.232120 0.000000 3.091020 
# 
# 
# High freq. dielectric constant tensor:
#      x y z
#    x 1.658820 0.000000 0.022890 
#    y 0.000000 1.673640 0.000000 
#    z 0.022890 0.000000 1.661140 
# 
# From -- ./inp_files/382347.got.cif
#   From: 2010.06.25/outbox.cif.g09.slc.cpg/sg12_192_cif.got.tgz:382347.got - 2010.06.28 00:19:55.
