data_PCOD8096753
_publ_section_title
;
Structure prediction by ZEFSAII (Michael W. Deem and Ramdas Pophale) SiO2 
 PCOD8096753
Probable space group: C 2/M
;
_chemical_formula_sum "Si O2"
_cell_formula_units_Z 64
_cell_length_a 31.400756
_cell_length_b 8.704597
_cell_length_c 25.922673
_cell_angle_alpha 90.000000
_cell_angle_beta 150.134593
_cell_angle_gamma 90.000000
_cell_volume 3528.309871
_symmetry_space_group_name_H-M "C 2/M"
_symmetry_group_IT_number 12
_symmetry_cell_setting 'monoclinic'
loop_
_space_group_symop_operation_xyz
x,y,z
-x,y,-z
-x,-y,-z
x,-y,z
1/2+x,1/2+y,z
1/2-x,1/2+y,-z
1/2-x,1/2-y,-z
1/2+x,1/2-y,z
loop_
_atom_site_type_symbol
_atom_site_label
_atom_site_fract_x
_atom_site_fract_y
_atom_site_fract_z
Si Si1 0.545265 0.323328 0.432239
Si Si2 0.821775 0.680392 0.361568
Si Si3 0.027771 0.182222 0.947175
Si Si4 0.280406 0.818743 0.122196
Si Si5 0.095141 0.318813 0.914832
Si Si6 0.566369 0.319248 0.779796
Si Si7 0.374687 0.320987 0.312714
Si Si8 0.869958 0.181451 0.847026
O O1 0.572626 0.500000 0.465318
O O2 0.627337 0.219460 0.532472
O O3 0.514178 0.282707 0.341877
O O4 0.469443 0.284636 0.392379
O O5 0.822897 0.500000 0.351848
O O6 0.869673 0.769021 0.366238
O O7 0.724884 0.743812 0.264357
O O8 0.043401 0.270947 0.910968
O O9 0.935381 0.237038 0.871473
O O10 0.031870 0.000000 0.941698
O O11 0.099269 0.234878 0.063941
O O12 0.348366 0.758650 0.152426
O O13 0.305699 0.772624 0.206867
O O14 0.272799 0.000000 0.110195
O O15 0.189979 0.746757 0.013885
O O16 0.098231 0.500000 0.913536
O O17 0.044657 0.249178 0.812819
O O18 0.583510 0.500000 0.800261
O O19 0.353533 0.500000 0.284475
O O20 0.871750 0.000000 0.848343
#
# Coordination Sequence:
#
# PCOD8096753 Si02
#       8
#     8   8   8   8   8   8   8   8
#     4   9  20  36  51  69  99 138 176 213 255 300
#     4  11  20  30  50  79 106 134 172 213 256 307
#     4   9  17  35  58  76 101 136 170 204 249 304
#     4  11  21  34  52  76 106 138 172 209 253 303
#     4  12  23  34  51  78 107 134 169 210 254 304
#     4  10  21  38  55  72  99 137 177 215 256 299
#     4  10  20  34  50  72 105 141 176 213 253 299
#     4   8  17  33  54  79 104 132 166 206 252 304
#
# _framework density 18.138997
#
# number of rings (size 3 to 8) (size 9 to 14) (size 15 to 20)
#    0.000    2.000    0.000    6.375    0.000    5.500 
#    0.000    3.125    0.000    0.750    0.000    0.000 
#    0.000    0.000    0.000    0.000    0.000    0.000 
#
# Total GULP energy -396854.375514 kJ/mol
# GULP energy per Si atom -12401.699235 kJ/mol
# Density = 1.809771 g / cm^3
# Si number density = 18.138997 Si / 1000 Ang^3
#
#
#
# Elastic Constant Matrix: (Units=GPa)
#
#
# Indices 1 2 3 4 5 6 
#
# 1 98.8909 46.4669 67.1920 0.0000 -15.8544 0.0000
# 2 46.4669 103.6096 48.8728 0.0000 -3.6454 0.0000
# 3 67.1920 48.8728 133.5696 0.0000 -4.7213 0.0000
# 4 0.0000 0.0000 0.0000 29.8623 0.0000 -4.9391
# 5 -15.8544 -3.6454 -4.7213 0.0000 23.2702 0.0000
# 6 0.0000 0.0000 0.0000 -4.9391 0.0000 25.3936
#
#
#
# Elastic Compliance Matrix: (Units=1/GPa)
#
#
# Indices 1 2 3 4 5 6 
#
# 1 0.019162 -0.004649 -0.007556 0.000000 0.010794 0.000000
# 2 -0.004649 0.012815 -0.002408 0.000000 -0.001649 0.000000
# 3 -0.007556 -0.002408 0.012060 0.000000 -0.003079 0.000000
# 4 0.000000 0.000000 0.000000 0.034600 0.000000 0.006730
# 5 0.010794 -0.001649 -0.003079 0.000000 0.049444 0.000000
# 6 0.000000 0.000000 0.000000 0.006730 0.000000 0.040689
#
#
# Mechanical properties :
#
#
# Convention : Reuss Voigt Hill
#
# Bulk Modulus (GPa) = 67.52954 73.45930 70.49442
# Shear Modulus (GPa) = 24.63848 27.27445 25.95646
#
# Velocity S-wave (km/s) = 3.68953 3.88188 3.78693
# Velocity P-wave (km/s) = 7.44714 7.78960 7.62030
#
# Compressibility (1/GPa) = 0.01480833
#
# Stress axis : x y z
#
# Youngs Moduli (GPa) = 52.18780 78.03490 82.91620
#
# Poissons Ratio (x) = 0.36282 0.62655
# Poissons Ratio (y) = 0.24264 0.19969
# Poissons Ratio (z) = 0.39436 0.18793
#
# Static dielectric constant tensor:
#      x y z
#    x 3.368650 0.000000 -0.036590 
#    y 0.000000 3.265930 0.000000 
#    z -0.036590 0.000000 3.577530 
# 
# 
# High freq. dielectric constant tensor:
#      x y z
#    x 1.686610 0.000000 -0.011170 
#    y 0.000000 1.700550 0.000000 
#    z -0.011170 0.000000 1.702540 
# 
# From -- ./inp_files/249176.got.cif
#   From: 2010.06.25/outbox.cif.g09.slc.cpg/sg12_125_cif.got.tgz:249176.got - 2010.06.28 00:19:55.
