data_PCOD8096762
_publ_section_title
;
Structure prediction by ZEFSAII (Michael W. Deem and Ramdas Pophale) SiO2 
 PCOD8096762
Probable space group: C 2/M
;
_chemical_formula_sum "Si O2"
_cell_formula_units_Z 48
_cell_length_a 15.015505
_cell_length_b 9.475196
_cell_length_c 19.226429
_cell_angle_alpha 90.000000
_cell_angle_beta 102.281558
_cell_angle_gamma 90.000000
_cell_volume 2672.834392
_symmetry_space_group_name_H-M "C 2/M"
_symmetry_group_IT_number 12
_symmetry_cell_setting 'monoclinic'
loop_
_space_group_symop_operation_xyz
x,y,z
-x,y,-z
-x,-y,-z
x,-y,z
1/2+x,1/2+y,z
1/2-x,1/2+y,-z
1/2-x,1/2-y,-z
1/2+x,1/2-y,z
loop_
_atom_site_type_symbol
_atom_site_label
_atom_site_fract_x
_atom_site_fract_y
_atom_site_fract_z
Si Si1 0.935658 0.167089 0.590531
Si Si2 0.312494 0.165416 0.667858
Si Si3 0.128177 0.166657 0.569199
Si Si4 0.497146 0.335716 0.079189
Si Si5 0.841531 0.662902 0.831557
Si Si6 0.707923 0.663011 0.930795
O O1 0.897312 0.250603 0.650036
O O2 0.878446 0.212296 0.512494
O O3 0.039817 0.218130 0.597448
O O4 0.929215 0.000000 0.602993
O O5 0.219725 0.227753 0.618830
O O6 0.308170 0.196667 0.748713
O O7 0.324490 0.000000 0.653996
O O8 0.128633 0.000000 0.573506
O O9 0.522201 0.500000 0.087063
O O10 0.569585 0.252642 0.136841
O O11 0.398647 0.302617 0.095566
O O12 0.500000 0.282835 0.000000
O O13 0.868275 0.500000 0.844992
O O14 0.757941 0.704598 0.867786
O O15 0.721904 0.500000 0.952191
O O16 0.750000 0.750000 0.000000
#
# Coordination Sequence:
#
# PCOD8096762 Si02
#       6
#     8   8   8   8   8   8
#     4   9  17  32  55  80 101 134 180 216 251 301
#     4  10  20  34  50  73 108 141 170 211 259 306
#     4   8  16  32  54  77 104 137 175 213 253 307
#     4  10  20  35  56  80 102 126 166 219 263 299
#     4  10  22  36  51  75 105 140 175 205 255 319
#     4  10  20  35  55  77 101 131 167 209 257 308
#
# _framework density 17.958463999999999
#
# number of rings (size 3 to 8) (size 9 to 14) (size 15 to 20)
#    0.000    2.500    1.667    1.500    0.000    3.000 
#    0.000    5.833    0.000    0.000    0.000    0.000 
#    0.000    0.000    0.000    0.000    0.000    0.000 
#
# Total GULP energy -297617.324611 kJ/mol
# GULP energy per Si atom -12400.721859 kJ/mol
# Density = 1.791759 g / cm^3
# Si number density = 17.958464 Si / 1000 Ang^3
#
#
#
# Elastic Constant Matrix: (Units=GPa)
#
#
# Indices 1 2 3 4 5 6 
#
# 1 111.4883 39.9081 50.1943 0.0000 -14.7360 0.0000
# 2 39.9081 42.5994 38.6478 0.0000 -6.1195 0.0000
# 3 50.1943 38.6478 97.3415 0.0000 -18.5901 0.0000
# 4 0.0000 0.0000 0.0000 25.4103 0.0000 -0.5729
# 5 -14.7360 -6.1195 -18.5901 0.0000 32.0123 0.0000
# 6 0.0000 0.0000 0.0000 -0.5729 0.0000 29.6458
#
#
#
# Elastic Compliance Matrix: (Units=1/GPa)
#
#
# Indices 1 2 3 4 5 6 
#
# 1 0.014355 -0.010665 -0.002582 0.000000 0.003070 0.000000
# 2 -0.010665 0.044690 -0.012991 0.000000 -0.003910 0.000000
# 3 -0.002582 -0.012991 0.018064 0.000000 0.006819 0.000000
# 4 0.000000 0.000000 0.000000 0.039371 0.000000 0.000761
# 5 0.003070 -0.003910 0.006819 0.000000 0.035863 0.000000
# 6 0.000000 0.000000 0.000000 0.000761 0.000000 0.033746
#
#
# Mechanical properties :
#
#
# Convention : Reuss Voigt Hill
#
# Bulk Modulus (GPa) = 40.59345 56.54773 48.57059
# Shear Modulus (GPa) = 20.26123 25.59227 22.92675
#
# Velocity S-wave (km/s) = 3.36255 3.77912 3.57691
# Velocity P-wave (km/s) = 6.14238 7.11328 6.64558
#
# Compressibility (1/GPa) = 0.02463452
#
# Stress axis : x y z
#
# Youngs Moduli (GPa) = 69.66042 22.37644 55.35828
#
# Poissons Ratio (x) = 0.23865 0.14291
# Poissons Ratio (y) = 0.74295 0.71913
# Poissons Ratio (z) = 0.17983 0.29068
#
# Static dielectric constant tensor:
#      x y z
#    x 3.540780 0.000000 0.067650 
#    y 0.000000 3.097750 0.000000 
#    z 0.067650 0.000000 3.289770 
# 
# 
# High freq. dielectric constant tensor:
#      x y z
#    x 1.706960 0.000000 -0.006150 
#    y 0.000000 1.672920 0.000000 
#    z -0.006150 0.000000 1.693430 
# 
# From -- ./inp_files/267702.got.cif
#   From: 2010.06.25/outbox.cif.g09.slc.cpg/sg12_134_cif.got.tgz:267702.got - 2010.06.28 00:19:55.
