data_PCOD8096739
_publ_section_title
;
Structure prediction by ZEFSAII (Michael W. Deem and Ramdas Pophale) SiO2 
 PCOD8096739
Probable space group: C 2/M
;
_chemical_formula_sum "Si O2"
_cell_formula_units_Z 64
_cell_length_a 30.911296
_cell_length_b 14.048985
_cell_length_c 15.252509
_cell_angle_alpha 90.000000
_cell_angle_beta 145.412815
_cell_angle_gamma 90.000000
_cell_volume 3760.031285
_symmetry_space_group_name_H-M "C 2/M"
_symmetry_group_IT_number 12
_symmetry_cell_setting 'monoclinic'
loop_
_space_group_symop_operation_xyz
x,y,z
-x,y,-z
-x,-y,-z
x,-y,z
1/2+x,1/2+y,z
1/2-x,1/2+y,-z
1/2-x,1/2-y,-z
1/2+x,1/2-y,z
loop_
_atom_site_type_symbol
_atom_site_label
_atom_site_fract_x
_atom_site_fract_y
_atom_site_fract_z
Si Si1 0.590370 0.895442 0.653706
Si Si2 0.332280 0.391808 0.647083
Si Si3 0.087587 0.712148 0.164479
Si Si4 0.833896 0.107073 0.443771
Si Si5 0.162284 0.390787 0.129560
Si Si6 0.097866 0.705821 0.493130
Si Si7 0.168731 0.611086 0.452464
Si Si8 0.436453 0.888076 0.202324
O O1 0.500000 0.901820 0.500000
O O2 0.619720 0.821970 0.629431
O O3 0.610442 0.863021 0.786614
O O4 0.625216 0.000000 0.691662
O O5 0.355535 0.500000 0.707302
O O6 0.396464 0.324090 0.795036
O O7 0.324364 0.373878 0.530858
O O8 0.252101 0.364433 0.556389
O O9 0.137418 0.675468 0.167270
O O10 0.106282 0.654735 0.283502
O O11 0.000000 0.695290 0.000000
O O12 0.751966 0.122306 0.261533
O O13 0.894814 0.179925 0.503619
O O14 0.864097 0.000000 0.476909
O O15 0.144381 0.500000 0.125239
O O16 0.117590 0.359700 0.967871
O O17 0.159805 0.656958 0.533269
O O18 0.013487 0.673225 0.324811
O O19 0.153247 0.500000 0.432934
O O20 0.458498 0.000000 0.238627
#
# Coordination Sequence:
#
# PCOD8096739 Si02
#       8
#     8   8   8   8   8   8   8   8
#     4   8  15  29  49  75 104 130 154 190 247 305
#     4  10  21  38  51  63  95 140 177 202 231 280
#     4  12  22  31  48  74 101 127 160 206 247 288
#     4  10  20  35  52  68  93 135 177 204 231 282
#     4  10  20  34  50  71 101 133 160 195 250 300
#     4  11  18  29  52  78 100 125 164 207 242 287
#     4  11  20  31  50  75 102 129 160 201 247 292
#     4   9  18  33  53  77 105 129 154 196 252 305
#
# _framework density 17.021135999999998
#
# number of rings (size 3 to 8) (size 9 to 14) (size 15 to 20)
#    0.000    1.875    2.500    4.125    0.000    2.250 
#    0.000    0.625    0.000    3.375    0.000    0.000 
#    0.000    0.000    0.000    0.000    0.000    0.000 
#
# Total GULP energy -396802.185303 kJ/mol
# GULP energy per Si atom -12400.068291 kJ/mol
# Density = 1.698239 g / cm^3
# Si number density = 17.021136 Si / 1000 Ang^3
#
#
#
# Elastic Constant Matrix: (Units=GPa)
#
#
# Indices 1 2 3 4 5 6 
#
# 1 89.0364 49.9056 16.1506 0.0000 -16.1477 0.0000
# 2 49.9056 106.6743 29.8957 0.0000 -3.2468 0.0000
# 3 16.1506 29.8957 45.9377 0.0000 -5.2736 0.0000
# 4 0.0000 0.0000 0.0000 23.5544 0.0000 2.1110
# 5 -16.1477 -3.2468 -5.2736 0.0000 20.1669 0.0000
# 6 0.0000 0.0000 0.0000 2.1110 0.0000 27.9466
#
#
#
# Elastic Compliance Matrix: (Units=1/GPa)
#
#
# Indices 1 2 3 4 5 6 
#
# 1 0.018183 -0.008241 0.000505 0.000000 0.013364 0.000000
# 2 -0.008241 0.015201 -0.007703 0.000000 -0.006166 0.000000
# 3 0.000505 -0.007703 0.027329 0.000000 0.006310 0.000000
# 4 0.000000 0.000000 0.000000 0.042744 0.000000 -0.003229
# 5 0.013364 -0.006166 0.006310 0.000000 0.060945 0.000000
# 6 0.000000 0.000000 0.000000 -0.003229 0.000000 0.036026
#
#
# Mechanical properties :
#
#
# Convention : Reuss Voigt Hill
#
# Bulk Modulus (GPa) = 33.51927 48.17245 40.84586
# Shear Modulus (GPa) = 20.72531 24.04667 22.38599
#
# Velocity S-wave (km/s) = 3.49323 3.76274 3.63049
# Velocity P-wave (km/s) = 6.00047 6.87318 6.45160
#
# Compressibility (1/GPa) = 0.02983359
#
# Stress axis : x y z
#
# Youngs Moduli (GPa) = 54.99705 65.78541 36.59175
#
# Poissons Ratio (x) = 0.54215 -0.01847
# Poissons Ratio (y) = 0.45324 0.28187
# Poissons Ratio (z) = -0.02776 0.50674
#
# Static dielectric constant tensor:
#      x y z
#    x 3.316440 0.000000 -0.298370 
#    y 0.000000 3.270370 0.000000 
#    z -0.298370 0.000000 3.109810 
# 
# 
# High freq. dielectric constant tensor:
#      x y z
#    x 1.648450 0.000000 -0.015930 
#    y 0.000000 1.655510 0.000000 
#    z -0.015930 0.000000 1.639210 
# 
# From -- ./inp_files/246400.got.cif
#   From: 2010.06.25/outbox.cif.g09.slc.cpg/sg12_124_cif.got.tgz:246400.got - 2010.06.28 00:19:55.
