data_PCOD8096811
_publ_section_title
;
Structure prediction by ZEFSAII (Michael W. Deem and Ramdas Pophale) SiO2 
 PCOD8096811
Probable space group: C 2/M
;
_chemical_formula_sum "Si O2"
_cell_formula_units_Z 56
_cell_length_a 23.488605
_cell_length_b 7.863647
_cell_length_c 20.205083
_cell_angle_alpha 90.000000
_cell_angle_beta 56.992391
_cell_angle_gamma 90.000000
_cell_volume 3129.650315
_symmetry_space_group_name_H-M "C 2/M"
_symmetry_group_IT_number 12
_symmetry_cell_setting 'monoclinic'
loop_
_space_group_symop_operation_xyz
x,y,z
-x,y,-z
-x,-y,-z
x,-y,z
1/2+x,1/2+y,z
1/2-x,1/2+y,-z
1/2-x,1/2-y,-z
1/2+x,1/2-y,z
loop_
_atom_site_type_symbol
_atom_site_label
_atom_site_fract_x
_atom_site_fract_y
_atom_site_fract_z
Si Si1 0.831038 0.304460 0.688771
Si Si2 0.454214 0.696383 0.087841
Si Si3 0.015243 0.000000 0.596520
Si Si4 0.109637 0.000000 0.422307
Si Si5 0.948864 0.699401 0.864639
Si Si6 0.306071 0.300639 0.153840
Si Si7 0.689059 0.807841 0.994274
Si Si8 0.454496 0.804372 0.707677
O O1 0.835303 0.500000 0.660244
O O2 0.754882 0.254917 0.758169
O O3 0.881366 0.279948 0.719302
O O4 0.848916 0.173453 0.618676
O O5 0.447189 0.500000 0.075800
O O6 0.485772 0.722397 0.140307
O O7 0.377624 0.772219 0.136330
O O8 0.500000 0.781445 0.000000
O O9 0.087987 0.000000 0.513240
O O10 0.956601 0.000000 0.580092
O O11 0.009496 0.826455 0.642743
O O12 0.953595 0.500000 0.872329
O O13 0.947484 0.746631 0.788508
O O14 0.881939 0.783586 0.941128
O O15 0.308206 0.500000 0.139944
O O16 0.290467 0.214024 0.094187
O O17 0.675424 0.000000 0.021226
O O18 0.750000 0.750000 0.000000
O O19 0.479716 0.000000 0.682757
#
# Coordination Sequence:
#
# PCOD8096811 Si02
#       8
#     8   8   4   4   8   8   8   8
#     4   9  18  33  52  74 109 142 167 213 260 310
#     4  10  20  34  51  71  97 134 176 224 264 299
#     4   9  18  32  52  82 109 136 162 212 254 321
#     4   9  18  32  52  82 111 130 174 200 256 331
#     4  10  21  35  49  70 102 135 176 219 259 308
#     4  10  20  35  50  70 102 134 176 218 257 305
#     4  11  22  33  48  70  98 137 177 214 257 304
#     4   9  18  33  51  75 107 140 171 209 262 314
#
# _framework density 17.893374000000001
#
# number of rings (size 3 to 8) (size 9 to 14) (size 15 to 20)
#    0.000    2.286    1.429    1.286    2.000    4.286 
#    2.571    2.857    0.000    0.000    0.000    1.000 
#    0.000    0.000    0.000    0.000    0.000    0.000 
#
# Total GULP energy -347084.196414 kJ/mol
# GULP energy per Si atom -12395.864158 kJ/mol
# Density = 1.785265 g / cm^3
# Si number density = 17.893374 Si / 1000 Ang^3
#
#
#
# Elastic Constant Matrix: (Units=GPa)
#
#
# Indices 1 2 3 4 5 6 
#
# 1 90.0759 20.8319 41.5393 0.0049 -19.3602 -0.0003
# 2 20.8319 72.0508 57.6827 0.0203 -8.0622 -0.0012
# 3 41.5393 57.6827 122.6892 0.0082 -17.7267 -0.0046
# 4 0.0049 0.0203 0.0082 26.7556 0.0011 1.5499
# 5 -19.3602 -8.0622 -17.7267 0.0011 16.0222 -0.0003
# 6 -0.0003 -0.0012 -0.0046 1.5499 -0.0003 18.7302
#
#
#
# Elastic Compliance Matrix: (Units=1/GPa)
#
#
# Indices 1 2 3 4 5 6 
#
# 1 0.015949 -0.000558 -0.002849 -0.000002 0.015839 0.000000
# 2 -0.000558 0.022279 -0.010430 -0.000014 -0.001004 0.000000
# 3 -0.002849 -0.010430 0.015192 0.000003 0.008117 0.000003
# 4 -0.000002 -0.000014 0.000003 0.037555 -0.000009 -0.003108
# 5 0.015839 -0.001004 0.008117 -0.000009 0.090027 0.000004
# 6 0.000000 0.000000 0.000003 -0.003108 0.000004 0.053647
#
#
# Mechanical properties :
#
#
# Convention : Reuss Voigt Hill
#
# Bulk Modulus (GPa) = 38.84362 58.32484 48.58423
# Shear Modulus (GPa) = 18.45662 23.28573 20.87118
#
# Velocity S-wave (km/s) = 3.21515 3.61135 3.41899
# Velocity P-wave (km/s) = 5.96141 7.07500 6.54194
#
# Compressibility (1/GPa) = 0.02574426
#
# Stress axis : x y z
#
# Youngs Moduli (GPa) = 62.70022 44.88621 65.82410
#
# Poissons Ratio (x) = 0.02505 0.18754
# Poissons Ratio (y) = 0.03499 0.68658
# Poissons Ratio (z) = 0.17864 0.46818
#
# Static dielectric constant tensor:
#      x y z
#    x 3.251240 0.000000 -0.182310 
#    y 0.000000 3.355600 0.000000 
#    z -0.182310 0.000000 3.363380 
# 
# 
# High freq. dielectric constant tensor:
#      x y z
#    x 1.672440 0.000000 -0.008230 
#    y 0.000000 1.696530 0.000000 
#    z -0.008230 0.000000 1.675580 
# 
# From -- ./inp_files/323594.got.cif
#   From: 2010.06.25/outbox.cif.g09.slc.cpg/sg12_162_cif.got.tgz:323594.got - 2010.06.28 00:19:55.
