data_PCOD8096332
_publ_section_title
;
Structure prediction by ZEFSAII (Michael W. Deem and Ramdas Pophale) SiO2 
 PCOD8096332
Probable space group: C 2/M
;
_chemical_formula_sum "Si O2"
_cell_formula_units_Z 56
_cell_length_a 21.262234
_cell_length_b 9.380811
_cell_length_c 13.969024
_cell_angle_alpha 90.000000
_cell_angle_beta 73.660793
_cell_angle_gamma 90.000000
_cell_volume 2673.692576
_symmetry_space_group_name_H-M "C 2/M"
_symmetry_group_IT_number 12
_symmetry_cell_setting 'monoclinic'
loop_
_space_group_symop_operation_xyz
x,y,z
-x,y,-z
-x,-y,-z
x,-y,z
1/2+x,1/2+y,z
1/2-x,1/2+y,-z
1/2-x,1/2-y,-z
1/2+x,1/2-y,z
loop_
_atom_site_type_symbol
_atom_site_label
_atom_site_fract_x
_atom_site_fract_y
_atom_site_fract_z
Si Si1 0.576457 0.164332 0.954737
Si Si2 0.131203 0.160870 0.757218
Si Si3 0.512791 0.340714 0.661606
Si Si4 0.892321 0.665966 0.728212
Si Si5 0.085960 0.656109 0.492777
Si Si6 0.796837 0.340867 0.414676
Si Si7 0.187017 0.663416 0.060961
O O1 0.606528 0.268303 0.863937
O O2 0.582099 0.000000 0.918810
O O3 0.500000 0.204840 0.000000
O O4 0.619926 0.192039 0.030746
O O5 0.073626 0.155077 0.705672
O O6 0.190788 0.255595 0.689437
O O7 0.156501 0.000000 0.767441
O O8 0.489814 0.500000 0.645789
O O9 0.454386 0.256158 0.738927
O O10 0.528810 0.261064 0.554334
O O11 0.909001 0.500000 0.735333
O O12 0.879983 0.707510 0.621609
O O13 0.829589 0.704428 0.821266
O O14 0.055051 0.500000 0.488627
O O15 0.136915 0.644496 0.555822
O O16 0.768612 0.500000 0.404870
O O17 0.750000 0.250000 0.500000
O O18 0.208016 0.500000 0.042702
O O19 0.250000 0.750000 0.000000
#
# Coordination Sequence:
#
# PCOD8096332 Si02
#       7
#     8   8   8   8   8   8   8
#     4  10  21  39  63  89 116 150 196 246 296 350
#     4  10  21  36  55  81 112 146 186 234 289 343
#     4  10  20  33  52  83 117 143 175 225 282 335
#     4  10  20  36  57  78 105 146 189 224 269 335
#     4   9  19  34  53  78 108 144 182 218 266 334
#     4  10  20  35  54  78 110 145 183 227 276 334
#     4  10  23  41  60  85 117 154 195 241 293 346
#
# _framework density 20.944815999999999
#
# number of rings (size 3 to 8) (size 9 to 14) (size 15 to 20)
#    0.000    2.143    0.000    2.571    0.000    8.286 
#    0.000    1.429    0.000    0.000    0.000    0.000 
#    0.000    0.000    0.000    0.000    0.000    0.000 
#
# Total GULP energy -347056.156377 kJ/mol
# GULP energy per Si atom -12394.862728 kJ/mol
# Density = 2.089714 g / cm^3
# Si number density = 20.944816 Si / 1000 Ang^3
#
#
#
# Elastic Constant Matrix: (Units=GPa)
#
#
# Indices 1 2 3 4 5 6 
#
# 1 50.6709 20.9493 24.2185 0.0000 -17.4751 0.0000
# 2 20.9493 137.5426 75.9616 0.0000 -26.1876 0.0000
# 3 24.2185 75.9616 151.7964 0.0000 -27.7567 0.0000
# 4 0.0000 0.0000 0.0000 35.4399 0.0000 -9.0690
# 5 -17.4751 -26.1876 -27.7567 0.0000 35.6382 0.0000
# 6 0.0000 0.0000 0.0000 -9.0690 0.0000 26.8244
#
#
#
# Elastic Compliance Matrix: (Units=1/GPa)
#
#
# Indices 1 2 3 4 5 6 
#
# 1 0.024330 -0.000921 -0.001589 0.000000 0.010015 0.000000
# 2 -0.000921 0.010608 -0.004453 0.000000 0.003875 0.000000
# 3 -0.001589 -0.004453 0.009712 0.000000 0.003513 0.000000
# 4 0.000000 0.000000 0.000000 0.030889 0.000000 0.010443
# 5 0.010015 0.003875 0.003513 0.000000 0.038554 0.000000
# 6 0.000000 0.000000 0.000000 0.010443 0.000000 0.040810
#
#
# Mechanical properties :
#
#
# Convention : Reuss Voigt Hill
#
# Bulk Modulus (GPa) = 32.54904 64.69652 48.62278
# Shear Modulus (GPa) = 27.92198 34.17253 31.04726
#
# Velocity S-wave (km/s) = 3.65515 4.04363 3.85429
# Velocity P-wave (km/s) = 5.77821 7.26342 6.56296
#
# Compressibility (1/GPa) = 0.03072288
#
# Stress axis : x y z
#
# Youngs Moduli (GPa) = 41.10203 94.27099 102.96620
#
# Poissons Ratio (x) = 0.08682 0.16366
# Poissons Ratio (y) = 0.03785 0.45848
# Poissons Ratio (z) = 0.06533 0.41977
#
# Static dielectric constant tensor:
#      x y z
#    x 3.671550 0.000000 0.108170 
#    y 0.000000 3.986050 0.000000 
#    z 0.108170 0.000000 4.016040 
# 
# 
# High freq. dielectric constant tensor:
#      x y z
#    x 1.804280 0.000000 -0.002810 
#    y 0.000000 1.823410 0.000000 
#    z -0.002810 0.000000 1.827250 
# 
# From -- ./inp_files/237408.got.cif
#   From: 2010.06.25/outbox.cif.g09.slc.cpg/sg12_119_cif.got.tgz:237408.got - 2010.06.28 00:19:55.
