data_PCOD8096354
_publ_section_title
;
Structure prediction by ZEFSAII (Michael W. Deem and Ramdas Pophale) SiO2 
 PCOD8096354
Probable space group: C 2/M
;
_chemical_formula_sum "Si O2"
_cell_formula_units_Z 48
_cell_length_a 24.611940
_cell_length_b 13.515351
_cell_length_c 7.685368
_cell_angle_alpha 90.000000
_cell_angle_beta 112.190152
_cell_angle_gamma 90.000000
_cell_volume 2367.110797
_symmetry_space_group_name_H-M "C 2/M"
_symmetry_group_IT_number 12
_symmetry_cell_setting 'monoclinic'
loop_
_space_group_symop_operation_xyz
x,y,z
-x,y,-z
-x,-y,-z
x,-y,z
1/2+x,1/2+y,z
1/2-x,1/2+y,-z
1/2-x,1/2-y,-z
1/2+x,1/2-y,z
loop_
_atom_site_type_symbol
_atom_site_label
_atom_site_fract_x
_atom_site_fract_y
_atom_site_fract_z
Si Si1 0.719053 0.703006 0.753619
Si Si2 0.564598 0.794983 0.279978
Si Si3 0.146981 0.109428 0.373546
Si Si4 0.930706 0.691950 0.105685
Si Si5 0.864693 0.610550 0.334300
Si Si6 0.325674 0.321253 0.947938
O O1 0.700681 0.642839 0.561728
O O2 0.687580 0.810188 0.732178
O O3 0.788637 0.724824 0.833769
O O4 0.703711 0.638623 0.909013
O O5 0.593636 0.686047 0.324883
O O6 0.496408 0.780559 0.242266
O O7 0.593053 0.868649 0.451663
O O8 0.572044 0.844346 0.098278
O O9 0.172410 0.101320 0.207947
O O10 0.125337 0.000000 0.401959
O O11 0.903526 0.612078 0.204814
O O12 0.892155 0.791415 0.075221
O O13 0.838588 0.500000 0.321954
#
# Coordination Sequence:
#
# PCOD8096354 Si02
#       6
#     8   8   8   8   8   8
#     4   9  19  36  55  76 108 138 169 216 261 301
#     4   9  19  35  52  74 106 135 166 214 261 301
#     4  10  20  34  55  80 105 138 177 213 254 307
#     4   9  18  34  53  72 100 135 170 210 257 305
#     4  10  20  33  53  78 102 134 173 212 259 312
#     4   9  18  35  55  74 101 140 173 208 257 305
#
# _framework density 20.277882999999999
#
# number of rings (size 3 to 8) (size 9 to 14) (size 15 to 20)
#    0.000    2.667    0.000    1.000    0.000    3.333 
#    0.000   15.000    0.000   13.000    0.000    0.000 
#    0.000    0.000    0.000    0.000    0.000    0.000 
#
# Total GULP energy -297419.386067 kJ/mol
# GULP energy per Si atom -12392.474419 kJ/mol
# Density = 2.023173 g / cm^3
# Si number density = 20.277883 Si / 1000 Ang^3
#
#
#
# Elastic Constant Matrix: (Units=GPa)
#
#
# Indices 1 2 3 4 5 6 
#
# 1 56.0090 12.1149 5.2248 0.0000 3.5314 0.0000
# 2 12.1149 92.6643 24.5123 0.0000 -11.8095 0.0000
# 3 5.2248 24.5123 95.1067 0.0000 -6.5574 0.0000
# 4 0.0000 0.0000 0.0000 6.3679 0.0000 -5.9798
# 5 3.5314 -11.8095 -6.5574 0.0000 29.7294 0.0000
# 6 0.0000 0.0000 0.0000 -5.9798 0.0000 13.5551
#
#
#
# Elastic Compliance Matrix: (Units=1/GPa)
#
#
# Indices 1 2 3 4 5 6 
#
# 1 0.018715 -0.002736 -0.000560 0.000000 -0.003433 0.000000
# 2 -0.002736 0.012470 -0.002741 0.000000 0.004674 0.000000
# 3 -0.000560 -0.002741 0.011354 0.000000 0.001482 0.000000
# 4 0.000000 0.000000 0.000000 0.268102 0.000000 0.118273
# 5 -0.003433 0.004674 0.001482 0.000000 0.036228 0.000000
# 6 0.000000 0.000000 0.000000 0.118273 0.000000 0.125948
#
#
# Mechanical properties :
#
#
# Convention : Reuss Voigt Hill
#
# Bulk Modulus (GPa) = 32.82524 36.38710 34.60617
# Shear Modulus (GPa) = 10.10004 23.39234 16.74619
#
# Velocity S-wave (km/s) = 2.23420 3.40014 2.87685
# Velocity P-wave (km/s) = 4.78313 5.77908 5.30453
#
# Compressibility (1/GPa) = 0.03046436
#
# Stress axis : x y z
#
# Youngs Moduli (GPa) = 53.43356 80.19094 88.07482
#
# Poissons Ratio (x) = 0.21943 0.04929
# Poissons Ratio (y) = 0.14621 0.24145
# Poissons Ratio (z) = 0.02990 0.21984
#
# Static dielectric constant tensor:
#      x y z
#    x 3.733160 0.000000 -0.097180 
#    y 0.000000 3.130250 0.000000 
#    z -0.097180 0.000000 4.048310 
# 
# 
# High freq. dielectric constant tensor:
#      x y z
#    x 1.791860 0.000000 -0.004270 
#    y 0.000000 1.740240 0.000000 
#    z -0.004270 0.000000 1.819200 
# 
# From -- ./inp_files/102818.got.cif
#   From: 2010.06.25/outbox.cif.g09.slc.cpg/sg12_52_cif.got.tgz:102818.got - 2010.06.28 00:19:55.
