data_PCOD8096432
_publ_section_title
;
Structure prediction by ZEFSAII (Michael W. Deem and Ramdas Pophale) SiO2 
 PCOD8096432
Probable space group: C 2/M
;
_chemical_formula_sum "Si O2"
_cell_formula_units_Z 48
_cell_length_a 22.984126
_cell_length_b 8.753070
_cell_length_c 26.352674
_cell_angle_alpha 90.000000
_cell_angle_beta 151.219626
_cell_angle_gamma 90.000000
_cell_volume 2552.509768
_symmetry_space_group_name_H-M "C 2/M"
_symmetry_group_IT_number 12
_symmetry_cell_setting 'monoclinic'
loop_
_space_group_symop_operation_xyz
x,y,z
-x,y,-z
-x,-y,-z
x,-y,z
1/2+x,1/2+y,z
1/2-x,1/2+y,-z
1/2-x,1/2-y,-z
1/2+x,1/2-y,z
loop_
_atom_site_type_symbol
_atom_site_label
_atom_site_fract_x
_atom_site_fract_y
_atom_site_fract_z
Si Si1 0.561462 0.320454 0.994406
Si Si2 0.066537 0.678696 0.199620
Si Si3 0.435263 0.822676 0.625809
Si Si4 0.201063 0.822657 0.385017
Si Si5 0.367215 0.668305 0.107444
Si Si6 0.676244 0.668888 0.809267
O O1 0.573163 0.500000 0.996391
O O2 0.695787 0.252475 0.097097
O O3 0.500000 0.274386 0.000000
O O4 0.474059 0.256726 0.883712
O O5 0.076713 0.500000 0.197140
O O6 0.188951 0.742843 0.319792
O O7 0.972491 0.718329 0.171845
O O8 0.337833 0.793974 0.507046
O O9 0.392660 0.738835 0.644421
O O10 0.563007 0.763277 0.699819
O O11 0.447590 0.000000 0.648762
O O12 0.169424 0.000000 0.354224
O O13 0.381037 0.500000 0.092429
O O14 0.362008 0.648963 0.162620
O O15 0.250000 0.750000 0.000000
O O16 0.686672 0.500000 0.792015
#
# Coordination Sequence:
#
# PCOD8096432 Si02
#       6
#     8   8   8   8   8   8
#     4  11  25  43  62  82 107 144 188 235 285 335
#     4  12  23  35  56  83 113 150 185 227 279 331
#     4  10  20  33  53  81 116 154 189 226 271 328
#     4  10  20  34  52  80 117 154 189 226 271 328
#     4  11  21  32  50  80 113 147 182 222 275 335
#     4  11  22  35  56  83 115 151 184 227 278 332
#
# _framework density 18.805021
#
# number of rings (size 3 to 8) (size 9 to 14) (size 15 to 20)
#    0.000    1.167    3.333    4.000    0.000    4.667 
#    0.000    0.000    0.000    1.000    0.000    7.000 
#    0.000    0.000    0.000    0.000    0.000    0.000 
#
# Total GULP energy -297421.701692 kJ/mol
# GULP energy per Si atom -12392.570904 kJ/mol
# Density = 1.876222 g / cm^3
# Si number density = 18.805021 Si / 1000 Ang^3
#
#
#
# Elastic Constant Matrix: (Units=GPa)
#
#
# Indices 1 2 3 4 5 6 
#
# 1 74.8448 39.4258 46.4534 0.0000 -9.4192 0.0000
# 2 39.4258 117.3818 61.0171 0.0002 -12.3382 0.0002
# 3 46.4534 61.0171 144.1283 0.0008 -10.0184 0.0002
# 4 0.0000 0.0002 0.0008 31.6722 -0.0001 -1.4567
# 5 -9.4192 -12.3382 -10.0184 -0.0001 6.1376 0.0000
# 6 0.0000 0.0002 0.0002 -1.4567 0.0000 20.6039
#
#
#
# Elastic Compliance Matrix: (Units=1/GPa)
#
#
# Indices 1 2 3 4 5 6 
#
# 1 0.019444 -0.002580 -0.003904 0.000000 0.018281 0.000000
# 2 -0.002580 0.012921 -0.003506 0.000000 0.016292 0.000000
# 3 -0.003904 -0.003506 0.009897 0.000000 0.003116 0.000000
# 4 0.000000 0.000000 0.000000 0.031676 0.000000 0.002240
# 5 0.018281 0.016292 0.003116 0.000000 0.228823 0.000000
# 6 0.000000 0.000000 0.000000 0.002240 0.000000 0.048693
#
#
# Mechanical properties :
#
#
# Convention : Reuss Voigt Hill
#
# Bulk Modulus (GPa) = 44.87893 70.01639 57.44766
# Shear Modulus (GPa) = 13.19747 24.31332 18.75539
#
# Velocity S-wave (km/s) = 2.65204 3.59962 3.16153
# Velocity P-wave (km/s) = 5.77018 7.38850 6.62891
#
# Compressibility (1/GPa) = 0.02228217
#
# Stress axis : x y z
#
# Youngs Moduli (GPa) = 51.43087 77.39541 101.03623
#
# Poissons Ratio (x) = 0.19966 0.39444
# Poissons Ratio (y) = 0.13268 0.35424
# Poissons Ratio (z) = 0.20078 0.27135
#
# Static dielectric constant tensor:
#      x y z
#    x 3.134830 0.000000 0.018770 
#    y 0.000000 3.822170 0.000000 
#    z 0.018770 0.000000 3.733110 
# 
# 
# High freq. dielectric constant tensor:
#      x y z
#    x 1.678750 0.000000 -0.001780 
#    y 0.000000 1.751520 0.000000 
#    z -0.001780 0.000000 1.752300 
# 
# From -- ./inp_files/367220.got.cif
#   From: 2010.06.25/outbox.cif.g09.slc.cpg/sg12_184_cif.got.tgz:367220.got - 2010.06.28 00:19:55.
