data_PCOD8096130
_publ_section_title
;
Structure prediction by ZEFSAII (Michael W. Deem and Ramdas Pophale) SiO2 
 PCOD8096130
Probable space group: C 2/M
;
_chemical_formula_sum "Si O2"
_cell_formula_units_Z 56
_cell_length_a 8.780348
_cell_length_b 26.744793
_cell_length_c 13.178609
_cell_angle_alpha 90.000000
_cell_angle_beta 66.609153
_cell_angle_gamma 90.000000
_cell_volume 2840.384547
_symmetry_space_group_name_H-M "C 2/M"
_symmetry_group_IT_number 12
_symmetry_cell_setting 'monoclinic'
loop_
_space_group_symop_operation_xyz
x,y,z
-x,y,-z
-x,-y,-z
x,-y,z
1/2+x,1/2+y,z
1/2-x,1/2+y,-z
1/2-x,1/2-y,-z
1/2+x,1/2-y,z
loop_
_atom_site_type_symbol
_atom_site_label
_atom_site_fract_x
_atom_site_fract_y
_atom_site_fract_z
Si Si1 0.301384 0.056705 0.302110
Si Si2 0.046401 0.878585 0.882090
Si Si3 0.156608 0.555827 0.148392
Si Si4 0.242843 0.557839 0.909484
Si Si5 0.328611 0.684988 0.317632
Si Si6 0.477770 0.780631 0.385884
Si Si7 0.811803 0.143646 0.528551
O O1 0.498852 0.055891 0.263925
O O2 0.284128 0.082392 0.194433
O O3 0.214059 0.089813 0.411921
O O4 0.229602 0.000000 0.330676
O O5 0.227171 0.902786 0.833970
O O6 0.040688 0.836771 0.797153
O O7 0.920186 0.923917 0.901175
O O8 0.000000 0.851384 0.000000
O O9 0.236591 0.500000 0.127704
O O10 0.115911 0.568343 0.038451
O O11 0.244601 0.500000 0.883074
O O12 0.425039 0.729331 0.348032
O O13 0.287933 0.642077 0.412578
O O14 0.160111 0.700910 0.302034
O O15 0.500000 0.772603 0.500000
O O16 0.330020 0.818499 0.393234
O O17 0.000000 0.162276 0.500000
#
# Coordination Sequence:
#
# PCOD8096130 Si02
#       7
#     8   8   8   8   8   8   8
#     4  10  20  33  51  79 111 140 171 210 258 306
#     4  10  20  34  54  79 105 135 172 214 261 308
#     4   9  17  32  52  74 104 142 182 216 246 292
#     4   9  17  30  51  77 105 141 181 215 246 292
#     4  11  21  37  57  78 103 132 171 217 261 307
#     4  10  21  37  59  80  99 130 176 215 251 304
#     4  11  21  35  55  78 105 138 173 212 256 303
#
# _framework density 19.71564
#
# number of rings (size 3 to 8) (size 9 to 14) (size 15 to 20)
#    0.000    2.000    0.000    5.571    0.000    3.714 
#    0.000    2.143    0.000    7.286    0.000    0.000 
#    0.000    0.000    0.000    0.000    0.000    0.000 
#
# Total GULP energy -346868.206342 kJ/mol
# GULP energy per Si atom -12388.150227 kJ/mol
# Density = 1.967077 g / cm^3
# Si number density = 19.715640 Si / 1000 Ang^3
#
#
#
# Elastic Constant Matrix: (Units=GPa)
#
#
# Indices 1 2 3 4 5 6 
#
# 1 66.5047 19.9705 15.2948 0.0000 -1.2368 0.0000
# 2 19.9705 63.2420 38.1415 0.0000 11.2270 0.0000
# 3 15.2948 38.1415 86.4453 0.0000 3.7763 0.0000
# 4 0.0000 0.0000 0.0000 25.1899 0.0000 1.2446
# 5 -1.2368 11.2270 3.7763 0.0000 19.7052 0.0000
# 6 0.0000 0.0000 0.0000 1.2446 0.0000 17.4014
#
#
#
# Elastic Compliance Matrix: (Units=1/GPa)
#
#
# Indices 1 2 3 4 5 6 
#
# 1 0.017003 -0.005767 -0.000660 0.000000 0.004479 0.000000
# 2 -0.005767 0.025916 -0.009836 0.000000 -0.013243 0.000000
# 3 -0.000660 -0.009836 0.015915 0.000000 0.002513 0.000000
# 4 0.000000 0.000000 0.000000 0.039839 0.000000 -0.002849
# 5 0.004479 -0.013243 0.002513 0.000000 0.058093 0.000000
# 6 0.000000 0.000000 0.000000 -0.002849 0.000000 0.057670
#
#
# Mechanical properties :
#
#
# Convention : Reuss Voigt Hill
#
# Bulk Modulus (GPa) = 38.00879 40.33397 39.17138
# Shear Modulus (GPa) = 19.55180 21.97832 20.76506
#
# Velocity S-wave (km/s) = 3.15253 3.34243 3.24887
# Velocity P-wave (km/s) = 5.70715 5.94963 5.82965
#
# Compressibility (1/GPa) = 0.02630971
#
# Stress axis : x y z
#
# Youngs Moduli (GPa) = 58.81251 38.58576 62.83442
#
# Poissons Ratio (x) = 0.22251 0.04145
# Poissons Ratio (y) = 0.33914 0.61804
# Poissons Ratio (z) = 0.03880 0.37953
#
# Static dielectric constant tensor:
#      x y z
#    x 3.741680 0.000000 -0.042860 
#    y 0.000000 3.326290 0.000000 
#    z -0.042860 0.000000 3.647860 
# 
# 
# High freq. dielectric constant tensor:
#      x y z
#    x 1.776370 0.000000 -0.002110 
#    y 0.000000 1.741990 0.000000 
#    z -0.002110 0.000000 1.758790 
# 
# From -- ./inp_files/198356.got.cif
#   From: 2010.06.25/outbox.cif.g09.slc.cpg/sg12_100_cif.got.tgz:198356.got - 2010.06.28 00:19:55.
