data_PCOD8096968
_publ_section_title
;
Structure prediction by ZEFSAII (Michael W. Deem and Ramdas Pophale) SiO2 
 PCOD8096968
Probable space group: C 2/M
;
_chemical_formula_sum "Si O2"
_cell_formula_units_Z 56
_cell_length_a 14.255322
_cell_length_b 9.623626
_cell_length_c 29.044993
_cell_angle_alpha 90.000000
_cell_angle_beta 53.828388
_cell_angle_gamma 90.000000
_cell_volume 3216.596792
_symmetry_space_group_name_H-M "C 2/M"
_symmetry_group_IT_number 12
_symmetry_cell_setting 'monoclinic'
loop_
_space_group_symop_operation_xyz
x,y,z
-x,y,-z
-x,-y,-z
x,-y,z
1/2+x,1/2+y,z
1/2-x,1/2+y,-z
1/2-x,1/2-y,-z
1/2+x,1/2-y,z
loop_
_atom_site_type_symbol
_atom_site_label
_atom_site_fract_x
_atom_site_fract_y
_atom_site_fract_z
Si Si1 0.053688 0.161105 0.343145
Si Si2 0.300507 0.655382 0.945896
Si Si3 0.561233 0.661968 0.860824
Si Si4 0.402309 0.157182 0.063385
Si Si5 0.274232 0.339258 0.269555
Si Si6 0.903377 0.160705 0.564343
Si Si7 0.317523 0.338444 0.361544
O O1 0.159914 0.249513 0.292050
O O2 0.043645 0.189089 0.400543
O O3 0.935364 0.209978 0.352629
O O4 0.078504 0.000000 0.325259
O O5 0.304695 0.500000 0.965009
O O6 0.427302 0.704740 0.893345
O O7 0.222904 0.662099 0.923283
O O8 0.250000 0.750000 0.000000
O O9 0.576994 0.500000 0.867095
O O10 0.612158 0.747083 0.888398
O O11 0.627782 0.704434 0.795232
O O12 0.436901 0.000000 0.067796
O O13 0.500000 0.215972 0.000000
O O14 0.238927 0.500000 0.275167
O O15 0.328188 0.307978 0.304050
O O16 0.789078 0.250784 0.587173
O O17 0.000000 0.207480 0.500000
O O18 0.869121 0.000000 0.568039
O O19 0.292846 0.500000 0.378595
#
# Coordination Sequence:
#
# PCOD8096968 Si02
#       7
#     8   8   8   8   8   8   8
#     4   9  18  33  53  75  99 134 174 208 251 300
#     4  10  20  34  52  73  99 129 160 197 244 296
#     4  10  21  35  52  74  99 130 164 202 251 305
#     4  10  20  34  52  75 100 127 161 200 243 295
#     4   9  19  35  51  71  99 128 165 210 254 297
#     4   9  18  32  49  74 109 141 170 208 252 297
#     4   9  18  33  53  74  99 133 172 213 250 295
#
# _framework density 17.409704000000001
#
# number of rings (size 3 to 8) (size 9 to 14) (size 15 to 20)
#    0.000    2.571    1.429    0.000    0.000    4.000 
#    0.000    2.857    0.000    0.000    0.000    0.000 
#    0.000    0.000    0.000    0.000    0.000    0.000 
#
# Total GULP energy -347248.745759 kJ/mol
# GULP energy per Si atom -12401.740920 kJ/mol
# Density = 1.737008 g / cm^3
# Si number density = 17.409704 Si / 1000 Ang^3
#
#
#
# Elastic Constant Matrix: (Units=GPa)
#
#
# Indices 1 2 3 4 5 6 
#
# 1 128.7993 51.8641 64.9009 0.0000 -18.6016 0.0000
# 2 51.8641 59.7607 62.1447 0.0000 -10.4323 0.0000
# 3 64.9009 62.1447 150.4736 0.0000 -17.0990 0.0000
# 4 0.0000 0.0000 0.0000 30.6765 0.0000 -2.3928
# 5 -18.6016 -10.4323 -17.0990 0.0000 22.6779 0.0000
# 6 0.0000 0.0000 0.0000 -2.3928 0.0000 29.3610
#
#
#
# Elastic Compliance Matrix: (Units=1/GPa)
#
#
# Indices 1 2 3 4 5 6 
#
# 1 0.012717 -0.008808 -0.001228 0.000000 0.005454 0.000000
# 2 -0.008808 0.035909 -0.010910 0.000000 0.001068 0.000000
# 3 -0.001228 -0.010910 0.012027 0.000000 0.003042 0.000000
# 4 0.000000 0.000000 0.000000 0.032807 0.000000 0.002674
# 5 0.005454 0.001068 0.003042 0.000000 0.051354 0.000000
# 6 0.000000 0.000000 0.000000 0.002674 0.000000 0.034277
#
#
# Mechanical properties :
#
#
# Convention : Reuss Voigt Hill
#
# Bulk Modulus (GPa) = 53.30007 77.42812 65.36409
# Shear Modulus (GPa) = 22.00364 27.21801 24.61083
#
# Velocity S-wave (km/s) = 3.55895 3.95825 3.76390
# Velocity P-wave (km/s) = 6.89709 8.09080 7.51767
#
# Compressibility (1/GPa) = 0.01876170
#
# Stress axis : x y z
#
# Youngs Moduli (GPa) = 78.63508 27.84815 83.14922
#
# Poissons Ratio (x) = 0.24529 0.10207
# Poissons Ratio (y) = 0.69262 0.90715
# Poissons Ratio (z) = 0.09653 0.30382
#
# Static dielectric constant tensor:
#      x y z
#    x 3.268650 0.000000 -0.036120 
#    y 0.000000 3.273610 0.000000 
#    z -0.036120 0.000000 3.206460 
# 
# 
# High freq. dielectric constant tensor:
#      x y z
#    x 1.675320 0.000000 -0.004000 
#    y 0.000000 1.670830 0.000000 
#    z -0.004000 0.000000 1.669730 
# 
# From -- ./inp_files/308937.got.cif
#   From: 2010.06.25/outbox.cif.g09.slc.cpg/sg12_155_cif.got.tgz:308937.got - 2010.06.28 00:19:55.
