data_PCOD8096653
_publ_section_title
;
Structure prediction by ZEFSAII (Michael W. Deem and Ramdas Pophale) SiO2 
 PCOD8096653
Probable space group: C 2/M
;
_chemical_formula_sum "Si O2"
_cell_formula_units_Z 56
_cell_length_a 29.784753
_cell_length_b 9.459430
_cell_length_c 10.923887
_cell_angle_alpha 90.000000
_cell_angle_beta 113.104469
_cell_angle_gamma 90.000000
_cell_volume 2830.904865
_symmetry_space_group_name_H-M "C 2/M"
_symmetry_group_IT_number 12
_symmetry_cell_setting 'monoclinic'
loop_
_space_group_symop_operation_xyz
x,y,z
-x,y,-z
-x,-y,-z
x,-y,z
1/2+x,1/2+y,z
1/2-x,1/2+y,-z
1/2-x,1/2-y,-z
1/2+x,1/2-y,z
loop_
_atom_site_type_symbol
_atom_site_label
_atom_site_fract_x
_atom_site_fract_y
_atom_site_fract_z
Si Si1 0.172602 0.840342 0.093616
Si Si2 0.128163 0.664242 0.260495
Si Si3 0.781289 0.340724 0.185436
Si Si4 0.967078 0.667092 0.345694
Si Si5 0.210511 0.344685 0.519281
Si Si6 0.871440 0.838231 0.201417
Si Si7 0.019678 0.332059 0.151984
O O1 0.158437 0.737088 0.186163
O O2 0.225517 0.794761 0.093753
O O3 0.178361 0.000000 0.151251
O O4 0.129314 0.834149 0.947169
O O5 0.124205 0.500000 0.221703
O O6 0.155808 0.694629 0.417187
O O7 0.074372 0.728074 0.220065
O O8 0.792352 0.500000 0.147917
O O9 0.787411 0.335572 0.335771
O O10 0.819324 0.227434 0.178010
O O11 0.956549 0.500000 0.331077
O O12 0.915843 0.748381 0.304712
O O13 0.000000 0.704432 0.500000
O O14 0.991042 0.720424 0.243109
O O15 0.222658 0.500000 0.483177
O O16 0.250000 0.250000 0.500000
O O17 0.874970 0.000000 0.252723
O O18 0.018118 0.500000 0.151510
O O19 0.000000 0.274364 0.000000
#
# Coordination Sequence:
#
# PCOD8096653 Si02
#       7
#     8   8   8   8   8   8   8
#     4  10  21  38  57  83 118 154 189 233 287 346
#     4  10  20  33  57  87 113 144 187 237 286 341
#     4  10  21  37  58  82 114 154 196 235 280 342
#     4  10  22  40  64  87 112 152 198 242 291 348
#     4  10  20  34  55  82 114 149 187 235 284 338
#     4  11  24  39  58  84 116 151 192 240 291 343
#     4   9  18  34  57  85 113 142 184 237 287 339
#
# _framework density 19.781661
#
# number of rings (size 3 to 8) (size 9 to 14) (size 15 to 20)
#    0.000    2.000    1.429    1.714    2.000    3.714 
#    0.000    0.714    0.000    2.571    0.000    0.000 
#    0.000    0.000    0.000    0.000    0.000    0.000 
#
# Total GULP energy -347058.695600 kJ/mol
# GULP energy per Si atom -12394.953414 kJ/mol
# Density = 1.973664 g / cm^3
# Si number density = 19.781661 Si / 1000 Ang^3
#
#
#
# Elastic Constant Matrix: (Units=GPa)
#
#
# Indices 1 2 3 4 5 6 
#
# 1 99.5714 38.4177 38.7576 0.0000 15.8743 0.0000
# 2 38.4177 61.4212 27.4206 0.0000 13.4330 0.0000
# 3 38.7576 27.4206 115.8714 0.0000 25.2244 0.0000
# 4 0.0000 0.0000 0.0000 22.6194 0.0000 3.5921
# 5 15.8743 13.4330 25.2244 0.0000 32.5267 0.0000
# 6 0.0000 0.0000 0.0000 3.5921 0.0000 30.7588
#
#
#
# Elastic Compliance Matrix: (Units=1/GPa)
#
#
# Indices 1 2 3 4 5 6 
#
# 1 0.014169 -0.007287 -0.002604 0.000000 -0.001886 0.000000
# 2 -0.007287 0.022662 -0.002000 0.000000 -0.004252 0.000000
# 3 -0.002604 -0.002000 0.011451 0.000000 -0.006784 0.000000
# 4 0.000000 0.000000 0.000000 0.045045 0.000000 -0.005260
# 5 -0.001886 -0.004252 -0.006784 0.000000 0.038681 0.000000
# 6 0.000000 0.000000 0.000000 -0.005260 0.000000 0.033125
#
#
# Mechanical properties :
#
#
# Convention : Reuss Voigt Hill
#
# Bulk Modulus (GPa) = 40.81744 54.00617 47.41181
# Shear Modulus (GPa) = 25.37001 28.66551 27.01776
#
# Velocity S-wave (km/s) = 3.58509 3.81083 3.69968
# Velocity P-wave (km/s) = 6.14946 6.83547 6.50152
#
# Compressibility (1/GPa) = 0.02449933
#
# Stress axis : x y z
#
# Youngs Moduli (GPa) = 70.57606 44.12722 87.32591
#
# Poissons Ratio (x) = 0.32157 0.22743
# Poissons Ratio (y) = 0.51431 0.17463
# Poissons Ratio (z) = 0.18380 0.08824
#
# Static dielectric constant tensor:
#      x y z
#    x 4.517600 0.000000 -1.008660 
#    y 0.000000 1.190070 0.000000 
#    z -1.008660 0.000000 5.465300 
# 
# 
# High freq. dielectric constant tensor:
#      x y z
#    x 1.766340 0.000000 0.011850 
#    y 0.000000 1.749380 0.000000 
#    z 0.011850 0.000000 1.790030 
# 
# From -- ./inp_files/180631.got.cif
#   From: 2010.06.25/outbox.cif.g09.slc.cpg/sg12_91_cif.got.tgz:180631.got - 2010.06.28 00:19:55.
