data_PCOD8096709
_publ_section_title
;
Structure prediction by ZEFSAII (Michael W. Deem and Ramdas Pophale) SiO2 
 PCOD8096709
Probable space group: C 2/M
;
_chemical_formula_sum "Si O2"
_cell_formula_units_Z 56
_cell_length_a 18.849546
_cell_length_b 9.602632
_cell_length_c 24.872883
_cell_angle_alpha 90.000000
_cell_angle_beta 134.527921
_cell_angle_gamma 90.000000
_cell_volume 3209.602755
_symmetry_space_group_name_H-M "C 2/M"
_symmetry_group_IT_number 12
_symmetry_cell_setting 'monoclinic'
loop_
_space_group_symop_operation_xyz
x,y,z
-x,y,-z
-x,-y,-z
x,-y,z
1/2+x,1/2+y,z
1/2-x,1/2+y,-z
1/2-x,1/2-y,-z
1/2+x,1/2-y,z
loop_
_atom_site_type_symbol
_atom_site_label
_atom_site_fract_x
_atom_site_fract_y
_atom_site_fract_z
Si Si1 0.902105 0.662593 0.416441
Si Si2 0.007804 0.665284 0.063211
Si Si3 0.999664 0.662251 0.761916
Si Si4 0.717841 0.152895 0.204545
Si Si5 0.849996 0.334139 0.065564
Si Si6 0.107618 0.659970 0.712780
Si Si7 0.719776 0.154947 0.330244
O O1 0.879623 0.500000 0.411921
O O2 0.923382 0.697427 0.364743
O O3 0.000000 0.710000 0.500000
O O4 0.809354 0.742552 0.395410
O O5 0.012279 0.500000 0.064712
O O6 0.110364 0.723502 0.141575
O O7 0.916615 0.712744 0.050764
O O8 0.000000 0.729800 0.000000
O O9 0.990746 0.500000 0.770319
O O10 0.021759 0.693772 0.710807
O O11 0.889015 0.723535 0.715231
O O12 0.089174 0.716702 0.848494
O O13 0.738734 0.138099 0.277835
O O14 0.797760 0.250903 0.218390
O O15 0.723664 0.000000 0.180040
O O16 0.828173 0.500000 0.056102
O O17 0.750000 0.250000 0.000000
O O18 0.139043 0.500000 0.733921
O O19 0.729438 0.000000 0.362190
#
# Coordination Sequence:
#
# PCOD8096709 Si02
#       7
#     8   8   8   8   8   8   8
#     4   9  18  33  51  72  99 126 151 186 235 285
#     4   9  17  29  46  66  90 121 157 193 234 280
#     4   9  17  32  51  69  95 128 160 193 234 283
#     4   9  16  29  48  68  89 118 158 199 231 267
#     4  10  20  34  49  68  96 128 160 197 241 281
#     4   9  18  31  49  70  93 124 157 187 229 283
#     4   9  16  30  52  72  90 121 161 195 227 271
#
# _framework density 17.447641999999998
#
# number of rings (size 3 to 8) (size 9 to 14) (size 15 to 20)
#    0.000    2.857    1.429    0.000    2.000    0.286 
#    0.000    2.857    0.000    0.857    0.000    0.000 
#    0.000    0.000    0.000    0.000    0.000    0.000 
#
# Total GULP energy -346884.044830 kJ/mol
# GULP energy per Si atom -12388.715887 kJ/mol
# Density = 1.740793 g / cm^3
# Si number density = 17.447642 Si / 1000 Ang^3
#
#
#
# Elastic Constant Matrix: (Units=GPa)
#
#
# Indices 1 2 3 4 5 6 
#
# 1 111.7119 38.3274 57.6761 0.0000 14.9925 0.0000
# 2 38.3274 45.4782 43.3689 0.0000 13.5929 0.0000
# 3 57.6761 43.3689 124.1495 0.0000 25.9865 0.0000
# 4 0.0000 0.0000 0.0000 23.9507 0.0000 9.0386
# 5 14.9925 13.5929 25.9865 0.0000 29.8426 0.0000
# 6 0.0000 0.0000 0.0000 9.0386 0.0000 19.7216
#
#
#
# Elastic Compliance Matrix: (Units=1/GPa)
#
#
# Indices 1 2 3 4 5 6 
#
# 1 0.013510 -0.008080 -0.003428 0.000000 -0.000122 0.000000
# 2 -0.008080 0.038739 -0.008481 0.000000 -0.006201 0.000000
# 3 -0.003428 -0.008481 0.013991 0.000000 -0.006598 0.000000
# 4 0.000000 0.000000 0.000000 0.050484 0.000000 -0.023137
# 5 -0.000122 -0.006201 -0.006598 0.000000 0.042140 0.000000
# 6 0.000000 0.000000 0.000000 -0.023137 0.000000 0.061310
#
#
# Mechanical properties :
#
#
# Convention : Reuss Voigt Hill
#
# Bulk Modulus (GPa) = 38.07849 62.23161 50.15505
# Shear Modulus (GPa) = 18.59376 24.16746 21.38061
#
# Velocity S-wave (km/s) = 3.26803 3.72579 3.50439
# Velocity P-wave (km/s) = 6.00931 7.36571 6.72181
#
# Compressibility (1/GPa) = 0.02626155
#
# Stress axis : x y z
#
# Youngs Moduli (GPa) = 74.01821 25.81362 71.47341
#
# Poissons Ratio (x) = 0.20858 0.24503
# Poissons Ratio (y) = 0.59809 0.60616
# Poissons Ratio (z) = 0.25376 0.21892
#
# Static dielectric constant tensor:
#      x y z
#    x 3.316800 0.000000 0.055170 
#    y 0.000000 3.187980 0.000000 
#    z 0.055170 0.000000 3.292030 
# 
# 
# High freq. dielectric constant tensor:
#      x y z
#    x 1.674650 0.000000 0.008980 
#    y 0.000000 1.639470 0.000000 
#    z 0.008980 0.000000 1.668570 
# 
# From -- ./inp_files/276081.got.cif
#   From: 2010.06.25/outbox.cif.g09.slc.cpg/sg12_139_cif.got.tgz:276081.got - 2010.06.28 00:19:55.
