data_PCOD8096216
_publ_section_title
;
Structure prediction by ZEFSAII (Michael W. Deem and Ramdas Pophale) SiO2 
 PCOD8096216
Probable space group: C 2/M
;
_chemical_formula_sum "Si O2"
_cell_formula_units_Z 56
_cell_length_a 19.198092
_cell_length_b 8.880001
_cell_length_c 20.185799
_cell_angle_alpha 90.000000
_cell_angle_beta 117.933269
_cell_angle_gamma 90.000000
_cell_volume 3040.328580
_symmetry_space_group_name_H-M "C 2/M"
_symmetry_group_IT_number 12
_symmetry_cell_setting 'monoclinic'
loop_
_space_group_symop_operation_xyz
x,y,z
-x,y,-z
-x,-y,-z
x,-y,z
1/2+x,1/2+y,z
1/2-x,1/2+y,-z
1/2-x,1/2-y,-z
1/2+x,1/2-y,z
loop_
_atom_site_type_symbol
_atom_site_label
_atom_site_fract_x
_atom_site_fract_y
_atom_site_fract_z
Si Si1 0.415115 0.178972 0.489369
Si Si2 0.264895 0.679049 0.361701
Si Si3 0.829284 0.178215 0.794710
Si Si4 0.028736 0.677052 0.211428
Si Si5 0.300219 0.322745 0.930558
Si Si6 0.137105 0.323369 0.918771
Si Si7 0.117431 0.676758 0.379239
O O1 0.500000 0.229576 0.500000
O O2 0.349863 0.251791 0.413401
O O3 0.403287 0.246213 0.558342
O O4 0.406036 0.000000 0.483046
O O5 0.269704 0.500000 0.361285
O O6 0.236813 0.739537 0.278334
O O7 0.202183 0.734087 0.389839
O O8 0.916442 0.228504 0.813132
O O9 0.817390 0.232980 0.864433
O O10 0.819321 0.000000 0.782382
O O11 0.044334 0.500000 0.206526
O O12 0.049086 0.720715 0.296430
O O13 0.939428 0.724912 0.157060
O O14 0.308111 0.500000 0.939529
O O15 0.212619 0.267219 0.911042
O O16 0.363901 0.251792 0.009149
O O17 0.138953 0.500000 0.930755
O O18 0.121188 0.500000 0.389634
#
# Coordination Sequence:
#
# PCOD8096216 Si02
#       7
#     8   8   8   8   8   8   8
#     4  10  20  33  52  78 104 131 165 205 248 295
#     4  10  20  35  54  73  99 134 168 205 247 295
#     4  10  20  34  53  76 101 129 165 209 252 295
#     4   9  18  33  52  74 100 130 166 206 247 294
#     4   9  19  34  51  73 101 133 168 207 250 294
#     4   9  18  33  53  74  99 134 170 203 244 297
#     4   8  16  32  52  73  98 130 166 203 245 293
#
# _framework density 18.419062
#
# number of rings (size 3 to 8) (size 9 to 14) (size 15 to 20)
#    0.000    2.714    0.000    2.143    0.000    3.714 
#    0.000   10.000    0.000    3.429    0.000    0.000 
#    0.000    0.000    0.000    0.000    0.000    0.000 
#
# Total GULP energy -347185.740183 kJ/mol
# GULP energy per Si atom -12399.490721 kJ/mol
# Density = 1.837714 g / cm^3
# Si number density = 18.419062 Si / 1000 Ang^3
#
#
#
# Elastic Constant Matrix: (Units=GPa)
#
#
# Indices 1 2 3 4 5 6 
#
# 1 68.1931 20.2086 41.9815 0.0000 10.0479 0.0000
# 2 20.2086 27.3606 20.3130 0.0000 3.3043 0.0000
# 3 41.9815 20.3130 90.7050 0.0000 11.1431 0.0000
# 4 0.0000 0.0000 0.0000 29.9055 0.0000 2.8775
# 5 10.0479 3.3043 11.1431 0.0000 39.1034 0.0000
# 6 0.0000 0.0000 0.0000 2.8775 0.0000 24.4392
#
#
#
# Elastic Compliance Matrix: (Units=1/GPa)
#
#
# Indices 1 2 3 4 5 6 
#
# 1 0.023200 -0.010893 -0.007958 0.000000 -0.002773 0.000000
# 2 -0.010893 0.048985 -0.005973 0.000000 0.000362 0.000000
# 3 -0.007958 -0.005973 0.016303 0.000000 -0.002096 0.000000
# 4 0.000000 0.000000 0.000000 0.033822 0.000000 -0.003982
# 5 -0.002773 0.000362 -0.002096 0.000000 0.026853 0.000000
# 6 0.000000 0.000000 0.000000 -0.003982 0.000000 0.041387
#
#
# Mechanical properties :
#
#
# Convention : Reuss Voigt Hill
#
# Bulk Modulus (GPa) = 25.74579 39.02944 32.38761
# Shear Modulus (GPa) = 19.75175 25.60666 22.67921
#
# Velocity S-wave (km/s) = 3.27823 3.73262 3.51278
# Velocity P-wave (km/s) = 5.32327 6.30970 5.83736
#
# Compressibility (1/GPa) = 0.03884130
#
# Stress axis : x y z
#
# Youngs Moduli (GPa) = 43.10391 20.41449 61.33848
#
# Poissons Ratio (x) = 0.22237 0.48811
# Poissons Ratio (y) = 0.46951 0.36637
# Poissons Ratio (z) = 0.34301 0.12193
#
# Static dielectric constant tensor:
#      x y z
#    x 3.511430 0.000000 -0.073570 
#    y 0.000000 3.175250 0.000000 
#    z -0.073570 0.000000 3.585890 
# 
# 
# High freq. dielectric constant tensor:
#      x y z
#    x 1.708730 0.000000 0.001460 
#    y 0.000000 1.696860 0.000000 
#    z 0.001460 0.000000 1.725630 
# 
# From -- ./inp_files/319333.got.cif
#   From: 2010.06.25/outbox.cif.g09.slc.cpg/sg12_160_cif.got.tgz:319333.got - 2010.06.28 00:19:55.
