data_PCOD8096195
_publ_section_title
;
Structure prediction by ZEFSAII (Michael W. Deem and Ramdas Pophale) SiO2 
 PCOD8096195
Probable space group: C 2/M
;
_chemical_formula_sum "Si O2"
_cell_formula_units_Z 56
_cell_length_a 14.771804
_cell_length_b 9.378335
_cell_length_c 23.884520
_cell_angle_alpha 90.000000
_cell_angle_beta 63.019162
_cell_angle_gamma 90.000000
_cell_volume 2948.700450
_symmetry_space_group_name_H-M "C 2/M"
_symmetry_group_IT_number 12
_symmetry_cell_setting 'monoclinic'
loop_
_space_group_symop_operation_xyz
x,y,z
-x,y,-z
-x,-y,-z
x,-y,z
1/2+x,1/2+y,z
1/2-x,1/2+y,-z
1/2-x,1/2-y,-z
1/2+x,1/2-y,z
loop_
_atom_site_type_symbol
_atom_site_label
_atom_site_fract_x
_atom_site_fract_y
_atom_site_fract_z
Si Si1 0.844680 0.669719 0.226221
Si Si2 0.723106 0.341010 0.561348
Si Si3 0.071958 0.833695 0.902056
Si Si4 0.380019 0.339829 0.684273
Si Si5 0.929145 0.837911 0.303581
Si Si6 0.072100 0.660249 0.432284
Si Si7 0.154541 0.165585 0.000352
O O1 0.855590 0.500000 0.221158
O O2 0.881864 0.733774 0.157893
O O3 0.729314 0.721206 0.268179
O O4 0.911331 0.731304 0.257822
O O5 0.701856 0.500000 0.545161
O O6 0.750000 0.250000 0.500000
O O7 0.627074 0.283991 0.623791
O O8 0.813076 0.337468 0.580306
O O9 0.952048 0.796877 0.939598
O O10 0.084765 0.000000 0.883257
O O11 0.135529 0.798423 0.940415
O O12 0.368141 0.500000 0.664412
O O13 0.450373 0.335367 0.719475
O O14 0.436647 0.249414 0.621354
O O15 0.893052 0.000000 0.299350
O O16 0.033811 0.500000 0.430261
O O17 0.000000 0.729289 0.500000
O O18 0.180313 0.000000 0.000751
O O19 0.250000 0.250000 0.000000
#
# Coordination Sequence:
#
# PCOD8096195 Si02
#       7
#     8   8   8   8   8   8   8
#     4  11  23  38  57  85 116 148 193 244 286 331
#     4  10  20  33  52  77 104 139 180 226 284 347
#     4   9  20  39  60  84 119 162 195 227 280 343
#     4  10  22  38  56  79 108 143 186 234 284 340
#     4  10  21  39  58  77 107 149 189 229 287 353
#     4  10  20  34  53  79 108 137 178 232 287 343
#     4   9  19  37  62  91 122 156 196 235 277 330
#
# _framework density 18.991416999999998
#
# number of rings (size 3 to 8) (size 9 to 14) (size 15 to 20)
#    0.000    2.143    1.429    2.143    0.000    4.857 
#    0.000    5.714    0.000    0.000    0.000    0.000 
#    0.000    0.000    0.000    0.000    0.000    0.000 
#
# Total GULP energy -347148.937593 kJ/mol
# GULP energy per Si atom -12398.176343 kJ/mol
# Density = 1.894819 g / cm^3
# Si number density = 18.991417 Si / 1000 Ang^3
#
#
#
# Elastic Constant Matrix: (Units=GPa)
#
#
# Indices 1 2 3 4 5 6 
#
# 1 113.1577 46.1277 46.5159 0.0000 -0.5802 0.0000
# 2 46.1277 84.6841 68.0108 0.0000 7.1358 0.0000
# 3 46.5159 68.0108 131.8799 0.0000 5.9170 0.0000
# 4 0.0000 0.0000 0.0000 22.8530 0.0000 -5.0024
# 5 -0.5802 7.1358 5.9170 0.0000 22.7970 0.0000
# 6 0.0000 0.0000 0.0000 -5.0024 0.0000 27.7572
#
#
#
# Elastic Compliance Matrix: (Units=1/GPa)
#
#
# Indices 1 2 3 4 5 6 
#
# 1 0.011633 -0.005385 -0.001432 0.000000 0.002353 0.000000
# 2 -0.005385 0.022955 -0.009723 0.000000 -0.004799 0.000000
# 3 -0.001432 -0.009723 0.013120 0.000000 -0.000398 0.000000
# 4 0.000000 0.000000 0.000000 0.045555 0.000000 0.008210
# 5 0.002353 -0.004799 -0.000398 0.000000 0.045531 0.000000
# 6 0.000000 0.000000 0.000000 0.008210 0.000000 0.037506
#
#
# Mechanical properties :
#
#
# Convention : Reuss Voigt Hill
#
# Bulk Modulus (GPa) = 68.36248 72.33672 70.34960
# Shear Modulus (GPa) = 23.33658 25.95260 24.64459
#
# Velocity S-wave (km/s) = 3.50922 3.70069 3.60623
# Velocity P-wave (km/s) = 7.24529 7.51212 7.37991
#
# Compressibility (1/GPa) = 0.01462791
#
# Stress axis : x y z
#
# Youngs Moduli (GPa) = 85.96275 43.56320 76.22051
#
# Poissons Ratio (x) = 0.23459 0.10912
# Poissons Ratio (y) = 0.46291 0.74112
# Poissons Ratio (z) = 0.12306 0.42358
#
# Static dielectric constant tensor:
#      x y z
#    x 3.597740 0.000000 -0.116910 
#    y 0.000000 3.444220 0.000000 
#    z -0.116910 0.000000 3.375560 
# 
# 
# High freq. dielectric constant tensor:
#      x y z
#    x 1.746140 0.000000 -0.006900 
#    y 0.000000 1.731860 0.000000 
#    z -0.006900 0.000000 1.734380 
# 
# From -- ./inp_files/338438.got.cif
#   From: 2010.06.25/outbox.cif.g09.slc.cpg/sg12_170_cif.got.tgz:338438.got - 2010.06.28 00:19:55.
