data_PCOD8096918
_publ_section_title
;
Structure prediction by ZEFSAII (Michael W. Deem and Ramdas Pophale) SiO2 
 PCOD8096918
Probable space group: C 2/M
;
_chemical_formula_sum "Si O2"
_cell_formula_units_Z 56
_cell_length_a 28.109891
_cell_length_b 9.219883
_cell_length_c 19.149514
_cell_angle_alpha 90.000000
_cell_angle_beta 35.832783
_cell_angle_gamma 90.000000
_cell_volume 2905.434605
_symmetry_space_group_name_H-M "C 2/M"
_symmetry_group_IT_number 12
_symmetry_cell_setting 'monoclinic'
loop_
_space_group_symop_operation_xyz
x,y,z
-x,y,-z
-x,-y,-z
x,-y,z
1/2+x,1/2+y,z
1/2-x,1/2+y,-z
1/2-x,1/2-y,-z
1/2+x,1/2-y,z
loop_
_atom_site_type_symbol
_atom_site_label
_atom_site_fract_x
_atom_site_fract_y
_atom_site_fract_z
Si Si1 0.469779 0.168100 0.111548
Si Si2 0.878697 0.165720 0.455970
Si Si3 0.757144 0.330119 0.786149
Si Si4 0.584293 0.333538 0.430662
Si Si5 0.807429 0.832179 0.985259
Si Si6 0.485333 0.327840 0.806652
Si Si7 0.789679 0.669667 0.292757
O O1 0.516086 0.258516 0.115058
O O2 0.373112 0.195379 0.234449
O O3 0.491709 0.000000 0.095383
O O4 0.500000 0.222040 0.000000
O O5 0.921154 0.184576 0.479935
O O6 0.786398 0.229629 0.569923
O O7 0.937937 0.238982 0.327980
O O8 0.872152 0.000000 0.441386
O O9 0.759703 0.500000 0.766992
O O10 0.847798 0.268645 0.682908
O O11 0.714638 0.293549 0.909296
O O12 0.706429 0.252087 0.785453
O O13 0.500000 0.278818 0.500000
O O14 0.602515 0.500000 0.388053
O O15 0.793824 0.000000 0.985631
O O16 0.750000 0.750000 0.000000
O O17 0.902385 0.788514 0.863827
O O18 0.490612 0.500000 0.809871
O O19 0.774947 0.500000 0.293241
#
# Coordination Sequence:
#
# PCOD8096918 Si02
#       7
#     8   8   8   8   8   8   8
#     4  10  21  36  56  82 110 141 180 225 270 320
#     4   8  16  32  52  77 107 137 178 224 261 309
#     4  10  20  34  51  78 110 137 173 226 278 320
#     4   9  18  32  55  80 101 140 187 221 260 322
#     4  10  23  38  54  77 107 144 183 224 274 328
#     4  10  21  37  56  79 109 142 178 226 272 320
#     4   9  18  35  57  79 106 143 182 220 264 324
#
# _framework density 19.274224
#
# number of rings (size 3 to 8) (size 9 to 14) (size 15 to 20)
#    0.000    2.571    0.000    2.143    2.000    3.429 
#    0.000    2.857    0.000    0.000    0.000    0.000 
#    0.000    0.000    0.000    0.000    0.000    0.000 
#
# Total GULP energy -347122.986168 kJ/mol
# GULP energy per Si atom -12397.249506 kJ/mol
# Density = 1.923036 g / cm^3
# Si number density = 19.274224 Si / 1000 Ang^3
#
#
#
# Elastic Constant Matrix: (Units=GPa)
#
#
# Indices 1 2 3 4 5 6 
#
# 1 97.8123 35.2410 44.7280 -0.0070 -10.8345 0.0037
# 2 35.2410 51.4668 33.8655 -0.0164 4.0395 0.0100
# 3 44.7280 33.8655 118.5101 -0.0186 0.9258 0.0111
# 4 -0.0070 -0.0164 -0.0186 24.5144 0.0097 2.2437
# 5 -10.8345 4.0395 0.9258 0.0097 20.5114 -0.0054
# 6 0.0037 0.0100 0.0111 2.2437 -0.0054 28.8142
#
#
#
# Elastic Compliance Matrix: (Units=1/GPa)
#
#
# Indices 1 2 3 4 5 6 
#
# 1 0.016611 -0.009911 -0.003522 -0.000009 0.010885 0.000005
# 2 -0.009911 0.030247 -0.004817 0.000019 -0.010974 -0.000011
# 3 -0.003522 -0.004817 0.011155 0.000005 -0.001415 -0.000003
# 4 -0.000009 0.000019 0.000005 0.041085 -0.000029 -0.003199
# 5 0.010885 -0.010974 -0.001415 -0.000029 0.056728 0.000016
# 6 0.000005 -0.000011 -0.000003 -0.003199 0.000016 0.034954
#
#
# Mechanical properties :
#
#
# Convention : Reuss Voigt Hill
#
# Bulk Modulus (GPa) = 46.48364 55.05091 50.76728
# Shear Modulus (GPa) = 21.32634 25.03165 23.17900
#
# Velocity S-wave (km/s) = 3.32997 3.60767 3.47160
# Velocity P-wave (km/s) = 6.24134 6.78068 6.51659
#
# Compressibility (1/GPa) = 0.02151294
#
# Stress axis : x y z
#
# Youngs Moduli (GPa) = 60.20208 33.06078 89.64523
#
# Poissons Ratio (x) = 0.32765 0.31575
# Poissons Ratio (y) = 0.59664 0.43185
# Poissons Ratio (z) = 0.21204 0.15926
#
# Static dielectric constant tensor:
#      x y z
#    x 3.538980 0.000000 -0.258020 
#    y 0.000000 3.288710 0.000010 
#    z -0.258020 0.000010 3.898580 
# 
# 
# High freq. dielectric constant tensor:
#      x y z
#    x 1.748210 0.000000 -0.011590 
#    y 0.000000 1.723630 0.000000 
#    z -0.011590 0.000000 1.763240 
# 
# From -- ./inp_files/292409.got.cif
#   From: 2010.06.25/outbox.cif.g09.slc.cpg/sg12_147_cif.got.tgz:292409.got - 2010.06.28 00:19:55.
