data_PCOD8096246
_publ_section_title
;
Structure prediction by ZEFSAII (Michael W. Deem and Ramdas Pophale) SiO2 
 PCOD8096246
Probable space group: C 2/M
;
_chemical_formula_sum "Si O2"
_cell_formula_units_Z 64
_cell_length_a 29.677828
_cell_length_b 9.406800
_cell_length_c 14.899126
_cell_angle_alpha 90.000000
_cell_angle_beta 128.691517
_cell_angle_gamma 90.000000
_cell_volume 3246.538110
_symmetry_space_group_name_H-M "C 2/M"
_symmetry_group_IT_number 12
_symmetry_cell_setting 'monoclinic'
loop_
_space_group_symop_operation_xyz
x,y,z
-x,y,-z
-x,-y,-z
x,-y,z
1/2+x,1/2+y,z
1/2-x,1/2+y,-z
1/2-x,1/2-y,-z
1/2+x,1/2-y,z
loop_
_atom_site_type_symbol
_atom_site_label
_atom_site_fract_x
_atom_site_fract_y
_atom_site_fract_z
Si Si1 0.450611 0.666653 0.376667
Si Si2 0.833349 0.336951 0.754253
Si Si3 0.196704 0.346584 0.953631
Si Si4 0.891602 0.335676 0.640113
Si Si5 0.106292 0.330953 0.986772
Si Si6 0.490258 0.670387 0.230191
Si Si7 0.849235 0.653040 0.298765
Si Si8 0.718208 0.163897 0.616030
O O1 0.500000 0.732302 0.500000
O O2 0.448735 0.500000 0.380598
O O3 0.458792 0.713542 0.283973
O O4 0.394222 0.720961 0.356795
O O5 0.814829 0.500000 0.742967
O O6 0.876011 0.315088 0.724494
O O7 0.774916 0.251509 0.662265
O O8 0.868551 0.285100 0.885495
O O9 0.217908 0.500000 0.017148
O O10 0.153130 0.279328 0.971622
O O11 0.166174 0.369189 0.822433
O O12 0.250000 0.250000 0.000000
O O13 0.907992 0.500000 0.640577
O O14 0.837082 0.287688 0.511560
O O15 0.945367 0.233440 0.686379
O O16 0.093722 0.500000 0.964784
O O17 0.046952 0.244497 0.895374
O O18 0.493072 0.500000 0.219829
O O19 0.874243 0.500000 0.364757
O O20 0.795568 0.693122 0.296043
O O21 0.732479 0.000000 0.613842
#
# Coordination Sequence:
#
# PCOD8096246 Si02
#       8
#     8   8   8   8   8   8   8   8
#     4  10  21  36  54  80 113 146 183 227 275 330
#     4  10  22  39  61  86 112 151 199 240 288 346
#     4  10  20  33  52  78 109 144 182 223 270 325
#     4  10  22  40  60  84 115 153 194 239 293 349
#     4  10  21  39  59  81 115 156 194 236 286 342
#     4  11  23  38  59  87 116 151 195 242 290 340
#     4  10  20  34  53  81 111 144 183 218 268 334
#     4  10  21  37  59  88 120 150 187 239 294 345
#
# _framework density 19.713307
#
# number of rings (size 3 to 8) (size 9 to 14) (size 15 to 20)
#    0.000    1.875    1.250    2.250    0.000    4.250 
#    0.000    2.500    0.000    0.000    0.000    0.000 
#    0.000    0.000    0.000    0.000    0.000    0.000 
#
# Total GULP energy -396678.100218 kJ/mol
# GULP energy per Si atom -12396.190632 kJ/mol
# Density = 1.966844 g / cm^3
# Si number density = 19.713307 Si / 1000 Ang^3
#
#
#
# Elastic Constant Matrix: (Units=GPa)
#
#
# Indices 1 2 3 4 5 6 
#
# 1 60.7435 36.7548 10.9064 0.0000 4.4588 0.0000
# 2 36.7548 64.4670 39.0105 0.0000 15.7787 0.0000
# 3 10.9064 39.0105 82.5789 0.0000 5.8993 0.0000
# 4 0.0000 0.0000 0.0000 30.3447 0.0000 10.7030
# 5 4.4588 15.7787 5.8993 0.0000 38.5714 0.0000
# 6 0.0000 0.0000 0.0000 10.7030 0.0000 36.1963
#
#
#
# Elastic Compliance Matrix: (Units=1/GPa)
#
#
# Indices 1 2 3 4 5 6 
#
# 1 0.027164 -0.019811 0.005476 0.000000 0.004126 0.000000
# 2 -0.019811 0.038478 -0.014761 0.000000 -0.011193 0.000000
# 3 0.005476 -0.014761 0.018172 0.000000 0.002626 0.000000
# 4 0.000000 0.000000 0.000000 0.036792 0.000000 -0.010879
# 5 0.004126 -0.011193 0.002626 0.000000 0.029626 0.000000
# 6 0.000000 0.000000 0.000000 -0.010879 0.000000 0.030844
#
#
# Mechanical properties :
#
#
# Convention : Reuss Voigt Hill
#
# Bulk Modulus (GPa) = 39.02787 42.34809 40.68798
# Shear Modulus (GPa) = 20.17688 29.09697 24.63693
#
# Velocity S-wave (km/s) = 3.20271 3.84605 3.53903
# Velocity P-wave (km/s) = 5.78941 6.42273 6.11427
#
# Compressibility (1/GPa) = 0.02562271
#
# Stress axis : x y z
#
# Youngs Moduli (GPa) = 36.81398 25.98859 55.02966
#
# Poissons Ratio (x) = 0.51485 -0.30136
# Poissons Ratio (y) = 0.72931 0.81231
# Poissons Ratio (z) = -0.20160 0.38362
#
# Static dielectric constant tensor:
#      x y z
#    x 3.556280 0.000000 -0.210350 
#    y 0.000000 3.908500 0.000000 
#    z -0.210350 0.000000 3.645210 
# 
# 
# High freq. dielectric constant tensor:
#      x y z
#    x 1.769730 0.000000 -0.008980 
#    y 0.000000 1.762670 0.000000 
#    z -0.008980 0.000000 1.773620 
# 
# From -- ./inp_files/249942.got.cif
#   From: 2010.06.25/outbox.cif.g09.slc.cpg/sg12_125_cif.got.tgz:249942.got - 2010.06.28 00:19:55.
