data_PCOD8096267
_publ_section_title
;
Structure prediction by ZEFSAII (Michael W. Deem and Ramdas Pophale) SiO2 
 PCOD8096267
Probable space group: C 2/M
;
_chemical_formula_sum "Si O2"
_cell_formula_units_Z 64
_cell_length_a 31.859939
_cell_length_b 8.729435
_cell_length_c 15.673073
_cell_angle_alpha 90.000000
_cell_angle_beta 127.428404
_cell_angle_gamma 90.000000
_cell_volume 3461.527351
_symmetry_space_group_name_H-M "C 2/M"
_symmetry_group_IT_number 12
_symmetry_cell_setting 'monoclinic'
loop_
_space_group_symop_operation_xyz
x,y,z
-x,y,-z
-x,-y,-z
x,-y,z
1/2+x,1/2+y,z
1/2-x,1/2+y,-z
1/2-x,1/2-y,-z
1/2+x,1/2-y,z
loop_
_atom_site_type_symbol
_atom_site_label
_atom_site_fract_x
_atom_site_fract_y
_atom_site_fract_z
Si Si1 0.761299 0.819194 0.270489
Si Si2 0.119010 0.321583 0.974691
Si Si3 0.533499 0.677268 0.460574
Si Si4 0.226792 0.180563 0.056527
Si Si5 0.409794 0.179622 0.712688
Si Si6 0.863436 0.676852 0.472834
Si Si7 0.513757 0.676746 0.780183
Si Si8 0.650718 0.178719 0.199130
O O1 0.761633 0.741634 0.178315
O O2 0.813364 0.777853 0.386547
O O3 0.710359 0.758093 0.260653
O O4 0.757361 0.000000 0.251607
O O5 0.130848 0.500000 0.974850
O O6 0.064094 0.277763 0.864607
O O7 0.165646 0.227126 0.988277
O O8 0.116637 0.283584 0.072670
O O9 0.500000 0.733648 0.500000
O O10 0.549713 0.500000 0.489130
O O11 0.586779 0.776168 0.523568
O O12 0.498297 0.705955 0.333770
O O13 0.231557 0.000000 0.058878
O O14 0.250000 0.250000 0.000000
O O15 0.375382 0.211834 0.586186
O O16 0.464832 0.269473 0.777249
O O17 0.377629 0.250634 0.753023
O O18 0.422483 0.000000 0.738157
O O19 0.850531 0.500000 0.440655
O O20 0.525684 0.500000 0.814209
O O21 0.654100 0.000000 0.220809
#
# Coordination Sequence:
#
# PCOD8096267 Si02
#       8
#     8   8   8   8   8   8   8   8
#     4  10  20  36  56  78 107 142 178 216 261 313
#     4  10  20  36  56  78 106 141 178 216 263 315
#     4   9  19  36  55  73  98 135 176 216 260 313
#     4  11  22  38  58  81 109 139 175 218 263 311
#     4   9  18  35  55  75 103 139 179 220 265 318
#     4  10  20  33  52  79 108 137 172 218 267 314
#     4  10  20  34  52  77 106 135 173 221 270 318
#     4   8  17  34  55  76 100 137 181 219 259 314
#
# _framework density 18.488949000000002
#
# number of rings (size 3 to 8) (size 9 to 14) (size 15 to 20)
#    0.000    2.375    0.000    3.375    0.000    3.250 
#    0.000   10.000    0.000    0.000    0.000    0.000 
#    0.000    0.000    0.000    0.000    0.000    0.000 
#
# Total GULP energy -396866.254450 kJ/mol
# GULP energy per Si atom -12402.070452 kJ/mol
# Density = 1.844687 g / cm^3
# Si number density = 18.488949 Si / 1000 Ang^3
#
#
#
# Elastic Constant Matrix: (Units=GPa)
#
#
# Indices 1 2 3 4 5 6 
#
# 1 127.7124 38.1883 56.1050 0.0000 -21.0170 0.0000
# 2 38.1883 80.9583 34.3886 0.0000 -1.5557 0.0000
# 3 56.1050 34.3886 85.8325 0.0000 8.5313 0.0000
# 4 0.0000 0.0000 0.0000 31.9154 0.0000 4.8426
# 5 -21.0170 -1.5557 8.5313 0.0000 29.0808 0.0000
# 6 0.0000 0.0000 0.0000 4.8426 0.0000 28.3882
#
#
#
# Elastic Compliance Matrix: (Units=1/GPa)
#
#
# Indices 1 2 3 4 5 6 
#
# 1 0.015587 -0.002592 -0.010564 0.000000 0.014225 0.000000
# 2 -0.002592 0.015513 -0.004550 0.000000 0.000292 0.000000
# 3 -0.010564 -0.004550 0.021798 0.000000 -0.014273 0.000000
# 4 0.000000 0.000000 0.000000 0.032165 0.000000 -0.005487
# 5 0.014225 0.000292 -0.014273 0.000000 0.048871 0.000000
# 6 0.000000 0.000000 0.000000 -0.005487 0.000000 0.036162
#
#
# Mechanical properties :
#
#
# Convention : Reuss Voigt Hill
#
# Bulk Modulus (GPa) = 57.19006 61.31855 59.25431
# Shear Modulus (GPa) = 23.65905 28.93162 26.29533
#
# Velocity S-wave (km/s) = 3.58107 3.96005 3.77532
# Velocity P-wave (km/s) = 6.93527 7.35842 7.14998
#
# Compressibility (1/GPa) = 0.01748556
#
# Stress axis : x y z
#
# Youngs Moduli (GPa) = 64.15622 64.46236 45.87680
#
# Poissons Ratio (x) = 0.16707 0.48465
# Poissons Ratio (y) = 0.16628 0.20874
# Poissons Ratio (z) = 0.67775 0.29331
#
# Static dielectric constant tensor:
#      x y z
#    x 3.632700 0.000000 -0.076710 
#    y 0.000000 3.346320 0.000000 
#    z -0.076710 0.000000 3.376380 
# 
# 
# High freq. dielectric constant tensor:
#      x y z
#    x 1.723140 0.000000 -0.000040 
#    y 0.000000 1.714430 0.000000 
#    z -0.000040 0.000000 1.716720 
# 
# From -- ./inp_files/250127.got.cif
#   From: 2010.06.25/outbox.cif.g09.slc.cpg/sg12_126_cif.got.tgz:250127.got - 2010.06.28 00:19:55.
