data_PCOD8096320
_publ_section_title
;
Structure prediction by ZEFSAII (Michael W. Deem and Ramdas Pophale) SiO2 
 PCOD8096320
Probable space group: C 2/M
;
_chemical_formula_sum "Si O2"
_cell_formula_units_Z 56
_cell_length_a 23.315917
_cell_length_b 8.780099
_cell_length_c 15.337299
_cell_angle_alpha 90.000000
_cell_angle_beta 89.048650
_cell_angle_gamma 90.000000
_cell_volume 3139.358606
_symmetry_space_group_name_H-M "C 2/M"
_symmetry_group_IT_number 12
_symmetry_cell_setting 'monoclinic'
loop_
_space_group_symop_operation_xyz
x,y,z
-x,y,-z
-x,-y,-z
x,-y,z
1/2+x,1/2+y,z
1/2-x,1/2+y,-z
1/2-x,1/2-y,-z
1/2+x,1/2-y,z
loop_
_atom_site_type_symbol
_atom_site_label
_atom_site_fract_x
_atom_site_fract_y
_atom_site_fract_z
Si Si1 0.432225 0.170361 0.508854
Si Si2 0.428789 0.321411 0.331949
Si Si3 0.753912 0.178226 0.904313
Si Si4 0.936296 0.681097 0.006008
Si Si5 0.367565 0.819479 0.841312
Si Si6 0.439285 0.678633 0.685587
Si Si7 0.132400 0.322017 0.825674
O O1 0.500000 0.166149 0.500000
O O2 0.407141 0.242416 0.421237
O O3 0.415028 0.274159 0.591554
O O4 0.407379 0.000000 0.521521
O O5 0.425830 0.500000 0.347272
O O6 0.493948 0.273249 0.305703
O O7 0.384555 0.271734 0.258971
O O8 0.804741 0.246720 0.844936
O O9 0.697415 0.213448 0.849828
O O10 0.762609 0.000000 0.917641
O O11 0.750000 0.250000 0.000000
O O12 0.937292 0.500000 0.002898
O O13 0.900781 0.743374 0.925101
O O14 0.907527 0.738467 0.095287
O O15 0.000000 0.749791 0.000000
O O16 0.402312 0.770037 0.755985
O O17 0.361485 0.000000 0.842647
O O18 0.430525 0.500000 0.699426
O O19 0.122199 0.500000 0.808017
#
# Coordination Sequence:
#
# PCOD8096320 Si02
#       7
#     8   8   8   8   8   8   8
#     4   9  17  31  53  79 107 143 182 217 258 317
#     4  10  20  33  52  81 114 144 175 219 271 319
#     4  11  22  38  57  76 103 140 185 231 272 315
#     4   9  17  30  49  74 104 137 173 214 260 311
#     4  11  21  35  55  78 105 141 184 225 267 318
#     4  10  20  34  52  80 115 145 175 217 271 322
#     4  10  20  35  53  75 104 142 183 221 264 318
#
# _framework density 17.838038000000001
#
# number of rings (size 3 to 8) (size 9 to 14) (size 15 to 20)
#    0.000    2.000    1.429    3.000    0.000    5.714 
#    0.000    0.000    0.000    3.857    0.000    0.000 
#    0.000    0.000    0.000    0.000    0.000    0.000 
#
# Total GULP energy -347252.988901 kJ/mol
# GULP energy per Si atom -12401.892461 kJ/mol
# Density = 1.779744 g / cm^3
# Si number density = 17.838038 Si / 1000 Ang^3
#
#
#
# Elastic Constant Matrix: (Units=GPa)
#
#
# Indices 1 2 3 4 5 6 
#
# 1 89.6982 38.6299 41.4536 0.0000 12.2745 0.0000
# 2 38.6299 67.7462 32.2367 0.0000 8.7543 0.0000
# 3 41.4536 32.2367 117.3175 0.0000 20.5733 0.0000
# 4 0.0000 0.0000 0.0000 30.7355 0.0000 -1.3421
# 5 12.2745 8.7543 20.5733 0.0000 8.6704 0.0000
# 6 0.0000 0.0000 0.0000 -1.3421 0.0000 25.5730
#
#
#
# Elastic Compliance Matrix: (Units=1/GPa)
#
#
# Indices 1 2 3 4 5 6 
#
# 1 0.016709 -0.007088 -0.001821 0.000000 -0.012177 0.000000
# 2 -0.007088 0.020554 -0.002164 0.000000 -0.005583 0.000000
# 3 -0.001821 -0.002164 0.015288 0.000000 -0.031513 0.000000
# 4 0.000000 0.000000 0.000000 0.032610 0.000000 0.001711
# 5 -0.012177 -0.005583 -0.031513 0.000000 0.212986 0.000000
# 6 0.000000 0.000000 0.000000 0.001711 0.000000 0.039194
#
#
# Mechanical properties :
#
#
# Convention : Reuss Voigt Hill
#
# Bulk Modulus (GPa) = 32.88914 55.48917 44.18915
# Shear Modulus (GPa) = 13.52735 23.82522 18.67628
#
# Velocity S-wave (km/s) = 2.75679 3.65861 3.23924
# Velocity P-wave (km/s) = 5.34891 7.00157 6.23028
#
# Compressibility (1/GPa) = 0.03040517
#
# Stress axis : x y z
#
# Youngs Moduli (GPa) = 59.84877 48.65288 65.40934
#
# Poissons Ratio (x) = 0.34483 0.11911
# Poissons Ratio (y) = 0.42418 0.14157
# Poissons Ratio (z) = 0.10898 0.10530
#
# Static dielectric constant tensor:
#      x y z
#    x 3.260730 0.000000 0.025070 
#    y 0.000000 3.280690 0.000000 
#    z 0.025070 0.000000 3.393440 
# 
# 
# High freq. dielectric constant tensor:
#      x y z
#    x 1.669630 0.000000 0.001910 
#    y 0.000000 1.689830 0.000000 
#    z 0.001910 0.000000 1.697080 
# 
# From -- ./inp_files/230893.got.cif
#   From: 2010.06.25/outbox.cif.g09.slc.cpg/sg12_116_cif.got.tgz:230893.got - 2010.06.28 00:19:55.
