data_PCOD8096289
_publ_section_title
;
Structure prediction by ZEFSAII (Michael W. Deem and Ramdas Pophale) SiO2 
 PCOD8096289
Probable space group: C 2/M
;
_chemical_formula_sum "Si O2"
_cell_formula_units_Z 40
_cell_length_a 11.506015
_cell_length_b 21.483237
_cell_length_c 12.448171
_cell_angle_alpha 90.000000
_cell_angle_beta 36.696812
_cell_angle_gamma 90.000000
_cell_volume 1838.766756
_symmetry_space_group_name_H-M "C 2/M"
_symmetry_group_IT_number 12
_symmetry_cell_setting 'monoclinic'
loop_
_space_group_symop_operation_xyz
x,y,z
-x,y,-z
-x,-y,-z
x,-y,z
1/2+x,1/2+y,z
1/2-x,1/2+y,-z
1/2-x,1/2-y,-z
1/2+x,1/2-y,z
loop_
_atom_site_type_symbol
_atom_site_label
_atom_site_fract_x
_atom_site_fract_y
_atom_site_fract_z
Si Si1 0.996872 0.629156 0.742851
Si Si2 0.107192 0.000000 0.764002
Si Si3 0.694803 0.209641 0.295474
Si Si4 0.777458 0.302336 0.068713
Si Si5 0.380422 0.633224 0.342185
Si Si6 0.819232 0.500000 0.822052
O O1 0.857676 0.663258 0.761528
O O2 0.949211 0.557001 0.765564
O O3 0.220825 0.645954 0.552803
O O4 0.950712 0.652553 0.898699
O O5 0.130714 0.939626 0.673548
O O6 0.282520 0.000000 0.721076
O O7 0.893303 0.000000 0.970455
O O8 0.500000 0.232321 0.500000
O O9 0.811843 0.268802 0.158778
O O10 0.839239 0.173795 0.266705
O O11 0.589112 0.345577 0.227765
O O12 0.750000 0.250000 0.000000
#
# Coordination Sequence:
#
# PCOD8096289 Si02
#       6
#     8   4   8   8   8   4
#     4  10  20  33  52  79 113 146 183 228 274 335
#     4  11  21  31  61  84 115 154 179 227 298 345
#     4   9  20  35  55  78 112 154 189 229 273 330
#     4  10  22  36  52  78 115 152 192 232 268 332
#     4  11  21  37  57  84 116 153 186 223 288 338
#     4  11  19  31  53  86 113 147 187 222 289 351
#
# _framework density 21.753710999999999
#
# number of rings (size 3 to 8) (size 9 to 14) (size 15 to 20)
#    0.000    1.800    4.000    0.600    0.000   11.200 
#    0.000    2.000    0.000    0.000    0.000    2.800 
#    0.000   40.000    0.000    0.000    0.000    0.000 
#
# Total GULP energy -247937.503182 kJ/mol
# GULP energy per Si atom -12396.875159 kJ/mol
# Density = 2.170420 g / cm^3
# Si number density = 21.753711 Si / 1000 Ang^3
#
#
#
# Elastic Constant Matrix: (Units=GPa)
#
#
# Indices 1 2 3 4 5 6 
#
# 1 26.3449 34.4357 29.8299 -0.0022 3.3595 -0.0054
# 2 34.4357 140.0218 65.5430 0.0001 13.4898 -0.0004
# 3 29.8299 65.5430 141.7291 -0.0023 -0.1264 -0.0020
# 4 -0.0022 0.0001 -0.0023 24.2707 0.0012 3.7693
# 5 3.3595 13.4898 -0.1264 0.0012 20.1468 0.0020
# 6 -0.0054 -0.0004 -0.0020 3.7693 0.0020 21.2395
#
#
#
# Elastic Compliance Matrix: (Units=1/GPa)
#
#
# Indices 1 2 3 4 5 6 
#
# 1 0.061937 -0.011306 -0.007810 0.000003 -0.002807 0.000015
# 2 -0.011306 0.012004 -0.003177 -0.000001 -0.006172 -0.000002
# 3 -0.007810 -0.003177 0.010172 0.000000 0.003494 -0.000001
# 4 0.000003 -0.000001 0.000000 0.042370 -0.000002 -0.007519
# 5 -0.002807 -0.006172 0.003494 -0.000002 0.054258 -0.000005
# 6 0.000015 -0.000002 -0.000001 -0.007519 -0.000005 0.048417
#
#
# Mechanical properties :
#
#
# Convention : Reuss Voigt Hill
#
# Bulk Modulus (GPa) = 25.29930 63.07921 44.18926
# Shear Modulus (GPa) = 17.42644 25.01721 21.22182
#
# Velocity S-wave (km/s) = 2.83340 3.39487 3.12677
# Velocity P-wave (km/s) = 4.72857 6.66535 5.77868
#
# Compressibility (1/GPa) = 0.03952678
#
# Stress axis : x y z
#
# Youngs Moduli (GPa) = 16.14535 83.30453 98.30972
#
# Poissons Ratio (x) = 0.94185 0.76780
# Poissons Ratio (y) = 0.18254 0.31236
# Poissons Ratio (z) = 0.12609 0.26468
#
# Static dielectric constant tensor:
#      x y z
#    x 3.515930 0.000000 0.166760 
#    y 0.000000 4.117810 0.000000 
#    z 0.166760 0.000000 4.431780 
# 
# 
# High freq. dielectric constant tensor:
#      x y z
#    x 1.804490 0.000000 -0.004390 
#    y 0.000000 1.858720 0.000000 
#    z -0.004390 0.000000 1.881610 
# 
# From -- ./inp_files/216664.got.cif
#   From: 2010.06.25/outbox.cif.g09.slc.cpg/sg12_109_cif.got.tgz:216664.got - 2010.06.28 00:19:55.
