data_PCOD8096584
_publ_section_title
;
Structure prediction by ZEFSAII (Michael W. Deem and Ramdas Pophale) SiO2 
 PCOD8096584
Probable space group: C 2/M
;
_chemical_formula_sum "Si O2"
_cell_formula_units_Z 64
_cell_length_a 25.957105
_cell_length_b 9.015061
_cell_length_c 14.127640
_cell_angle_alpha 90.000000
_cell_angle_beta 86.367648
_cell_angle_gamma 90.000000
_cell_volume 3299.295525
_symmetry_space_group_name_H-M "C 2/M"
_symmetry_group_IT_number 12
_symmetry_cell_setting 'monoclinic'
loop_
_space_group_symop_operation_xyz
x,y,z
-x,y,-z
-x,-y,-z
x,-y,z
1/2+x,1/2+y,z
1/2-x,1/2+y,-z
1/2-x,1/2-y,-z
1/2+x,1/2-y,z
loop_
_atom_site_type_symbol
_atom_site_label
_atom_site_fract_x
_atom_site_fract_y
_atom_site_fract_z
Si Si1 0.648107 0.323704 0.392349
Si Si2 0.888949 0.672344 0.910414
Si Si3 0.442270 0.823979 0.712547
Si Si4 0.948667 0.825117 0.056977
Si Si5 0.272943 0.829612 0.907844
Si Si6 0.952583 0.823552 0.272990
Si Si7 0.649371 0.674919 0.609559
Si Si8 0.251166 0.174775 0.702524
O O1 0.644587 0.500000 0.380802
O O2 0.597655 0.249214 0.354719
O O3 0.649752 0.274451 0.501345
O O4 0.699597 0.265068 0.337798
O O5 0.893958 0.500000 0.932073
O O6 0.927276 0.719711 0.821610
O O7 0.831993 0.717526 0.883558
O O8 0.900483 0.758794 0.005830
O O9 0.498554 0.756994 0.685154
O O10 0.441762 0.000000 0.697338
O O11 0.946894 0.771754 0.165148
O O12 0.944973 0.000000 0.050963
O O13 0.000000 0.764355 0.000000
O O14 0.242170 0.793375 0.815009
O O15 0.269141 0.000000 0.933867
O O16 0.250000 0.750000 0.000000
O O17 0.902075 0.764782 0.333580
O O18 0.960156 0.000000 0.280604
O O19 0.649939 0.500000 0.620238
O O20 0.700798 0.736687 0.654496
O O21 0.261152 0.000000 0.683608
#
# Coordination Sequence:
#
# PCOD8096584 Si02
#       8
#     8   8   8   8   8   8   8   8
#     4  11  22  38  62  90 113 146 198 248 293 345
#     4  10  21  37  55  79 114 154 191 229 282 342
#     4  11  22  39  61  85 116 156 196 238 293 349
#     4  10  20  33  55  86 112 143 189 232 272 328
#     4  10  22  38  57  85 118 154 190 231 285 341
#     4  10  21  39  59  85 120 154 193 241 290 346
#     4   9  21  39  61  86 116 155 193 237 298 353
#     4  10  20  40  64  86 118 157 194 236 291 351
#
# _framework density 19.39808
#
# number of rings (size 3 to 8) (size 9 to 14) (size 15 to 20)
#    0.000    1.875    2.500    1.125    1.750    2.750 
#    0.000    5.000    0.000    0.000    0.000    0.000 
#    0.000    0.000    0.000    0.000    0.000    0.000 
#
# Total GULP energy -396870.417998 kJ/mol
# GULP energy per Si atom -12402.200562 kJ/mol
# Density = 1.935393 g / cm^3
# Si number density = 19.398080 Si / 1000 Ang^3
#
#
#
# Elastic Constant Matrix: (Units=GPa)
#
#
# Indices 1 2 3 4 5 6 
#
# 1 125.1773 41.3103 65.5951 0.0000 19.6681 0.0000
# 2 41.3103 48.0361 41.5088 0.0000 7.8587 0.0000
# 3 65.5951 41.5088 125.0136 0.0000 13.0042 0.0000
# 4 0.0000 0.0000 0.0000 26.3187 0.0000 2.2366
# 5 19.6681 7.8587 13.0042 0.0000 37.7456 0.0000
# 6 0.0000 0.0000 0.0000 2.2366 0.0000 33.5925
#
#
#
# Elastic Compliance Matrix: (Units=1/GPa)
#
#
# Indices 1 2 3 4 5 6 
#
# 1 0.013094 -0.007059 -0.004117 0.000000 -0.003935 0.000000
# 2 -0.007059 0.033296 -0.007274 0.000000 -0.000748 0.000000
# 3 -0.004117 -0.007274 0.012647 0.000000 -0.000697 0.000000
# 4 0.000000 0.000000 0.000000 0.038212 0.000000 -0.002544
# 5 -0.003935 -0.000748 -0.000697 0.000000 0.028939 0.000000
# 6 0.000000 0.000000 0.000000 -0.002544 0.000000 0.029938
#
#
# Mechanical properties :
#
#
# Convention : Reuss Voigt Hill
#
# Bulk Modulus (GPa) = 45.17312 66.11726 55.64519
# Shear Modulus (GPa) = 24.94935 29.51887 27.23411
#
# Velocity S-wave (km/s) = 3.59022 3.90518 3.75101
# Velocity P-wave (km/s) = 6.36586 7.38189 6.89263
#
# Compressibility (1/GPa) = 0.02213706
#
# Stress axis : x y z
#
# Youngs Moduli (GPa) = 76.37042 30.03354 79.06915
#
# Poissons Ratio (x) = 0.21201 0.32555
# Poissons Ratio (y) = 0.53911 0.57512
# Poissons Ratio (z) = 0.31444 0.21845
#
# Static dielectric constant tensor:
#      x y z
#    x 3.715760 0.000000 0.082290 
#    y 0.000000 3.316160 0.000000 
#    z 0.082290 0.000000 3.609360 
# 
# 
# High freq. dielectric constant tensor:
#      x y z
#    x 1.765250 0.000000 0.007380 
#    y 0.000000 1.736240 0.000000 
#    z 0.007380 0.000000 1.763120 
# 
# From -- ./inp_files/238661.got.cif
#   From: 2010.06.25/outbox.cif.g09.slc.cpg/sg12_120_cif.got.tgz:238661.got - 2010.06.28 00:19:55.
