data_PCOD8096824
_publ_section_title
;
Structure prediction by ZEFSAII (Michael W. Deem and Ramdas Pophale) SiO2 
 PCOD8096824
Probable space group: C 2/M
;
_chemical_formula_sum "Si O2"
_cell_formula_units_Z 64
_cell_length_a 30.954562
_cell_length_b 8.937114
_cell_length_c 14.532831
_cell_angle_alpha 90.000000
_cell_angle_beta 62.114850
_cell_angle_gamma 90.000000
_cell_volume 3553.602701
_symmetry_space_group_name_H-M "C 2/M"
_symmetry_group_IT_number 12
_symmetry_cell_setting 'monoclinic'
loop_
_space_group_symop_operation_xyz
x,y,z
-x,y,-z
-x,-y,-z
x,-y,z
1/2+x,1/2+y,z
1/2-x,1/2+y,-z
1/2-x,1/2-y,-z
1/2+x,1/2-y,z
loop_
_atom_site_type_symbol
_atom_site_label
_atom_site_fract_x
_atom_site_fract_y
_atom_site_fract_z
Si Si1 0.107412 0.825068 0.420304
Si Si2 0.387327 0.172518 0.154019
Si Si3 0.070419 0.671669 0.079480
Si Si4 0.917048 0.670594 0.730434
Si Si5 0.530661 0.323087 0.810749
Si Si6 0.300126 0.673010 0.550515
Si Si7 0.968846 0.672530 0.379770
Si Si8 0.199518 0.173431 0.660849
O O1 0.113628 0.776425 0.307623
O O2 0.155510 0.779161 0.428547
O O3 0.060972 0.736832 0.505101
O O4 0.097355 0.000000 0.437652
O O5 0.431188 0.266736 0.152488
O O6 0.335308 0.232912 0.238091
O O7 0.392896 0.000000 0.177385
O O8 0.390126 0.191359 0.040594
O O9 0.051885 0.500000 0.106289
O O10 0.095193 0.717660 0.151994
O O11 0.023106 0.771368 0.105753
O O12 0.901690 0.500000 0.726698
O O13 0.974390 0.694934 0.655508
O O14 0.532607 0.500000 0.804980
O O15 0.546700 0.260692 0.696022
O O16 0.285505 0.500000 0.578047
O O17 0.254644 0.774814 0.624425
O O18 0.315593 0.704098 0.429763
O O19 0.955459 0.500000 0.378905
O O20 0.194621 0.000000 0.690846
#
# Coordination Sequence:
#
# PCOD8096824 Si02
#       8
#     8   8   8   8   8   8   8   8
#     4  11  21  32  51  78 105 134 170 212 257 305
#     4  11  21  34  54  76 102 138 174 207 252 310
#     4   9  20  37  53  71 100 140 179 212 251 301
#     4   9  19  35  51  70 100 137 177 216 251 294
#     4  11  21  32  49  76 108 137 170 215 257 296
#     4   9  20  37  53  74 106 136 161 197 251 311
#     4  10  20  34  51  72 103 142 177 209 251 305
#     4  10  20  35  56  80 104 130 164 207 252 300
#
# _framework density 18.009892000000001
#
# number of rings (size 3 to 8) (size 9 to 14) (size 15 to 20)
#    0.000    2.000    0.000    4.875    0.000    9.000 
#    0.000    0.000    0.000    0.750    0.000    0.000 
#    0.000    0.000    0.000    0.000    0.000    0.000 
#
# Total GULP energy -396913.223347 kJ/mol
# GULP energy per Si atom -12403.538230 kJ/mol
# Density = 1.796890 g / cm^3
# Si number density = 18.009892 Si / 1000 Ang^3
#
#
#
# Elastic Constant Matrix: (Units=GPa)
#
#
# Indices 1 2 3 4 5 6 
#
# 1 81.8053 42.8993 47.4329 0.0000 14.4815 0.0000
# 2 42.8993 105.0994 48.4913 0.0000 4.1424 0.0000
# 3 47.4329 48.4913 108.3688 0.0000 7.5410 0.0000
# 4 0.0000 0.0000 0.0000 25.1431 0.0000 1.1270
# 5 14.4815 4.1424 7.5410 0.0000 19.3694 0.0000
# 6 0.0000 0.0000 0.0000 1.1270 0.0000 29.4656
#
#
#
# Elastic Compliance Matrix: (Units=1/GPa)
#
#
# Indices 1 2 3 4 5 6 
#
# 1 0.020404 -0.005193 -0.005779 0.000000 -0.011894 0.000000
# 2 -0.005193 0.013316 -0.003862 0.000000 0.002538 0.000000
# 3 -0.005779 -0.003862 0.013493 0.000000 -0.000106 0.000000
# 4 0.000000 0.000000 0.000000 0.039841 0.000000 -0.001524
# 5 -0.011894 0.002538 -0.000106 0.000000 0.060019 0.000000
# 6 0.000000 0.000000 0.000000 -0.001524 0.000000 0.033996
#
#
# Mechanical properties :
#
#
# Convention : Reuss Voigt Hill
#
# Bulk Modulus (GPa) = 56.99976 63.65782 60.32879
# Shear Modulus (GPa) = 23.08539 25.22564 24.15551
#
# Velocity S-wave (km/s) = 3.58413 3.74659 3.66626
# Velocity P-wave (km/s) = 6.98898 7.35790 7.17581
#
# Compressibility (1/GPa) = 0.01754393
#
# Stress axis : x y z
#
# Youngs Moduli (GPa) = 49.00962 75.09490 74.11242
#
# Poissons Ratio (x) = 0.38998 0.42833
# Poissons Ratio (y) = 0.25452 0.28624
# Poissons Ratio (z) = 0.28325 0.29004
#
# Static dielectric constant tensor:
#      x y z
#    x 3.145550 0.000000 0.175440 
#    y 0.000000 3.372220 0.000000 
#    z 0.175440 0.000000 3.409180 
# 
# 
# High freq. dielectric constant tensor:
#      x y z
#    x 1.676910 0.000000 0.014100 
#    y 0.000000 1.706550 0.000000 
#    z 0.014100 0.000000 1.693860 
# 
# From -- ./inp_files/248991.got.cif
#   From: 2010.06.25/outbox.cif.g09.slc.cpg/sg12_125_cif.got.tgz:248991.got - 2010.06.28 00:19:55.
