data_PCOD8096871
_publ_section_title
;
Structure prediction by ZEFSAII (Michael W. Deem and Ramdas Pophale) SiO2 
 PCOD8096871
Probable space group: C 2/M
;
_chemical_formula_sum "Si O2"
_cell_formula_units_Z 56
_cell_length_a 14.552881
_cell_length_b 9.683970
_cell_length_c 21.145564
_cell_angle_alpha 90.000000
_cell_angle_beta 85.832399
_cell_angle_gamma 90.000000
_cell_volume 2972.157191
_symmetry_space_group_name_H-M "C 2/M"
_symmetry_group_IT_number 12
_symmetry_cell_setting 'monoclinic'
loop_
_space_group_symop_operation_xyz
x,y,z
-x,y,-z
-x,-y,-z
x,-y,z
1/2+x,1/2+y,z
1/2-x,1/2+y,-z
1/2-x,1/2-y,-z
1/2+x,1/2-y,z
loop_
_atom_site_type_symbol
_atom_site_label
_atom_site_fract_x
_atom_site_fract_y
_atom_site_fract_z
Si Si1 0.656168 0.661621 0.500405
Si Si2 0.162990 0.656855 0.189501
Si Si3 0.990729 0.655623 0.282660
Si Si4 0.510567 0.660768 0.401247
Si Si5 0.181937 0.338153 0.789612
Si Si6 0.606622 0.836250 0.059467
Si Si7 0.099250 0.336216 0.923286
O O1 0.682751 0.500000 0.500851
O O2 0.750000 0.750000 0.500000
O O3 0.599326 0.697090 0.439718
O O4 0.586817 0.699299 0.561103
O O5 0.199470 0.500000 0.191487
O O6 0.059287 0.666323 0.220086
O O7 0.225684 0.753758 0.230751
O O8 0.165657 0.715074 0.116807
O O9 0.989236 0.500000 0.309653
O O10 0.021472 0.755617 0.336599
O O11 0.890968 0.697385 0.261119
O O12 0.511347 0.500000 0.385027
O O13 0.203296 0.500000 0.790599
O O14 0.151143 0.277573 0.859514
O O15 0.503763 0.775422 0.070719
O O16 0.599741 0.000000 0.064726
O O17 0.647651 0.793431 0.988225
O O18 0.095831 0.500000 0.916920
#
# Coordination Sequence:
#
# PCOD8096871 Si02
#       7
#     8   8   8   8   8   8   8
#     4   9  19  37  60  86 114 141 171 211 254 300
#     4  10  20  34  51  74 102 134 174 219 264 312
#     4  10  21  37  54  74 106 143 180 216 250 302
#     4   9  20  38  58  81 111 144 174 208 257 304
#     4  10  20  34  51  74 102 134 174 219 264 312
#     4   8  13  25  48  72  93 125 170 216 262 313
#     4   8  13  25  48  72  93 125 170 216 262 313
#
# _framework density 18.841533999999999
#
# number of rings (size 3 to 8) (size 9 to 14) (size 15 to 20)
#    0.000    2.857    1.429    1.714    0.000    4.000 
#    0.000    7.143    0.000    0.000    0.000    2.000 
#    0.000    0.000    0.000    0.000    0.000    0.000 
#
# Total GULP energy -346962.802435 kJ/mol
# GULP energy per Si atom -12391.528658 kJ/mol
# Density = 1.879865 g / cm^3
# Si number density = 18.841534 Si / 1000 Ang^3
#
#
#
# Elastic Constant Matrix: (Units=GPa)
#
#
# Indices 1 2 3 4 5 6 
#
# 1 89.0545 41.7196 22.3319 0.0000 21.5454 0.0000
# 2 41.7196 53.4196 40.5352 0.0000 15.1193 0.0000
# 3 22.3319 40.5352 98.1012 0.0000 17.6118 0.0000
# 4 0.0000 0.0000 0.0000 26.1025 0.0000 3.7182
# 5 21.5454 15.1193 17.6118 0.0000 21.2536 0.0000
# 6 0.0000 0.0000 0.0000 3.7182 0.0000 29.6162
#
#
#
# Elastic Compliance Matrix: (Units=1/GPa)
#
#
# Indices 1 2 3 4 5 6 
#
# 1 0.020682 -0.015472 0.004080 0.000000 -0.013340 0.000000
# 2 -0.015472 0.041631 -0.013132 0.000000 -0.003048 0.000000
# 3 0.004080 -0.013132 0.016161 0.000000 -0.008185 0.000000
# 4 0.000000 0.000000 0.000000 0.039008 0.000000 -0.004897
# 5 -0.013340 -0.003048 -0.008185 0.000000 0.069525 0.000000
# 6 0.000000 0.000000 0.000000 -0.004897 0.000000 0.034380
#
#
# Mechanical properties :
#
#
# Convention : Reuss Voigt Hill
#
# Bulk Modulus (GPa) = 33.98613 49.97205 41.97909
# Shear Modulus (GPa) = 17.84157 24.46038 21.15098
#
# Velocity S-wave (km/s) = 3.08056 3.60699 3.35412
# Velocity P-wave (km/s) = 5.54348 6.62774 6.10971
#
# Compressibility (1/GPa) = 0.02942377
#
# Stress axis : x y z
#
# Youngs Moduli (GPa) = 48.35185 24.02050 61.87900
#
# Poissons Ratio (x) = 0.37165 -0.25247
# Poissons Ratio (y) = 0.74812 0.81262
# Poissons Ratio (z) = -0.19728 0.31545
#
# Static dielectric constant tensor:
#      x y z
#    x 3.351810 0.000000 0.058340 
#    y 0.000000 3.050890 0.000000 
#    z 0.058340 0.000000 3.528870 
# 
# 
# High freq. dielectric constant tensor:
#      x y z
#    x 1.728360 0.000000 0.007010 
#    y 0.000000 1.695650 0.000000 
#    z 0.007010 0.000000 1.735700 
# 
# From -- ./inp_files/308997.got.cif
#   From: 2010.06.25/outbox.cif.g09.slc.cpg/sg12_155_cif.got.tgz:308997.got - 2010.06.28 00:19:55.
