data_PCOD8096836
_publ_section_title
;
Structure prediction by ZEFSAII (Michael W. Deem and Ramdas Pophale) SiO2 
 PCOD8096836
Probable space group: C 2/M
;
_chemical_formula_sum "Si O2"
_cell_formula_units_Z 56
_cell_length_a 14.369475
_cell_length_b 9.064236
_cell_length_c 30.338966
_cell_angle_alpha 90.000000
_cell_angle_beta 133.421904
_cell_angle_gamma 90.000000
_cell_volume 2870.093654
_symmetry_space_group_name_H-M "C 2/M"
_symmetry_group_IT_number 12
_symmetry_cell_setting 'monoclinic'
loop_
_space_group_symop_operation_xyz
x,y,z
-x,y,-z
-x,-y,-z
x,-y,z
1/2+x,1/2+y,z
1/2-x,1/2+y,-z
1/2-x,1/2-y,-z
1/2+x,1/2-y,z
loop_
_atom_site_type_symbol
_atom_site_label
_atom_site_fract_x
_atom_site_fract_y
_atom_site_fract_z
Si Si1 0.938385 0.174170 0.772165
Si Si2 0.075075 0.330245 0.448395
Si Si3 0.845360 0.329785 0.320035
Si Si4 0.374356 0.672005 0.090046
Si Si5 0.385572 0.673685 0.993491
Si Si6 0.722626 0.669314 0.421485
Si Si7 0.533163 0.825885 0.304670
O O1 0.794700 0.243851 0.726143
O O2 0.010798 0.253920 0.755530
O O3 0.008193 0.216478 0.840271
O O4 0.940521 0.000000 0.764500
O O5 0.106316 0.500000 0.443431
O O6 0.126399 0.307879 0.515491
O O7 0.144466 0.213128 0.439698
O O8 0.921203 0.305855 0.391550
O O9 0.820268 0.500000 0.302606
O O10 0.932603 0.268839 0.308547
O O11 0.343482 0.500000 0.082571
O O12 0.247596 0.755190 0.065252
O O13 0.414145 0.718154 0.053463
O O14 0.371939 0.500000 0.983123
O O15 0.500000 0.734949 0.000000
O O16 0.696190 0.500000 0.400247
O O17 0.675573 0.767709 0.364965
O O18 0.537199 0.000000 0.301456
#
# Coordination Sequence:
#
# PCOD8096836 Si02
#       7
#     8   8   8   8   8   8   8
#     4  10  20  35  53  73 101 136 171 206 248 299
#     4   8  14  26  45  69  95 126 167 212 259 311
#     4   8  16  32  52  71  95 130 169 208 252 306
#     4   9  19  34  52  78 109 136 165 206 251 292
#     4   9  18  34  57  82 107 137 172 205 239 288
#     4   9  15  25  45  70  95 126 165 212 264 312
#     4  10  20  34  51  72  99 132 172 215 258 306
#
# _framework density 19.511558000000001
#
# number of rings (size 3 to 8) (size 9 to 14) (size 15 to 20)
#    0.000    3.000    0.000    1.714    0.000    2.571 
#    0.000    7.143    0.000    4.286    0.000    0.000 
#    0.000    0.000    0.000    0.000    0.000    0.000 
#
# Total GULP energy -346952.035686 kJ/mol
# GULP energy per Si atom -12391.144132 kJ/mol
# Density = 1.946715 g / cm^3
# Si number density = 19.511558 Si / 1000 Ang^3
#
#
#
# Elastic Constant Matrix: (Units=GPa)
#
#
# Indices 1 2 3 4 5 6 
#
# 1 75.9484 19.6631 43.6353 0.0000 10.6114 0.0000
# 2 19.6631 42.4434 34.1804 0.0000 1.1227 0.0000
# 3 43.6353 34.1804 134.0981 0.0000 8.1450 0.0000
# 4 0.0000 0.0000 0.0000 29.5948 0.0000 -1.4543
# 5 10.6114 1.1227 8.1450 0.0000 26.0420 0.0000
# 6 0.0000 0.0000 0.0000 -1.4543 0.0000 19.7668
#
#
#
# Elastic Compliance Matrix: (Units=1/GPa)
#
#
# Indices 1 2 3 4 5 6 
#
# 1 0.017559 -0.004606 -0.004197 0.000000 -0.005644 0.000000
# 2 -0.004606 0.030886 -0.006531 0.000000 0.002588 0.000000
# 3 -0.004197 -0.006531 0.010567 0.000000 -0.001313 0.000000
# 4 0.000000 0.000000 0.000000 0.033912 0.000000 0.002495
# 5 -0.005644 0.002588 -0.001313 0.000000 0.040998 0.000000
# 6 0.000000 0.000000 0.000000 0.002495 0.000000 0.050774
#
#
# Mechanical properties :
#
#
# Convention : Reuss Voigt Hill
#
# Bulk Modulus (GPa) = 35.27968 49.71639 42.49803
# Shear Modulus (GPa) = 22.24084 25.41478 23.82781
#
# Velocity S-wave (km/s) = 3.37987 3.61300 3.49838
# Velocity P-wave (km/s) = 5.77513 6.55293 6.17628
#
# Compressibility (1/GPa) = 0.02834493
#
# Stress axis : x y z
#
# Youngs Moduli (GPa) = 56.95055 32.37762 94.63084
#
# Poissons Ratio (x) = 0.14912 0.39716
# Poissons Ratio (y) = 0.26229 0.61803
# Poissons Ratio (z) = 0.23902 0.21146
#
# Static dielectric constant tensor:
#      x y z
#    x 3.448160 0.000000 0.122370 
#    y 0.000000 3.333450 0.000000 
#    z 0.122370 0.000000 3.863270 
# 
# 
# High freq. dielectric constant tensor:
#      x y z
#    x 1.735980 0.000000 0.002400 
#    y 0.000000 1.737990 0.000000 
#    z 0.002400 0.000000 1.769920 
# 
# From -- ./inp_files/337837.got.cif
#   From: 2010.06.25/outbox.cif.g09.slc.cpg/sg12_169_cif.got.tgz:337837.got - 2010.06.28 00:19:55.
