data_PCOD8096401
_publ_section_title
;
Structure prediction by ZEFSAII (Michael W. Deem and Ramdas Pophale) SiO2 
 PCOD8096401
Probable space group: C 2/M
;
_chemical_formula_sum "Si O2"
_cell_formula_units_Z 56
_cell_length_a 19.551574
_cell_length_b 9.134386
_cell_length_c 20.474447
_cell_angle_alpha 90.000000
_cell_angle_beta 55.649081
_cell_angle_gamma 90.000000
_cell_volume 3018.849463
_symmetry_space_group_name_H-M "C 2/M"
_symmetry_group_IT_number 12
_symmetry_cell_setting 'monoclinic'
loop_
_space_group_symop_operation_xyz
x,y,z
-x,y,-z
-x,-y,-z
x,-y,z
1/2+x,1/2+y,z
1/2-x,1/2+y,-z
1/2-x,1/2-y,-z
1/2+x,1/2-y,z
loop_
_atom_site_type_symbol
_atom_site_label
_atom_site_fract_x
_atom_site_fract_y
_atom_site_fract_z
Si Si1 0.550462 0.328017 0.827546
Si Si2 0.832077 0.329533 0.475651
Si Si3 0.316409 0.328272 0.134399
Si Si4 0.089280 0.673778 0.434511
Si Si5 0.568233 0.835344 0.018991
Si Si6 0.364567 0.826519 0.730910
Si Si7 0.466171 0.828104 0.296065
O O1 0.534829 0.500000 0.830887
O O2 0.629715 0.292670 0.830122
O O3 0.567880 0.262038 0.747058
O O4 0.467179 0.253769 0.900487
O O5 0.815327 0.500000 0.479435
O O6 0.750000 0.250000 0.500000
O O7 0.849037 0.281618 0.540831
O O8 0.909467 0.286411 0.388378
O O9 0.319577 0.500000 0.117328
O O10 0.350470 0.244247 0.052604
O O11 0.223175 0.269183 0.194772
O O12 0.081180 0.500000 0.432594
O O13 0.121703 0.740490 0.348826
O O14 0.000000 0.740880 0.500000
O O15 0.590939 0.000000 0.029091
O O16 0.500000 0.837447 0.000000
O O17 0.439669 0.779609 0.737937
O O18 0.361299 0.000000 0.726712
O O19 0.461509 0.000000 0.282535
#
# Coordination Sequence:
#
# PCOD8096401 Si02
#       7
#     8   8   8   8   8   8   8
#     4  10  20  33  53  80 108 137 168 210 259 309
#     4  10  21  34  53  78 106 137 173 218 261 306
#     4   9  18  32  53  80 104 130 171 219 259 301
#     4   9  15  29  53  77  99 132 179 219 251 296
#     4   9  17  32  54  78 105 137 170 208 255 308
#     4   9  17  31  52  76 102 134 175 219 258 300
#     4  10  20  35  52  75 106 139 173 213 260 308
#
# _framework density 18.550114000000001
#
# number of rings (size 3 to 8) (size 9 to 14) (size 15 to 20)
#    0.000    2.571    1.429    0.857    2.000    2.857 
#    0.000    1.429    0.000    1.286    0.000    0.000 
#    0.000    0.000    0.000    0.000    0.000    0.000 
#
# Total GULP energy -347168.641390 kJ/mol
# GULP energy per Si atom -12398.880050 kJ/mol
# Density = 1.850789 g / cm^3
# Si number density = 18.550114 Si / 1000 Ang^3
#
#
#
# Elastic Constant Matrix: (Units=GPa)
#
#
# Indices 1 2 3 4 5 6 
#
# 1 84.5240 27.8010 28.5932 0.0000 -19.6774 0.0000
# 2 27.8010 54.7308 29.7409 0.0000 -2.5150 -0.0001
# 3 28.5932 29.7409 68.1028 0.0000 -16.4160 0.0000
# 4 0.0000 0.0000 0.0000 27.2364 0.0000 1.5689
# 5 -19.6774 -2.5150 -16.4160 0.0000 35.4413 0.0000
# 6 0.0000 -0.0001 0.0000 1.5689 0.0000 21.0934
#
#
#
# Elastic Compliance Matrix: (Units=1/GPa)
#
#
# Indices 1 2 3 4 5 6 
#
# 1 0.016634 -0.006970 -0.002063 0.000000 0.007785 0.000000
# 2 -0.006970 0.027279 -0.010640 0.000000 -0.006863 0.000000
# 3 -0.002063 -0.010640 0.022219 0.000000 0.008391 0.000000
# 4 0.000000 0.000000 0.000000 0.036874 0.000000 -0.002743
# 5 0.007785 -0.006863 0.008391 0.000000 0.035938 0.000000
# 6 0.000000 0.000000 0.000000 -0.002743 0.000000 0.047612
#
#
# Mechanical properties :
#
#
# Convention : Reuss Voigt Hill
#
# Bulk Modulus (GPa) = 37.33616 42.18085 39.75851
# Shear Modulus (GPa) = 21.29187 24.83573 23.06380
#
# Velocity S-wave (km/s) = 3.39160 3.66299 3.52990
# Velocity P-wave (km/s) = 5.95887 6.37795 6.17197
#
# Compressibility (1/GPa) = 0.02678369
#
# Stress axis : x y z
#
# Youngs Moduli (GPa) = 60.11787 36.65871 45.00585
#
# Poissons Ratio (x) = 0.25553 0.09286
# Poissons Ratio (y) = 0.41905 0.47888
# Poissons Ratio (z) = 0.12404 0.39006
#
# Static dielectric constant tensor:
#      x y z
#    x 3.319690 0.000000 -0.088980 
#    y 0.000000 3.131230 0.000000 
#    z -0.088980 0.000000 3.673070 
# 
# 
# High freq. dielectric constant tensor:
#      x y z
#    x 1.709870 0.000000 -0.003200 
#    y 0.000000 1.685960 0.000000 
#    z -0.003200 0.000000 1.730760 
# 
# From -- ./inp_files/313717.got.cif
#   From: 2010.06.25/outbox.cif.g09.slc.cpg/sg12_157_cif.got.tgz:313717.got - 2010.06.28 00:19:55.
