data_PCOD8096461
_publ_section_title
;
Structure prediction by ZEFSAII (Michael W. Deem and Ramdas Pophale) SiO2 
 PCOD8096461
Probable space group: C 2/M
;
_chemical_formula_sum "Si O2"
_cell_formula_units_Z 64
_cell_length_a 33.597298
_cell_length_b 8.863328
_cell_length_c 14.301515
_cell_angle_alpha 90.000000
_cell_angle_beta 46.733700
_cell_angle_gamma 90.000000
_cell_volume 3101.127254
_symmetry_space_group_name_H-M "C 2/M"
_symmetry_group_IT_number 12
_symmetry_cell_setting 'monoclinic'
loop_
_space_group_symop_operation_xyz
x,y,z
-x,y,-z
-x,-y,-z
x,-y,z
1/2+x,1/2+y,z
1/2-x,1/2+y,-z
1/2-x,1/2-y,-z
1/2+x,1/2-y,z
loop_
_atom_site_type_symbol
_atom_site_label
_atom_site_fract_x
_atom_site_fract_y
_atom_site_fract_z
Si Si1 0.916097 0.176088 0.757701
Si Si2 0.044056 0.822222 0.856734
Si Si3 0.365793 0.334387 0.152282
Si Si4 0.529847 0.677446 0.670684
Si Si5 0.255780 0.833640 0.587511
Si Si6 0.285380 0.677404 0.720567
Si Si7 0.393855 0.178760 0.604209
Si Si8 0.336651 0.175334 0.021942
O O1 0.924683 0.262635 0.646651
O O2 0.968340 0.213074 0.737472
O O3 0.910611 0.000000 0.745203
O O4 0.860440 0.232024 0.896581
O O5 0.102807 0.776584 0.805655
O O6 0.036875 0.756111 0.764319
O O7 0.036412 0.000000 0.860066
O O8 0.000000 0.754178 0.000000
O O9 0.389638 0.500000 0.083882
O O10 0.303432 0.353828 0.275545
O O11 0.372100 0.218842 0.056529
O O12 0.542761 0.500000 0.643402
O O13 0.573717 0.764263 0.537972
O O14 0.250000 0.750000 0.500000
O O15 0.290584 0.736729 0.605409
O O16 0.282403 0.000000 0.530885
O O17 0.295340 0.500000 0.702314
O O18 0.332156 0.757264 0.705537
O O19 0.227073 0.717219 0.861463
O O20 0.391727 0.000000 0.607772
O O21 0.344551 0.000000 0.989179
#
# Coordination Sequence:
#
# PCOD8096461 Si02
#       8
#     8   8   8   8   8   8   8   8
#     4  11  23  41  66  91 117 159 207 252 304 368
#     4   9  17  32  57  88 118 152 197 244 286 340
#     4   9  18  33  54  82 115 155 197 238 289 349
#     4  10  22  40  64  91 122 161 207 252 298 360
#     4  10  20  33  53  83 117 156 200 243 293 354
#     4  10  22  41  62  86 120 161 205 253 307 366
#     4  12  26  42  62  90 123 159 200 255 314 370
#     4  10  21  38  62  91 122 158 199 254 311 359
#
# _framework density 20.637657999999998
#
# number of rings (size 3 to 8) (size 9 to 14) (size 15 to 20)
#    0.000    1.875    0.000    3.750    1.750    7.000 
#    0.000    0.625    0.000    1.500    0.000    0.000 
#    0.000    0.000    0.000    0.000    0.000    0.000 
#
# Total GULP energy -396807.335830 kJ/mol
# GULP energy per Si atom -12400.229245 kJ/mol
# Density = 2.059069 g / cm^3
# Si number density = 20.637658 Si / 1000 Ang^3
#
#
#
# Elastic Constant Matrix: (Units=GPa)
#
#
# Indices 1 2 3 4 5 6 
#
# 1 113.4292 46.4752 43.1562 0.0000 10.2420 0.0000
# 2 46.4752 105.9772 47.9309 0.0000 -0.9485 0.0000
# 3 43.1562 47.9309 99.3895 0.0000 17.3529 0.0000
# 4 0.0000 0.0000 0.0000 30.5601 0.0000 4.4998
# 5 10.2420 -0.9485 17.3529 0.0000 32.6913 0.0000
# 6 0.0000 0.0000 0.0000 4.4998 0.0000 27.3162
#
#
#
# Elastic Compliance Matrix: (Units=1/GPa)
#
#
# Indices 1 2 3 4 5 6 
#
# 1 0.011676 -0.003873 -0.002804 0.000000 -0.002282 0.000000
# 2 -0.003873 0.013794 -0.005789 0.000000 0.004686 0.000000
# 3 -0.002804 -0.005789 0.015371 0.000000 -0.007449 0.000000
# 4 0.000000 0.000000 0.000000 0.033536 0.000000 -0.005524
# 5 -0.002282 0.004686 -0.007449 0.000000 0.035394 0.000000
# 6 0.000000 0.000000 0.000000 -0.005524 0.000000 0.037518
#
#
# Mechanical properties :
#
#
# Convention : Reuss Voigt Hill
#
# Bulk Modulus (GPa) = 62.85193 65.99118 64.42155
# Shear Modulus (GPa) = 28.16526 30.19577 29.18052
#
# Velocity S-wave (km/s) = 3.69826 3.82925 3.76433
# Velocity P-wave (km/s) = 6.98264 7.18306 7.08356
#
# Compressibility (1/GPa) = 0.01591041
#
# Stress axis : x y z
#
# Youngs Moduli (GPa) = 85.64912 72.49267 65.05685
#
# Poissons Ratio (x) = 0.28073 0.18240
# Poissons Ratio (y) = 0.33168 0.37662
# Poissons Ratio (z) = 0.24013 0.41967
#
# Static dielectric constant tensor:
#      x y z
#    x 3.688240 0.000000 -0.485380 
#    y 0.000000 3.704630 0.000000 
#    z -0.485380 0.000000 2.441580 
# 
# 
# High freq. dielectric constant tensor:
#      x y z
#    x 1.816260 0.000000 0.003170 
#    y 0.000000 1.794740 0.000000 
#    z 0.003170 0.000000 1.805840 
# 
# From -- ./inp_files/249766.got.cif
#   From: 2010.06.25/outbox.cif.g09.slc.cpg/sg12_125_cif.got.tgz:249766.got - 2010.06.28 00:19:55.
