data_PCOD8096784
_publ_section_title
;
Structure prediction by ZEFSAII (Michael W. Deem and Ramdas Pophale) SiO2 
 PCOD8096784
Probable space group: C 2/M
;
_chemical_formula_sum "Si O2"
_cell_formula_units_Z 48
_cell_length_a 31.809484
_cell_length_b 9.774886
_cell_length_c 16.120694
_cell_angle_alpha 90.000000
_cell_angle_beta 33.172398
_cell_angle_gamma 90.000000
_cell_volume 2742.625074
_symmetry_space_group_name_H-M "C 2/M"
_symmetry_group_IT_number 12
_symmetry_cell_setting 'monoclinic'
loop_
_space_group_symop_operation_xyz
x,y,z
-x,y,-z
-x,-y,-z
x,-y,z
1/2+x,1/2+y,z
1/2-x,1/2+y,-z
1/2-x,1/2-y,-z
1/2+x,1/2-y,z
loop_
_atom_site_type_symbol
_atom_site_label
_atom_site_fract_x
_atom_site_fract_y
_atom_site_fract_z
Si Si1 0.306439 0.658345 0.959696
Si Si2 0.262239 0.338435 0.214290
Si Si3 0.519183 0.342445 0.374758
Si Si4 0.095280 0.661088 0.536925
Si Si5 0.356095 0.150543 0.363571
Si Si6 0.681129 0.347749 0.709238
O O1 0.281769 0.500000 0.991792
O O2 0.391378 0.683482 0.787034
O O3 0.250000 0.750000 0.000000
O O4 0.300858 0.706198 0.064548
O O5 0.258722 0.500000 0.232611
O O6 0.174398 0.285425 0.364073
O O7 0.314143 0.283315 0.205397
O O8 0.500000 0.299834 0.500000
O O9 0.496813 0.500000 0.394534
O O10 0.474061 0.245803 0.386814
O O11 0.082558 0.500000 0.541584
O O12 0.096580 0.694159 0.632887
O O13 0.372463 0.254384 0.260914
O O14 0.266736 0.146682 0.532738
O O15 0.382511 0.000000 0.290888
O O16 0.645063 0.500000 0.769175
#
# Coordination Sequence:
#
# PCOD8096784 Si02
#       6
#     8   8   8   8   8   8
#     4  10  20  34  51  69  92 121 152 189 230 272
#     4   8  15  29  48  69  92 120 156 193 225 262
#     4  10  21  34  47  68  97 122 147 187 235 275
#     4   9  17  30  49  70  92 121 156 190 223 267
#     4   8  14  24  39  64  94 117 143 184 227 262
#     4   8  13  23  41  64  89 117 149 184 222 264
#
# _framework density 17.501480000000001
#
# number of rings (size 3 to 8) (size 9 to 14) (size 15 to 20)
#    0.000    3.167    0.000    3.000    0.000    1.667 
#    0.000    3.333    0.000    1.000    0.000    7.000 
#    0.000    0.000    0.000    0.000    0.000    0.000 
#
# Total GULP energy -297490.298969 kJ/mol
# GULP energy per Si atom -12395.429124 kJ/mol
# Density = 1.746165 g / cm^3
# Si number density = 17.501480 Si / 1000 Ang^3
#
#
#
# Elastic Constant Matrix: (Units=GPa)
#
#
# Indices 1 2 3 4 5 6 
#
# 1 149.4335 80.3283 54.4436 0.0000 16.8983 0.0000
# 2 80.3283 78.7027 34.6543 0.0001 5.6712 0.0000
# 3 54.4436 34.6543 72.0626 0.0000 15.1115 0.0000
# 4 0.0000 0.0001 0.0000 13.5437 0.0000 -0.6530
# 5 16.8983 5.6712 15.1115 0.0000 23.4748 0.0000
# 6 0.0000 0.0000 0.0000 -0.6530 0.0000 37.4733
#
#
#
# Elastic Compliance Matrix: (Units=1/GPa)
#
#
# Indices 1 2 3 4 5 6 
#
# 1 0.017033 -0.015015 -0.004436 0.000000 -0.005778 0.000000
# 2 -0.015015 0.029388 -0.004123 0.000000 0.006363 0.000000
# 3 -0.004436 -0.004123 0.021193 0.000000 -0.009454 0.000000
# 4 0.000000 0.000000 0.000000 0.073897 0.000000 0.001288
# 5 -0.005778 0.006363 -0.009454 0.000000 0.051307 0.000000
# 6 0.000000 0.000000 0.000000 0.001288 0.000000 0.026708
#
#
# Mechanical properties :
#
#
# Convention : Reuss Voigt Hill
#
# Bulk Modulus (GPa) = 48.86081 71.00568 59.93324
# Shear Modulus (GPa) = 18.28174 23.61653 20.94914
#
# Velocity S-wave (km/s) = 3.23551 3.67741 3.46351
# Velocity P-wave (km/s) = 6.47586 7.66097 7.09321
#
# Compressibility (1/GPa) = 0.02046630
#
# Stress axis : x y z
#
# Youngs Moduli (GPa) = 58.70951 34.02732 47.18444
#
# Poissons Ratio (x) = 0.51092 0.20932
# Poissons Ratio (y) = 0.88153 0.19453
# Poissons Ratio (z) = 0.26045 0.14029
#
# Static dielectric constant tensor:
#      x y z
#    x 3.437640 0.000000 0.319380 
#    y 0.000000 3.265140 0.000000 
#    z 0.319380 0.000000 3.069170 
# 
# 
# High freq. dielectric constant tensor:
#      x y z
#    x 1.683990 0.000000 0.018040 
#    y 0.000000 1.659760 0.000000 
#    z 0.018040 0.000000 1.645580 
# 
# From -- ./inp_files/244751.got.cif
#   From: 2010.06.25/outbox.cif.g09.slc.cpg/sg12_123_cif.got.tgz:244751.got - 2010.06.28 00:19:55.
