data_PCOD8096522
_publ_section_title
;
Structure prediction by ZEFSAII (Michael W. Deem and Ramdas Pophale) SiO2 
 PCOD8096522
Probable space group: C 2/M
;
_chemical_formula_sum "Si O2"
_cell_formula_units_Z 56
_cell_length_a 28.025469
_cell_length_b 9.216614
_cell_length_c 19.580110
_cell_angle_alpha 90.000000
_cell_angle_beta 37.539254
_cell_angle_gamma 90.000000
_cell_volume 3081.584142
_symmetry_space_group_name_H-M "C 2/M"
_symmetry_group_IT_number 12
_symmetry_cell_setting 'monoclinic'
loop_
_space_group_symop_operation_xyz
x,y,z
-x,y,-z
-x,-y,-z
x,-y,z
1/2+x,1/2+y,z
1/2-x,1/2+y,-z
1/2-x,1/2-y,-z
1/2+x,1/2-y,z
loop_
_atom_site_type_symbol
_atom_site_label
_atom_site_fract_x
_atom_site_fract_y
_atom_site_fract_z
Si Si1 0.553039 0.333495 0.075767
Si Si2 0.601598 0.830494 0.744419
Si Si3 0.751161 0.668538 0.331844
Si Si4 0.699941 0.828685 0.114367
Si Si5 0.442947 0.335492 0.769852
Si Si6 0.719974 0.669601 0.835798
Si Si7 0.119146 0.169533 0.585542
O O1 0.529461 0.500000 0.088692
O O2 0.480585 0.233621 0.135874
O O3 0.574171 0.312200 0.130893
O O4 0.628766 0.286358 0.946636
O O5 0.664621 0.798313 0.731308
O O6 0.631039 0.756240 0.641828
O O7 0.591652 0.000000 0.741415
O O8 0.739113 0.500000 0.331219
O O9 0.741974 0.749542 0.270984
O O10 0.683336 0.725376 0.459230
O O11 0.610208 0.774989 0.212771
O O12 0.732939 0.783855 0.150429
O O13 0.704779 0.000000 0.096695
O O14 0.750000 0.750000 0.000000
O O15 0.421956 0.500000 0.772595
O O16 0.533512 0.300619 0.651022
O O17 0.727852 0.500000 0.814029
O O18 0.129498 0.000000 0.591336
#
# Coordination Sequence:
#
# PCOD8096522 Si02
#       7
#     8   8   8   8   8   8   8
#     4   9  18  35  54  76 109 144 179 216 264 323
#     4  10  20  33  54  84 110 134 179 230 268 309
#     4  10  22  38  54  77 109 145 181 222 267 313
#     4  11  21  35  56  82 109 137 174 218 266 318
#     4   9  17  33  56  81 106 135 176 223 263 310
#     4  10  22  38  54  76 108 144 181 218 260 323
#     4   9  19  37  58  78 107 144 181 218 262 319
#
# _framework density 18.172471000000002
#
# number of rings (size 3 to 8) (size 9 to 14) (size 15 to 20)
#    0.000    2.286    1.429    2.143    0.000    6.286 
#    0.000    3.571    0.000    4.286    0.000    0.000 
#    0.000    0.000    0.000    0.000    0.000    0.000 
#
# Total GULP energy -347271.789337 kJ/mol
# GULP energy per Si atom -12402.563905 kJ/mol
# Density = 1.813111 g / cm^3
# Si number density = 18.172471 Si / 1000 Ang^3
#
#
#
# Elastic Constant Matrix: (Units=GPa)
#
#
# Indices 1 2 3 4 5 6 
#
# 1 81.6831 46.8944 23.1736 -0.0060 1.9725 0.0047
# 2 46.8944 67.8190 25.5856 0.0082 2.3701 -0.0035
# 3 23.1736 25.5856 55.5024 -0.0028 4.2666 0.0013
# 4 -0.0060 0.0082 -0.0028 32.1668 0.0030 0.0397
# 5 1.9725 2.3701 4.2666 0.0030 21.6604 -0.0036
# 6 0.0047 -0.0035 0.0013 0.0397 -0.0036 32.6873
#
#
#
# Elastic Compliance Matrix: (Units=1/GPa)
#
#
# Indices 1 2 3 4 5 6 
#
# 1 0.020575 -0.013300 -0.002465 0.000007 0.000067 -0.000004
# 2 -0.013300 0.026448 -0.006610 -0.000010 -0.000381 0.000005
# 3 -0.002465 -0.006610 0.022359 0.000003 -0.003456 -0.000002
# 4 0.000007 -0.000010 0.000003 0.031088 -0.000005 -0.000038
# 5 0.000067 -0.000381 -0.003456 -0.000005 0.046884 0.000005
# 6 -0.000004 0.000005 -0.000002 -0.000038 0.000005 0.030593
#
#
# Mechanical properties :
#
#
# Convention : Reuss Voigt Hill
#
# Bulk Modulus (GPa) = 40.59468 44.03461 42.31464
# Shear Modulus (GPa) = 21.65365 24.59296 23.12330
#
# Velocity S-wave (km/s) = 3.45565 3.68273 3.57099
# Velocity P-wave (km/s) = 6.18943 6.50902 6.35124
#
# Compressibility (1/GPa) = 0.02463377
#
# Stress axis : x y z
#
# Youngs Moduli (GPa) = 48.60170 37.80968 44.72425
#
# Poissons Ratio (x) = 0.50285 0.11025
# Poissons Ratio (y) = 0.64638 0.29563
# Poissons Ratio (z) = 0.11981 0.24992
#
# Static dielectric constant tensor:
#      x y z
#    x 3.321140 -0.000010 -0.199540 
#    y -0.000010 3.315060 0.000020 
#    z -0.199540 0.000020 3.386710 
# 
# 
# High freq. dielectric constant tensor:
#      x y z
#    x 1.699240 0.000000 -0.014120 
#    y 0.000000 1.702320 0.000000 
#    z -0.014120 0.000000 1.701870 
# 
# From -- ./inp_files/288408.got.cif
#   From: 2010.06.25/outbox.cif.g09.slc.cpg/sg12_145_cif.got.tgz:288408.got - 2010.06.28 00:19:55.
