data_PCOD8096111
_publ_section_title
;
Structure prediction by ZEFSAII (Michael W. Deem and Ramdas Pophale) SiO2 
 PCOD8096111
Probable space group: C 2/M
;
_chemical_formula_sum "Si O2"
_cell_formula_units_Z 56
_cell_length_a 30.169358
_cell_length_b 9.064325
_cell_length_c 19.514516
_cell_angle_alpha 90.000000
_cell_angle_beta 143.761513
_cell_angle_gamma 90.000000
_cell_volume 3154.679508
_symmetry_space_group_name_H-M "C 2/M"
_symmetry_group_IT_number 12
_symmetry_cell_setting 'monoclinic'
loop_
_space_group_symop_operation_xyz
x,y,z
-x,y,-z
-x,-y,-z
x,-y,z
1/2+x,1/2+y,z
1/2-x,1/2+y,-z
1/2-x,1/2-y,-z
1/2+x,1/2-y,z
loop_
_atom_site_type_symbol
_atom_site_label
_atom_site_fract_x
_atom_site_fract_y
_atom_site_fract_z
Si Si1 0.815126 0.329543 0.621905
Si Si2 0.557069 0.172974 0.011278
Si Si3 0.857092 0.328161 0.403812
Si Si4 0.579069 0.662348 0.635924
Si Si5 0.511874 0.674176 0.352659
Si Si6 0.978669 0.668344 0.772949
Si Si7 0.689761 0.672922 0.241331
O O1 0.794060 0.500000 0.606616
O O2 0.750000 0.250000 0.500000
O O3 0.889885 0.312976 0.670734
O O4 0.828388 0.255729 0.711280
O O5 0.520885 0.218533 0.894121
O O6 0.575523 0.000000 0.038198
O O7 0.500000 0.218354 0.000000
O O8 0.633259 0.265701 0.113548
O O9 0.875115 0.500000 0.429466
O O10 0.867255 0.274200 0.337860
O O11 0.912149 0.247937 0.525150
O O12 0.773307 0.290857 0.321588
O O13 0.500000 0.652268 0.500000
O O14 0.616971 0.500000 0.683875
O O15 0.560135 0.716322 0.689626
O O16 0.525148 0.500000 0.369850
O O17 0.493018 0.729165 0.253236
O O18 0.998457 0.500000 0.779769
O O19 0.677468 0.500000 0.236837
#
# Coordination Sequence:
#
# PCOD8096111 Si02
#       7
#     8   8   8   8   8   8   8
#     4  11  22  36  52  75 107 140 173 213 259 312
#     4  10  20  39  59  75  98 136 181 222 264 309
#     4  10  20  33  51  78 110 140 173 212 258 312
#     4   8  16  31  50  75 106 137 171 211 256 310
#     4  10  20  33  52  80 110 138 172 213 260 312
#     4  10  21  36  54  75 103 136 174 217 259 308
#     4  11  23  36  52  78 107 137 175 219 262 308
#
# _framework density 17.751408000000001
#
# number of rings (size 3 to 8) (size 9 to 14) (size 15 to 20)
#    0.000    2.000    1.429    3.429    0.000   10.857 
#    0.000    0.000    0.000    0.857    0.000    0.000 
#    0.000    0.000    0.000    0.000    0.000    0.000 
#
# Total GULP energy -347232.839232 kJ/mol
# GULP energy per Si atom -12401.172830 kJ/mol
# Density = 1.771100 g / cm^3
# Si number density = 17.751408 Si / 1000 Ang^3
#
#
#
# Elastic Constant Matrix: (Units=GPa)
#
#
# Indices 1 2 3 4 5 6 
#
# 1 90.8371 44.1155 27.4968 0.0000 -28.9750 0.0000
# 2 44.1155 79.9397 34.5353 0.0000 -10.1684 0.0000
# 3 27.4968 34.5353 83.8409 0.0000 -18.3192 0.0000
# 4 0.0000 0.0000 0.0000 31.5342 0.0000 -2.9464
# 5 -28.9750 -10.1684 -18.3192 0.0000 23.3307 0.0000
# 6 0.0000 0.0000 0.0000 -2.9464 0.0000 32.5592
#
#
#
# Elastic Compliance Matrix: (Units=1/GPa)
#
#
# Indices 1 2 3 4 5 6 
#
# 1 0.024357 -0.011058 0.002563 0.000000 0.027442 0.000000
# 2 -0.011058 0.020321 -0.007012 0.000000 -0.010383 0.000000
# 3 0.002563 -0.007012 0.016903 0.000000 0.013399 0.000000
# 4 0.000000 0.000000 0.000000 0.031982 0.000000 0.002894
# 5 0.027442 -0.010383 0.013399 0.000000 0.082939 0.000000
# 6 0.000000 0.000000 0.000000 0.002894 0.000000 0.030975
#
#
# Mechanical properties :
#
#
# Convention : Reuss Voigt Hill
#
# Bulk Modulus (GPa) = 32.71677 51.87922 42.29800
# Shear Modulus (GPa) = 20.10614 27.38283 23.74449
#
# Velocity S-wave (km/s) = 3.36914 3.93182 3.66130
# Velocity P-wave (km/s) = 5.79701 7.06407 6.46167
#
# Compressibility (1/GPa) = 0.03056536
#
# Stress axis : x y z
#
# Youngs Moduli (GPa) = 41.05620 49.21084 59.16126
#
# Poissons Ratio (x) = 0.54418 -0.15163
# Poissons Ratio (y) = 0.45401 0.41486
# Poissons Ratio (z) = -0.10523 0.34509
#
# Static dielectric constant tensor:
#      x y z
#    x 3.309770 0.000000 0.604630 
#    y 0.000000 3.362070 0.000000 
#    z 0.604630 0.000000 0.945700 
# 
# 
# High freq. dielectric constant tensor:
#      x y z
#    x 1.689330 0.000000 -0.011560 
#    y 0.000000 1.694880 0.000000 
#    z -0.011560 0.000000 1.665660 
# 
# From -- ./inp_files/288436.got.cif
#   From: 2010.06.25/outbox.cif.g09.slc.cpg/sg12_145_cif.got.tgz:288436.got - 2010.06.28 00:19:55.
