data_PCOD8096538
_publ_section_title
;
Structure prediction by ZEFSAII (Michael W. Deem and Ramdas Pophale) SiO2 
 PCOD8096538
Probable space group: C 2/M
;
_chemical_formula_sum "Si O2"
_cell_formula_units_Z 64
_cell_length_a 26.951372
_cell_length_b 13.646413
_cell_length_c 21.587495
_cell_angle_alpha 90.000000
_cell_angle_beta 24.811571
_cell_angle_gamma 90.000000
_cell_volume 3331.760372
_symmetry_space_group_name_H-M "C 2/M"
_symmetry_group_IT_number 12
_symmetry_cell_setting 'monoclinic'
loop_
_space_group_symop_operation_xyz
x,y,z
-x,y,-z
-x,-y,-z
x,-y,z
1/2+x,1/2+y,z
1/2-x,1/2+y,-z
1/2-x,1/2-y,-z
1/2+x,1/2-y,z
loop_
_atom_site_type_symbol
_atom_site_label
_atom_site_fract_x
_atom_site_fract_y
_atom_site_fract_z
Si Si1 0.308386 0.611904 0.857258
Si Si2 0.066317 0.609955 0.090593
Si Si3 0.371521 0.613527 0.646839
Si Si4 0.899429 0.886881 0.284797
Si Si5 0.463135 0.758971 0.112520
Si Si6 0.737618 0.613466 0.353120
Si Si7 0.031420 0.805368 0.665555
Si Si8 0.876731 0.391302 0.405709
O O1 0.341071 0.500000 0.837335
O O2 0.313755 0.632153 0.778006
O O3 0.396957 0.681236 0.794426
O O4 0.169058 0.636533 0.025552
O O5 0.092775 0.500000 0.035892
O O6 0.066592 0.681546 0.030890
O O7 0.940304 0.615078 0.267250
O O8 0.500000 0.665188 0.500000
O O9 0.388796 0.500000 0.610938
O O10 0.291072 0.655713 0.682796
O O11 0.941890 0.844703 0.170527
O O12 0.965850 0.828966 0.264400
O O13 0.760233 0.871469 0.451891
O O14 0.936052 0.000000 0.245356
O O15 0.345488 0.822715 0.254928
O O16 0.500000 0.740361 0.000000
O O17 0.776528 0.500000 0.309607
O O18 0.621055 0.623693 0.527890
O O19 0.069736 0.692294 0.610107
O O20 0.895427 0.500000 0.414168
#
# Coordination Sequence:
#
# PCOD8096538 Si02
#       8
#     8   8   8   8   8   8   8   8
#     4  10  20  33  54  85 122 157 185 224 278 342
#     4  10  21  38  57  84 121 153 182 228 292 350
#     4   9  16  29  46  76 119 149 177 218 268 327
#     4  11  23  40  60  84 113 145 191 248 286 329
#     4  12  24  39  58  82 114 154 196 230 287 346
#     4  11  21  33  58  92 118 147 187 234 284 342
#     4  12  20  36  61  88 114 148 194 235 281 338
#     4  10  21  39  61  83 113 149 185 234 295 344
#
# _framework density 19.209064000000001
#
# number of rings (size 3 to 8) (size 9 to 14) (size 15 to 20)
#    0.000    1.375    3.750    3.375    0.000    3.750 
#    0.000    0.000    0.000    0.000    0.000    2.625 
#    0.000    0.000    0.000    0.000    0.000    0.000 
#
# Total GULP energy -396740.422157 kJ/mol
# GULP energy per Si atom -12398.138192 kJ/mol
# Density = 1.916534 g / cm^3
# Si number density = 19.209064 Si / 1000 Ang^3
#
#
#
# Elastic Constant Matrix: (Units=GPa)
#
#
# Indices 1 2 3 4 5 6 
#
# 1 108.6591 51.2776 34.2397 -0.0001 -9.9190 0.0001
# 2 51.2776 99.6996 20.4172 -0.0001 -7.1205 0.0001
# 3 34.2397 20.4172 71.4695 -0.0001 -0.1730 0.0001
# 4 -0.0001 -0.0001 -0.0001 20.7994 0.0001 1.3805
# 5 -9.9190 -7.1205 -0.1730 0.0001 30.7231 -0.0001
# 6 0.0001 0.0001 0.0001 1.3805 -0.0001 24.4988
#
#
#
# Elastic Compliance Matrix: (Units=1/GPa)
#
#
# Indices 1 2 3 4 5 6 
#
# 1 0.013808 -0.005873 -0.004930 0.000000 0.003069 0.000000
# 2 -0.005873 0.013339 -0.000994 0.000000 0.001190 0.000000
# 3 -0.004930 -0.000994 0.016634 0.000000 -0.001728 0.000000
# 4 0.000000 0.000000 0.000000 0.048259 0.000000 -0.002719
# 5 0.003069 0.001190 -0.001728 0.000000 0.033806 0.000000
# 6 0.000000 0.000000 0.000000 -0.002719 0.000000 0.040972
#
#
# Mechanical properties :
#
#
# Convention : Reuss Voigt Hill
#
# Bulk Modulus (GPa) = 49.53753 54.63301 52.08527
# Shear Modulus (GPa) = 25.36252 26.79717 26.07984
#
# Velocity S-wave (km/s) = 3.63759 3.73906 3.68867
# Velocity P-wave (km/s) = 6.59450 6.86613 6.73168
#
# Compressibility (1/GPa) = 0.02018672
#
# Stress axis : x y z
#
# Youngs Moduli (GPa) = 72.41975 74.96604 60.11878
#
# Poissons Ratio (x) = 0.44028 0.29639
# Poissons Ratio (y) = 0.42533 0.05977
# Poissons Ratio (z) = 0.35704 0.07453
#
# Static dielectric constant tensor:
#      x y z
#    x 3.549610 0.000000 -0.204880 
#    y 0.000000 3.465310 0.000000 
#    z -0.204880 0.000000 3.489720 
# 
# 
# High freq. dielectric constant tensor:
#      x y z
#    x 1.743000 0.000000 -0.015080 
#    y 0.000000 1.724720 0.000000 
#    z -0.015080 0.000000 1.745730 
# 
# From -- ./inp_files/290075.got.cif
#   From: 2010.06.25/outbox.cif.g09.slc.cpg/sg12_146_cif.got.tgz:290075.got - 2010.06.28 00:19:55.
