data_PCOD8096225
_publ_section_title
;
Structure prediction by ZEFSAII (Michael W. Deem and Ramdas Pophale) SiO2 
 PCOD8096225
Probable space group: C 2/M
;
_chemical_formula_sum "Si O2"
_cell_formula_units_Z 64
_cell_length_a 18.676164
_cell_length_b 9.685525
_cell_length_c 20.372760
_cell_angle_alpha 90.000000
_cell_angle_beta 100.816900
_cell_angle_gamma 90.000000
_cell_volume 3619.718236
_symmetry_space_group_name_H-M "C 2/M"
_symmetry_group_IT_number 12
_symmetry_cell_setting 'monoclinic'
loop_
_space_group_symop_operation_xyz
x,y,z
-x,y,-z
-x,-y,-z
x,-y,z
1/2+x,1/2+y,z
1/2-x,1/2+y,-z
1/2-x,1/2-y,-z
1/2+x,1/2-y,z
loop_
_atom_site_type_symbol
_atom_site_label
_atom_site_fract_x
_atom_site_fract_y
_atom_site_fract_z
Si Si1 0.007557 0.161661 0.075927
Si Si2 0.083930 0.841088 0.511713
Si Si3 0.357157 0.345193 0.817834
Si Si4 0.155222 0.657741 0.414861
Si Si5 0.436294 0.839647 0.171158
Si Si6 0.921996 0.654553 0.727982
Si Si7 0.700560 0.658659 0.638908
Si Si8 0.302145 0.158068 0.231999
O O1 0.090005 0.198357 0.113198
O O2 0.950542 0.247722 0.109486
O O3 0.989367 0.000000 0.080020
O O4 0.000000 0.210895 0.000000
O O5 0.133851 0.754838 0.470890
O O6 0.122920 0.824771 0.588894
O O7 0.000000 0.787208 0.500000
O O8 0.084530 0.000000 0.488467
O O9 0.377134 0.500000 0.799789
O O10 0.366282 0.252532 0.755547
O O11 0.272738 0.331365 0.822514
O O12 0.161100 0.500000 0.440909
O O13 0.089462 0.673592 0.351313
O O14 0.232356 0.704693 0.396571
O O15 0.495740 0.809915 0.237889
O O16 0.361443 0.789150 0.190375
O O17 0.434800 0.000000 0.149848
O O18 0.901561 0.500000 0.746182
O O19 0.713315 0.500000 0.662303
O O20 0.698044 0.751338 0.702892
O O21 0.318131 0.000000 0.255994
#
# Coordination Sequence:
#
# PCOD8096225 Si02
#       8
#     8   8   8   8   8   8   8   8
#     4   9  18  34  55  77 103 137 174 206 240 291
#     4  10  23  39  52  72 102 133 168 212 259 307
#     4   9  17  31  51  76 102 130 166 204 244 291
#     4  10  20  34  54  76  98 130 171 211 254 304
#     4   9  19  33  50  75 107 136 165 205 251 297
#     4   9  17  31  50  73 100 129 164 206 248 295
#     4  10  21  37  54  73 100 134 171 210 254 305
#     4  10  20  33  52  78 105 132 166 210 256 300
#
# _framework density 17.680934000000001
#
# number of rings (size 3 to 8) (size 9 to 14) (size 15 to 20)
#    0.000    2.500    1.250    0.375    1.750    2.500 
#    0.000    0.625    0.000    0.000    0.000    0.000 
#    0.000    0.000    0.000    0.000    0.000    0.000 
#
# Total GULP energy -396728.711821 kJ/mol
# GULP energy per Si atom -12397.772244 kJ/mol
# Density = 1.764069 g / cm^3
# Si number density = 17.680934 Si / 1000 Ang^3
#
#
#
# Elastic Constant Matrix: (Units=GPa)
#
#
# Indices 1 2 3 4 5 6 
#
# 1 118.5441 45.3645 53.8750 0.0000 -13.4567 0.0000
# 2 45.3645 62.7498 48.6890 0.0000 -9.6254 0.0000
# 3 53.8750 48.6890 96.1904 0.0000 -6.1379 0.0000
# 4 0.0000 0.0000 0.0000 29.6178 0.0000 -4.5716
# 5 -13.4567 -9.6254 -6.1379 0.0000 22.1781 0.0000
# 6 0.0000 0.0000 0.0000 -4.5716 0.0000 24.1036
#
#
#
# Elastic Compliance Matrix: (Units=1/GPa)
#
#
# Indices 1 2 3 4 5 6 
#
# 1 0.012910 -0.005391 -0.004226 0.000000 0.004324 0.000000
# 2 -0.005391 0.029910 -0.011708 0.000000 0.006470 0.000000
# 3 -0.004226 -0.011708 0.018529 0.000000 -0.002518 0.000000
# 4 0.000000 0.000000 0.000000 0.034782 0.000000 0.006597
# 5 0.004324 0.006470 -0.002518 0.000000 0.049824 0.000000
# 6 0.000000 0.000000 0.000000 0.006597 0.000000 0.042739
#
#
# Mechanical properties :
#
#
# Convention : Reuss Voigt Hill
#
# Bulk Modulus (GPa) = 53.47678 63.70457 58.59068
# Shear Modulus (GPa) = 21.04588 23.81696 22.43142
#
# Velocity S-wave (km/s) = 3.45384 3.67419 3.56572
# Velocity P-wave (km/s) = 6.79827 7.35580 7.08252
#
# Compressibility (1/GPa) = 0.01869970
#
# Stress axis : x y z
#
# Youngs Moduli (GPa) = 77.45818 33.43343 53.97088
#
# Poissons Ratio (x) = 0.18023 0.22809
# Poissons Ratio (y) = 0.41756 0.63187
# Poissons Ratio (z) = 0.32736 0.39142
#
# Static dielectric constant tensor:
#      x y z
#    x 3.470170 0.000000 0.190820 
#    y 0.000000 3.301290 0.000000 
#    z 0.190820 0.000000 3.108520 
# 
# 
# High freq. dielectric constant tensor:
#      x y z
#    x 1.690810 0.000000 0.014510 
#    y 0.000000 1.683930 0.000000 
#    z 0.014510 0.000000 1.663760 
# 
# From -- ./inp_files/314125.got.cif
#   From: 2010.06.25/outbox.cif.g09.slc.cpg/sg12_158_cif.got.tgz:314125.got - 2010.06.28 00:19:55.
