data_PCOD8096906
_publ_section_title
;
Structure prediction by ZEFSAII (Michael W. Deem and Ramdas Pophale) SiO2 
 PCOD8096906
Probable space group: C 2/M
;
_chemical_formula_sum "Si O2"
_cell_formula_units_Z 48
_cell_length_a 23.841525
_cell_length_b 8.998084
_cell_length_c 12.190434
_cell_angle_alpha 90.000000
_cell_angle_beta 78.488184
_cell_angle_gamma 90.000000
_cell_volume 2562.581679
_symmetry_space_group_name_H-M "C 2/M"
_symmetry_group_IT_number 12
_symmetry_cell_setting 'monoclinic'
loop_
_space_group_symop_operation_xyz
x,y,z
-x,y,-z
-x,-y,-z
x,-y,z
1/2+x,1/2+y,z
1/2-x,1/2+y,-z
1/2-x,1/2-y,-z
1/2+x,1/2-y,z
loop_
_atom_site_type_symbol
_atom_site_label
_atom_site_fract_x
_atom_site_fract_y
_atom_site_fract_z
Si Si1 0.840881 0.826431 0.475474
Si Si2 0.411262 0.675260 0.032189
Si Si3 0.963091 0.325186 0.408949
Si Si4 0.283624 0.675524 0.084384
Si Si5 0.255089 0.827472 0.660439
Si Si6 0.998525 0.175565 0.179004
O O1 0.900953 0.746688 0.439054
O O2 0.802920 0.790769 0.383114
O O3 0.808252 0.767695 0.595833
O O4 0.852220 0.000000 0.484875
O O5 0.409010 0.500000 0.045495
O O6 0.347747 0.742566 0.057986
O O7 0.446214 0.733943 0.123870
O O8 0.442539 0.716735 0.906218
O O9 0.955409 0.500000 0.400999
O O10 0.000000 0.280720 0.500000
O O11 0.998222 0.263627 0.292159
O O12 0.284599 0.500000 0.066188
O O13 0.254000 0.718011 0.210309
O O14 0.250000 0.750000 0.000000
O O15 0.270728 0.000000 0.640977
O O16 0.993879 0.000000 0.203601
#
# Coordination Sequence:
#
# PCOD8096906 Si02
#       6
#     8   8   8   8   8   8
#     4  10  20  36  60  83 102 134 182 225 261 313
#     4   8  16  33  57  81 104 131 168 219 268 305
#     4  11  24  38  51  74 112 148 174 213 271 320
#     4  10  20  34  51  75 109 144 174 207 254 310
#     4   9  19  36  57  81 110 140 171 218 274 314
#     4   9  17  34  60  82  99 129 176 222 263 311
#
# _framework density 18.731110000000001
#
# number of rings (size 3 to 8) (size 9 to 14) (size 15 to 20)
#    0.000    2.500    0.000    3.000    0.000    6.667 
#    0.000    8.333    0.000    0.000    0.000    0.000 
#    0.000    0.000    0.000    0.000    0.000    0.000 
#
# Total GULP energy -297619.478170 kJ/mol
# GULP energy per Si atom -12400.811590 kJ/mol
# Density = 1.868848 g / cm^3
# Si number density = 18.731110 Si / 1000 Ang^3
#
#
#
# Elastic Constant Matrix: (Units=GPa)
#
#
# Indices 1 2 3 4 5 6 
#
# 1 36.6790 17.5188 41.4004 0.0000 0.5747 0.0000
# 2 17.5188 48.2094 46.3282 0.0000 0.7983 0.0000
# 3 41.4004 46.3282 154.4827 0.0000 3.6547 0.0000
# 4 0.0000 0.0000 0.0000 30.5043 0.0000 3.2266
# 5 0.5747 0.7983 3.6547 0.0000 21.8150 0.0000
# 6 0.0000 0.0000 0.0000 3.2266 0.0000 27.3657
#
#
#
# Elastic Compliance Matrix: (Units=1/GPa)
#
#
# Indices 1 2 3 4 5 6 
#
# 1 0.040292 -0.005986 -0.009019 0.000000 0.000668 0.000000
# 2 -0.005986 0.030034 -0.007410 0.000000 0.000300 0.000000
# 3 -0.009019 -0.007410 0.011144 0.000000 -0.001358 0.000000
# 4 0.000000 0.000000 0.000000 0.033196 0.000000 -0.003914
# 5 0.000668 0.000300 -0.001358 0.000000 0.046039 0.000000
# 6 0.000000 0.000000 0.000000 -0.003914 0.000000 0.037004
#
#
# Mechanical properties :
#
#
# Convention : Reuss Voigt Hill
#
# Bulk Modulus (GPa) = 27.29173 49.98510 38.63841
# Shear Modulus (GPa) = 19.62703 24.87859 22.25281
#
# Velocity S-wave (km/s) = 3.24053 3.64840 3.45050
# Velocity P-wave (km/s) = 5.34821 6.67018 6.04543
#
# Compressibility (1/GPa) = 0.03664114
#
# Stress axis : x y z
#
# Youngs Moduli (GPa) = 24.81909 33.29591 89.73110
#
# Poissons Ratio (x) = 0.19931 0.80925
# Poissons Ratio (y) = 0.14856 0.66489
# Poissons Ratio (z) = 0.22383 0.24672
#
# Static dielectric constant tensor:
#      x y z
#    x 3.147850 0.000000 0.689980 
#    y 0.000000 3.252710 0.000000 
#    z 0.689980 0.000000 2.274720 
# 
# 
# High freq. dielectric constant tensor:
#      x y z
#    x 1.730040 0.000000 -0.008580 
#    y 0.000000 1.707610 0.000000 
#    z -0.008580 0.000000 1.737900 
# 
# From -- ./inp_files/172091.got.cif
#   From: 2010.06.25/outbox.cif.g09.slc.cpg/sg12_87_cif.got.tgz:172091.got - 2010.06.28 00:19:55.
