data_PCOD8096652
_publ_section_title
;
Structure prediction by ZEFSAII (Michael W. Deem and Ramdas Pophale) SiO2 
 PCOD8096652
Probable space group: C 2/M
;
_chemical_formula_sum "Si O2"
_cell_formula_units_Z 64
_cell_length_a 24.634154
_cell_length_b 14.919139
_cell_length_c 14.287224
_cell_angle_alpha 90.000000
_cell_angle_beta 141.231225
_cell_angle_gamma 90.000000
_cell_volume 3287.969359
_symmetry_space_group_name_H-M "C 2/M"
_symmetry_group_IT_number 12
_symmetry_cell_setting 'monoclinic'
loop_
_space_group_symop_operation_xyz
x,y,z
-x,y,-z
-x,-y,-z
x,-y,z
1/2+x,1/2+y,z
1/2-x,1/2+y,-z
1/2-x,1/2-y,-z
1/2+x,1/2-y,z
loop_
_atom_site_type_symbol
_atom_site_label
_atom_site_fract_x
_atom_site_fract_y
_atom_site_fract_z
Si Si1 0.315007 0.322129 0.881234
Si Si2 0.312246 0.315970 0.219282
Si Si3 0.299952 0.901577 0.413265
Si Si4 0.401499 0.836924 0.892886
Si Si5 0.924111 0.215675 0.191026
Si Si6 0.363529 0.097647 0.036336
Si Si7 0.743065 0.101231 0.432481
Si Si8 0.879382 0.786189 0.505402
O O1 0.238585 0.278302 0.841504
O O2 0.276719 0.403485 0.768881
O O3 0.349459 0.252084 0.850813
O O4 0.389805 0.344734 0.057171
O O5 0.379855 0.315719 0.226388
O O6 0.364929 0.333186 0.385771
O O7 0.240918 0.393098 0.106811
O O8 0.259124 0.885640 0.459625
O O9 0.366430 0.821507 0.479922
O O10 0.345381 0.000000 0.470133
O O11 0.352380 0.880292 0.738497
O O12 0.500000 0.813651 0.000000
O O13 0.400289 0.903184 0.979985
O O14 0.907304 0.321881 0.153434
O O15 0.024823 0.194592 0.330841
O O16 0.385583 0.000000 0.110395
O O17 0.813230 0.171434 0.489937
O O18 0.771116 0.000000 0.444439
#
# Coordination Sequence:
#
# PCOD8096652 Si02
#       8
#     8   8   8   8   8   8   8   8
#     4   9  19  37  56  81 113 150 189 230 274 334
#     4   9  18  38  58  79 108 151 190 226 287 339
#     4  10  22  37  59  83 112 159 194 221 274 345
#     4  10  20  33  57  86 116 148 182 233 289 337
#     4  10  21  36  60  83 111 149 193 234 289 337
#     4  10  20  35  56  84 116 143 183 244 291 334
#     4  11  22  37  58  84 117 154 188 229 287 343
#     4  11  21  38  60  85 118 150 186 240 283 338
#
# _framework density 19.464901000000001
#
# number of rings (size 3 to 8) (size 9 to 14) (size 15 to 20)
#    0.000    2.250    3.750    2.625    3.500    1.500 
#    0.000    6.875    0.000    7.125    0.000    0.000 
#    0.000    0.000    0.000    0.000    0.000    0.000 
#
# Total GULP energy -396595.213021 kJ/mol
# GULP energy per Si atom -12393.600407 kJ/mol
# Density = 1.942060 g / cm^3
# Si number density = 19.464901 Si / 1000 Ang^3
#
#
#
# Elastic Constant Matrix: (Units=GPa)
#
#
# Indices 1 2 3 4 5 6 
#
# 1 74.9272 12.6624 26.9452 0.0000 2.6846 0.0000
# 2 12.6624 40.0274 -6.7619 0.0000 3.5144 0.0000
# 3 26.9452 -6.7619 106.2774 0.0000 7.5097 0.0000
# 4 0.0000 0.0000 0.0000 16.5196 0.0000 -4.5104
# 5 2.6846 3.5144 7.5097 0.0000 29.3545 0.0000
# 6 0.0000 0.0000 0.0000 -4.5104 0.0000 8.6355
#
#
#
# Elastic Compliance Matrix: (Units=1/GPa)
#
#
# Indices 1 2 3 4 5 6 
#
# 1 0.015908 -0.005814 -0.004430 0.000000 0.000374 0.000000
# 2 -0.005814 0.027737 0.003499 0.000000 -0.003684 0.000000
# 3 -0.004430 0.003499 0.010954 0.000000 -0.002816 0.000000
# 4 0.000000 0.000000 0.000000 0.070603 0.000000 0.036877
# 5 0.000374 -0.003684 -0.002816 0.000000 0.035194 0.000000
# 6 0.000000 0.000000 0.000000 0.036877 0.000000 0.135063
#
#
# Mechanical properties :
#
#
# Convention : Reuss Voigt Hill
#
# Bulk Modulus (GPa) = 24.32480 31.88039 28.10259
# Shear Modulus (GPa) = 15.49662 23.46100 19.47881
#
# Velocity S-wave (km/s) = 2.82464 3.47551 3.16684
# Velocity P-wave (km/s) = 4.81269 5.70258 5.27643
#
# Compressibility (1/GPa) = 0.04111031
#
# Stress axis : x y z
#
# Youngs Moduli (GPa) = 62.86002 36.05347 91.29052
#
# Poissons Ratio (x) = 0.20960 0.40439
# Poissons Ratio (y) = 0.36545 -0.31943
# Poissons Ratio (z) = 0.27845 -0.12615
#
# Static dielectric constant tensor:
#      x y z
#    x 3.409700 0.000000 -0.132640 
#    y 0.000000 3.367140 0.000000 
#    z -0.132640 0.000000 3.693570 
# 
# 
# High freq. dielectric constant tensor:
#      x y z
#    x 1.749610 0.000000 -0.012500 
#    y 0.000000 1.731890 0.000000 
#    z -0.012500 0.000000 1.762080 
# 
# From -- ./inp_files/240729.got.cif
#   From: 2010.06.25/outbox.cif.g09.slc.cpg/sg12_121_cif.got.tgz:240729.got - 2010.06.28 00:19:55.
