data_PCOD8096798
_publ_section_title
;
Structure prediction by ZEFSAII (Michael W. Deem and Ramdas Pophale) SiO2 
 PCOD8096798
Probable space group: C 2/M
;
_chemical_formula_sum "Si O2"
_cell_formula_units_Z 64
_cell_length_a 20.243363
_cell_length_b 9.307468
_cell_length_c 18.897806
_cell_angle_alpha 90.000000
_cell_angle_beta 76.760869
_cell_angle_gamma 90.000000
_cell_volume 3465.988198
_symmetry_space_group_name_H-M "C 2/M"
_symmetry_group_IT_number 12
_symmetry_cell_setting 'monoclinic'
loop_
_space_group_symop_operation_xyz
x,y,z
-x,y,-z
-x,-y,-z
x,-y,z
1/2+x,1/2+y,z
1/2-x,1/2+y,-z
1/2-x,1/2-y,-z
1/2+x,1/2-y,z
loop_
_atom_site_type_symbol
_atom_site_label
_atom_site_fract_x
_atom_site_fract_y
_atom_site_fract_z
Si Si1 0.680034 0.666887 0.016699
Si Si2 0.829440 0.335499 0.537922
Si Si3 0.400255 0.329544 0.245275
Si Si4 0.822246 0.832074 0.404572
Si Si5 0.037078 0.333453 0.422621
Si Si6 0.023901 0.331620 0.269086
Si Si7 0.191366 0.165013 0.857872
Si Si8 0.342785 0.832318 0.847880
O O1 0.689614 0.500000 0.033899
O O2 0.633650 0.744427 0.087345
O O3 0.750000 0.750000 0.000000
O O4 0.652633 0.683024 0.942898
O O5 0.827251 0.500000 0.514057
O O6 0.855023 0.247138 0.463572
O O7 0.756315 0.284303 0.583587
O O8 0.882171 0.311727 0.588603
O O9 0.411404 0.500000 0.236693
O O10 0.360076 0.282976 0.325083
O O11 0.473397 0.253395 0.229641
O O12 0.356834 0.265234 0.190158
O O13 0.829696 0.000000 0.415565
O O14 0.017041 0.500000 0.426029
O O15 0.016444 0.268948 0.351207
O O16 0.000000 0.260963 0.500000
O O17 0.006746 0.500000 0.269768
O O18 0.101260 0.304612 0.225733
O O19 0.268803 0.226870 0.839948
O O20 0.199359 0.000000 0.834615
O O21 0.337171 0.000000 0.869657
#
# Coordination Sequence:
#
# PCOD8096798 Si02
#       8
#     8   8   8   8   8   8   8   8
#     4   9  16  30  53  80 107 134 167 209 254 300
#     4   9  17  30  49  71  94 124 166 210 251 298
#     4  10  20  34  51  71 101 135 169 205 250 307
#     4   9  18  30  47  71  97 127 161 204 255 299
#     4   9  17  29  48  72  96 127 169 211 251 297
#     4  10  21  35  52  75 104 134 170 215 261 302
#     4   8  16  31  53  77  99 130 170 206 244 297
#     4   9  18  33  54  78 103 133 170 213 255 298
#
# _framework density 18.465152
#
# number of rings (size 3 to 8) (size 9 to 14) (size 15 to 20)
#    0.000    2.875    0.000    1.875    1.750    2.000 
#    0.000    4.375    0.000    6.000    0.000    0.000 
#    0.000    0.000    0.000    0.000    0.000    0.000 
#
# Total GULP energy -396571.233360 kJ/mol
# GULP energy per Si atom -12392.851043 kJ/mol
# Density = 1.842312 g / cm^3
# Si number density = 18.465152 Si / 1000 Ang^3
#
#
#
# Elastic Constant Matrix: (Units=GPa)
#
#
# Indices 1 2 3 4 5 6 
#
# 1 90.9628 22.8926 53.4250 0.0000 12.7703 0.0000
# 2 22.8926 40.2234 35.0629 0.0000 3.3534 0.0000
# 3 53.4250 35.0629 111.1094 0.0000 10.0920 0.0000
# 4 0.0000 0.0000 0.0000 26.1374 0.0000 -0.9388
# 5 12.7703 3.3534 10.0920 0.0000 26.1333 0.0000
# 6 0.0000 0.0000 0.0000 -0.9388 0.0000 22.4612
#
#
#
# Elastic Compliance Matrix: (Units=1/GPa)
#
#
# Indices 1 2 3 4 5 6 
#
# 1 0.016244 -0.003332 -0.006298 0.000000 -0.005078 0.000000
# 2 -0.003332 0.034980 -0.009510 0.000000 0.000812 0.000000
# 3 -0.006298 -0.009510 0.015171 0.000000 -0.001561 0.000000
# 4 0.000000 0.000000 0.000000 0.038317 0.000000 0.001601
# 5 -0.005078 0.000812 -0.001561 0.000000 0.041245 0.000000
# 6 0.000000 0.000000 0.000000 0.001601 0.000000 0.044588
#
#
# Mechanical properties :
#
#
# Convention : Reuss Voigt Hill
#
# Bulk Modulus (GPa) = 35.56817 51.67297 43.62057
# Shear Modulus (GPa) = 20.99101 23.67406 22.33253
#
# Velocity S-wave (km/s) = 3.37529 3.58452 3.48148
# Velocity P-wave (km/s) = 5.87318 6.72135 6.31153
#
# Compressibility (1/GPa) = 0.02811503
#
# Stress axis : x y z
#
# Youngs Moduli (GPa) = 61.56169 28.58789 65.91354
#
# Poissons Ratio (x) = 0.09524 0.41512
# Poissons Ratio (y) = 0.20510 0.62687
# Poissons Ratio (z) = 0.38771 0.27188
#
# Static dielectric constant tensor:
#      x y z
#    x 3.404340 0.000000 0.040060 
#    y 0.000000 3.211170 0.000000 
#    z 0.040060 0.000000 3.858990 
# 
# 
# High freq. dielectric constant tensor:
#      x y z
#    x 1.706420 0.000000 0.001500 
#    y 0.000000 1.683050 0.000000 
#    z 0.001500 0.000000 1.721080 
# 
# From -- ./inp_files/319090.got.cif
#   From: 2010.06.25/outbox.cif.g09.slc.cpg/sg12_160_cif.got.tgz:319090.got - 2010.06.28 00:19:55.
