data_PCOD8096978
_publ_section_title
;
Structure prediction by ZEFSAII (Michael W. Deem and Ramdas Pophale) SiO2 
 PCOD8096978
Probable space group: C 2/M
;
_chemical_formula_sum "Si O2"
_cell_formula_units_Z 56
_cell_length_a 8.633737
_cell_length_b 11.520732
_cell_length_c 32.835105
_cell_angle_alpha 90.000000
_cell_angle_beta 64.327457
_cell_angle_gamma 90.000000
_cell_volume 2943.603519
_symmetry_space_group_name_H-M "C 2/M"
_symmetry_group_IT_number 12
_symmetry_cell_setting 'monoclinic'
loop_
_space_group_symop_operation_xyz
x,y,z
-x,y,-z
-x,-y,-z
x,-y,z
1/2+x,1/2+y,z
1/2-x,1/2+y,-z
1/2-x,1/2-y,-z
1/2+x,1/2-y,z
loop_
_atom_site_type_symbol
_atom_site_label
_atom_site_fract_x
_atom_site_fract_y
_atom_site_fract_z
Si Si1 0.173844 0.870968 0.623583
Si Si2 0.702385 0.866528 0.480154
Si Si3 0.261114 0.131869 0.836863
Si Si4 0.877230 0.367786 0.049342
Si Si5 0.434572 0.868487 0.735630
Si Si6 0.694910 0.715755 0.321219
Si Si7 0.057389 0.281080 0.106293
O O1 0.970461 0.865038 0.655006
O O2 0.210792 0.840579 0.572843
O O3 0.282111 0.785925 0.639631
O O4 0.237447 0.000000 0.626583
O O5 0.500000 0.869360 0.500000
O O6 0.750000 0.750000 0.500000
O O7 0.759040 0.000000 0.489088
O O8 0.382149 0.177793 0.786409
O O9 0.360461 0.139987 0.868207
O O10 0.085394 0.202236 0.856335
O O11 0.208608 0.000000 0.835472
O O12 0.828961 0.500000 0.045241
O O13 0.701872 0.296462 0.068390
O O14 0.971738 0.361838 0.082042
O O15 0.000000 0.317337 0.000000
O O16 0.328476 0.799838 0.714156
O O17 0.638713 0.861274 0.706429
O O18 0.376878 0.000000 0.736916
#
# Coordination Sequence:
#
# PCOD8096978 Si02
#       7
#     8   8   8   8   8   8   8
#     4  10  20  35  54  76 104 136 171 212 257 305
#     4  10  21  37  56  80 109 141 178 220 265 315
#     4  10  20  34  52  74 101 132 166 205 249 297
#     4  10  20  34  52  74 100 130 165 205 248 295
#     4  10  20  34  52  75 102 132 167 207 250 298
#     4  10  20  34  53  76 102 133 170 208 253 302
#     4  10  20  34  52  74 100 131 166 204 248 296
#
# _framework density 19.0243
#
# number of rings (size 3 to 8) (size 9 to 14) (size 15 to 20)
#    0.000    2.000    0.000    3.857    0.000    0.286 
#    0.000    3.571    0.000   20.571    0.000    0.000 
#    0.000    0.000    0.000    0.000    0.000    0.000 
#
# Total GULP energy -347120.360467 kJ/mol
# GULP energy per Si atom -12397.155731 kJ/mol
# Density = 1.898100 g / cm^3
# Si number density = 19.024300 Si / 1000 Ang^3
#
#
#
# Elastic Constant Matrix: (Units=GPa)
#
#
# Indices 1 2 3 4 5 6 
#
# 1 44.6858 10.6784 4.4133 0.0000 0.1389 0.0000
# 2 10.6784 78.9856 32.0648 0.0000 3.6851 0.0000
# 3 4.4133 32.0648 104.7218 0.0000 -3.7634 0.0000
# 4 0.0000 0.0000 0.0000 25.1330 0.0000 -5.0282
# 5 0.1389 3.6851 -3.7634 0.0000 24.4333 0.0000
# 6 0.0000 0.0000 0.0000 -5.0282 0.0000 8.4349
#
#
#
# Elastic Compliance Matrix: (Units=1/GPa)
#
#
# Indices 1 2 3 4 5 6 
#
# 1 0.023128 -0.003143 0.000000 0.000000 0.000343 0.000000
# 2 -0.003143 0.015089 -0.004594 0.000000 -0.002965 0.000000
# 3 0.000000 -0.004594 0.011042 0.000000 0.002394 0.000000
# 4 0.000000 0.000000 0.000000 0.045176 0.000000 0.026930
# 5 0.000343 -0.002965 0.002394 0.000000 0.041742 0.000000
# 6 0.000000 0.000000 0.000000 0.026930 0.000000 0.134609
#
#
# Mechanical properties :
#
#
# Convention : Reuss Voigt Hill
#
# Bulk Modulus (GPa) = 29.59896 35.85623 32.72760
# Shear Modulus (GPa) = 16.80550 23.68269 20.24410
#
# Velocity S-wave (km/s) = 2.97538 3.53209 3.26562
# Velocity P-wave (km/s) = 5.23413 5.96010 5.60887
#
# Compressibility (1/GPa) = 0.03378497
#
# Stress axis : x y z
#
# Youngs Moduli (GPa) = 43.23686 66.27429 90.56472
#
# Poissons Ratio (x) = 0.20828 0.00001
# Poissons Ratio (y) = 0.13588 0.41607
# Poissons Ratio (z) = 0.00000 0.30448
#
# Static dielectric constant tensor:
#      x y z
#    x 3.348260 0.000000 -0.088150 
#    y 0.000000 3.538030 0.000000 
#    z -0.088150 0.000000 3.689540 
# 
# 
# High freq. dielectric constant tensor:
#      x y z
#    x 1.735160 0.000000 -0.007830 
#    y 0.000000 1.741240 0.000000 
#    z -0.007830 0.000000 1.757300 
# 
# From -- ./inp_files/355744.got.cif
#   From: 2010.06.25/outbox.cif.g09.slc.cpg/sg12_178_cif.got.tgz:355744.got - 2010.06.28 00:19:55.
