data_PCOD8096438
_publ_section_title
;
Structure prediction by ZEFSAII (Michael W. Deem and Ramdas Pophale) SiO2 
 PCOD8096438
Probable space group: C 2/M
;
_chemical_formula_sum "Si O2"
_cell_formula_units_Z 40
_cell_length_a 27.508467
_cell_length_b 8.997476
_cell_length_c 9.151748
_cell_angle_alpha 90.000000
_cell_angle_beta 110.636376
_cell_angle_gamma 90.000000
_cell_volume 2119.780399
_symmetry_space_group_name_H-M "C 2/M"
_symmetry_group_IT_number 12
_symmetry_cell_setting 'monoclinic'
loop_
_space_group_symop_operation_xyz
x,y,z
-x,y,-z
-x,-y,-z
x,-y,z
1/2+x,1/2+y,z
1/2-x,1/2+y,-z
1/2-x,1/2-y,-z
1/2+x,1/2-y,z
loop_
_atom_site_type_symbol
_atom_site_label
_atom_site_fract_x
_atom_site_fract_y
_atom_site_fract_z
Si Si1 0.704795 0.176040 0.860148
Si Si2 0.892545 0.325432 0.049473
Si Si3 0.394292 0.670498 0.747318
Si Si4 0.206359 0.826688 0.549709
Si Si5 0.005142 0.336221 0.178410
O O1 0.650348 0.217633 0.877676
O O2 0.704547 0.245019 0.700992
O O3 0.713773 0.000000 0.860860
O O4 0.750000 0.250000 0.000000
O O5 0.893980 0.500000 0.018636
O O6 0.948971 0.274898 0.173876
O O7 0.878994 0.250143 0.881332
O O8 0.402968 0.500000 0.794740
O O9 0.348924 0.696224 0.584169
O O10 0.447183 0.730479 0.728063
O O11 0.250000 0.750000 0.500000
O O12 0.219796 0.000000 0.585019
O O13 0.016413 0.500000 0.255834
O O14 0.000000 0.345403 0.000000
#
# Coordination Sequence:
#
# PCOD8096438 Si02
#       5
#     8   8   8   8   8
#     4  11  23  39  59  82 109 142 181 225 274 325
#     4   9  19  35  55  80 109 142 180 220 263 317
#     4  10  20  33  53  82 111 140 177 222 269 315
#     4  11  24  40  57  80 110 143 182 225 272 326
#     4   8  15  30  52  77 106 141 180 218 258 312
#
# _framework density 18.869879999999998
#
# number of rings (size 3 to 8) (size 9 to 14) (size 15 to 20)
#    0.000    2.200    0.000    4.200    0.000   11.600 
#    0.000    1.000    0.000    6.000    0.000    0.000 
#    0.000    0.000    0.000    0.000    0.000    0.000 
#
# Total GULP energy -247971.814214 kJ/mol
# GULP energy per Si atom -12398.590711 kJ/mol
# Density = 1.882693 g / cm^3
# Si number density = 18.869880 Si / 1000 Ang^3
#
#
#
# Elastic Constant Matrix: (Units=GPa)
#
#
# Indices 1 2 3 4 5 6 
#
# 1 181.9811 78.9729 73.2565 0.0000 1.8331 0.0000
# 2 78.9729 103.1071 62.5585 0.0000 2.3668 0.0000
# 3 73.2565 62.5585 97.4520 0.0000 -5.4907 0.0000
# 4 0.0000 0.0000 0.0000 32.5840 0.0000 2.1772
# 5 1.8331 2.3668 -5.4907 0.0000 27.7419 0.0000
# 6 0.0000 0.0000 0.0000 2.1772 0.0000 32.1913
#
#
#
# Elastic Compliance Matrix: (Units=1/GPa)
#
#
# Indices 1 2 3 4 5 6 
#
# 1 0.009060 -0.004504 -0.003976 0.000000 -0.001001 0.000000
# 2 -0.004504 0.018451 -0.008627 0.000000 -0.002984 0.000000
# 3 -0.003976 -0.008627 0.019057 0.000000 0.004770 0.000000
# 4 0.000000 0.000000 0.000000 0.030829 0.000000 -0.002085
# 5 -0.001001 -0.002984 0.004770 0.000000 0.037311 0.000000
# 6 0.000000 0.000000 0.000000 -0.002085 0.000000 0.031205
#
#
# Mechanical properties :
#
#
# Convention : Reuss Voigt Hill
#
# Bulk Modulus (GPa) = 80.94089 90.23512 85.58800
# Shear Modulus (GPa) = 27.13759 29.68693 28.41226
#
# Velocity S-wave (km/s) = 3.79640 3.97072 3.88454
# Velocity P-wave (km/s) = 7.88696 8.30335 8.09783
#
# Compressibility (1/GPa) = 0.01235469
#
# Stress axis : x y z
#
# Youngs Moduli (GPa) = 110.37162 54.19647 52.47505
#
# Poissons Ratio (x) = 0.24412 0.20862
# Poissons Ratio (y) = 0.49716 0.45269
# Poissons Ratio (z) = 0.43880 0.46754
#
# Static dielectric constant tensor:
#      x y z
#    x 4.218290 0.000000 0.248790 
#    y 0.000000 3.619670 0.000000 
#    z 0.248790 0.000000 3.218240 
# 
# 
# High freq. dielectric constant tensor:
#      x y z
#    x 1.752660 0.000000 0.015070 
#    y 0.000000 1.739320 0.000000 
#    z 0.015070 0.000000 1.712310 
# 
# From -- ./inp_files/92828.got.cif
#   From: 2010.06.25/outbox.cif.g09.slc.cpg/sg12_47_cif.got.tgz:92828.got - 2010.06.28 00:19:55.
