data_PCOD8096190
_publ_section_title
;
Structure prediction by ZEFSAII (Michael W. Deem and Ramdas Pophale) SiO2 
 PCOD8096190
Probable space group: C 2/M
;
_chemical_formula_sum "Si O2"
_cell_formula_units_Z 64
_cell_length_a 22.233227
_cell_length_b 9.020554
_cell_length_c 24.078355
_cell_angle_alpha 90.000000
_cell_angle_beta 45.306107
_cell_angle_gamma 90.000000
_cell_volume 3432.854740
_symmetry_space_group_name_H-M "C 2/M"
_symmetry_group_IT_number 12
_symmetry_cell_setting 'monoclinic'
loop_
_space_group_symop_operation_xyz
x,y,z
-x,y,-z
-x,-y,-z
x,-y,z
1/2+x,1/2+y,z
1/2-x,1/2+y,-z
1/2-x,1/2-y,-z
1/2+x,1/2-y,z
loop_
_atom_site_type_symbol
_atom_site_label
_atom_site_fract_x
_atom_site_fract_y
_atom_site_fract_z
Si Si1 0.407927 0.827136 0.037461
Si Si2 0.305005 0.667561 0.419537
Si Si3 0.423294 0.335777 0.509186
Si Si4 0.779699 0.824708 0.038616
Si Si5 0.730460 0.171350 0.780800
Si Si6 0.483501 0.330486 0.351464
Si Si7 0.737403 0.174477 0.348839
Si Si8 0.851757 0.672266 0.780039
O O1 0.366513 0.742533 0.010455
O O2 0.348858 0.798885 0.128429
O O3 0.413459 0.000000 0.017289
O O4 0.500000 0.769713 0.000000
O O5 0.273580 0.500000 0.443511
O O6 0.250000 0.750000 0.500000
O O7 0.404192 0.683275 0.362849
O O8 0.287424 0.730678 0.370151
O O9 0.500000 0.354156 0.500000
O O10 0.383184 0.500000 0.524021
O O11 0.456000 0.268110 0.429648
O O12 0.358751 0.227046 0.581623
O O13 0.701321 0.792536 0.130246
O O14 0.794623 0.000000 0.019683
O O15 0.750000 0.750000 0.000000
O O16 0.713323 0.248719 0.733533
O O17 0.814394 0.242103 0.751799
O O18 0.748180 0.000000 0.759521
O O19 0.515675 0.500000 0.335755
O O20 0.553128 0.230225 0.275779
O O21 0.739381 0.000000 0.337985
O O22 0.850978 0.500000 0.766828
#
# Coordination Sequence:
#
# PCOD8096190 Si02
#       8
#     8   8   8   8   8   8   8   8
#     4   9  19  38  63  89 119 152 190 237 288 346
#     4  10  21  37  55  75 104 146 186 227 275 325
#     4  10  20  33  52  77 103 136 180 225 270 325
#     4  10  21  38  61  89 121 156 193 235 284 342
#     4  10  20  36  59  83 110 148 183 220 278 336
#     4  10  20  35  54  77 109 145 183 223 272 332
#     4  11  22  35  53  78 108 140 182 231 274 320
#     4  10  21  37  58  85 114 143 181 231 278 322
#
# _framework density 18.643374999999999
#
# number of rings (size 3 to 8) (size 9 to 14) (size 15 to 20)
#    0.000    2.000    1.250    2.250    0.000    5.000 
#    2.250    0.000    0.000    0.000    0.000    0.000 
#    0.000    0.000    0.000    0.000    0.000    0.000 
#
# Total GULP energy -396721.689939 kJ/mol
# GULP energy per Si atom -12397.552811 kJ/mol
# Density = 1.860094 g / cm^3
# Si number density = 18.643375 Si / 1000 Ang^3
#
#
#
# Elastic Constant Matrix: (Units=GPa)
#
#
# Indices 1 2 3 4 5 6 
#
# 1 126.7534 53.4284 50.2560 0.0006 14.9744 -0.0007
# 2 53.4284 91.9002 47.3994 0.0017 9.3685 -0.0039
# 3 50.2560 47.3994 79.2673 -0.0001 9.3493 -0.0002
# 4 0.0006 0.0017 -0.0001 36.8926 0.0000 -2.6597
# 5 14.9744 9.3685 9.3493 0.0000 32.9018 0.0000
# 6 -0.0007 -0.0039 -0.0002 -2.6597 0.0000 35.9258
#
#
#
# Elastic Compliance Matrix: (Units=1/GPa)
#
#
# Indices 1 2 3 4 5 6 
#
# 1 0.011843 -0.004185 -0.004667 0.000000 -0.002872 0.000000
# 2 -0.004185 0.017325 -0.007604 -0.000001 -0.000868 0.000002
# 3 -0.004667 -0.007604 0.020296 0.000000 -0.001478 -0.000001
# 4 0.000000 -0.000001 0.000000 0.027251 0.000000 0.002017
# 5 -0.002872 -0.000868 -0.001478 0.000000 0.032368 0.000000
# 6 0.000000 0.000002 -0.000001 0.002017 0.000000 0.027984
#
#
# Mechanical properties :
#
#
# Convention : Reuss Voigt Hill
#
# Bulk Modulus (GPa) = 60.41920 66.67652 63.54786
# Shear Modulus (GPa) = 28.49040 30.93317 29.71179
#
# Velocity S-wave (km/s) = 3.91343 4.07775 3.99644
# Velocity P-wave (km/s) = 7.27311 7.61660 7.44684
#
# Compressibility (1/GPa) = 0.01655103
#
# Stress axis : x y z
#
# Youngs Moduli (GPa) = 84.43548 57.72020 49.27111
#
# Poissons Ratio (x) = 0.24158 0.22996
# Poissons Ratio (y) = 0.35339 0.37465
# Poissons Ratio (z) = 0.39408 0.43890
#
# Static dielectric constant tensor:
#      x y z
#    x 3.630130 0.000000 0.041780 
#    y 0.000000 3.540250 0.000000 
#    z 0.041780 0.000000 3.360100 
# 
# 
# High freq. dielectric constant tensor:
#      x y z
#    x 1.730160 0.000000 0.005270 
#    y 0.000000 1.726050 0.000000 
#    z 0.005270 0.000000 1.717600 
# 
# From -- ./inp_files/345980.got.cif
#   From: 2010.06.25/outbox.cif.g09.slc.cpg/sg12_173_cif.got.tgz:345980.got - 2010.06.28 00:19:55.
