data_PCOD8096226
_publ_section_title
;
Structure prediction by ZEFSAII (Michael W. Deem and Ramdas Pophale) SiO2 
 PCOD8096226
Probable space group: C 2/M
;
_chemical_formula_sum "Si O2"
_cell_formula_units_Z 40
_cell_length_a 18.363694
_cell_length_b 8.904364
_cell_length_c 23.484396
_cell_angle_alpha 90.000000
_cell_angle_beta 146.786699
_cell_angle_gamma 90.000000
_cell_volume 2103.442520
_symmetry_space_group_name_H-M "C 2/M"
_symmetry_group_IT_number 12
_symmetry_cell_setting 'monoclinic'
loop_
_space_group_symop_operation_xyz
x,y,z
-x,y,-z
-x,-y,-z
x,-y,z
1/2+x,1/2+y,z
1/2-x,1/2+y,-z
1/2-x,1/2-y,-z
1/2+x,1/2-y,z
loop_
_atom_site_type_symbol
_atom_site_label
_atom_site_fract_x
_atom_site_fract_y
_atom_site_fract_z
Si Si1 0.989928 0.674338 0.075492
Si Si2 0.897424 0.673535 0.339595
Si Si3 0.800471 0.322593 0.475649
Si Si4 0.204876 0.324466 0.302758
Si Si5 0.315200 0.673031 0.885457
O O1 0.963320 0.500000 0.049258
O O2 0.056293 0.706120 0.180452
O O3 0.095941 0.732538 0.099543
O O4 0.848879 0.761110 0.971009
O O5 0.887200 0.500000 0.351950
O O6 0.819955 0.770000 0.335509
O O7 0.836211 0.694095 0.235493
O O8 0.048308 0.729037 0.436410
O O9 0.789043 0.500000 0.473367
O O10 0.750000 0.250000 0.500000
O O11 0.709806 0.264589 0.364876
O O12 0.227235 0.500000 0.328310
O O13 0.356795 0.500000 0.911149
#
# Coordination Sequence:
#
# PCOD8096226 Si02
#       5
#     8   8   8   8   8
#     4   9  16  26  42  69 103 131 157 196 243 286
#     4   9  19  34  52  76 104 133 165 206 252 294
#     4  11  23  38  54  72  99 133 169 210 255 301
#     4  10  20  33  52  78 105 133 167 206 246 293
#     4   9  15  25  44  70  99 129 161 196 239 292
#
# _framework density 19.016445999999998
#
# number of rings (size 3 to 8) (size 9 to 14) (size 15 to 20)
#    0.000    2.400    0.000    4.200    0.000    7.200 
#    0.000    0.000    0.000    1.200    0.000    0.000 
#    0.000    0.000    0.000    0.000    0.000    0.000 
#
# Total GULP energy -247816.148183 kJ/mol
# GULP energy per Si atom -12390.807409 kJ/mol
# Density = 1.897316 g / cm^3
# Si number density = 19.016446 Si / 1000 Ang^3
#
#
#
# Elastic Constant Matrix: (Units=GPa)
#
#
# Indices 1 2 3 4 5 6 
#
# 1 47.6645 32.9775 33.0596 0.0002 -21.1831 0.0000
# 2 32.9775 -72.7567 25.1510 0.0003 -8.8351 0.0001
# 3 33.0596 25.1510 139.3283 -0.0006 -27.4705 0.0001
# 4 0.0002 0.0003 -0.0006 33.9233 0.0000 -8.1489
# 5 -21.1831 -8.8351 -27.4705 0.0000 15.1512 0.0000
# 6 0.0000 0.0001 0.0001 -8.1489 0.0000 20.2581
#
#
#
# Elastic Compliance Matrix: (Units=1/GPa)
#
#
# Indices 1 2 3 4 5 6 
#
# 1 0.042710 0.011469 0.001381 0.000000 0.068906 0.000000
# 2 0.011469 -0.009604 0.001665 0.000000 0.013453 0.000000
# 3 0.001381 0.001665 0.011083 0.000000 0.022997 0.000000
# 4 0.000000 0.000000 0.000000 0.032631 0.000000 0.013126
# 5 0.068906 0.013453 0.022997 0.000000 0.211879 0.000000
# 6 0.000000 0.000000 0.000000 0.013126 0.000000 0.054643
#
#
# Mechanical properties :
#
#
# Convention : Reuss Voigt Hill
#
# Bulk Modulus (GPa) = 13.65768 32.95693 23.30731
# Shear Modulus (GPa) = 14.76147 15.40305 15.08226
#
# Velocity S-wave (km/s) = 2.78914 2.84911 2.81929
# Velocity P-wave (km/s) = 4.19167 5.30958 4.78339
#
# Compressibility (1/GPa) = 0.07321885
#
# Stress axis : x y z
#
# Youngs Moduli (GPa) = 23.41348 -104.12084 90.22727
#
# Poissons Ratio (x) = 1.19414 -0.12462
# Poissons Ratio (y) = -0.26852 -0.15021
# Poissons Ratio (z) = -0.03234 0.17334
#
# Static dielectric constant tensor:
#      x y z
#    x 2.873280 0.000000 -0.084430 
#    y 0.000000 3.592540 0.000000 
#    z -0.084430 0.000000 4.900360 
# 
# 
# High freq. dielectric constant tensor:
#      x y z
#    x 1.666390 0.000000 -0.009160 
#    y 0.000000 1.752170 0.000000 
#    z -0.009160 0.000000 1.775330 
# 
# From -- ./inp_files/220226.got.cif
#   From: 2010.06.25/outbox.cif.g09.slc.cpg/sg12_111_cif.got.tgz:220226.got - 2010.06.28 00:19:55.
