data_PCOD8096897
_publ_section_title
;
Structure prediction by ZEFSAII (Michael W. Deem and Ramdas Pophale) SiO2 
 PCOD8096897
Probable space group: C 2/M
;
_chemical_formula_sum "Si O2"
_cell_formula_units_Z 56
_cell_length_a 19.546957
_cell_length_b 9.323828
_cell_length_c 21.372966
_cell_angle_alpha 90.000000
_cell_angle_beta 126.409614
_cell_angle_gamma 90.000000
_cell_volume 3134.895371
_symmetry_space_group_name_H-M "C 2/M"
_symmetry_group_IT_number 12
_symmetry_cell_setting 'monoclinic'
loop_
_space_group_symop_operation_xyz
x,y,z
-x,y,-z
-x,-y,-z
x,-y,z
1/2+x,1/2+y,z
1/2-x,1/2+y,-z
1/2-x,1/2-y,-z
1/2+x,1/2-y,z
loop_
_atom_site_type_symbol
_atom_site_label
_atom_site_fract_x
_atom_site_fract_y
_atom_site_fract_z
Si Si1 0.082342 0.334078 0.357730
Si Si2 0.335818 0.668989 0.038635
Si Si3 0.747387 0.169925 0.371876
Si Si4 0.081863 0.667043 0.502538
Si Si5 0.155540 0.163317 0.218842
Si Si6 0.487727 0.337967 0.206801
Si Si7 0.906807 0.830696 0.945201
O O1 0.071376 0.500000 0.336688
O O2 0.177328 0.286135 0.386853
O O3 0.064861 0.299567 0.420552
O O4 0.009111 0.253927 0.279562
O O5 0.323678 0.500000 0.037827
O O6 0.403651 0.722349 0.127103
O O7 0.250000 0.750000 0.000000
O O8 0.361302 0.714803 0.983282
O O9 0.837887 0.238253 0.435602
O O10 0.718747 0.231460 0.289508
O O11 0.758067 0.000000 0.373362
O O12 0.104066 0.500000 0.524579
O O13 0.000000 0.710396 0.500000
O O14 0.147732 0.223814 0.143949
O O15 0.061870 0.169503 0.196429
O O16 0.191046 0.000000 0.241068
O O17 0.473597 0.500000 0.222113
O O18 0.916613 0.000000 0.941830
O O19 0.000000 0.760161 0.000000
#
# Coordination Sequence:
#
# PCOD8096897 Si02
#       7
#     8   8   8   8   8   8   8
#     4   9  19  35  56  80 103 131 169 213 257 303
#     4  10  20  34  51  75 106 139 175 214 257 304
#     4  10  20  34  54  80 109 135 164 207 259 313
#     4  10  21  38  57  77 103 135 173 212 249 298
#     4   9  16  30  55  81 101 129 174 222 257 290
#     4   9  17  31  53  78 103 133 172 215 256 302
#     4   9  15  29  55  79  98 129 179 225 252 287
#
# _framework density 17.863434999999999
#
# number of rings (size 3 to 8) (size 9 to 14) (size 15 to 20)
#    0.000    2.571    1.429    0.857    0.000    2.000 
#    2.571    0.714    0.000    0.857    0.000    0.000 
#    0.000    0.000    0.000    0.000    0.000    0.000 
#
# Total GULP energy -347111.990763 kJ/mol
# GULP energy per Si atom -12396.856813 kJ/mol
# Density = 1.782278 g / cm^3
# Si number density = 17.863435 Si / 1000 Ang^3
#
#
#
# Elastic Constant Matrix: (Units=GPa)
#
#
# Indices 1 2 3 4 5 6 
#
# 1 99.9872 49.8369 84.3866 0.0000 -7.6721 0.0000
# 2 49.8369 55.8112 65.4738 0.0000 2.6597 0.0000
# 3 84.3866 65.4738 164.9724 0.0000 -5.7870 0.0000
# 4 0.0000 0.0000 0.0000 30.3971 0.0000 4.1835
# 5 -7.6721 2.6597 -5.7870 0.0000 25.5665 0.0000
# 6 0.0000 0.0000 0.0000 4.1835 0.0000 25.8640
#
#
#
# Elastic Compliance Matrix: (Units=1/GPa)
#
#
# Indices 1 2 3 4 5 6 
#
# 1 0.021922 -0.013117 -0.005775 0.000000 0.006636 0.000000
# 2 -0.013117 0.042501 -0.010535 0.000000 -0.010742 0.000000
# 3 -0.005775 -0.010535 0.013280 0.000000 0.002369 0.000000
# 4 0.000000 0.000000 0.000000 0.033647 0.000000 -0.005442
# 5 0.006636 -0.010742 0.002369 0.000000 0.042759 0.000000
# 6 0.000000 0.000000 0.000000 -0.005442 0.000000 0.039544
#
#
# Mechanical properties :
#
#
# Convention : Reuss Voigt Hill
#
# Bulk Modulus (GPa) = 53.05220 80.01839 66.53530
# Shear Modulus (GPa) = 19.32060 24.43708 21.87884
#
# Velocity S-wave (km/s) = 3.29229 3.70265 3.50349
# Velocity P-wave (km/s) = 6.64947 7.94804 7.32758
#
# Compressibility (1/GPa) = 0.01884936
#
# Stress axis : x y z
#
# Youngs Moduli (GPa) = 45.61524 23.52864 75.30157
#
# Poissons Ratio (x) = 0.30863 0.43488
# Poissons Ratio (y) = 0.59834 0.79331
# Poissons Ratio (z) = 0.26343 0.24788
#
# Static dielectric constant tensor:
#      x y z
#    x 3.188530 0.000000 -0.077400 
#    y 0.000000 3.158790 0.000000 
#    z -0.077400 0.000000 3.443700 
# 
# 
# High freq. dielectric constant tensor:
#      x y z
#    x 1.677550 0.000000 -0.004480 
#    y 0.000000 1.671280 0.000000 
#    z -0.004480 0.000000 1.705940 
# 
# From -- ./inp_files/275326.got.cif
#   From: 2010.06.25/outbox.cif.g09.slc.cpg/sg12_138_cif.got.tgz:275326.got - 2010.06.28 00:19:55.
