data_PCOD8096966
_publ_section_title
;
Structure prediction by ZEFSAII (Michael W. Deem and Ramdas Pophale) SiO2 
 PCOD8096966
Probable space group: C 2/M
;
_chemical_formula_sum "Si O2"
_cell_formula_units_Z 64
_cell_length_a 27.403378
_cell_length_b 9.293682
_cell_length_c 14.457280
_cell_angle_alpha 90.000000
_cell_angle_beta 103.259878
_cell_angle_gamma 90.000000
_cell_volume 3583.793292
_symmetry_space_group_name_H-M "C 2/M"
_symmetry_group_IT_number 12
_symmetry_cell_setting 'monoclinic'
loop_
_space_group_symop_operation_xyz
x,y,z
-x,y,-z
-x,-y,-z
x,-y,z
1/2+x,1/2+y,z
1/2-x,1/2+y,-z
1/2-x,1/2-y,-z
1/2+x,1/2-y,z
loop_
_atom_site_type_symbol
_atom_site_label
_atom_site_fract_x
_atom_site_fract_y
_atom_site_fract_z
Si Si1 0.867683 0.167822 0.098862
Si Si2 0.238376 0.163542 0.905764
Si Si3 0.559510 0.666112 0.712910
Si Si4 0.343717 0.833449 0.902661
Si Si5 0.895591 0.836065 0.459795
Si Si6 0.540116 0.833956 0.373797
Si Si7 0.366592 0.833768 0.710960
Si Si8 0.698025 0.669878 0.460585
O O1 0.819237 0.200239 0.145268
O O2 0.915215 0.216969 0.179977
O O3 0.871170 0.000000 0.077120
O O4 0.865709 0.247997 0.999729
O O5 0.283987 0.197227 0.854925
O O6 0.241481 0.000000 0.937421
O O7 0.250000 0.250000 0.000000
O O8 0.542807 0.500000 0.710856
O O9 0.600074 0.686686 0.648208
O O10 0.511594 0.763228 0.677272
O O11 0.371267 0.787626 0.820366
O O12 0.353010 0.000000 0.929385
O O13 0.937875 0.737394 0.524493
O O14 0.839506 0.796249 0.469798
O O15 0.907522 0.000000 0.493668
O O16 0.578450 0.811111 0.306430
O O17 0.530700 0.000000 0.391833
O O18 0.326539 0.731801 0.643323
O O19 0.348856 0.000000 0.693559
O O20 0.707658 0.500000 0.453579
O O21 0.750000 0.750000 0.500000
#
# Coordination Sequence:
#
# PCOD8096966 Si02
#       8
#     8   8   8   8   8   8   8   8
#     4   9  18  31  47  71 101 127 157 202 247 288
#     4   8  14  26  45  67  91 120 154 192 235 281
#     4  10  20  34  52  73  98 130 166 204 249 299
#     4   9  17  31  52  73  95 129 167 200 239 291
#     4   9  19  35  54  74  98 132 169 200 239 299
#     4  10  20  34  52  74  99 126 161 209 257 296
#     4   9  19  35  53  73  99 133 171 206 244 295
#     4  10  20  34  53  78 107 136 165 201 244 289
#
# _framework density 17.858172
#
# number of rings (size 3 to 8) (size 9 to 14) (size 15 to 20)
#    0.000    2.750    0.000    1.125    0.000    5.000 
#    0.000    4.375    0.000    8.250    0.000    0.000 
#    0.000    0.000    0.000    0.000    0.000    0.000 
#
# Total GULP energy -396511.492743 kJ/mol
# GULP energy per Si atom -12390.984148 kJ/mol
# Density = 1.781753 g / cm^3
# Si number density = 17.858172 Si / 1000 Ang^3
#
#
#
# Elastic Constant Matrix: (Units=GPa)
#
#
# Indices 1 2 3 4 5 6 
#
# 1 89.6860 50.0282 55.7630 0.0000 12.1342 0.0000
# 2 50.0282 79.5051 51.5231 0.0000 10.2401 0.0000
# 3 55.7630 51.5231 107.2152 0.0000 0.5880 0.0000
# 4 0.0000 0.0000 0.0000 26.6270 0.0000 3.1875
# 5 12.1342 10.2401 0.5880 0.0000 26.6204 0.0000
# 6 0.0000 0.0000 0.0000 3.1875 0.0000 29.4530
#
#
#
# Elastic Compliance Matrix: (Units=1/GPa)
#
#
# Indices 1 2 3 4 5 6 
#
# 1 0.020621 -0.007601 -0.007038 0.000000 -0.006320 0.000000
# 2 -0.007601 0.022402 -0.006785 0.000000 -0.005003 0.000000
# 3 -0.007038 -0.006785 0.016218 0.000000 0.005460 0.000000
# 4 0.000000 0.000000 0.000000 0.038049 0.000000 -0.004118
# 5 -0.006320 -0.005003 0.005460 0.000000 0.042250 0.000000
# 6 0.000000 0.000000 0.000000 -0.004118 0.000000 0.034398
#
#
# Mechanical properties :
#
#
# Convention : Reuss Voigt Hill
#
# Bulk Modulus (GPa) = 60.99768 65.67056 63.33412
# Shear Modulus (GPa) = 22.49744 24.47955 23.48849
#
# Velocity S-wave (km/s) = 3.55319 3.70642 3.63061
# Velocity P-wave (km/s) = 7.14594 7.42765 7.28815
#
# Compressibility (1/GPa) = 0.01639407
#
# Stress axis : x y z
#
# Youngs Moduli (GPa) = 48.49523 44.63950 61.66043
#
# Poissons Ratio (x) = 0.33929 0.43394
# Poissons Ratio (y) = 0.36860 0.41835
# Poissons Ratio (z) = 0.34129 0.30287
#
# Static dielectric constant tensor:
#      x y z
#    x 3.165320 0.000000 -0.072750 
#    y 0.000000 3.365140 0.000000 
#    z -0.072750 0.000000 3.124150 
# 
# 
# High freq. dielectric constant tensor:
#      x y z
#    x 1.695670 0.000000 -0.003800 
#    y 0.000000 1.693000 0.000000 
#    z -0.003800 0.000000 1.673500 
# 
# From -- ./inp_files/244129.got.cif
#   From: 2010.06.25/outbox.cif.g09.slc.cpg/sg12_123_cif.got.tgz:244129.got - 2010.06.28 00:19:55.
