data_PCOD8096533
_publ_section_title
;
Structure prediction by ZEFSAII (Michael W. Deem and Ramdas Pophale) SiO2 
 PCOD8096533
Probable space group: C 2/M
;
_chemical_formula_sum "Si O2"
_cell_formula_units_Z 56
_cell_length_a 30.613391
_cell_length_b 11.442606
_cell_length_c 24.124072
_cell_angle_alpha 90.000000
_cell_angle_beta 20.215870
_cell_angle_gamma 90.000000
_cell_volume 2920.169884
_symmetry_space_group_name_H-M "C 2/M"
_symmetry_group_IT_number 12
_symmetry_cell_setting 'monoclinic'
loop_
_space_group_symop_operation_xyz
x,y,z
-x,y,-z
-x,-y,-z
x,-y,z
1/2+x,1/2+y,z
1/2-x,1/2+y,-z
1/2-x,1/2-y,-z
1/2+x,1/2-y,z
loop_
_atom_site_type_symbol
_atom_site_label
_atom_site_fract_x
_atom_site_fract_y
_atom_site_fract_z
Si Si1 0.352120 0.742562 0.017778
Si Si2 0.091215 0.631137 0.697282
Si Si3 0.314614 0.366091 0.951071
Si Si4 0.256141 0.214501 0.582072
Si Si5 0.093496 0.137947 0.341267
Si Si6 0.988148 0.868121 0.075227
Si Si7 0.454475 0.368700 0.397452
O O1 0.231427 0.809104 0.185176
O O2 0.446069 0.827696 0.872184
O O3 0.309837 0.644104 0.023587
O O4 0.421473 0.694309 0.988955
O O5 0.096369 0.500000 0.712386
O O6 0.180462 0.701968 0.631506
O O7 0.143777 0.638217 0.571938
O O8 0.261235 0.500000 0.999344
O O9 0.461160 0.364342 0.758492
O O10 0.250000 0.250000 0.000000
O O11 0.157612 0.133428 0.731837
O O12 0.330930 0.290039 0.538324
O O13 0.038795 0.179166 0.347526
O O14 0.000000 0.185540 0.500000
O O15 0.108020 0.000000 0.327382
O O16 0.036005 0.000000 0.014482
O O17 0.000000 0.809406 0.000000
O O18 0.408219 0.500000 0.465313
#
# Coordination Sequence:
#
# PCOD8096533 Si02
#       7
#     8   8   8   8   8   8   8
#     4  11  21  38  61  86 116 155 196 250 298 362
#     4  10  20  33  54  85 118 149 188 242 297 349
#     4  11  22  38  60  91 124 159 200 247 307 368
#     4  10  20  35  56  84 113 151 193 234 293 349
#     4  10  22  38  59  85 116 159 202 244 296 359
#     4  10  23  41  60  81 111 154 199 245 295 353
#     4  10  20  36  58  84 118 152 191 240 296 354
#
# _framework density 19.176966
#
# number of rings (size 3 to 8) (size 9 to 14) (size 15 to 20)
#    0.000    1.714    2.857    1.714    2.000    0.571 
#    0.000    0.000    0.000    4.286    0.000    0.000 
#    0.000    0.000    0.000    0.000    0.000    0.000 
#
# Total GULP energy -347082.661668 kJ/mol
# GULP energy per Si atom -12395.809345 kJ/mol
# Density = 1.913332 g / cm^3
# Si number density = 19.176966 Si / 1000 Ang^3
#
#
#
# Elastic Constant Matrix: (Units=GPa)
#
#
# Indices 1 2 3 4 5 6 
#
# 1 105.4382 26.0578 48.8676 -0.0001 9.6191 -0.0003
# 2 26.0578 78.3151 32.0660 -0.0003 -1.2555 -0.0006
# 3 48.8676 32.0660 133.1962 -0.0002 5.2140 -0.0003
# 4 -0.0001 -0.0003 -0.0002 19.4954 -0.0001 7.0752
# 5 9.6191 -1.2555 5.2140 -0.0001 33.1617 0.0002
# 6 -0.0003 -0.0006 -0.0003 7.0752 0.0002 12.5591
#
#
#
# Elastic Compliance Matrix: (Units=1/GPa)
#
#
# Indices 1 2 3 4 5 6 
#
# 1 0.012112 -0.002560 -0.003709 0.000000 -0.003027 0.000000
# 2 -0.002560 0.014745 -0.002678 0.000000 0.001722 0.000001
# 3 -0.003709 -0.002678 0.009534 0.000000 -0.000525 0.000000
# 4 0.000000 0.000000 0.000000 0.064476 0.000000 -0.036323
# 5 -0.003027 0.001722 -0.000525 0.000000 0.031181 -0.000001
# 6 0.000000 0.000001 0.000000 -0.036323 -0.000001 0.100087
#
#
# Mechanical properties :
#
#
# Convention : Reuss Voigt Hill
#
# Bulk Modulus (GPa) = 54.06300 58.99247 56.52774
# Shear Modulus (GPa) = 19.51649 27.04044 23.27846
#
# Velocity S-wave (km/s) = 3.19361 3.75913 3.48785
# Velocity P-wave (km/s) = 6.46929 7.04772 6.76469
#
# Compressibility (1/GPa) = 0.01849694
#
# Stress axis : x y z
#
# Youngs Moduli (GPa) = 82.56254 67.82071 104.89125
#
# Poissons Ratio (x) = 0.17362 0.38903
# Poissons Ratio (y) = 0.21136 0.28089
# Poissons Ratio (z) = 0.30622 0.18162
#
# Static dielectric constant tensor:
#      x y z
#    x 3.505860 0.000000 0.115490 
#    y 0.000000 3.457120 0.000000 
#    z 0.115490 0.000000 3.607780 
# 
# 
# High freq. dielectric constant tensor:
#      x y z
#    x 1.745010 0.000000 0.001610 
#    y 0.000000 1.736010 0.000000 
#    z 0.001610 0.000000 1.745470 
# 
# From -- ./inp_files/164893.got.cif
#   From: 2010.06.25/outbox.cif.g09.slc.cpg/sg12_83_cif.got.tgz:164893.got - 2010.06.28 00:19:55.
