data_PCOD8096548
_publ_section_title
;
Structure prediction by ZEFSAII (Michael W. Deem and Ramdas Pophale) SiO2 
 PCOD8096548
Probable space group: C 2/M
;
_chemical_formula_sum "Si O2"
_cell_formula_units_Z 56
_cell_length_a 31.673204
_cell_length_b 13.623796
_cell_length_c 14.266511
_cell_angle_alpha 90.000000
_cell_angle_beta 26.213139
_cell_angle_gamma 90.000000
_cell_volume 2719.234800
_symmetry_space_group_name_H-M "C 2/M"
_symmetry_group_IT_number 12
_symmetry_cell_setting 'monoclinic'
loop_
_space_group_symop_operation_xyz
x,y,z
-x,y,-z
-x,-y,-z
x,-y,z
1/2+x,1/2+y,z
1/2-x,1/2+y,-z
1/2-x,1/2-y,-z
1/2+x,1/2-y,z
loop_
_atom_site_type_symbol
_atom_site_label
_atom_site_fract_x
_atom_site_fract_y
_atom_site_fract_z
Si Si1 0.163964 0.721501 0.382499
Si Si2 0.602859 0.893583 0.832500
Si Si3 0.105436 0.389126 0.317742
Si Si4 0.545974 0.777532 0.125224
Si Si5 0.946040 0.891101 0.017858
Si Si6 0.801483 0.613633 0.062082
Si Si7 0.266550 0.110076 0.587577
O O1 0.157844 0.672523 0.293450
O O2 0.201082 0.833778 0.291561
O O3 0.239343 0.671315 0.303628
O O4 0.063371 0.700577 0.633359
O O5 0.663555 0.841204 0.629059
O O6 0.649422 0.000000 0.766320
O O7 0.500000 0.915595 0.000000
O O8 0.596106 0.825909 0.935593
O O9 0.089117 0.500000 0.386767
O O10 0.000000 0.346347 0.500000
O O11 0.182680 0.387889 0.080494
O O12 0.541794 0.662737 0.106708
O O13 0.610736 0.816641 0.080362
O O14 0.834561 0.893564 0.262737
O O15 0.988847 0.000000 0.918803
O O16 0.000000 0.840539 0.000000
O O17 0.803591 0.500000 0.095768
O O18 0.302410 0.000000 0.541036
#
# Coordination Sequence:
#
# PCOD8096548 Si02
#       7
#     8   8   8   8   8   8   8
#     4  12  23  39  67  98 126 170 216 267 319 392
#     4  10  20  33  54  89 125 156 202 266 320 369
#     4  10  21  40  69 100 131 165 211 270 329 385
#     4  12  23  38  64  92 125 170 216 263 320 387
#     4  10  23  42  61  85 125 171 217 266 318 381
#     4  11  25  44  64  97 136 170 211 268 333 389
#     4  10  21  38  61  92 123 162 216 266 318 378
#
# _framework density 20.594028999999999
#
# number of rings (size 3 to 8) (size 9 to 14) (size 15 to 20)
#    0.000    1.286    4.286    1.714    0.000    3.429 
#    0.000    1.429    0.000    0.429    0.000    0.000 
#    0.000    0.000    0.000    0.000    0.000    0.000 
#
# Total GULP energy -346897.298638 kJ/mol
# GULP energy per Si atom -12389.189237 kJ/mol
# Density = 2.054716 g / cm^3
# Si number density = 20.594029 Si / 1000 Ang^3
#
#
#
# Elastic Constant Matrix: (Units=GPa)
#
#
# Indices 1 2 3 4 5 6 
#
# 1 106.2997 42.7974 35.0027 0.0000 1.2672 0.0000
# 2 42.7974 101.0113 32.9803 0.0000 8.0238 0.0000
# 3 35.0027 32.9803 76.7130 0.0000 8.7100 0.0000
# 4 0.0000 0.0000 0.0000 30.5689 0.0000 4.1455
# 5 1.2672 8.0238 8.7100 0.0000 28.9834 0.0000
# 6 0.0000 0.0000 0.0000 4.1455 0.0000 34.7855
#
#
#
# Elastic Compliance Matrix: (Units=1/GPa)
#
#
# Indices 1 2 3 4 5 6 
#
# 1 0.012367 -0.004041 -0.004111 0.000000 0.001814 0.000000
# 2 -0.004041 0.012925 -0.003444 0.000000 -0.002366 0.000000
# 3 -0.004111 -0.003444 0.016838 0.000000 -0.003927 0.000000
# 4 0.000000 0.000000 0.000000 0.033250 0.000000 -0.003963
# 5 0.001814 -0.002366 -0.003927 0.000000 0.036258 0.000000
# 6 0.000000 0.000000 0.000000 -0.003963 0.000000 0.029220
#
#
# Mechanical properties :
#
#
# Convention : Reuss Voigt Hill
#
# Bulk Modulus (GPa) = 52.80834 56.17609 54.49221
# Shear Modulus (GPa) = 29.34923 30.41713 29.88318
#
# Velocity S-wave (km/s) = 3.77919 3.84733 3.81341
# Velocity P-wave (km/s) = 6.68889 6.86098 6.77548
#
# Compressibility (1/GPa) = 0.01893640
#
# Stress axis : x y z
#
# Youngs Moduli (GPa) = 80.86331 77.37220 59.39007
#
# Poissons Ratio (x) = 0.31269 0.24416
# Poissons Ratio (y) = 0.32680 0.20453
# Poissons Ratio (z) = 0.33244 0.26646
#
# Static dielectric constant tensor:
#      x y z
#    x 3.631070 0.000000 -0.097340 
#    y 0.000000 3.943510 0.000000 
#    z -0.097340 0.000000 3.436770 
# 
# 
# High freq. dielectric constant tensor:
#      x y z
#    x 1.798580 0.000000 0.000140 
#    y 0.000000 1.802870 0.000000 
#    z 0.000140 0.000000 1.803900 
# 
# From -- ./inp_files/189626.got.cif
#   From: 2010.06.25/outbox.cif.g09.slc.cpg/sg12_95_cif.got.tgz:189626.got - 2010.06.28 00:19:55.
