data_PCOD8096108
_publ_section_title
;
Structure prediction by ZEFSAII (Michael W. Deem and Ramdas Pophale) SiO2 
 PCOD8096108
Probable space group: C 2/M
;
_chemical_formula_sum "Si O2"
_cell_formula_units_Z 56
_cell_length_a 18.637346
_cell_length_b 8.777322
_cell_length_c 20.218836
_cell_angle_alpha 90.000000
_cell_angle_beta 60.724843
_cell_angle_gamma 90.000000
_cell_volume 2885.086588
_symmetry_space_group_name_H-M "C 2/M"
_symmetry_group_IT_number 12
_symmetry_cell_setting 'monoclinic'
loop_
_space_group_symop_operation_xyz
x,y,z
-x,y,-z
-x,-y,-z
x,-y,z
1/2+x,1/2+y,z
1/2-x,1/2+y,-z
1/2-x,1/2-y,-z
1/2+x,1/2-y,z
loop_
_atom_site_type_symbol
_atom_site_label
_atom_site_fract_x
_atom_site_fract_y
_atom_site_fract_z
Si Si1 0.484593 0.679915 0.403810
Si Si2 0.838078 0.321705 0.145130
Si Si3 0.481529 0.821834 0.886632
Si Si4 0.464524 0.675195 0.266756
Si Si5 0.216959 0.173561 0.701243
Si Si6 0.131650 0.820070 0.429972
Si Si7 0.818903 0.179720 0.015844
O O1 0.476160 0.500000 0.403861
O O2 0.481925 0.747128 0.331085
O O3 0.408263 0.737961 0.483074
O O4 0.570542 0.725920 0.398058
O O5 0.828123 0.500000 0.136947
O O6 0.782469 0.274410 0.232608
O O7 0.803459 0.232525 0.097722
O O8 0.933200 0.278023 0.115746
O O9 0.484465 0.774301 0.808625
O O10 0.463029 0.000000 0.900597
O O11 0.409698 0.731105 0.954611
O O12 0.493793 0.500000 0.247853
O O13 0.368228 0.690275 0.298241
O O14 0.283877 0.232510 0.619243
O O15 0.234558 0.000000 0.713451
O O16 0.147543 0.000000 0.423887
O O17 0.811894 0.000000 0.014468
O O18 0.750000 0.250000 0.000000
#
# Coordination Sequence:
#
# PCOD8096108 Si02
#       7
#     8   8   8   8   8   8   8
#     4   8  16  32  53  74  98 136 182 222 264 320
#     4  10  21  39  61  82 108 144 183 223 270 325
#     4  10  21  38  59  83 111 143 181 224 272 326
#     4   9  18  34  54  76 104 139 180 222 266 321
#     4  10  20  33  51  78 109 139 174 219 269 321
#     4   9  17  32  53  74 100 137 180 223 269 322
#     4  12  25  40  59  84 114 145 180 222 268 319
#
# _framework density 19.410163000000001
#
# number of rings (size 3 to 8) (size 9 to 14) (size 15 to 20)
#    0.000    2.286    0.000    3.857    0.000    5.714 
#    0.000    7.143    0.000    0.000    0.000    0.000 
#    0.000    0.000    0.000    0.000    0.000    0.000 
#
# Total GULP energy -347243.775251 kJ/mol
# GULP energy per Si atom -12401.563402 kJ/mol
# Density = 1.936598 g / cm^3
# Si number density = 19.410163 Si / 1000 Ang^3
#
#
#
# Elastic Constant Matrix: (Units=GPa)
#
#
# Indices 1 2 3 4 5 6 
#
# 1 37.3911 20.7168 11.6753 0.0000 19.4529 0.0000
# 2 20.7168 76.4605 14.4702 0.0000 4.8344 0.0002
# 3 11.6753 14.4702 57.2425 0.0000 17.5937 -0.0001
# 4 0.0000 0.0000 0.0000 34.4384 0.0000 -2.4253
# 5 19.4529 4.8344 17.5937 0.0000 41.0999 0.0000
# 6 0.0000 0.0002 -0.0001 -2.4253 0.0000 23.5422
#
#
#
# Elastic Compliance Matrix: (Units=1/GPa)
#
#
# Indices 1 2 3 4 5 6 
#
# 1 0.042182 -0.010194 -0.000298 0.000000 -0.018639 0.000000
# 2 -0.010194 0.016200 -0.003355 0.000000 0.004356 0.000000
# 3 -0.000298 -0.003355 0.020973 0.000000 -0.008442 0.000000
# 4 0.000000 0.000000 0.000000 0.029250 0.000000 0.003013
# 5 -0.018639 0.004356 -0.008442 0.000000 0.036254 0.000000
# 6 0.000000 0.000000 0.000000 0.003013 0.000000 0.042787
#
#
# Mechanical properties :
#
#
# Convention : Reuss Voigt Hill
#
# Bulk Modulus (GPa) = 19.35663 29.42429 24.39046
# Shear Modulus (GPa) = 21.49967 28.09822 24.79895
#
# Velocity S-wave (km/s) = 3.33175 3.80887 3.57827
# Velocity P-wave (km/s) = 4.97944 5.87668 5.44657
#
# Compressibility (1/GPa) = 0.05166189
#
# Stress axis : x y z
#
# Youngs Moduli (GPa) = 23.70653 61.72733 47.68008
#
# Poissons Ratio (x) = 0.62927 0.01421
# Poissons Ratio (y) = 0.24167 0.15995
# Poissons Ratio (z) = 0.00706 0.20707
#
# Static dielectric constant tensor:
#      x y z
#    x 3.562780 0.000000 0.207280 
#    y 0.000000 3.417290 0.000000 
#    z 0.207280 0.000000 3.860590 
# 
# 
# High freq. dielectric constant tensor:
#      x y z
#    x 1.748340 0.000000 0.004420 
#    y 0.000000 1.744130 0.000000 
#    z 0.004420 0.000000 1.767950 
# 
# From -- ./inp_files/313714.got.cif
#   From: 2010.06.25/outbox.cif.g09.slc.cpg/sg12_157_cif.got.tgz:313714.got - 2010.06.28 00:19:55.
