data_PCOD8096501
_publ_section_title
;
Structure prediction by ZEFSAII (Michael W. Deem and Ramdas Pophale) SiO2 
 PCOD8096501
Probable space group: C 2/M
;
_chemical_formula_sum "Si O2"
_cell_formula_units_Z 32
_cell_length_a 11.634213
_cell_length_b 20.090786
_cell_length_c 7.472695
_cell_angle_alpha 90.000000
_cell_angle_beta 57.514039
_cell_angle_gamma 90.000000
_cell_volume 1473.357580
_symmetry_space_group_name_H-M "C 2/M"
_symmetry_group_IT_number 12
_symmetry_cell_setting 'monoclinic'
loop_
_space_group_symop_operation_xyz
x,y,z
-x,y,-z
-x,-y,-z
x,-y,z
1/2+x,1/2+y,z
1/2-x,1/2+y,-z
1/2-x,1/2-y,-z
1/2+x,1/2-y,z
loop_
_atom_site_type_symbol
_atom_site_label
_atom_site_fract_x
_atom_site_fract_y
_atom_site_fract_z
Si Si1 0.049702 0.425673 0.661651
Si Si2 0.268205 0.323018 0.399868
Si Si3 0.325337 0.834110 0.928379
Si Si4 0.949532 0.796366 0.736064
O O1 0.085729 0.500000 0.697272
O O2 0.179894 0.377872 0.581778
O O3 0.000000 0.426156 0.500000
O O4 0.921104 0.397774 0.884068
O O5 0.250000 0.250000 0.500000
O O6 0.224724 0.326092 0.232549
O O7 0.429703 0.340176 0.276614
O O8 0.415266 0.767724 0.889209
O O9 0.190480 0.839453 0.165688
O O10 0.000000 0.771342 0.500000
#
# Coordination Sequence:
#
# PCOD8096501 Si02
#       4
#     8   8   8   8
#     4   9  18  35  58  81 109 143 182 226 270 321
#     4  11  18  33  55  84 111 137 181 230 271 320
#     4  10  20  33  54  82 110 140 180 226 278 317
#     4  11  20  33  52  83 109 140 180 230 275 314
#
# _framework density 21.719097000000001
#
# number of rings (size 3 to 8) (size 9 to 14) (size 15 to 20)
#    0.000    1.750    5.000    1.500    0.000    0.000 
#    0.000    2.500    0.000   10.500    0.000    0.000 
#    0.000    0.000    0.000    0.000    0.000    0.000 
#
# Total GULP energy -198283.682379 kJ/mol
# GULP energy per Si atom -12392.730149 kJ/mol
# Density = 2.166966 g / cm^3
# Si number density = 21.719097 Si / 1000 Ang^3
#
#
#
# Elastic Constant Matrix: (Units=GPa)
#
#
# Indices 1 2 3 4 5 6 
#
# 1 88.3012 47.6866 29.9831 0.0000 -43.3736 0.0000
# 2 47.6866 153.4143 50.3588 0.0000 -43.7499 0.0000
# 3 29.9831 50.3588 117.5985 0.0000 -57.8344 0.0000
# 4 0.0000 0.0000 0.0000 25.6500 0.0000 -9.4034
# 5 -43.3736 -43.7499 -57.8344 0.0000 47.7552 0.0000
# 6 0.0000 0.0000 0.0000 -9.4034 0.0000 30.2680
#
#
#
# Elastic Compliance Matrix: (Units=1/GPa)
#
#
# Indices 1 2 3 4 5 6 
#
# 1 0.026439 -0.001567 0.012447 0.000000 0.037652 0.000000
# 2 -0.001567 0.008928 -0.000250 0.000000 0.006453 0.000000
# 3 0.012447 -0.000250 0.026914 0.000000 0.043670 0.000000
# 4 0.000000 0.000000 0.000000 0.043997 0.000000 0.013669
# 5 0.037652 0.006453 0.043670 0.000000 0.113938 0.000000
# 6 0.000000 0.000000 0.000000 0.013669 0.000000 0.037285
#
#
# Mechanical properties :
#
#
# Convention : Reuss Voigt Hill
#
# Bulk Modulus (GPa) = 11.96999 68.37456 40.17228
# Shear Modulus (GPa) = 18.93319 36.15367 27.54343
#
# Velocity S-wave (km/s) = 2.95571 4.08438 3.56500
# Velocity P-wave (km/s) = 4.14386 7.33434 5.95668
#
# Compressibility (1/GPa) = 0.08354227
#
# Stress axis : x y z
#
# Youngs Moduli (GPa) = 37.82248 112.01213 37.15551
#
# Poissons Ratio (x) = 0.17547 -0.46248
# Poissons Ratio (y) = 0.05925 0.00928
# Poissons Ratio (z) = -0.47078 0.02799
#
# Static dielectric constant tensor:
#      x y z
#    x 4.404060 0.000000 -0.634350 
#    y 0.000000 3.828720 0.000000 
#    z -0.634350 0.000000 4.344360 
# 
# 
# High freq. dielectric constant tensor:
#      x y z
#    x 1.858420 0.000000 -0.019160 
#    y 0.000000 1.799520 0.000000 
#    z -0.019160 0.000000 1.861840 
# 
# From -- ./inp_files/47776.got.cif
#   From: 2010.06.25/outbox.cif.g09.slc.cpg/sg12_24_cif.got.tgz:47776.got - 2010.06.28 00:19:55.
