data_PCOD8096174
_publ_section_title
;
Structure prediction by ZEFSAII (Michael W. Deem and Ramdas Pophale) SiO2 
 PCOD8096174
Probable space group: C 2/M
;
_chemical_formula_sum "Si O2"
_cell_formula_units_Z 44
_cell_length_a 15.067375
_cell_length_b 25.971587
_cell_length_c 10.903675
_cell_angle_alpha 90.000000
_cell_angle_beta 34.275330
_cell_angle_gamma 90.000000
_cell_volume 2402.972097
_symmetry_space_group_name_H-M "C 2/M"
_symmetry_group_IT_number 12
_symmetry_cell_setting 'monoclinic'
loop_
_space_group_symop_operation_xyz
x,y,z
-x,y,-z
-x,-y,-z
x,-y,z
1/2+x,1/2+y,z
1/2-x,1/2+y,-z
1/2-x,1/2-y,-z
1/2+x,1/2-y,z
loop_
_atom_site_type_symbol
_atom_site_label
_atom_site_fract_x
_atom_site_fract_y
_atom_site_fract_z
Si Si1 0.204205 0.396355 0.142918
Si Si2 0.500000 0.737167 0.500000
Si Si3 0.880856 0.709790 0.393736
Si Si4 0.198523 0.000000 0.659856
Si Si5 0.780057 0.699633 0.041940
Si Si6 0.850991 0.000000 0.994816
Si Si7 0.835149 0.604383 0.539058
O O1 0.263240 0.349963 0.990467
O O2 0.282258 0.449419 0.006557
O O3 0.253674 0.388038 0.228833
O O4 0.019003 0.401545 0.347771
O O5 0.545120 0.774652 0.559938
O O6 0.346165 0.701239 0.702199
O O7 0.750000 0.750000 0.500000
O O8 0.794283 0.654730 0.504718
O O9 0.034219 0.702167 0.128592
O O10 0.194950 0.000000 0.810503
O O11 0.283082 0.946831 0.525055
O O12 0.037326 0.000000 0.770179
O O13 0.750000 0.750000 0.000000
#
# Coordination Sequence:
#
# PCOD8096174 Si02
#       7
#     8   4   8   4   8   4   8
#     4   9  16  29  49  68  94 132 164 196 245 300
#     4  10  20  36  50  70 104 132 168 212 244 294
#     4  10  20  33  52  76 101 133 170 204 252 302
#     4   9  17  25  39  67 100 127 154 200 251 293
#     4   9  18  32  50  71  96 129 165 203 247 291
#     4   9  17  27  41  68  98 127 162 196 243 299
#     4   9  16  29  46  69  99 127 160 200 244 300
#
# _framework density 18.310658
#
# number of rings (size 3 to 8) (size 9 to 14) (size 15 to 20)
#    0.000    2.727    0.000    3.818    0.000    5.818 
#    0.000    3.636    0.000    0.545    0.000    1.273 
#    0.000    8.727    0.000    0.000    0.000    0.000 
#
# Total GULP energy -272581.063935 kJ/mol
# GULP energy per Si atom -12390.048361 kJ/mol
# Density = 1.826898 g / cm^3
# Si number density = 18.310658 Si / 1000 Ang^3
#
#
#
# Elastic Constant Matrix: (Units=GPa)
#
#
# Indices 1 2 3 4 5 6 
#
# 1 34.3190 32.6168 14.8381 -0.0006 -11.0549 0.0000
# 2 32.6168 179.1781 55.1726 0.0001 -13.7865 0.0000
# 3 14.8381 55.1726 101.5250 -0.0011 0.1958 0.0002
# 4 -0.0006 0.0001 -0.0011 27.6665 0.0008 -3.9820
# 5 -11.0549 -13.7865 0.1958 0.0008 14.4287 -0.0001
# 6 0.0000 0.0000 0.0002 -3.9820 -0.0001 31.5740
#
#
#
# Elastic Compliance Matrix: (Units=1/GPa)
#
#
# Indices 1 2 3 4 5 6 
#
# 1 0.045009 -0.004600 -0.004137 0.000000 0.030146 0.000000
# 2 -0.004600 0.007833 -0.003592 0.000000 0.004009 0.000000
# 3 -0.004137 -0.003592 0.012420 0.000001 -0.006770 0.000000
# 4 0.000000 0.000000 0.000001 0.036813 -0.000002 0.004643
# 5 0.030146 0.004009 -0.006770 -0.000002 0.096326 0.000000
# 6 0.000000 0.000000 0.000000 0.004643 0.000000 0.032257
#
#
# Mechanical properties :
#
#
# Convention : Reuss Voigt Hill
#
# Bulk Modulus (GPa) = 24.62786 57.80854 41.21820
# Shear Modulus (GPa) = 18.59773 28.89348 23.74561
#
# Velocity S-wave (km/s) = 3.19043 3.97666 3.60504
# Velocity P-wave (km/s) = 5.20106 7.26117 6.31568
#
# Compressibility (1/GPa) = 0.04060442
#
# Stress axis : x y z
#
# Youngs Moduli (GPa) = 22.21758 127.66595 80.51844
#
# Poissons Ratio (x) = 0.58727 0.33307
# Poissons Ratio (y) = 0.10220 0.28923
# Poissons Ratio (z) = 0.09190 0.45859
#
# Static dielectric constant tensor:
#      x y z
#    x 2.968580 0.000000 -0.083670 
#    y 0.000000 3.558230 0.000000 
#    z -0.083670 0.000000 3.911050 
# 
# 
# High freq. dielectric constant tensor:
#      x y z
#    x 1.654320 0.000000 -0.025630 
#    y 0.000000 1.725580 0.000000 
#    z -0.025630 0.000000 1.703760 
# 
# From -- ./inp_files/66434.got.cif
#   From: 2010.06.25/outbox.cif.g09.slc.cpg/sg12_34_cif.got.tgz:66434.got - 2010.06.28 00:19:55.
