data_PCOD8096921
_publ_section_title
;
Structure prediction by ZEFSAII (Michael W. Deem and Ramdas Pophale) SiO2 
 PCOD8096921
Probable space group: C 2/M
;
_chemical_formula_sum "Si O2"
_cell_formula_units_Z 64
_cell_length_a 28.512811
_cell_length_b 9.071883
_cell_length_c 18.676345
_cell_angle_alpha 90.000000
_cell_angle_beta 137.794003
_cell_angle_gamma 90.000000
_cell_volume 3245.399390
_symmetry_space_group_name_H-M "C 2/M"
_symmetry_group_IT_number 12
_symmetry_cell_setting 'monoclinic'
loop_
_space_group_symop_operation_xyz
x,y,z
-x,y,-z
-x,-y,-z
x,-y,z
1/2+x,1/2+y,z
1/2-x,1/2+y,-z
1/2-x,1/2-y,-z
1/2+x,1/2-y,z
loop_
_atom_site_type_symbol
_atom_site_label
_atom_site_fract_x
_atom_site_fract_y
_atom_site_fract_z
Si Si1 0.075362 0.827512 0.167529
Si Si2 0.452550 0.175872 0.112330
Si Si3 0.186068 0.839260 0.400188
Si Si4 0.145731 0.827883 0.099657
Si Si5 0.931211 0.326734 0.377823
Si Si6 0.797130 0.672037 0.319554
Si Si7 0.374366 0.662037 0.519335
Si Si8 0.472044 0.324482 0.287755
O O1 0.012606 0.729832 0.126079
O O2 0.146530 0.772771 0.286895
O O3 0.088891 0.804316 0.098787
O O4 0.060576 0.000000 0.168408
O O5 0.458734 0.244673 0.197767
O O6 0.454083 0.000000 0.119613
O O7 0.379396 0.231894 0.996294
O O8 0.250000 0.750000 0.500000
O O9 0.130103 0.845045 0.400292
O O10 0.214442 0.000000 0.411772
O O11 0.222846 0.767965 0.207262
O O12 0.148749 0.000000 0.081953
O O13 0.934338 0.500000 0.364990
O O14 0.861218 0.283012 0.341225
O O15 0.921634 0.239099 0.292267
O O16 0.000000 0.277317 0.500000
O O17 0.790273 0.500000 0.322012
O O18 0.814448 0.735964 0.417613
O O19 0.364688 0.500000 0.474561
O O20 0.452348 0.720573 0.594750
O O21 0.463408 0.500000 0.268124
#
# Coordination Sequence:
#
# PCOD8096921 Si02
#       8
#     8   8   8   8   8   8   8   8
#     4  10  20  38  60  83 116 156 201 244 288 351
#     4  12  25  40  61  87 117 153 199 254 302 344
#     4  10  20  34  51  79 117 155 194 237 287 344
#     4  10  22  40  62  85 115 160 203 240 289 352
#     4  10  20  36  60  93 127 153 187 240 295 347
#     4  10  21  38  61  88 121 158 194 235 291 356
#     4  10  20  34  55  82 117 153 190 239 287 342
#     4  11  22  39  62  87 117 154 198 239 288 353
#
# _framework density 19.720222
#
# number of rings (size 3 to 8) (size 9 to 14) (size 15 to 20)
#    0.000    1.625    2.500    2.625    0.000    5.750 
#    0.000    0.625    0.000    0.000    0.000    0.000 
#    0.000    0.000    0.000    0.000    0.000    0.000 
#
# Total GULP energy -396721.188537 kJ/mol
# GULP energy per Si atom -12397.537142 kJ/mol
# Density = 1.967534 g / cm^3
# Si number density = 19.720222 Si / 1000 Ang^3
#
#
#
# Elastic Constant Matrix: (Units=GPa)
#
#
# Indices 1 2 3 4 5 6 
#
# 1 62.7003 29.8607 27.9025 0.0000 -9.0664 0.0000
# 2 29.8607 77.9664 54.6434 0.0000 -7.2368 0.0000
# 3 27.9025 54.6434 120.4316 0.0000 -7.7481 0.0000
# 4 0.0000 0.0000 0.0000 34.3868 0.0000 -3.1653
# 5 -9.0664 -7.2368 -7.7481 0.0000 23.1973 0.0000
# 6 0.0000 0.0000 0.0000 -3.1653 0.0000 27.2346
#
#
#
# Elastic Compliance Matrix: (Units=1/GPa)
#
#
# Indices 1 2 3 4 5 6 
#
# 1 0.020395 -0.006212 -0.001552 0.000000 0.005515 0.000000
# 2 -0.006212 0.020917 -0.007959 0.000000 0.001439 0.000000
# 3 -0.001552 -0.007959 0.012341 0.000000 0.001032 0.000000
# 4 0.000000 0.000000 0.000000 0.029395 0.000000 0.003416
# 5 0.005515 0.001439 0.001032 0.000000 0.046058 0.000000
# 6 0.000000 0.000000 0.000000 0.003416 0.000000 0.037115
#
#
# Mechanical properties :
#
#
# Convention : Reuss Voigt Hill
#
# Bulk Modulus (GPa) = 45.02962 53.99019 49.50990
# Shear Modulus (GPa) = 24.38214 26.87652 25.62933
#
# Velocity S-wave (km/s) = 3.52007 3.69574 3.60897
# Velocity P-wave (km/s) = 6.27734 6.75639 6.52127
#
# Compressibility (1/GPa) = 0.02220761
#
# Stress axis : x y z
#
# Youngs Moduli (GPa) = 49.03089 47.80902 81.03329
#
# Poissons Ratio (x) = 0.29697 0.12578
# Poissons Ratio (y) = 0.30456 0.64492
# Poissons Ratio (z) = 0.07610 0.38050
#
# Static dielectric constant tensor:
#      x y z
#    x 3.755130 0.000000 -0.046250 
#    y 0.000000 3.442960 0.000000 
#    z -0.046250 0.000000 3.714760 
# 
# 
# High freq. dielectric constant tensor:
#      x y z
#    x 1.765440 0.000000 -0.004360 
#    y 0.000000 1.755800 0.000000 
#    z -0.004360 0.000000 1.774130 
# 
# From -- ./inp_files/295769.got.cif
#   From: 2010.06.25/outbox.cif.g09.slc.cpg/sg12_148_cif.got.tgz:295769.got - 2010.06.28 00:19:55.
