data_PCOD8096492
_publ_section_title
;
Structure prediction by ZEFSAII (Michael W. Deem and Ramdas Pophale) SiO2 
 PCOD8096492
Probable space group: C 2/M
;
_chemical_formula_sum "Si O2"
_cell_formula_units_Z 56
_cell_length_a 19.078202
_cell_length_b 8.862075
_cell_length_c 20.044316
_cell_angle_alpha 90.000000
_cell_angle_beta 123.066419
_cell_angle_gamma 90.000000
_cell_volume 2840.064148
_symmetry_space_group_name_H-M "C 2/M"
_symmetry_group_IT_number 12
_symmetry_cell_setting 'monoclinic'
loop_
_space_group_symop_operation_xyz
x,y,z
-x,y,-z
-x,-y,-z
x,-y,z
1/2+x,1/2+y,z
1/2-x,1/2+y,-z
1/2-x,1/2-y,-z
1/2+x,1/2-y,z
loop_
_atom_site_type_symbol
_atom_site_label
_atom_site_fract_x
_atom_site_fract_y
_atom_site_fract_z
Si Si1 0.796672 0.826422 0.724627
Si Si2 0.755105 0.677431 0.930145
Si Si3 0.168391 0.322998 0.765704
Si Si4 0.016755 0.327086 0.317329
Si Si5 0.314360 0.678316 0.583940
Si Si6 0.922471 0.173270 0.001975
Si Si7 0.982154 0.170077 0.816870
O O1 0.728788 0.752511 0.739530
O O2 0.793330 0.759727 0.647530
O O3 0.890392 0.803024 0.802463
O O4 0.771922 0.000000 0.706641
O O5 0.745472 0.500000 0.932752
O O6 0.683447 0.737689 0.843511
O O7 0.750000 0.750000 0.000000
O O8 0.843895 0.722746 0.943930
O O9 0.185969 0.500000 0.786738
O O10 0.072267 0.295695 0.692786
O O11 0.043518 0.500000 0.339161
O O12 0.091038 0.226430 0.386781
O O13 0.002210 0.291486 0.232014
O O14 0.308039 0.500000 0.576535
O O15 0.250000 0.750000 0.500000
O O16 0.944824 0.187419 0.091511
O O17 0.902011 0.000000 0.972070
O O18 0.000000 0.234854 0.000000
O O19 0.982535 0.000000 0.786565
#
# Coordination Sequence:
#
# PCOD8096492 Si02
#       7
#     8   8   8   8   8   8   8
#     4   8  16  33  57  81 104 137 179 218 261 315
#     4  12  25  38  53  76 109 149 192 238 286 332
#     4  10  20  37  58  79 106 141 184 229 272 325
#     4  10  20  33  54  81 106 135 171 214 264 318
#     4  10  20  37  61  85 111 141 174 213 256 313
#     4  10  20  35  55  77 104 141 184 231 284 337
#     4   9  17  31  52  74  99 136 180 222 263 316
#
# _framework density 19.717863999999999
#
# number of rings (size 3 to 8) (size 9 to 14) (size 15 to 20)
#    0.000    2.143    0.000    4.714    0.000    6.571 
#    0.000    7.143    0.000    4.286    0.000    0.000 
#    0.000    0.000    0.000    0.000    0.000    0.000 
#
# Total GULP energy -347158.567715 kJ/mol
# GULP energy per Si atom -12398.520276 kJ/mol
# Density = 1.967299 g / cm^3
# Si number density = 19.717864 Si / 1000 Ang^3
#
#
#
# Elastic Constant Matrix: (Units=GPa)
#
#
# Indices 1 2 3 4 5 6 
#
# 1 94.3095 31.1495 21.1792 0.0000 12.3913 0.0000
# 2 31.1495 79.0482 31.3903 0.0000 8.9135 0.0000
# 3 21.1792 31.3903 80.8087 0.0000 17.5335 0.0000
# 4 0.0000 0.0000 0.0000 30.2812 0.0000 5.2670
# 5 12.3913 8.9135 17.5335 0.0000 27.0392 0.0000
# 6 0.0000 0.0000 0.0000 5.2670 0.0000 25.7474
#
#
#
# Elastic Compliance Matrix: (Units=1/GPa)
#
#
# Indices 1 2 3 4 5 6 
#
# 1 0.012700 -0.004233 -0.000843 0.000000 -0.003878 0.000000
# 2 -0.004233 0.016411 -0.005252 0.000000 -0.000065 0.000000
# 3 -0.000843 -0.005252 0.016498 0.000000 -0.008580 0.000000
# 4 0.000000 0.000000 0.000000 0.034242 0.000000 -0.007005
# 5 -0.003878 -0.000065 -0.008580 0.000000 0.044346 0.000000
# 6 0.000000 0.000000 0.000000 -0.007005 0.000000 0.040272
#
#
# Mechanical properties :
#
#
# Convention : Reuss Voigt Hill
#
# Bulk Modulus (GPa) = 40.07257 46.84493 43.45875
# Shear Modulus (GPa) = 25.84768 27.97673 26.91220
#
# Velocity S-wave (km/s) = 3.62453 3.77085 3.69841
# Velocity P-wave (km/s) = 6.15495 6.53975 6.35026
#
# Compressibility (1/GPa) = 0.02495472
#
# Stress axis : x y z
#
# Youngs Moduli (GPa) = 78.73873 60.93440 60.61514
#
# Poissons Ratio (x) = 0.25791 0.05110
# Poissons Ratio (y) = 0.33327 0.31832
# Poissons Ratio (z) = 0.06638 0.32000
#
# Static dielectric constant tensor:
#      x y z
#    x 3.869680 0.000000 0.065360 
#    y 0.000000 3.386030 0.000000 
#    z 0.065360 0.000000 3.477410 
# 
# 
# High freq. dielectric constant tensor:
#      x y z
#    x 1.779760 0.000000 0.013470 
#    y 0.000000 1.746160 0.000000 
#    z 0.013470 0.000000 1.750960 
# 
# From -- ./inp_files/319341.got.cif
#   From: 2010.06.25/outbox.cif.g09.slc.cpg/sg12_160_cif.got.tgz:319341.got - 2010.06.28 00:19:55.
