data_PCOD8096116
_publ_section_title
;
Structure prediction by ZEFSAII (Michael W. Deem and Ramdas Pophale) SiO2 
 PCOD8096116
Probable space group: C 2/M
;
_chemical_formula_sum "Si O2"
_cell_formula_units_Z 48
_cell_length_a 26.791528
_cell_length_b 9.542047
_cell_length_c 14.427839
_cell_angle_alpha 90.000000
_cell_angle_beta 138.841212
_cell_angle_gamma 90.000000
_cell_volume 2427.526317
_symmetry_space_group_name_H-M "C 2/M"
_symmetry_group_IT_number 12
_symmetry_cell_setting 'monoclinic'
loop_
_space_group_symop_operation_xyz
x,y,z
-x,y,-z
-x,-y,-z
x,-y,z
1/2+x,1/2+y,z
1/2-x,1/2+y,-z
1/2-x,1/2-y,-z
1/2+x,1/2-y,z
loop_
_atom_site_type_symbol
_atom_site_label
_atom_site_fract_x
_atom_site_fract_y
_atom_site_fract_z
Si Si1 0.364881 0.661913 0.141291
Si Si2 0.926674 0.663953 0.845311
Si Si3 0.999921 0.338826 0.392915
Si Si4 0.237769 0.661456 0.328395
Si Si5 0.743336 0.157917 0.123694
Si Si6 0.873725 0.339920 0.573546
O O1 0.378291 0.500000 0.136881
O O2 0.444478 0.738553 0.259536
O O3 0.320307 0.684772 0.174939
O O4 0.319727 0.730619 0.993501
O O5 0.929351 0.500000 0.869684
O O6 0.847165 0.721928 0.775622
O O7 0.928294 0.696803 0.737375
O O8 0.000000 0.733058 0.000000
O O9 0.973305 0.500000 0.345844
O O10 0.081837 0.316102 0.460671
O O11 0.000000 0.293125 0.500000
O O12 0.241752 0.500000 0.365601
O O13 0.262382 0.680770 0.256876
O O14 0.298355 0.746511 0.473902
O O15 0.713021 0.000000 0.062412
O O16 0.846655 0.500000 0.544195
#
# Coordination Sequence:
#
# PCOD8096116 Si02
#       6
#     8   8   8   8   8   8
#     4  10  20  33  51  78 110 143 182 229 274 317
#     4   9  19  35  57  84 108 139 186 229 271 326
#     4  10  21  35  53  78 109 147 187 222 266 324
#     4  10  20  35  59  83 108 143 182 227 275 326
#     4   9  19  34  53  78 107 144 183 220 271 329
#     4  10  21  36  57  82 111 147 183 226 274 323
#
# _framework density 19.773215
#
# number of rings (size 3 to 8) (size 9 to 14) (size 15 to 20)
#    0.000    2.333    0.000    2.000    2.333    2.333 
#    0.000    0.000    0.000    1.000    0.000    0.000 
#    0.000    0.000    0.000    0.000    0.000    0.000 
#
# Total GULP energy -297593.781244 kJ/mol
# GULP energy per Si atom -12399.740885 kJ/mol
# Density = 1.972821 g / cm^3
# Si number density = 19.773215 Si / 1000 Ang^3
#
#
#
# Elastic Constant Matrix: (Units=GPa)
#
#
# Indices 1 2 3 4 5 6 
#
# 1 81.0632 20.0697 43.2048 0.0000 -0.5377 0.0000
# 2 20.0697 75.5994 51.2758 0.0000 13.8552 0.0000
# 3 43.2048 51.2758 124.5092 0.0000 17.3971 0.0000
# 4 0.0000 0.0000 0.0000 29.3117 0.0000 5.2737
# 5 -0.5377 13.8552 17.3971 0.0000 29.1115 0.0000
# 6 0.0000 0.0000 0.0000 5.2737 0.0000 13.4902
#
#
#
# Elastic Compliance Matrix: (Units=1/GPa)
#
#
# Indices 1 2 3 4 5 6 
#
# 1 0.015586 -0.001159 -0.005508 0.000000 0.004131 0.000000
# 2 -0.001159 0.019024 -0.006726 0.000000 -0.005056 0.000000
# 3 -0.005508 -0.006726 0.013399 0.000000 -0.004908 0.000000
# 4 0.000000 0.000000 0.000000 0.036697 0.000000 -0.014346
# 5 0.004131 -0.005056 -0.004908 0.000000 0.039766 0.000000
# 6 0.000000 0.000000 0.000000 -0.014346 0.000000 0.079736
#
#
# Mechanical properties :
#
#
# Convention : Reuss Voigt Hill
#
# Bulk Modulus (GPa) = 47.12003 56.69694 51.90848
# Shear Modulus (GPa) = 21.00236 25.49077 23.24656
#
# Velocity S-wave (km/s) = 3.26262 3.59438 3.43251
# Velocity P-wave (km/s) = 6.17048 6.77952 6.48216
#
# Compressibility (1/GPa) = 0.02122240
#
# Stress axis : x y z
#
# Youngs Moduli (GPa) = 64.15923 52.56585 74.63474
#
# Poissons Ratio (x) = 0.06091 0.41112
# Poissons Ratio (y) = 0.07434 0.50199
# Poissons Ratio (z) = 0.35342 0.35355
#
# Static dielectric constant tensor:
#      x y z
#    x 3.604760 0.000000 -0.016710 
#    y 0.000000 3.415930 0.000000 
#    z -0.016710 0.000000 3.518280 
# 
# 
# High freq. dielectric constant tensor:
#      x y z
#    x 1.777410 0.000000 -0.003420 
#    y 0.000000 1.746440 0.000000 
#    z -0.003420 0.000000 1.767570 
# 
# From -- ./inp_files/244602.got.cif
#   From: 2010.06.25/outbox.cif.g09.slc.cpg/sg12_123_cif.got.tgz:244602.got - 2010.06.28 00:19:55.
