data_PCOD8096927
_publ_section_title
;
Structure prediction by ZEFSAII (Michael W. Deem and Ramdas Pophale) SiO2 
 PCOD8096927
Probable space group: C 2/M
;
_chemical_formula_sum "Si O2"
_cell_formula_units_Z 64
_cell_length_a 9.175377
_cell_length_b 19.416073
_cell_length_c 24.838601
_cell_angle_alpha 90.000000
_cell_angle_beta 123.648656
_cell_angle_gamma 90.000000
_cell_volume 3683.588618
_symmetry_space_group_name_H-M "C 2/M"
_symmetry_group_IT_number 12
_symmetry_cell_setting 'monoclinic'
loop_
_space_group_symop_operation_xyz
x,y,z
-x,y,-z
-x,-y,-z
x,-y,z
1/2+x,1/2+y,z
1/2-x,1/2+y,-z
1/2-x,1/2-y,-z
1/2+x,1/2-y,z
loop_
_atom_site_type_symbol
_atom_site_label
_atom_site_fract_x
_atom_site_fract_y
_atom_site_fract_z
Si Si1 0.646322 0.421449 0.818225
Si Si2 0.770453 0.081907 0.571085
Si Si3 0.808353 0.078551 0.818225
Si Si4 0.942801 0.418093 0.571085
Si Si5 0.522524 0.679279 0.065904
Si Si6 0.675186 0.179278 0.065904
Si Si7 0.547250 0.082121 0.307107
Si Si8 0.125928 0.917879 0.692893
O O1 0.714289 0.500000 0.832838
O O2 0.451473 0.416198 0.800982
O O3 0.780965 0.377641 0.880851
O O4 0.638469 0.391085 0.756481
O O5 0.721534 0.105263 0.500000
O O6 0.622263 0.109160 0.581509
O O7 0.955728 0.113042 0.627869
O O8 0.777269 0.000000 0.574897
O O9 0.861586 0.122360 0.880851
O O10 0.630972 0.108914 0.756481
O O11 0.784227 0.000000 0.832839
O O12 0.947424 0.500000 0.574898
O O13 0.927879 0.386958 0.627869
O O14 0.632142 0.750000 0.088095
O O15 0.334192 0.689526 0.056129
O O16 0.500000 0.653765 0.000000
O O17 0.500000 0.153764 0.000000
O O18 0.706250 0.110354 0.304166
O O19 0.544587 0.000000 0.309026
O O20 0.117509 0.000000 0.690975
#
# Coordination Sequence:
#
# PCOD8096927 Si02
#       8
#     8   8   8   8   8   8   8   8
#     4   9  18  32  48  66  90 121 154 185 221 268
#     4   8  13  21  33  49  73 110 151 184 217 262
#     4   9  18  32  48  66  90 121 154 185 221 268
#     4   8  13  21  33  49  73 110 151 184 217 262
#     4  10  20  34  52  71  92 119 149 184 225 268
#     4  10  20  34  52  71  92 119 149 184 225 268
#     4   9  16  24  36  57  84 113 145 184 228 266
#     4   9  16  24  36  57  84 113 145 184 228 266
#
# _framework density 17.374359999999999
#
# number of rings (size 3 to 8) (size 9 to 14) (size 15 to 20)
#    0.000    3.000    0.000    3.000    0.000    6.000 
#    0.000    2.500    0.000    0.000    0.000    0.000 
#    0.000    1.000    0.000    3.250    0.000    6.500 
#
# Total GULP energy -396643.726171 kJ/mol
# GULP energy per Si atom -12395.116443 kJ/mol
# Density = 1.733482 g / cm^3
# Si number density = 17.374360 Si / 1000 Ang^3
#
#
#
# Elastic Constant Matrix: (Units=GPa)
#
#
# Indices 1 2 3 4 5 6 
#
# 1 112.3046 32.9393 90.8769 0.0000 3.1456 0.0000
# 2 32.9393 35.5357 55.5139 0.0000 1.7715 0.0000
# 3 90.8769 55.5139 176.7412 -0.0001 1.9114 0.0000
# 4 0.0000 0.0000 -0.0001 0.5993 0.0000 -1.0369
# 5 3.1456 1.7715 1.9114 0.0000 30.6588 0.0000
# 6 0.0000 0.0000 0.0000 -1.0369 0.0000 13.8154
#
#
#
# Elastic Compliance Matrix: (Units=1/GPa)
#
#
# Indices 1 2 3 4 5 6 
#
# 1 0.015529 -0.003709 -0.006809 0.000000 -0.000954 0.000000
# 2 -0.003709 0.056275 -0.015748 -0.000002 -0.001889 0.000000
# 3 -0.006809 -0.015748 0.014098 0.000001 0.000730 0.000000
# 4 0.000000 -0.000002 0.000001 1.917456 0.000003 0.143907
# 5 -0.000954 -0.001889 0.000730 0.000003 0.032779 0.000000
# 6 0.000000 0.000000 0.000000 0.143907 0.000000 0.083183
#
#
# Mechanical properties :
#
#
# Convention : Reuss Voigt Hill
#
# Bulk Modulus (GPa) = 29.96868 75.91573 52.94221
# Shear Modulus (GPa) = 2.29045 18.69816 10.49430
#
# Velocity S-wave (km/s) = 1.14942 3.28410 2.46033
# Velocity P-wave (km/s) = 4.36438 7.62688 6.21358
#
# Compressibility (1/GPa) = 0.03336816
#
# Stress axis : x y z
#
# Youngs Moduli (GPa) = 64.39472 17.76997 70.93333
#
# Poissons Ratio (x) = 0.06592 0.48301
# Poissons Ratio (y) = 0.23886 1.11706
# Poissons Ratio (z) = 0.43849 0.27984
#
# Static dielectric constant tensor:
#      x y z
#    x 3.381860 0.000000 0.008920 
#    y 0.000000 2.693300 0.000000 
#    z 0.008920 0.000000 3.495450 
# 
# 
# High freq. dielectric constant tensor:
#      x y z
#    x 1.678070 0.000000 0.000840 
#    y 0.000000 1.603320 0.000000 
#    z 0.000840 0.000000 1.688840 
# 
# From -- ./inp_files/302128.got.cif
#   From: 2010.06.25/outbox.cif.g09.slc.cpg/sg12_152_cif.got.tgz:302128.got - 2010.06.28 00:19:55.
