data_PCOD8096697
_publ_section_title
;
Structure prediction by ZEFSAII (Michael W. Deem and Ramdas Pophale) SiO2 
 PCOD8096697
Probable space group: C 2/M
;
_chemical_formula_sum "Si O2"
_cell_formula_units_Z 56
_cell_length_a 20.579241
_cell_length_b 23.682750
_cell_length_c 9.566447
_cell_angle_alpha 90.000000
_cell_angle_beta 137.307751
_cell_angle_gamma 90.000000
_cell_volume 3161.407178
_symmetry_space_group_name_H-M "C 2/M"
_symmetry_group_IT_number 12
_symmetry_cell_setting 'monoclinic'
loop_
_space_group_symop_operation_xyz
x,y,z
-x,y,-z
-x,-y,-z
x,-y,z
1/2+x,1/2+y,z
1/2-x,1/2+y,-z
1/2-x,1/2-y,-z
1/2+x,1/2-y,z
loop_
_atom_site_type_symbol
_atom_site_label
_atom_site_fract_x
_atom_site_fract_y
_atom_site_fract_z
Si Si1 0.909169 0.740549 0.162756
Si Si2 0.913852 0.835921 0.954906
Si Si3 0.283603 0.159979 0.798641
Si Si4 0.465630 0.435129 0.227394
Si Si5 0.231200 0.686382 0.518193
Si Si6 0.129517 0.256011 0.583735
Si Si7 0.655059 0.435237 0.694254
O O1 0.876369 0.793897 0.017688
O O2 0.857350 0.735713 0.230012
O O3 0.020742 0.750580 0.363553
O O4 0.875266 0.684359 0.027259
O O5 0.946886 0.896161 0.065024
O O6 0.827451 0.846358 0.711849
O O7 0.000000 0.808421 0.000000
O O8 0.315879 0.152461 0.686856
O O9 0.190329 0.200342 0.646368
O O10 0.250004 0.101268 0.813598
O O11 0.452439 0.500000 0.161689
O O12 0.573392 0.424272 0.449961
O O13 0.389151 0.418892 0.225913
O O14 0.250000 0.750000 0.500000
O O15 0.164874 0.689326 0.551957
O O16 0.687974 0.500000 0.744976
#
# Coordination Sequence:
#
# PCOD8096697 Si02
#       7
#     8   8   8   8   8   8   8
#     4  11  22  32  54  75 106 144 178 220 273 320
#     4  12  21  31  52  77 109 152 180 219 264 324
#     4  11  20  34  54  77 105 146 174 217 271 324
#     4   9  19  34  52  78 108 146 183 222 270 320
#     4  10  20  34  47  72 111 140 177 217 262 319
#     4  10  21  35  47  79 109 134 180 221 262 332
#     4   9  18  34  55  78 108 140 185 228 262 323
#
# _framework density 17.713630999999999
#
# number of rings (size 3 to 8) (size 9 to 14) (size 15 to 20)
#    0.000    1.714    2.857    5.571    2.000    2.571 
#    0.000    0.714    0.000    0.000    0.000    5.000 
#    0.000    0.000    0.000    0.000    0.000    0.000 
#
# Total GULP energy -347042.960330 kJ/mol
# GULP energy per Si atom -12394.391440 kJ/mol
# Density = 1.767331 g / cm^3
# Si number density = 17.713631 Si / 1000 Ang^3
#
#
#
# Elastic Constant Matrix: (Units=GPa)
#
#
# Indices 1 2 3 4 5 6 
#
# 1 67.5830 15.6500 15.3371 0.0000 -22.7512 0.0000
# 2 15.6500 58.9621 21.1689 0.0000 -5.2590 0.0000
# 3 15.3371 21.1689 86.0632 0.0000 -16.0954 0.0000
# 4 0.0000 0.0000 0.0000 29.1592 0.0000 0.1678
# 5 -22.7512 -5.2590 -16.0954 0.0000 27.0422 0.0000
# 6 0.0000 0.0000 0.0000 0.1678 0.0000 25.2432
#
#
#
# Elastic Compliance Matrix: (Units=1/GPa)
#
#
# Indices 1 2 3 4 5 6 
#
# 1 0.021633 -0.004353 0.000519 0.000000 0.017662 0.000000
# 2 -0.004353 0.019503 -0.004498 0.000000 -0.002546 0.000000
# 3 0.000519 -0.004498 0.014123 0.000000 0.007968 0.000000
# 4 0.000000 0.000000 0.000000 0.034296 0.000000 -0.000228
# 5 0.017662 -0.002546 0.007968 0.000000 0.056086 0.000000
# 6 0.000000 0.000000 0.000000 -0.000228 0.000000 0.039616
#
#
# Mechanical properties :
#
#
# Convention : Reuss Voigt Hill
#
# Bulk Modulus (GPa) = 25.90959 35.21339 30.56149
# Shear Modulus (GPa) = 23.27899 26.98575 25.13237
#
# Velocity S-wave (km/s) = 3.62910 3.90737 3.77080
# Velocity P-wave (km/s) = 5.67619 6.34658 6.02073
#
# Compressibility (1/GPa) = 0.03859574
#
# Stress axis : x y z
#
# Youngs Moduli (GPa) = 46.22620 51.27407 70.80470
#
# Poissons Ratio (x) = 0.22318 -0.03673
# Poissons Ratio (y) = 0.20121 0.31845
# Poissons Ratio (z) = -0.02398 0.23061
#
# Static dielectric constant tensor:
#      x y z
#    x 3.610530 0.000000 -0.331610 
#    y 0.000000 2.990520 0.000000 
#    z -0.331610 0.000000 3.398550 
# 
# 
# High freq. dielectric constant tensor:
#      x y z
#    x 1.684880 0.000000 -0.021800 
#    y 0.000000 1.644590 0.000000 
#    z -0.021800 0.000000 1.690350 
# 
# From -- ./inp_files/90444.got.cif
#   From: 2010.06.25/outbox.cif.g09.slc.cpg/sg12_46_cif.got.tgz:90444.got - 2010.06.28 00:19:55.
