data_PCOD8096893
_publ_section_title
;
Structure prediction by ZEFSAII (Michael W. Deem and Ramdas Pophale) SiO2 
 PCOD8096893
Probable space group: C 2/M
;
_chemical_formula_sum "Si O2"
_cell_formula_units_Z 64
_cell_length_a 21.719541
_cell_length_b 9.529053
_cell_length_c 19.215110
_cell_angle_alpha 90.000000
_cell_angle_beta 59.131690
_cell_angle_gamma 90.000000
_cell_volume 3413.556304
_symmetry_space_group_name_H-M "C 2/M"
_symmetry_group_IT_number 12
_symmetry_cell_setting 'monoclinic'
loop_
_space_group_symop_operation_xyz
x,y,z
-x,y,-z
-x,-y,-z
x,-y,z
1/2+x,1/2+y,z
1/2-x,1/2+y,-z
1/2-x,1/2-y,-z
1/2+x,1/2-y,z
loop_
_atom_site_type_symbol
_atom_site_label
_atom_site_fract_x
_atom_site_fract_y
_atom_site_fract_z
Si Si1 0.343629 0.345078 0.832818
Si Si2 0.037615 0.662459 0.629073
Si Si3 0.047263 0.333924 0.909425
Si Si4 0.467214 0.163412 0.817214
Si Si5 0.287483 0.833643 0.179783
Si Si6 0.300069 0.842739 0.663734
Si Si7 0.694412 0.152383 0.498925
Si Si8 0.920141 0.156391 0.641160
O O1 0.342197 0.500000 0.868620
O O2 0.389190 0.240574 0.856038
O O3 0.261187 0.297028 0.861202
O O4 0.383150 0.353039 0.736975
O O5 0.022649 0.500000 0.618266
O O6 0.116963 0.710368 0.564313
O O7 0.017458 0.690068 0.721291
O O8 0.995376 0.766370 0.603190
O O9 0.043451 0.500000 0.909984
O O10 0.129506 0.288332 0.876575
O O11 0.012874 0.278265 0.856713
O O12 0.000000 0.272456 0.000000
O O13 0.448534 0.000000 0.837047
O O14 0.260792 0.744064 0.260900
O O15 0.279620 0.000000 0.200598
O O16 0.282009 0.857232 0.594229
O O17 0.373530 0.756294 0.619744
O O18 0.308685 0.000000 0.691708
O O19 0.750000 0.250000 0.500000
O O20 0.700319 0.000000 0.530187
O O21 0.929216 0.000000 0.604199
#
# Coordination Sequence:
#
# PCOD8096893 Si02
#       8
#     8   8   8   8   8   8   8   8
#     4   8  15  29  48  74 103 132 167 208 255 303
#     4   9  18  33  51  73 100 134 171 212 260 309
#     4   9  18  33  54  81 107 131 169 219 262 308
#     4   9  17  30  53  78  99 132 173 209 255 308
#     4   9  18  33  56  79 102 137 177 215 260 313
#     4  10  20  34  51  75 104 136 171 213 263 307
#     4  10  23  37  49  69 102 139 177 219 262 303
#     4   9  17  31  52  77 101 131 172 214 257 304
#
# _framework density 18.748775999999999
#
# number of rings (size 3 to 8) (size 9 to 14) (size 15 to 20)
#    0.000    2.875    0.000    1.500    1.750    5.000 
#    0.000    3.750    0.000    1.500    0.000    0.000 
#    0.000    0.000    0.000    0.000    0.000    0.000 
#
# Total GULP energy -396461.760026 kJ/mol
# GULP energy per Si atom -12389.430001 kJ/mol
# Density = 1.870610 g / cm^3
# Si number density = 18.748776 Si / 1000 Ang^3
#
#
#
# Elastic Constant Matrix: (Units=GPa)
#
#
# Indices 1 2 3 4 5 6 
#
# 1 149.8352 61.1507 47.0746 0.0000 -28.6323 -0.0001
# 2 61.1507 89.0949 30.6343 -0.0002 -12.6270 -0.0002
# 3 47.0746 30.6343 69.1319 -0.0001 -17.6085 0.0001
# 4 0.0000 -0.0002 -0.0001 13.4008 0.0001 -1.8485
# 5 -28.6323 -12.6270 -17.6085 0.0001 23.4807 0.0000
# 6 -0.0001 -0.0002 0.0001 -1.8485 0.0000 34.1974
#
#
#
# Elastic Compliance Matrix: (Units=1/GPa)
#
#
# Indices 1 2 3 4 5 6 
#
# 1 0.011669 -0.005665 -0.003198 0.000000 0.008785 0.000000
# 2 -0.005665 0.016210 -0.003541 0.000000 -0.000846 0.000000
# 3 -0.003198 -0.003541 0.020685 0.000000 0.009707 0.000000
# 4 0.000000 0.000000 0.000000 0.075183 0.000000 0.004064
# 5 0.008785 -0.000846 0.009707 0.000000 0.060125 0.000000
# 6 0.000000 0.000000 0.000000 0.004064 0.000000 0.029462
#
#
# Mechanical properties :
#
#
# Convention : Reuss Voigt Hill
#
# Bulk Modulus (GPa) = 42.09577 65.08678 53.59127
# Shear Modulus (GPa) = 20.32025 25.49596 22.90811
#
# Velocity S-wave (km/s) = 3.29571 3.69165 3.49928
# Velocity P-wave (km/s) = 6.08141 7.27747 6.70616
#
# Compressibility (1/GPa) = 0.02375536
#
# Stress axis : x y z
#
# Youngs Moduli (GPa) = 85.69405 61.69190 48.34475
#
# Poissons Ratio (x) = 0.34946 0.15463
# Poissons Ratio (y) = 0.48542 0.17120
# Poissons Ratio (z) = 0.27409 0.21846
#
# Static dielectric constant tensor:
#      x y z
#    x 3.651810 0.000000 -0.167150 
#    y 0.000000 3.512930 0.000000 
#    z -0.167150 0.000000 2.966240 
# 
# 
# High freq. dielectric constant tensor:
#      x y z
#    x 1.732740 0.000000 -0.008780 
#    y 0.000000 1.718280 0.000000 
#    z -0.008780 0.000000 1.702040 
# 
# From -- ./inp_files/319869.got.cif
#   From: 2010.06.25/outbox.cif.g09.slc.cpg/sg12_160_cif.got.tgz:319869.got - 2010.06.28 00:19:55.
