data_PCOD8096210
_publ_section_title
;
Structure prediction by ZEFSAII (Michael W. Deem and Ramdas Pophale) SiO2 
 PCOD8096210
Probable space group: C 2/M
;
_chemical_formula_sum "Si O2"
_cell_formula_units_Z 64
_cell_length_a 14.382617
_cell_length_b 9.325929
_cell_length_c 27.022275
_cell_angle_alpha 90.000000
_cell_angle_beta 105.483654
_cell_angle_gamma 90.000000
_cell_volume 3492.985540
_symmetry_space_group_name_H-M "C 2/M"
_symmetry_group_IT_number 12
_symmetry_cell_setting 'monoclinic'
loop_
_space_group_symop_operation_xyz
x,y,z
-x,y,-z
-x,-y,-z
x,-y,z
1/2+x,1/2+y,z
1/2-x,1/2+y,-z
1/2-x,1/2-y,-z
1/2+x,1/2-y,z
loop_
_atom_site_type_symbol
_atom_site_label
_atom_site_fract_x
_atom_site_fract_y
_atom_site_fract_z
Si Si1 0.909893 0.666859 0.126629
Si Si2 0.608925 0.331992 0.506667
Si Si3 0.028514 0.164502 0.773528
Si Si4 0.507074 0.333336 0.057640
Si Si5 0.236008 0.833338 0.760782
Si Si6 0.333344 0.333864 0.692331
Si Si7 0.297372 0.664052 0.860336
Si Si8 0.220865 0.833840 0.425023
O O1 0.935139 0.500000 0.127815
O O2 0.798269 0.696224 0.122026
O O3 0.976545 0.738520 0.178232
O O4 0.930415 0.739923 0.077045
O O5 0.500000 0.276234 0.500000
O O6 0.615375 0.500000 0.518641
O O7 0.680327 0.253942 0.554910
O O8 0.641961 0.294072 0.455556
O O9 0.940684 0.204625 0.725377
O O10 0.124438 0.196041 0.756160
O O11 0.024350 0.000000 0.790717
O O12 0.480758 0.500000 0.060270
O O13 0.614241 0.298427 0.091640
O O14 0.500000 0.285091 0.000000
O O15 0.256554 0.761135 0.711070
O O16 0.302788 0.761840 0.812358
O O17 0.261336 0.000000 0.762092
O O18 0.308943 0.500000 0.697953
O O19 0.326903 0.293267 0.633898
O O20 0.300226 0.500000 0.842502
O O21 0.248701 0.000000 0.432153
#
# Coordination Sequence:
#
# PCOD8096210 Si02
#       8
#     8   8   8   8   8   8   8   8
#     4  10  20  34  53  76 101 129 164 207 251 295
#     4   9  18  34  56  77  99 132 172 212 252 294
#     4   9  19  35  53  73 100 135 169 200 243 300
#     4  10  21  36  53  73  98 131 169 205 248 305
#     4  10  20  33  52  78 102 129 170 211 244 289
#     4  10  20  34  51  72 104 140 166 198 249 302
#     4   9  19  36  54  72 100 135 165 200 252 305
#     4   9  19  34  51  75 104 133 168 207 250 299
#
# _framework density 18.322434999999999
#
# number of rings (size 3 to 8) (size 9 to 14) (size 15 to 20)
#    0.000    2.500    0.000    1.500    0.000    7.500 
#    0.000    2.500    0.000    0.000    0.000    0.000 
#    0.000    0.000    0.000    0.000    0.000    0.000 
#
# Total GULP energy -396930.065225 kJ/mol
# GULP energy per Si atom -12404.064538 kJ/mol
# Density = 1.828073 g / cm^3
# Si number density = 18.322435 Si / 1000 Ang^3
#
#
#
# Elastic Constant Matrix: (Units=GPa)
#
#
# Indices 1 2 3 4 5 6 
#
# 1 86.1109 37.2713 45.4937 0.0000 -3.2813 0.0000
# 2 37.2713 67.0460 48.5667 0.0000 -7.9781 0.0000
# 3 45.4937 48.5667 124.4337 0.0000 -6.7911 0.0000
# 4 0.0000 0.0000 0.0000 31.0079 0.0000 -4.4664
# 5 -3.2813 -7.9781 -6.7911 0.0000 22.0657 0.0000
# 6 0.0000 0.0000 0.0000 -4.4664 0.0000 28.8454
#
#
#
# Elastic Compliance Matrix: (Units=1/GPa)
#
#
# Indices 1 2 3 4 5 6 
#
# 1 0.016268 -0.006718 -0.003383 0.000000 -0.001051 0.000000
# 2 -0.006718 0.024150 -0.006659 0.000000 0.005683 0.000000
# 3 -0.003383 -0.006659 0.011914 0.000000 0.000756 0.000000
# 4 0.000000 0.000000 0.000000 0.032985 0.000000 0.005107
# 5 -0.001051 0.005683 0.000756 0.000000 0.047450 0.000000
# 6 0.000000 0.000000 0.000000 0.005107 0.000000 0.035458
#
#
# Mechanical properties :
#
#
# Convention : Reuss Voigt Hill
#
# Bulk Modulus (GPa) = 53.16118 60.02822 56.59470
# Shear Modulus (GPa) = 24.03656 26.13441 25.08548
#
# Velocity S-wave (km/s) = 3.62590 3.78082 3.70417
# Velocity P-wave (km/s) = 6.82691 7.20366 7.01781
#
# Compressibility (1/GPa) = 0.01881072
#
# Stress axis : x y z
#
# Youngs Moduli (GPa) = 61.47079 41.40807 83.93701
#
# Poissons Ratio (x) = 0.27818 0.28396
# Poissons Ratio (y) = 0.41296 0.55898
# Poissons Ratio (z) = 0.20795 0.27576
#
# Static dielectric constant tensor:
#      x y z
#    x 3.433210 0.000000 -0.042100 
#    y 0.000000 3.372880 0.000000 
#    z -0.042100 0.000000 3.375950 
# 
# 
# High freq. dielectric constant tensor:
#      x y z
#    x 1.715460 0.000000 -0.003520 
#    y 0.000000 1.708390 0.000000 
#    z -0.003520 0.000000 1.706430 
# 
# From -- ./inp_files/359697.got.cif
#   From: 2010.06.25/outbox.cif.g09.slc.cpg/sg12_180_cif.got.tgz:359697.got - 2010.06.28 00:19:55.
