data_PCOD8096894
_publ_section_title
;
Structure prediction by ZEFSAII (Michael W. Deem and Ramdas Pophale) SiO2 
 PCOD8096894
Probable space group: C 2/M
;
_chemical_formula_sum "Si O2"
_cell_formula_units_Z 64
_cell_length_a 20.410738
_cell_length_b 8.814605
_cell_length_c 21.710531
_cell_angle_alpha 90.000000
_cell_angle_beta 112.031086
_cell_angle_gamma 90.000000
_cell_volume 3620.783816
_symmetry_space_group_name_H-M "C 2/M"
_symmetry_group_IT_number 12
_symmetry_cell_setting 'monoclinic'
loop_
_space_group_symop_operation_xyz
x,y,z
-x,y,-z
-x,-y,-z
x,-y,z
1/2+x,1/2+y,z
1/2-x,1/2+y,-z
1/2-x,1/2-y,-z
1/2+x,1/2-y,z
loop_
_atom_site_type_symbol
_atom_site_label
_atom_site_fract_x
_atom_site_fract_y
_atom_site_fract_z
Si Si1 0.536036 0.318063 0.449360
Si Si2 0.077354 0.320998 0.043908
Si Si3 0.525461 0.334989 0.693407
Si Si4 0.674226 0.179294 0.965748
Si Si5 0.177706 0.679072 0.451266
Si Si6 0.426744 0.681819 0.164435
Si Si7 0.078112 0.179388 0.171007
Si Si8 0.867477 0.833209 0.683712
O O1 0.500000 0.266334 0.500000
O O2 0.543665 0.500000 0.447142
O O3 0.484302 0.252959 0.376436
O O4 0.613706 0.247199 0.469376
O O5 0.075436 0.500000 0.050095
O O6 0.105710 0.253065 0.117865
O O7 0.129234 0.267142 0.008483
O O8 0.000000 0.256522 0.000000
O O9 0.558822 0.500000 0.691980
O O10 0.572435 0.256303 0.763680
O O11 0.448456 0.354714 0.694900
O O12 0.640172 0.243427 0.891410
O O13 0.679157 0.000000 0.962613
O O14 0.750000 0.250000 0.000000
O O15 0.179015 0.500000 0.460361
O O16 0.250000 0.750000 0.500000
O O17 0.170616 0.717581 0.376127
O O18 0.421047 0.500000 0.162049
O O19 0.498081 0.736499 0.155352
O O20 0.131677 0.228487 0.245374
O O21 0.079141 0.000000 0.164971
O O22 0.830767 0.000000 0.666478
#
# Coordination Sequence:
#
# PCOD8096894 Si02
#       8
#     8   8   8   8   8   8   8   8
#     4   9  17  32  55  80 107 138 172 212 259 308
#     4  10  20  34  51  75 105 132 163 210 259 298
#     4   7  12  25  47  74 101 128 162 203 246 298
#     4  11  23  37  52  71  99 134 170 209 253 303
#     4  11  21  33  52  77 106 141 179 216 256 306
#     4   9  16  29  50  75 101 130 165 204 250 301
#     4   9  17  29  52  81 105 130 164 210 256 302
#     4   8  15  30  49  74 105 133 166 209 257 303
#
# _framework density 17.675730000000001
#
# number of rings (size 3 to 8) (size 9 to 14) (size 15 to 20)
#    0.000    2.750    1.250    3.750    0.000    2.000 
#    0.000    5.000    2.750    0.000    0.000    0.000 
#    0.000    0.000    0.000    0.000    0.000    0.000 
#
# Total GULP energy -396498.786101 kJ/mol
# GULP energy per Si atom -12390.587066 kJ/mol
# Density = 1.763550 g / cm^3
# Si number density = 17.675730 Si / 1000 Ang^3
#
#
#
# Elastic Constant Matrix: (Units=GPa)
#
#
# Indices 1 2 3 4 5 6 
#
# 1 86.9313 33.5355 75.6934 0.0000 -1.1268 0.0000
# 2 33.5355 53.5262 44.7447 0.0000 1.5564 0.0000
# 3 75.6934 44.7447 177.0915 0.0000 -10.2295 0.0000
# 4 0.0000 0.0000 0.0000 27.1906 0.0000 0.6038
# 5 -1.1268 1.5564 -10.2295 0.0000 28.2843 0.0000
# 6 0.0000 0.0000 0.0000 0.6038 0.0000 21.4305
#
#
#
# Elastic Compliance Matrix: (Units=1/GPa)
#
#
# Indices 1 2 3 4 5 6 
#
# 1 0.020187 -0.006757 -0.006999 0.000000 -0.001355 0.000000
# 2 -0.006757 0.026299 -0.003938 0.000000 -0.003141 0.000000
# 3 -0.006999 -0.003938 0.009835 0.000000 0.003495 0.000000
# 4 0.000000 0.000000 0.000000 0.036800 0.000000 -0.001037
# 5 -0.001355 -0.003141 0.003495 0.000000 0.036738 0.000000
# 6 0.000000 0.000000 0.000000 -0.001037 0.000000 0.046692
#
#
# Mechanical properties :
#
#
# Convention : Reuss Voigt Hill
#
# Bulk Modulus (GPa) = 47.77297 69.49959 58.63628
# Shear Modulus (GPa) = 22.83947 26.28611 24.56279
#
# Velocity S-wave (km/s) = 3.59853 3.86052 3.73182
# Velocity P-wave (km/s) = 6.65973 7.69909 7.19820
#
# Compressibility (1/GPa) = 0.02093234
#
# Stress axis : x y z
#
# Youngs Moduli (GPa) = 49.53652 38.02374 101.67278
#
# Poissons Ratio (x) = 0.25693 0.71166
# Poissons Ratio (y) = 0.33473 0.40040
# Poissons Ratio (z) = 0.34673 0.14974
#
# Static dielectric constant tensor:
#      x y z
#    x 2.982770 0.000000 -0.206280 
#    y 0.000000 3.051370 0.000000 
#    z -0.206280 0.000000 3.848920 
# 
# 
# High freq. dielectric constant tensor:
#      x y z
#    x 1.639280 0.000000 -0.010340 
#    y 0.000000 1.663310 0.000000 
#    z -0.010340 0.000000 1.706660 
# 
# From -- ./inp_files/345592.got.cif
#   From: 2010.06.25/outbox.cif.g09.slc.cpg/sg12_173_cif.got.tgz:345592.got - 2010.06.28 00:19:55.
