data_PCOD8096454
_publ_section_title
;
Structure prediction by ZEFSAII (Michael W. Deem and Ramdas Pophale) SiO2 
 PCOD8096454
Probable space group: C 2/M
;
_chemical_formula_sum "Si O2"
_cell_formula_units_Z 56
_cell_length_a 11.443649
_cell_length_b 18.667019
_cell_length_c 17.905230
_cell_angle_alpha 90.000000
_cell_angle_beta 131.135786
_cell_angle_gamma 90.000000
_cell_volume 2880.729077
_symmetry_space_group_name_H-M "C 2/M"
_symmetry_group_IT_number 12
_symmetry_cell_setting 'monoclinic'
loop_
_space_group_symop_operation_xyz
x,y,z
-x,y,-z
-x,-y,-z
x,-y,z
1/2+x,1/2+y,z
1/2-x,1/2+y,-z
1/2-x,1/2-y,-z
1/2+x,1/2-y,z
loop_
_atom_site_type_symbol
_atom_site_label
_atom_site_fract_x
_atom_site_fract_y
_atom_site_fract_z
Si Si1 0.928342 0.360875 0.167274
Si Si2 0.373826 0.653949 0.787358
Si Si3 0.076730 0.721455 0.449622
Si Si4 0.045769 0.581763 0.667924
Si Si5 0.610755 0.198283 0.117857
Si Si6 0.057322 0.212626 0.744896
Si Si7 0.883504 0.921664 0.018714
O O1 0.982763 0.416450 0.254420
O O2 0.927719 0.283069 0.200490
O O3 0.043076 0.361585 0.145130
O O4 0.756997 0.372533 0.065032
O O5 0.222907 0.604873 0.728154
O O6 0.360808 0.723746 0.833638
O O7 0.404730 0.672098 0.712758
O O8 0.527371 0.610836 0.873844
O O9 0.250000 0.750000 0.500000
O O10 0.000000 0.732784 0.500000
O O11 0.067581 0.636752 0.423917
O O12 0.961406 0.768263 0.349993
O O13 0.017728 0.500000 0.628404
O O14 0.783427 0.168826 0.172867
O O15 0.500000 0.206165 0.000000
O O16 0.819257 0.000000 0.013510
O O17 0.000000 0.927759 0.000000
#
# Coordination Sequence:
#
# PCOD8096454 Si02
#       7
#     8   8   8   8   8   8   8
#     4  10  20  33  53  82 120 161 202 242 294 352
#     4  11  19  33  55  87 122 155 201 242 302 350
#     4  11  24  42  68  98 119 152 200 259 316 371
#     4  11  22  39  62  89 121 155 193 250 310 368
#     4  11  20  33  55  86 124 160 203 252 291 343
#     4  10  21  36  58  85 120 152 194 251 303 356
#     4  11  19  29  48  79 118 162 201 239 284 344
#
# _framework density 19.439523000000001
#
# number of rings (size 3 to 8) (size 9 to 14) (size 15 to 20)
#    0.000    1.286    4.286    3.857    4.000    2.571 
#    0.000    0.000    0.000    9.857    0.000    0.000 
#    0.000    0.000    0.000    0.000    0.000    0.000 
#
# Total GULP energy -346906.109188 kJ/mol
# GULP energy per Si atom -12389.503900 kJ/mol
# Density = 1.939528 g / cm^3
# Si number density = 19.439523 Si / 1000 Ang^3
#
#
#
# Elastic Constant Matrix: (Units=GPa)
#
#
# Indices 1 2 3 4 5 6 
#
# 1 116.3088 37.7121 41.0653 0.0000 -7.6819 0.0000
# 2 37.7121 76.7281 35.3534 0.0000 -1.9087 0.0000
# 3 41.0653 35.3534 77.4512 0.0000 1.1249 0.0000
# 4 0.0000 0.0000 0.0000 5.7822 0.0000 1.9267
# 5 -7.6819 -1.9087 1.1249 0.0000 34.7314 0.0000
# 6 0.0000 0.0000 0.0000 1.9267 0.0000 19.9084
#
#
#
# Elastic Compliance Matrix: (Units=1/GPa)
#
#
# Indices 1 2 3 4 5 6 
#
# 1 0.011499 -0.003500 -0.004536 0.000000 0.002498 0.000000
# 2 -0.003500 0.017616 -0.006191 0.000000 0.000394 0.000000
# 3 -0.004536 -0.006191 0.018170 0.000000 -0.001932 0.000000
# 4 0.000000 0.000000 0.000000 0.178706 0.000000 -0.017295
# 5 0.002498 0.000394 -0.001932 0.000000 0.029429 0.000000
# 6 0.000000 0.000000 0.000000 -0.017295 0.000000 0.051904
#
#
# Mechanical properties :
#
#
# Convention : Reuss Voigt Hill
#
# Bulk Modulus (GPa) = 53.10106 55.41662 54.25884
# Shear Modulus (GPa) = 14.61758 22.50822 18.56290
#
# Velocity S-wave (km/s) = 2.74515 3.40642 3.09351
# Velocity P-wave (km/s) = 6.11744 6.63632 6.38216
#
# Compressibility (1/GPa) = 0.01883201
#
# Stress axis : x y z
#
# Youngs Moduli (GPa) = 86.96447 56.76808 55.03540
#
# Poissons Ratio (x) = 0.19868 0.24962
# Poissons Ratio (y) = 0.30436 0.34072
# Poissons Ratio (z) = 0.39444 0.35145
#
# Static dielectric constant tensor:
#      x y z
#    x 4.058330 0.000000 -0.253990 
#    y 0.000000 3.584150 0.000000 
#    z -0.253990 0.000000 3.497780 
# 
# 
# High freq. dielectric constant tensor:
#      x y z
#    x 1.764470 0.000000 -0.001010 
#    y 0.000000 1.727290 0.000000 
#    z -0.001010 0.000000 1.754940 
# 
# From -- ./inp_files/133305.got.cif
#   From: 2010.06.25/outbox.cif.g09.slc.cpg/sg12_67_cif.got.tgz:133305.got - 2010.06.28 00:19:55.
