data_PCOD8096494
_publ_section_title
;
Structure prediction by ZEFSAII (Michael W. Deem and Ramdas Pophale) SiO2 
 PCOD8096494
Probable space group: C 2/M
;
_chemical_formula_sum "Si O2"
_cell_formula_units_Z 40
_cell_length_a 11.506317
_cell_length_b 22.304621
_cell_length_c 9.362152
_cell_angle_alpha 90.000000
_cell_angle_beta 106.486701
_cell_angle_gamma 90.000000
_cell_volume 2303.953353
_symmetry_space_group_name_H-M "C 2/M"
_symmetry_group_IT_number 12
_symmetry_cell_setting 'monoclinic'
loop_
_space_group_symop_operation_xyz
x,y,z
-x,y,-z
-x,-y,-z
x,-y,z
1/2+x,1/2+y,z
1/2-x,1/2+y,-z
1/2-x,1/2-y,-z
1/2+x,1/2-y,z
loop_
_atom_site_type_symbol
_atom_site_label
_atom_site_fract_x
_atom_site_fract_y
_atom_site_fract_z
Si Si1 0.248013 0.932153 0.625883
Si Si2 0.500000 0.315957 0.000000
Si Si3 0.645649 0.654478 0.795668
Si Si4 0.500000 0.387617 0.500000
Si Si5 0.864410 0.670049 0.504799
Si Si6 0.302322 0.256522 0.740300
O O1 0.235233 0.900165 0.778444
O O2 0.340255 0.896736 0.556003
O O3 0.115354 0.929687 0.504031
O O4 0.293671 0.000000 0.660734
O O5 0.591293 0.356195 0.935245
O O6 0.421027 0.274865 0.868357
O O7 0.532458 0.656054 0.644216
O O8 0.715407 0.717646 0.813731
O O9 0.772446 0.685837 0.343197
O O10 0.845548 0.717174 0.623446
O O11 0.000000 0.672979 0.500000
#
# Coordination Sequence:
#
# PCOD8096494 Si02
#       6
#     8   4   8   4   8   8
#     4   9  18  33  53  75 102 140 177 220 266 306
#     4  12  20  32  51  80 105 138 178 218 250 322
#     4   9  20  31  50  75 105 138 167 213 264 309
#     4   8  17  34  54  76 102 140 171 220 264 314
#     4  10  20  33  54  81 108 142 175 215 259 319
#     4  10  21  33  50  77 113 142 168 212 272 310
#
# _framework density 17.361462
#
# number of rings (size 3 to 8) (size 9 to 14) (size 15 to 20)
#    1.200    1.200    0.000    3.300    4.200    0.400 
#    0.000    0.500    0.000    1.200    0.000   23.800 
#    0.000    0.000    0.000    0.000    0.000    0.000 
#
# Total GULP energy -247798.288232 kJ/mol
# GULP energy per Si atom -12389.914412 kJ/mol
# Density = 1.732195 g / cm^3
# Si number density = 17.361462 Si / 1000 Ang^3
#
#
#
# Elastic Constant Matrix: (Units=GPa)
#
#
# Indices 1 2 3 4 5 6 
#
# 1 87.7572 27.3423 31.3556 0.0000 -15.1975 0.0000
# 2 27.3423 100.3512 27.7028 0.0000 -7.7187 0.0000
# 3 31.3556 27.7028 70.0748 0.0000 -0.4699 0.0000
# 4 0.0000 0.0000 0.0000 5.2056 0.0000 8.8975
# 5 -15.1975 -7.7187 -0.4699 0.0000 36.1626 0.0000
# 6 0.0000 0.0000 0.0000 8.8975 0.0000 -32.4954
#
#
#
# Elastic Compliance Matrix: (Units=1/GPa)
#
#
# Indices 1 2 3 4 5 6 
#
# 1 0.015169 -0.002042 -0.005941 0.000000 0.005862 0.000000
# 2 -0.002042 0.011661 -0.003685 0.000000 0.001583 0.000000
# 3 -0.005941 -0.003685 0.018365 0.000000 -0.003045 0.000000
# 4 0.000000 0.000000 0.000000 0.130859 0.000000 0.035830
# 5 0.005862 0.001583 -0.003045 0.000000 0.030415 0.000000
# 6 0.000000 0.000000 0.000000 0.035830 0.000000 -0.020963
#
#
# Mechanical properties :
#
#
# Convention : Reuss Voigt Hill
#
# Bulk Modulus (GPa) = 45.74973 47.88719 46.81846
# Shear Modulus (GPa) = 23.13439 13.22674 18.18056
#
# Velocity S-wave (km/s) = 3.65432 2.76315 3.23953
# Velocity P-wave (km/s) = 6.64936 6.14999 6.40454
#
# Compressibility (1/GPa) = 0.02185805
#
# Stress axis : x y z
#
# Youngs Moduli (GPa) = 65.92315 85.75928 54.45039
#
# Poissons Ratio (x) = 0.17513 0.32349
# Poissons Ratio (y) = 0.13463 0.20067
# Poissons Ratio (z) = 0.39165 0.31606
#
# Static dielectric constant tensor:
#      x y z
#    x 3.298130 0.000000 -0.135450 
#    y 0.000000 2.952810 0.000000 
#    z -0.135450 0.000000 3.108380 
# 
# 
# High freq. dielectric constant tensor:
#      x y z
#    x 1.677440 0.000000 -0.011140 
#    y 0.000000 1.639930 0.000000 
#    z -0.011140 0.000000 1.650520 
# 
# From -- ./inp_files/50075.got.cif
#   From: 2010.06.25/outbox.cif.g09.slc.cpg/sg12_26_cif.got.tgz:50075.got - 2010.06.28 00:19:55.
