data_PCOD8096408
_publ_section_title
;
Structure prediction by ZEFSAII (Michael W. Deem and Ramdas Pophale) SiO2 
 PCOD8096408
Probable space group: C 2/M
;
_chemical_formula_sum "Si O2"
_cell_formula_units_Z 56
_cell_length_a 27.100455
_cell_length_b 9.510864
_cell_length_c 12.464589
_cell_angle_alpha 90.000000
_cell_angle_beta 113.384519
_cell_angle_gamma 90.000000
_cell_volume 2948.844417
_symmetry_space_group_name_H-M "C 2/M"
_symmetry_group_IT_number 12
_symmetry_cell_setting 'monoclinic'
loop_
_space_group_symop_operation_xyz
x,y,z
-x,y,-z
-x,-y,-z
x,-y,z
1/2+x,1/2+y,z
1/2-x,1/2+y,-z
1/2-x,1/2-y,-z
1/2+x,1/2-y,z
loop_
_atom_site_type_symbol
_atom_site_label
_atom_site_fract_x
_atom_site_fract_y
_atom_site_fract_z
Si Si1 0.742633 0.664177 0.672862
Si Si2 0.443761 0.163902 0.396878
Si Si3 0.214890 0.837967 0.889869
Si Si4 0.864473 0.661591 0.737450
Si Si5 0.561856 0.335292 0.039834
Si Si6 0.907564 0.163736 0.172391
Si Si7 0.353678 0.162167 0.486852
O O1 0.733607 0.500000 0.642229
O O2 0.730975 0.705039 0.784756
O O3 0.803017 0.711274 0.698716
O O4 0.701120 0.749228 0.563444
O O5 0.500000 0.197872 0.500000
O O6 0.443704 0.248850 0.285967
O O7 0.396180 0.215431 0.434890
O O8 0.437612 0.000000 0.365329
O O9 0.153513 0.798736 0.855648
O O10 0.226426 0.000000 0.923281
O O11 0.250000 0.750000 0.000000
O O12 0.870638 0.500000 0.779416
O O13 0.880607 0.681255 0.627005
O O14 0.903412 0.755054 0.842335
O O15 0.571529 0.500000 0.066142
O O16 0.579729 0.287648 0.937063
O O17 0.500000 0.293751 0.000000
O O18 0.920569 0.000000 0.199963
O O19 0.338423 0.000000 0.454583
#
# Coordination Sequence:
#
# PCOD8096408 Si02
#       7
#     8   8   8   8   8   8   8
#     4  10  20  36  56  83 116 147 186 231 277 334
#     4  10  22  38  58  85 115 147 188 235 280 331
#     4  10  20  33  53  80 110 144 182 225 272 325
#     4  10  22  38  58  85 116 150 189 232 278 333
#     4  10  23  41  59  83 114 148 189 235 281 333
#     4  10  21  39  59  82 113 146 186 233 279 332
#     4  10  21  37  57  85 117 149 187 230 279 335
#
# _framework density 18.990487999999999
#
# number of rings (size 3 to 8) (size 9 to 14) (size 15 to 20)
#    0.000    2.000    1.429    1.286    2.000    3.429 
#    0.000    0.000    0.000    0.000    0.000    0.000 
#    0.000    0.000    0.000    0.000    0.000    0.000 
#
# Total GULP energy -347323.439778 kJ/mol
# GULP energy per Si atom -12404.408563 kJ/mol
# Density = 1.894727 g / cm^3
# Si number density = 18.990488 Si / 1000 Ang^3
#
#
#
# Elastic Constant Matrix: (Units=GPa)
#
#
# Indices 1 2 3 4 5 6 
#
# 1 70.9090 30.1079 39.3061 0.0000 3.3155 0.0000
# 2 30.1079 59.4342 62.2672 0.0000 13.7389 0.0000
# 3 39.3061 62.2672 126.5558 0.0000 12.8355 0.0000
# 4 0.0000 0.0000 0.0000 39.9971 0.0000 11.1956
# 5 3.3155 13.7389 12.8355 0.0000 25.6282 0.0000
# 6 0.0000 0.0000 0.0000 11.1956 0.0000 9.1464
#
#
#
# Elastic Compliance Matrix: (Units=1/GPa)
#
#
# Indices 1 2 3 4 5 6 
#
# 1 0.018469 -0.007639 -0.002266 0.000000 0.002840 0.000000
# 2 -0.007639 0.040849 -0.016440 0.000000 -0.012677 0.000000
# 3 -0.002266 -0.016440 0.016615 0.000000 0.000785 0.000000
# 4 0.000000 0.000000 0.000000 0.038032 0.000000 -0.046553
# 5 0.002840 -0.012677 0.000785 0.000000 0.045054 0.000000
# 6 0.000000 0.000000 0.000000 -0.046553 0.000000 0.166315
#
#
# Mechanical properties :
#
#
# Convention : Reuss Voigt Hill
#
# Bulk Modulus (GPa) = 43.02338 57.80682 50.41510
# Shear Modulus (GPa) = 12.96103 23.30220 18.13162
#
# Velocity S-wave (km/s) = 2.61531 3.50672 3.09329
# Velocity P-wave (km/s) = 5.64129 6.84851 6.27400
#
# Compressibility (1/GPa) = 0.02324317
#
# Stress axis : x y z
#
# Youngs Moduli (GPa) = 54.14413 24.48035 60.18805
#
# Poissons Ratio (x) = 0.18700 0.13638
# Poissons Ratio (y) = 0.41359 0.98950
# Poissons Ratio (z) = 0.12269 0.40246
#
# Static dielectric constant tensor:
#      x y z
#    x 3.667770 0.000000 -0.179360 
#    y 0.000000 3.431300 0.000000 
#    z -0.179360 0.000000 3.447190 
# 
# 
# High freq. dielectric constant tensor:
#      x y z
#    x 1.749800 0.000000 -0.007370 
#    y 0.000000 1.729790 0.000000 
#    z -0.007370 0.000000 1.745740 
# 
# From -- ./inp_files/180677.got.cif
#   From: 2010.06.25/outbox.cif.g09.slc.cpg/sg12_91_cif.got.tgz:180677.got - 2010.06.28 00:19:55.
