data_PCOD8096211
_publ_section_title
;
Structure prediction by ZEFSAII (Michael W. Deem and Ramdas Pophale) SiO2 
 PCOD8096211
Probable space group: C 2/M
;
_chemical_formula_sum "Si O2"
_cell_formula_units_Z 64
_cell_length_a 14.028330
_cell_length_b 9.315196
_cell_length_c 31.425443
_cell_angle_alpha 90.000000
_cell_angle_beta 117.924292
_cell_angle_gamma 90.000000
_cell_volume 3628.431639
_symmetry_space_group_name_H-M "C 2/M"
_symmetry_group_IT_number 12
_symmetry_cell_setting 'monoclinic'
loop_
_space_group_symop_operation_xyz
x,y,z
-x,y,-z
-x,-y,-z
x,-y,z
1/2+x,1/2+y,z
1/2-x,1/2+y,-z
1/2-x,1/2-y,-z
1/2+x,1/2-y,z
loop_
_atom_site_type_symbol
_atom_site_label
_atom_site_fract_x
_atom_site_fract_y
_atom_site_fract_z
Si Si1 0.448987 0.166174 0.697389
Si Si2 0.515824 0.665193 0.631905
Si Si3 0.266812 0.831232 0.872413
Si Si4 0.719847 0.667217 0.451391
Si Si5 0.198920 0.168339 0.950246
Si Si6 0.966203 0.165342 0.206003
Si Si7 0.537563 0.664077 0.126208
Si Si8 0.286563 0.334268 0.385534
O O1 0.518733 0.240634 0.675049
O O2 0.476606 0.233560 0.748287
O O3 0.322359 0.190690 0.663594
O O4 0.480167 0.000000 0.704251
O O5 0.527907 0.500000 0.648200
O O6 0.406664 0.690960 0.582927
O O7 0.614473 0.714630 0.623111
O O8 0.257316 0.779351 0.919258
O O9 0.158842 0.789658 0.824177
O O10 0.368081 0.761462 0.871376
O O11 0.282569 0.000000 0.874877
O O12 0.749405 0.500000 0.461852
O O13 0.750000 0.750000 0.500000
O O14 0.789032 0.734599 0.427547
O O15 0.072438 0.205487 0.920950
O O16 0.215972 0.000000 0.960333
O O17 0.250000 0.250000 0.000000
O O18 0.025680 0.190169 0.173834
O O19 0.976477 0.000000 0.222441
O O20 0.567409 0.500000 0.123161
O O21 0.298106 0.500000 0.402234
#
# Coordination Sequence:
#
# PCOD8096211 Si02
#       8
#     8   8   8   8   8   8   8   8
#     4  10  20  33  52  78 103 127 163 211 251 287
#     4   9  19  36  55  73  99 137 171 200 246 304
#     4   9  19  35  53  73  99 132 168 205 246 295
#     4  10  20  34  53  76 102 133 168 206 249 296
#     4   9  19  35  52  73 102 134 167 204 250 300
#     4   9  19  36  53  70 100 137 166 198 246 302
#     4   9  19  35  53  74 101 132 167 208 251 295
#     4   9  19  36  54  73 100 132 167 206 246 293
#
# _framework density 17.638475
#
# number of rings (size 3 to 8) (size 9 to 14) (size 15 to 20)
#    0.000    2.750    0.000    2.250    0.000    5.500 
#    0.000   11.250    0.000    0.000    0.000    0.000 
#    0.000    0.000    0.000    0.000    0.000    0.000 
#
# Total GULP energy -396848.567176 kJ/mol
# GULP energy per Si atom -12401.517724 kJ/mol
# Density = 1.759833 g / cm^3
# Si number density = 17.638475 Si / 1000 Ang^3
#
#
#
# Elastic Constant Matrix: (Units=GPa)
#
#
# Indices 1 2 3 4 5 6 
#
# 1 98.8142 28.3734 30.9615 0.0000 -5.7873 0.0000
# 2 28.3734 64.9018 53.2950 0.0000 -5.2443 0.0000
# 3 30.9615 53.2950 108.5055 0.0000 -8.3514 0.0000
# 4 0.0000 0.0000 0.0000 39.0267 0.0000 -3.1191
# 5 -5.7873 -5.2443 -8.3514 0.0000 12.8444 0.0000
# 6 0.0000 0.0000 0.0000 -3.1191 0.0000 34.1403
#
#
#
# Elastic Compliance Matrix: (Units=1/GPa)
#
#
# Indices 1 2 3 4 5 6 
#
# 1 0.011799 -0.003925 -0.001214 0.000000 0.002924 0.000000
# 2 -0.003925 0.027201 -0.012128 0.000000 0.001451 0.000000
# 3 -0.001214 -0.012128 0.015892 0.000000 0.004834 0.000000
# 4 0.000000 0.000000 0.000000 0.025812 0.000000 0.002358
# 5 0.002924 0.001451 0.004834 0.000000 0.082908 0.000000
# 6 0.000000 0.000000 0.000000 0.002358 0.000000 0.029506
#
#
# Mechanical properties :
#
#
# Convention : Reuss Voigt Hill
#
# Bulk Modulus (GPa) = 49.12478 55.27572 52.20025
# Shear Modulus (GPa) = 21.32764 27.84171 24.58467
#
# Velocity S-wave (km/s) = 3.48106 3.97730 3.73743
# Velocity P-wave (km/s) = 6.63841 7.24555 6.94862
#
# Compressibility (1/GPa) = 0.02035632
#
# Stress axis : x y z
#
# Youngs Moduli (GPa) = 84.75568 36.76389 62.92599
#
# Poissons Ratio (x) = 0.14430 0.07637
# Poissons Ratio (y) = 0.33268 0.76320
# Poissons Ratio (z) = 0.10287 0.44589
#
# Static dielectric constant tensor:
#      x y z
#    x 3.365400 0.000000 -0.047900 
#    y 0.000000 3.256560 0.000000 
#    z -0.047900 0.000000 3.269140 
# 
# 
# High freq. dielectric constant tensor:
#      x y z
#    x 1.684680 0.000000 -0.002560 
#    y 0.000000 1.683130 0.000000 
#    z -0.002560 0.000000 1.684180 
# 
# From -- ./inp_files/359885.got.cif
#   From: 2010.06.25/outbox.cif.g09.slc.cpg/sg12_180_cif.got.tgz:359885.got - 2010.06.28 00:19:55.
