data_PCOD8096141
_publ_section_title
;
Structure prediction by ZEFSAII (Michael W. Deem and Ramdas Pophale) SiO2 
 PCOD8096141
Probable space group: C 2/M
;
_chemical_formula_sum "Si O2"
_cell_formula_units_Z 56
_cell_length_a 27.979818
_cell_length_b 9.674172
_cell_length_c 15.679055
_cell_angle_alpha 90.000000
_cell_angle_beta 137.985278
_cell_angle_gamma 90.000000
_cell_volume 2840.621506
_symmetry_space_group_name_H-M "C 2/M"
_symmetry_group_IT_number 12
_symmetry_cell_setting 'monoclinic'
loop_
_space_group_symop_operation_xyz
x,y,z
-x,y,-z
-x,-y,-z
x,-y,z
1/2+x,1/2+y,z
1/2-x,1/2+y,-z
1/2-x,1/2-y,-z
1/2+x,1/2-y,z
loop_
_atom_site_type_symbol
_atom_site_label
_atom_site_fract_x
_atom_site_fract_y
_atom_site_fract_z
Si Si1 0.546700 0.662120 0.644793
Si Si2 0.988103 0.659561 0.721482
Si Si3 0.288872 0.348442 0.661464
Si Si4 0.648857 0.850641 0.374293
Si Si5 0.287397 0.659089 0.121694
Si Si6 0.207640 0.659346 0.190421
Si Si7 0.545034 0.836875 0.979953
O O1 0.500000 0.706432 0.500000
O O2 0.536196 0.500000 0.647921
O O3 0.518526 0.745345 0.688072
O O4 0.630757 0.699709 0.747066
O O5 0.009921 0.500000 0.731949
O O6 0.014343 0.712597 0.848537
O O7 0.902519 0.681500 0.613362
O O8 0.315614 0.500000 0.727320
O O9 0.354679 0.263823 0.705313
O O10 0.228976 0.367916 0.511325
O O11 0.253239 0.259276 0.690397
O O12 0.623884 0.000000 0.301516
O O13 0.283832 0.500000 0.087489
O O14 0.239856 0.685570 0.141127
O O15 0.250000 0.750000 0.000000
O O16 0.216952 0.500000 0.230109
O O17 0.126540 0.713117 0.088185
O O18 0.542488 0.000000 0.980877
O O19 0.500000 0.773898 0.000000
#
# Coordination Sequence:
#
# PCOD8096141 Si02
#       7
#     8   8   8   8   8   8   8
#     4  10  23  41  59  84 120 158 198 247 307 367
#     4  10  20  36  60  85 110 145 194 243 287 339
#     4  10  20  33  51  80 112 143 181 224 275 333
#     4   9  19  35  54  78 110 144 181 225 275 333
#     4  10  22  40  61  85 114 154 202 249 300 356
#     4  10  20  34  55  79 106 144 188 227 277 340
#     4   9  17  31  54  83 112 143 181 228 281 337
#
# _framework density 19.713996000000002
#
# number of rings (size 3 to 8) (size 9 to 14) (size 15 to 20)
#    0.000    2.286    0.000    2.143    2.000    6.000 
#    0.000    0.714    0.000    1.714    0.000    0.000 
#    0.000    0.000    0.000    0.000    0.000    0.000 
#
# Total GULP energy -346990.639331 kJ/mol
# GULP energy per Si atom -12392.522833 kJ/mol
# Density = 1.966913 g / cm^3
# Si number density = 19.713996 Si / 1000 Ang^3
#
#
#
# Elastic Constant Matrix: (Units=GPa)
#
#
# Indices 1 2 3 4 5 6 
#
# 1 157.2457 73.3032 53.5480 0.0000 -2.3402 0.0000
# 2 73.3032 104.7953 38.0444 0.0000 -8.2978 0.0000
# 3 53.5480 38.0444 90.5082 0.0000 -1.3880 0.0000
# 4 0.0000 0.0000 0.0000 23.8274 0.0000 -5.7911
# 5 -2.3402 -8.2978 -1.3880 0.0000 33.8376 0.0000
# 6 0.0000 0.0000 0.0000 -5.7911 0.0000 35.8641
#
#
#
# Elastic Compliance Matrix: (Units=1/GPa)
#
#
# Indices 1 2 3 4 5 6 
#
# 1 0.010389 -0.006021 -0.003629 0.000000 -0.000907 0.000000
# 2 -0.006021 0.014978 -0.002685 0.000000 0.003146 0.000000
# 3 -0.003629 -0.002685 0.014320 0.000000 -0.000322 0.000000
# 4 0.000000 0.000000 0.000000 0.043683 0.000000 0.007054
# 5 -0.000907 0.003146 -0.000322 0.000000 0.030249 0.000000
# 6 0.000000 0.000000 0.000000 0.007054 0.000000 0.029022
#
#
# Mechanical properties :
#
#
# Convention : Reuss Voigt Hill
#
# Bulk Modulus (GPa) = 66.59981 75.81559 71.20770
# Shear Modulus (GPa) = 29.01632 31.21605 30.11619
#
# Velocity S-wave (km/s) = 3.84065 3.98357 3.91276
# Velocity P-wave (km/s) = 7.31600 7.72656 7.52408
#
# Compressibility (1/GPa) = 0.01501506
#
# Stress axis : x y z
#
# Youngs Moduli (GPa) = 96.25805 66.76418 69.83312
#
# Poissons Ratio (x) = 0.40199 0.25345
# Poissons Ratio (y) = 0.57957 0.18753
# Poissons Ratio (z) = 0.34936 0.17929
#
# Static dielectric constant tensor:
#      x y z
#    x 3.656900 0.000000 0.155430 
#    y 0.000000 3.717750 0.000000 
#    z 0.155430 0.000000 3.725600 
# 
# 
# High freq. dielectric constant tensor:
#      x y z
#    x 1.774090 0.000000 0.004390 
#    y 0.000000 1.752710 0.000000 
#    z 0.004390 0.000000 1.768540 
# 
# From -- ./inp_files/292517.got.cif
#   From: 2010.06.25/outbox.cif.g09.slc.cpg/sg12_147_cif.got.tgz:292517.got - 2010.06.28 00:19:55.
