data_PCOD8096040
_publ_section_title
;
Structure prediction by ZEFSAII (Michael W. Deem and Ramdas Pophale) SiO2 
 PCOD8096040
Probable space group: C 2/M
;
_chemical_formula_sum "Si O2"
_cell_formula_units_Z 64
_cell_length_a 30.566445
_cell_length_b 9.226981
_cell_length_c 15.871932
_cell_angle_alpha 90.000000
_cell_angle_beta 52.960092
_cell_angle_gamma 90.000000
_cell_volume 3573.179676
_symmetry_space_group_name_H-M "C 2/M"
_symmetry_group_IT_number 12
_symmetry_cell_setting 'monoclinic'
loop_
_space_group_symop_operation_xyz
x,y,z
-x,y,-z
-x,-y,-z
x,-y,z
1/2+x,1/2+y,z
1/2-x,1/2+y,-z
1/2-x,1/2-y,-z
1/2+x,1/2-y,z
loop_
_atom_site_type_symbol
_atom_site_label
_atom_site_fract_x
_atom_site_fract_y
_atom_site_fract_z
Si Si1 0.540755 0.666115 0.075248
Si Si2 0.579268 0.666104 0.844573
Si Si3 0.082428 0.668303 0.185814
Si Si4 0.172871 0.669037 0.643010
Si Si5 0.796127 0.330912 0.894834
Si Si6 0.294860 0.331672 0.553473
Si Si7 0.548383 0.332480 0.384294
Si Si8 0.830809 0.167495 0.696117
O O1 0.551093 0.500000 0.089564
O O2 0.476118 0.696559 0.142963
O O3 0.566792 0.771083 0.113349
O O4 0.570085 0.700286 0.953154
O O5 0.597522 0.500000 0.811076
O O6 0.626146 0.771303 0.757736
O O7 0.068412 0.500000 0.205308
O O8 0.146453 0.698543 0.125821
O O9 0.046562 0.745077 0.299381
O O10 0.163590 0.500000 0.640620
O O11 0.230741 0.704066 0.619576
O O12 0.169691 0.743955 0.555569
O O13 0.782137 0.500000 0.905272
O O14 0.796964 0.265508 0.800207
O O15 0.750000 0.250000 0.000000
O O16 0.307138 0.500000 0.524145
O O17 0.314153 0.280934 0.622735
O O18 0.500000 0.274334 0.500000
O O19 0.539411 0.500000 0.371731
O O20 0.604652 0.306587 0.368681
O O21 0.815085 0.000000 0.729969
#
# Coordination Sequence:
#
# PCOD8096040 Si02
#       8
#     8   8   8   8   8   8   8   8
#     4   9  19  36  56  76 100 134 173 208 246 301
#     4   9  19  36  55  75 101 133 170 211 253 298
#     4  10  21  35  52  77 107 135 165 208 258 301
#     4  10  20  33  51  76 104 134 170 211 255 304
#     4  10  21  36  53  75 104 136 170 209 253 301
#     4   9  19  35  52  72 102 138 173 210 253 302
#     4   9  18  33  53  76 101 133 174 212 248 299
#     4   9  18  34  54  74 100 134 171 213 256 296
#
# _framework density 17.911218000000002
#
# number of rings (size 3 to 8) (size 9 to 14) (size 15 to 20)
#    0.000    2.625    0.000    1.875    0.000    5.750 
#    0.000    7.500    0.000    0.000    0.000    0.000 
#    0.000    0.000    0.000    0.000    0.000    0.000 
#
# Total GULP energy -396909.490457 kJ/mol
# GULP energy per Si atom -12403.421577 kJ/mol
# Density = 1.787045 g / cm^3
# Si number density = 17.911218 Si / 1000 Ang^3
#
#
#
# Elastic Constant Matrix: (Units=GPa)
#
#
# Indices 1 2 3 4 5 6 
#
# 1 76.1241 48.0562 60.5646 0.0000 20.2527 -0.0001
# 2 48.0562 90.9839 72.5780 0.0000 3.9525 -0.0004
# 3 60.5646 72.5780 135.7726 0.0000 -1.5368 0.0000
# 4 0.0000 0.0000 0.0000 35.5046 0.0000 -0.9066
# 5 20.2527 3.9525 -1.5368 0.0000 33.7074 0.0000
# 6 -0.0001 -0.0004 0.0000 -0.9066 0.0000 27.8141
#
#
#
# Elastic Compliance Matrix: (Units=1/GPa)
#
#
# Indices 1 2 3 4 5 6 
#
# 1 0.030343 -0.007489 -0.009733 0.000000 -0.017797 0.000000
# 2 -0.007489 0.021262 -0.008006 0.000000 0.001642 0.000000
# 3 -0.009733 -0.008006 0.016072 0.000000 0.007520 0.000000
# 4 0.000000 0.000000 0.000000 0.028189 0.000000 0.000919
# 5 -0.017797 0.001642 0.007520 0.000000 0.040510 0.000000
# 6 0.000000 0.000000 0.000000 0.000919 0.000000 0.035983
#
#
# Mechanical properties :
#
#
# Convention : Reuss Voigt Hill
#
# Bulk Modulus (GPa) = 58.07484 73.91982 65.99733
# Shear Modulus (GPa) = 21.87645 27.51736 24.69690
#
# Velocity S-wave (km/s) = 3.49862 3.92384 3.71732
# Velocity P-wave (km/s) = 6.98674 7.86692 7.43986
#
# Compressibility (1/GPa) = 0.01721916
#
# Stress axis : x y z
#
# Youngs Moduli (GPa) = 32.95672 47.03206 62.22019
#
# Poissons Ratio (x) = 0.35224 0.60560
# Poissons Ratio (y) = 0.24682 0.49816
# Poissons Ratio (z) = 0.32077 0.37656
#
# Static dielectric constant tensor:
#      x y z
#    x 3.279520 0.000000 0.036250 
#    y 0.000000 3.313320 0.000000 
#    z 0.036250 0.000000 3.340700 
# 
# 
# High freq. dielectric constant tensor:
#      x y z
#    x 1.689840 0.000000 0.002780 
#    y 0.000000 1.694830 0.000000 
#    z 0.002780 0.000000 1.699160 
# 
# From -- ./inp_files/249013.got.cif
#   From: 2010.06.25/outbox.cif.g09.slc.cpg/sg12_125_cif.got.tgz:249013.got - 2010.06.28 00:19:55.
