data_PCOD8096977
_publ_section_title
;
Structure prediction by ZEFSAII (Michael W. Deem and Ramdas Pophale) SiO2 
 PCOD8096977
Probable space group: C 2/M
;
_chemical_formula_sum "Si O2"
_cell_formula_units_Z 64
_cell_length_a 8.614999
_cell_length_b 11.183520
_cell_length_c 34.267126
_cell_angle_alpha 90.000000
_cell_angle_beta 78.708301
_cell_angle_gamma 90.000000
_cell_volume 3237.593955
_symmetry_space_group_name_H-M "C 2/M"
_symmetry_group_IT_number 12
_symmetry_cell_setting 'monoclinic'
loop_
_space_group_symop_operation_xyz
x,y,z
-x,y,-z
-x,-y,-z
x,-y,z
1/2+x,1/2+y,z
1/2-x,1/2+y,-z
1/2-x,1/2-y,-z
1/2+x,1/2-y,z
loop_
_atom_site_type_symbol
_atom_site_label
_atom_site_fract_x
_atom_site_fract_y
_atom_site_fract_z
Si Si1 0.300029 0.215733 0.906379
Si Si2 0.885311 0.365008 0.144754
Si Si3 0.311253 0.135566 0.578939
Si Si4 0.731253 0.630492 0.669458
Si Si5 0.492315 0.365030 0.454511
Si Si6 0.514507 0.634933 0.042551
Si Si7 0.904688 0.365776 0.230319
Si Si8 0.087888 0.789635 0.281447
O O1 0.446245 0.135174 0.885507
O O2 0.351799 0.295278 0.940479
O O3 0.248434 0.296239 0.872506
O O4 0.153623 0.134945 0.927019
O O5 0.824686 0.500000 0.151418
O O6 0.898561 0.307701 0.187359
O O7 0.218721 0.156583 0.624057
O O8 0.426969 0.249399 0.569392
O O9 0.189470 0.139985 0.549345
O O10 0.391191 0.000000 0.574803
O O11 0.803430 0.500000 0.673122
O O12 0.852594 0.719560 0.683593
O O13 0.557351 0.630803 0.697026
O O14 0.500000 0.346921 0.500000
O O15 0.560449 0.500000 0.440160
O O16 0.575660 0.500000 0.036034
O O17 0.500000 0.691776 0.000000
O O18 0.968968 0.500000 0.223954
O O19 0.730881 0.368783 0.258132
O O20 0.031946 0.296379 0.249648
#
# Coordination Sequence:
#
# PCOD8096977 Si02
#       8
#     8   8   8   8   8   8   8   8
#     4  10  20  34  52  74 100 131 165 203 249 296
#     4  10  20  34  52  74 101 131 165 206 249 296
#     4  10  21  36  55  80 108 140 179 220 264 316
#     4  10  20  35  53  75 104 135 170 213 257 304
#     4  10  21  37  56  80 110 142 178 221 267 316
#     4  10  20  34  52  74 100 130 165 204 246 295
#     4  10  20  34  52  75 101 131 168 207 249 299
#     4  10  20  34  53  75 101 134 169 207 254 303
#
# _framework density 19.767766999999999
#
# number of rings (size 3 to 8) (size 9 to 14) (size 15 to 20)
#    0.000    2.000    0.000    3.750    0.000    0.750 
#    0.000    3.125    0.000   18.000    0.000    0.000 
#    0.000    0.000    0.000    0.000    0.000    0.000 
#
# Total GULP energy -396671.343354 kJ/mol
# GULP energy per Si atom -12395.979480 kJ/mol
# Density = 1.972277 g / cm^3
# Si number density = 19.767767 Si / 1000 Ang^3
#
#
#
# Elastic Constant Matrix: (Units=GPa)
#
#
# Indices 1 2 3 4 5 6 
#
# 1 47.2391 12.9018 4.1652 0.0000 10.3942 0.0000
# 2 12.9018 91.3948 22.9817 0.0000 1.7174 0.0000
# 3 4.1652 22.9817 92.8680 0.0000 16.7449 0.0000
# 4 0.0000 0.0000 0.0000 27.2275 0.0000 -11.1087
# 5 10.3942 1.7174 16.7449 0.0000 33.7493 0.0000
# 6 0.0000 0.0000 0.0000 -11.1087 0.0000 35.0577
#
#
#
# Elastic Compliance Matrix: (Units=1/GPa)
#
#
# Indices 1 2 3 4 5 6 
#
# 1 0.023719 -0.003504 0.001195 0.000000 -0.007720 0.000000
# 2 -0.003504 0.012211 -0.003237 0.000000 0.002064 0.000000
# 3 0.001195 -0.003237 0.012687 0.000000 -0.006498 0.000000
# 4 0.000000 0.000000 0.000000 0.042181 0.000000 0.013366
# 5 -0.007720 0.002064 -0.006498 0.000000 0.035127 0.000000
# 6 0.000000 0.000000 0.000000 0.013366 0.000000 0.032760
#
#
# Mechanical properties :
#
#
# Convention : Reuss Voigt Hill
#
# Bulk Modulus (GPa) = 26.64779 34.62214 30.63496
# Shear Modulus (GPa) = 27.42968 31.97046 29.70007
#
# Velocity S-wave (km/s) = 3.72909 4.02593 3.88035
# Velocity P-wave (km/s) = 5.66137 6.25806 5.96718
#
# Compressibility (1/GPa) = 0.03752657
#
# Stress axis : x y z
#
# Youngs Moduli (GPa) = 42.16012 81.89140 78.82059
#
# Poissons Ratio (x) = 0.28693 -0.09421
# Poissons Ratio (y) = 0.14772 0.25513
# Poissons Ratio (z) = -0.05039 0.26507
#
# Static dielectric constant tensor:
#      x y z
#    x 3.378560 0.000000 0.141400 
#    y 0.000000 3.592320 0.000000 
#    z 0.141400 0.000000 3.745550 
# 
# 
# High freq. dielectric constant tensor:
#      x y z
#    x 1.758030 0.000000 0.012050 
#    y 0.000000 1.770360 0.000000 
#    z 0.012050 0.000000 1.786650 
# 
# From -- ./inp_files/372157.got.cif
#   From: 2010.06.25/outbox.cif.g09.slc.cpg/sg12_187_cif.got.tgz:372157.got - 2010.06.28 00:19:55.
