data_PCOD8096844
_publ_section_title
;
Structure prediction by ZEFSAII (Michael W. Deem and Ramdas Pophale) SiO2 
 PCOD8096844
Probable space group: C 2/M
;
_chemical_formula_sum "Si O2"
_cell_formula_units_Z 64
_cell_length_a 20.159437
_cell_length_b 8.726400
_cell_length_c 22.517191
_cell_angle_alpha 90.000000
_cell_angle_beta 63.670480
_cell_angle_gamma 90.000000
_cell_volume 3550.265137
_symmetry_space_group_name_H-M "C 2/M"
_symmetry_group_IT_number 12
_symmetry_cell_setting 'monoclinic'
loop_
_space_group_symop_operation_xyz
x,y,z
-x,y,-z
-x,-y,-z
x,-y,z
1/2+x,1/2+y,z
1/2-x,1/2+y,-z
1/2-x,1/2-y,-z
1/2+x,1/2-y,z
loop_
_atom_site_type_symbol
_atom_site_label
_atom_site_fract_x
_atom_site_fract_y
_atom_site_fract_z
Si Si1 0.201393 0.818143 0.199196
Si Si2 0.225153 0.681577 0.948360
Si Si3 0.849889 0.319692 0.202667
Si Si4 0.577653 0.181547 0.947476
Si Si5 0.394864 0.680386 0.307672
Si Si6 0.545982 0.319798 0.301933
Si Si7 0.173283 0.681106 0.551318
Si Si8 0.467102 0.680986 0.450723
O O1 0.219320 0.760729 0.125444
O O2 0.266669 0.769849 0.218232
O O3 0.123735 0.743091 0.251262
O O4 0.197370 0.000000 0.200026
O O5 0.226166 0.500000 0.952183
O O6 0.142767 0.741052 0.964906
O O7 0.250000 0.750000 0.000000
O O8 0.854793 0.500000 0.214532
O O9 0.905298 0.272729 0.127316
O O10 0.872639 0.223267 0.250442
O O11 0.574578 0.000000 0.953103
O O12 0.500000 0.254800 0.000000
O O13 0.386779 0.500000 0.321564
O O14 0.479733 0.733583 0.284863
O O15 0.342081 0.764117 0.375561
O O16 0.555897 0.500000 0.293896
O O17 0.526613 0.271633 0.376904
O O18 0.178087 0.500000 0.548437
O O19 0.250000 0.750000 0.500000
O O20 0.110203 0.735890 0.530744
O O21 0.500000 0.737263 0.500000
O O22 0.451902 0.500000 0.456120
#
# Coordination Sequence:
#
# PCOD8096844 Si02
#       8
#     8   8   8   8   8   8   8   8
#     4   8  15  29  47  67  92 125 164 199 236 290
#     4   9  17  29  46  67  91 121 159 202 245 291
#     4   9  17  30  50  73  95 126 169 210 246 292
#     4   8  15  29  47  67  95 131 168 204 245 296
#     4  10  20  34  51  73 101 130 161 201 253 305
#     4   8  15  29  48  68  93 126 160 193 231 283
#     4  11  22  37  56  77 104 136 172 212 253 300
#     4   9  18  33  53  78 106 135 168 205 250 304
#
# _framework density 18.026823
#
# number of rings (size 3 to 8) (size 9 to 14) (size 15 to 20)
#    0.000    3.000    0.000    3.750    0.000    2.250 
#    0.000    5.000    0.000    7.500    0.000    0.000 
#    0.000    0.000    0.000    0.000    0.000    0.000 
#
# Total GULP energy -396669.495379 kJ/mol
# GULP energy per Si atom -12395.921731 kJ/mol
# Density = 1.798579 g / cm^3
# Si number density = 18.026823 Si / 1000 Ang^3
#
#
#
# Elastic Constant Matrix: (Units=GPa)
#
#
# Indices 1 2 3 4 5 6 
#
# 1 141.9264 33.3383 119.7749 -0.0001 -5.3785 -0.0017
# 2 33.3383 49.5818 33.4304 -0.0007 -1.2820 -0.0058
# 3 119.7749 33.4304 148.8397 0.0000 -5.8819 0.0000
# 4 -0.0001 -0.0007 0.0000 23.0658 0.0000 7.9326
# 5 -5.3785 -1.2820 -5.8819 0.0000 46.1251 -0.0002
# 6 -0.0017 -0.0058 0.0000 7.9326 -0.0002 24.5991
#
#
#
# Elastic Compliance Matrix: (Units=1/GPa)
#
#
# Indices 1 2 3 4 5 6 
#
# 1 0.022448 -0.003434 -0.017281 0.000000 0.000319 0.000001
# 2 -0.003434 0.024294 -0.002696 -0.000001 -0.000069 0.000006
# 3 -0.017281 -0.002696 0.021255 0.000001 0.000620 -0.000002
# 4 0.000000 -0.000001 0.000001 0.048762 0.000000 -0.015725
# 5 0.000319 -0.000069 0.000620 0.000000 0.021794 0.000000
# 6 0.000001 0.000006 -0.000002 -0.015725 0.000000 0.045723
#
#
# Mechanical properties :
#
#
# Convention : Reuss Voigt Hill
#
# Bulk Modulus (GPa) = 47.22437 79.27057 63.24747
# Shear Modulus (GPa) = 20.99466 29.01160 25.00313
#
# Velocity S-wave (km/s) = 3.41638 4.01603 3.72828
# Velocity P-wave (km/s) = 6.46651 8.09777 7.32767
#
# Compressibility (1/GPa) = 0.02117551
#
# Stress axis : x y z
#
# Youngs Moduli (GPa) = 44.54682 41.16316 47.04809
#
# Poissons Ratio (x) = 0.14136 0.81303
# Poissons Ratio (y) = 0.15299 0.12682
# Poissons Ratio (z) = 0.76980 0.11096
#
# Static dielectric constant tensor:
#      x y z
#    x 3.661630 0.000000 -0.268560 
#    y 0.000000 2.945290 0.000000 
#    z -0.268560 0.000000 3.705580 
# 
# 
# High freq. dielectric constant tensor:
#      x y z
#    x 1.704400 0.000000 -0.002560 
#    y 0.000000 1.661260 0.000000 
#    z -0.002560 0.000000 1.705010 
# 
# From -- ./inp_files/319913.got.cif
#   From: 2010.06.25/outbox.cif.g09.slc.cpg/sg12_160_cif.got.tgz:319913.got - 2010.06.28 00:19:55.
