data_PCOD8096518
_publ_section_title
;
Structure prediction by ZEFSAII (Michael W. Deem and Ramdas Pophale) SiO2 
 PCOD8096518
Probable space group: C 2/M
;
_chemical_formula_sum "Si O2"
_cell_formula_units_Z 44
_cell_length_a 17.909109
_cell_length_b 19.846189
_cell_length_c 16.415745
_cell_angle_alpha 90.000000
_cell_angle_beta 158.117332
_cell_angle_gamma 90.000000
_cell_volume 2174.599880
_symmetry_space_group_name_H-M "C 2/M"
_symmetry_group_IT_number 12
_symmetry_cell_setting 'monoclinic'
loop_
_space_group_symop_operation_xyz
x,y,z
-x,y,-z
-x,-y,-z
x,-y,z
1/2+x,1/2+y,z
1/2-x,1/2+y,-z
1/2-x,1/2-y,-z
1/2+x,1/2-y,z
loop_
_atom_site_type_symbol
_atom_site_label
_atom_site_fract_x
_atom_site_fract_y
_atom_site_fract_z
Si Si1 0.371487 0.316070 0.790676
Si Si2 0.086657 0.074400 0.502858
Si Si3 0.440664 0.169421 0.845631
Si Si4 0.792868 0.574315 0.986560
Si Si5 0.500000 0.870217 0.500000
Si Si6 0.178781 0.923355 0.050586
O O1 0.394190 0.245044 0.766114
O O2 0.136060 0.326919 0.574481
O O3 0.500000 0.303976 0.000000
O O4 0.476803 0.378057 0.850316
O O5 0.247602 0.125544 0.632606
O O6 0.000000 0.102946 0.500000
O O7 0.930571 0.069115 0.272233
O O8 0.179345 0.000000 0.614001
O O9 0.500000 0.165440 0.000000
O O10 0.610122 0.136492 0.961893
O O11 0.895877 0.500000 0.077455
O O12 0.791776 0.591966 0.080917
O O13 0.338984 0.913146 0.285561
O O14 0.102029 0.000000 0.977275
#
# Coordination Sequence:
#
# PCOD8096518 Si02
#       6
#     8   8   8   8   4   8
#     4   9  22  38  59  88 116 149 192 239 290 350
#     4  10  20  33  54  83 115 155 196 232 274 327
#     4  11  21  35  59  85 118 161 194 234 279 340
#     4  10  22  38  57  86 121 154 193 240 284 333
#     4  10  21  40  64  88 109 146 194 236 299 356
#     4  10  22  41  62  86 116 147 190 246 294 343
#
# _framework density 20.233606999999999
#
# number of rings (size 3 to 8) (size 9 to 14) (size 15 to 20)
#    0.000    2.000    1.818    0.818    1.273    8.364 
#    0.000    5.455    0.000    0.000    0.000    0.000 
#    0.000    0.000    0.000    0.000    0.000    0.000 
#
# Total GULP energy -272647.527471 kJ/mol
# GULP energy per Si atom -12393.069430 kJ/mol
# Density = 2.018755 g / cm^3
# Si number density = 20.233607 Si / 1000 Ang^3
#
#
#
# Elastic Constant Matrix: (Units=GPa)
#
#
# Indices 1 2 3 4 5 6 
#
# 1 89.0676 55.7939 24.9085 0.0002 5.1277 0.0001
# 2 55.7939 168.9507 47.6556 0.0006 31.6692 0.0000
# 3 24.9085 47.6556 71.3973 0.0059 19.8590 0.0014
# 4 0.0002 0.0006 0.0059 18.1082 0.0017 -0.0881
# 5 5.1277 31.6692 19.8590 0.0017 33.9762 0.0002
# 6 0.0001 0.0000 0.0014 -0.0881 0.0002 9.4787
#
#
#
# Elastic Compliance Matrix: (Units=1/GPa)
#
#
# Indices 1 2 3 4 5 6 
#
# 1 0.014865 -0.004788 -0.003114 0.000001 0.004039 0.000000
# 2 -0.004788 0.009528 -0.002890 0.000001 -0.006469 0.000001
# 3 -0.003114 -0.002890 0.019275 -0.000005 -0.008103 -0.000003
# 4 0.000001 0.000001 -0.000005 0.055226 -0.000001 0.000513
# 5 0.004039 -0.006469 -0.008103 -0.000001 0.039589 0.000000
# 6 0.000000 0.000001 -0.000003 0.000513 0.000000 0.105505
#
#
# Mechanical properties :
#
#
# Convention : Reuss Voigt Hill
#
# Bulk Modulus (GPa) = 45.27961 65.12575 55.20268
# Shear Modulus (GPa) = 18.31961 25.71644 22.01803
#
# Velocity S-wave (km/s) = 3.01226 3.56894 3.30235
# Velocity P-wave (km/s) = 5.87582 7.01712 6.47168
#
# Compressibility (1/GPa) = 0.02208499
#
# Stress axis : x y z
#
# Youngs Moduli (GPa) = 67.27274 104.95667 51.88059
#
# Poissons Ratio (x) = 0.50251 0.16154
# Poissons Ratio (y) = 0.32209 0.14992
# Poissons Ratio (z) = 0.20947 0.30330
#
# Static dielectric constant tensor:
#      x y z
#    x 3.606620 0.000000 0.112380 
#    y 0.000000 4.042520 0.000000 
#    z 0.112380 0.000000 3.678190 
# 
# 
# High freq. dielectric constant tensor:
#      x y z
#    x 1.779140 0.000000 0.004160 
#    y 0.000000 1.798770 0.000000 
#    z 0.004160 0.000000 1.778470 
# 
# From -- ./inp_files/279171.got.cif
#   From: 2010.06.25/outbox.cif.g09.slc.cpg/sg12_140_cif.got.tgz:279171.got - 2010.06.28 00:19:55.
