data_PCOD8096987
_publ_section_title
;
Structure prediction by ZEFSAII (Michael W. Deem and Ramdas Pophale) SiO2 
 PCOD8096987
Probable space group: C 2/M
;
_chemical_formula_sum "Si O2"
_cell_formula_units_Z 64
_cell_length_a 20.113022
_cell_length_b 9.217083
_cell_length_c 19.573843
_cell_angle_alpha 90.000000
_cell_angle_beta 89.669683
_cell_angle_gamma 90.000000
_cell_volume 3628.605130
_symmetry_space_group_name_H-M "C 2/M"
_symmetry_group_IT_number 12
_symmetry_cell_setting 'monoclinic'
loop_
_space_group_symop_operation_xyz
x,y,z
-x,y,-z
-x,-y,-z
x,-y,z
1/2+x,1/2+y,z
1/2-x,1/2+y,-z
1/2-x,1/2-y,-z
1/2+x,1/2-y,z
loop_
_atom_site_type_symbol
_atom_site_label
_atom_site_fract_x
_atom_site_fract_y
_atom_site_fract_z
Si Si1 0.062914 0.668685 0.673742
Si Si2 0.819877 0.667645 0.920368
Si Si3 0.930978 0.831032 0.678015
Si Si4 0.672344 0.170246 0.566594
Si Si5 0.676585 0.669786 0.430239
Si Si6 0.569272 0.670754 0.165218
Si Si7 0.812550 0.333484 0.078753
Si Si8 0.563500 0.168578 0.830352
O O1 0.049609 0.500000 0.662682
O O2 0.124332 0.723268 0.627539
O O3 0.081205 0.703782 0.751843
O O4 0.996299 0.749760 0.650824
O O5 0.822646 0.500000 0.898582
O O6 0.875144 0.756865 0.880884
O O7 0.748297 0.730861 0.900524
O O8 0.833501 0.688227 0.000383
O O9 0.867951 0.781519 0.633656
O O10 0.915016 0.790542 0.756254
O O11 0.945536 0.000000 0.669950
O O12 0.650325 0.248777 0.497389
O O13 0.747463 0.213749 0.586829
O O14 0.666078 0.000000 0.554052
O O15 0.670125 0.500000 0.444517
O O16 0.568527 0.500000 0.151731
O O17 0.498368 0.736180 0.144147
O O18 0.792062 0.500000 0.093139
O O19 0.873973 0.285094 0.124809
O O20 0.545415 0.000000 0.840744
#
# Coordination Sequence:
#
# PCOD8096987 Si02
#       8
#     8   8   8   8   8   8   8   8
#     4   9  18  32  51  73  97 126 159 198 241 286
#     4  10  20  34  52  75 103 132 165 206 248 293
#     4   9  19  34  51  71  96 127 162 200 239 284
#     4   9  18  32  49  71  97 124 157 197 240 285
#     4   9  18  33  51  70  94 126 162 198 237 283
#     4  10  20  34  52  74 101 132 166 205 248 294
#     4   9  19  35  54  75 100 132 168 205 246 293
#     4   9  18  34  54  74  98 130 167 205 246 293
#
# _framework density 17.637630000000001
#
# number of rings (size 3 to 8) (size 9 to 14) (size 15 to 20)
#    0.000    2.750    0.000    0.750    0.000    4.500 
#    0.000    8.750    0.000    3.000    0.000    0.000 
#    0.000    0.000    0.000    0.000    0.000    0.000 
#
# Total GULP energy -396879.604711 kJ/mol
# GULP energy per Si atom -12402.487647 kJ/mol
# Density = 1.759749 g / cm^3
# Si number density = 17.637630 Si / 1000 Ang^3
#
#
#
# Elastic Constant Matrix: (Units=GPa)
#
#
# Indices 1 2 3 4 5 6 
#
# 1 92.1008 42.0798 44.7128 0.0000 -12.0366 0.0000
# 2 42.0798 57.4608 28.1681 0.0000 -9.5819 0.0000
# 3 44.7128 28.1681 54.1762 0.0000 -8.2887 0.0000
# 4 0.0000 0.0000 0.0000 28.4217 0.0000 -2.2421
# 5 -12.0366 -9.5819 -8.2887 0.0000 36.4851 0.0000
# 6 0.0000 0.0000 0.0000 -2.2421 0.0000 34.4035
#
#
#
# Elastic Compliance Matrix: (Units=1/GPa)
#
#
# Indices 1 2 3 4 5 6 
#
# 1 0.021424 -0.009204 -0.012624 0.000000 0.001783 0.000000
# 2 -0.009204 0.027749 -0.006404 0.000000 0.002796 0.000000
# 3 -0.012624 -0.006404 0.032439 0.000000 0.001523 0.000000
# 4 0.000000 0.000000 0.000000 0.035366 0.000000 0.002305
# 5 0.001783 0.002796 0.001523 0.000000 0.029077 0.000000
# 6 0.000000 0.000000 0.000000 0.002305 0.000000 0.029217
#
#
# Mechanical properties :
#
#
# Convention : Reuss Voigt Hill
#
# Bulk Modulus (GPa) = 39.76122 48.18436 43.97279
# Shear Modulus (GPa) = 20.82300 25.78052 23.30176
#
# Velocity S-wave (km/s) = 3.43971 3.82734 3.63869
# Velocity P-wave (km/s) = 6.19418 6.84907 6.52984
#
# Compressibility (1/GPa) = 0.02515014
#
# Stress axis : x y z
#
# Youngs Moduli (GPa) = 46.67581 36.03749 30.82662
#
# Poissons Ratio (x) = 0.33168 0.38915
# Poissons Ratio (y) = 0.42960 0.19740
# Poissons Ratio (z) = 0.58923 0.23077
#
# Static dielectric constant tensor:
#      x y z
#    x 3.371790 0.000000 0.031300 
#    y 0.000000 3.277530 0.000000 
#    z 0.031300 0.000000 3.328240 
# 
# 
# High freq. dielectric constant tensor:
#      x y z
#    x 1.685740 0.000000 0.000330 
#    y 0.000000 1.681810 0.000000 
#    z 0.000330 0.000000 1.679890 
# 
# From -- ./inp_files/314082.got.cif
#   From: 2010.06.25/outbox.cif.g09.slc.cpg/sg12_158_cif.got.tgz:314082.got - 2010.06.28 00:19:55.
