data_PCOD8096606
_publ_section_title
;
Structure prediction by ZEFSAII (Michael W. Deem and Ramdas Pophale) SiO2 
 PCOD8096606
Probable space group: C 2/M
;
_chemical_formula_sum "Si O2"
_cell_formula_units_Z 64
_cell_length_a 13.798348
_cell_length_b 23.442954
_cell_length_c 11.716557
_cell_angle_alpha 90.000000
_cell_angle_beta 111.958452
_cell_angle_gamma 90.000000
_cell_volume 3515.057275
_symmetry_space_group_name_H-M "C 2/M"
_symmetry_group_IT_number 12
_symmetry_cell_setting 'monoclinic'
loop_
_space_group_symop_operation_xyz
x,y,z
-x,y,-z
-x,-y,-z
x,-y,z
1/2+x,1/2+y,z
1/2-x,1/2+y,-z
1/2-x,1/2-y,-z
1/2+x,1/2-y,z
loop_
_atom_site_type_symbol
_atom_site_label
_atom_site_fract_x
_atom_site_fract_y
_atom_site_fract_z
Si Si1 0.241085 0.771421 0.181112
Si Si2 0.143094 0.065424 0.778610
Si Si3 0.170244 0.175006 0.926800
Si Si4 0.462237 0.725443 0.766028
Si Si5 0.052189 0.876644 0.406349
Si Si6 0.446337 0.180827 0.352171
Si Si7 0.747014 0.434740 0.588923
Si Si8 0.981453 0.437699 0.624607
O O1 0.273362 0.709386 0.149726
O O2 0.134639 0.760162 0.198283
O O3 0.327474 0.796655 0.305912
O O4 0.228877 0.816684 0.072299
O O5 0.170151 0.107953 0.894838
O O6 0.225212 0.077737 0.712836
O O7 0.024657 0.076624 0.684134
O O8 0.151202 0.000000 0.824894
O O9 0.054182 0.201149 0.886708
O O10 0.430869 0.678352 0.661486
O O11 0.492194 0.783031 0.714582
O O12 0.167297 0.901137 0.473579
O O13 0.000000 0.855321 0.500000
O O14 0.500000 0.185127 0.500000
O O15 0.445853 0.115201 0.305339
O O16 0.724500 0.500000 0.552543
O O17 0.863813 0.418228 0.604041
O O18 0.006587 0.500000 0.694063
O O19 0.000000 0.446244 0.500000
#
# Coordination Sequence:
#
# PCOD8096606 Si02
#       8
#     8   8   8   8   8   8   8   8
#     4  10  21  37  57  75 102 143 175 213 261 310
#     4   9  17  31  54  80 107 133 168 223 265 303
#     4   9  20  38  55  78 104 133 182 216 254 315
#     4  10  20  33  56  80 105 139 170 216 262 305
#     4   9  17  29  48  78 114 138 168 206 259 322
#     4  10  22  36  51  81 109 134 175 216 260 312
#     4   9  17  29  50  76 104 146 181 203 256 316
#     4   9  19  34  49  68 104 145 178 215 251 304
#
# _framework density 18.207386
#
# number of rings (size 3 to 8) (size 9 to 14) (size 15 to 20)
#    0.000    2.625    0.000    1.125    5.250    3.000 
#    0.000    0.625    0.000    6.750    0.000    2.625 
#    0.000    0.000    0.000    0.000    0.000    0.000 
#
# Total GULP energy -396646.450186 kJ/mol
# GULP energy per Si atom -12395.201568 kJ/mol
# Density = 1.816594 g / cm^3
# Si number density = 18.207386 Si / 1000 Ang^3
#
#
#
# Elastic Constant Matrix: (Units=GPa)
#
#
# Indices 1 2 3 4 5 6 
#
# 1 103.8324 26.9741 7.9246 0.0000 -1.4356 0.0000
# 2 26.9741 112.5472 27.2408 0.0000 0.6728 0.0000
# 3 7.9246 27.2408 58.7948 0.0000 9.8868 0.0000
# 4 0.0000 0.0000 0.0000 16.3641 0.0000 4.6448
# 5 -1.4356 0.6728 9.8868 0.0000 13.8998 0.0000
# 6 0.0000 0.0000 0.0000 4.6448 0.0000 14.6585
#
#
#
# Elastic Compliance Matrix: (Units=1/GPa)
#
#
# Indices 1 2 3 4 5 6 
#
# 1 0.010305 -0.002341 -0.000570 0.000000 0.001583 0.000000
# 2 -0.002341 0.010666 -0.005110 0.000000 0.002876 0.000000
# 3 -0.000570 -0.005110 0.022060 0.000000 -0.015502 0.000000
# 4 0.000000 0.000000 0.000000 0.067149 0.000000 -0.021277
# 5 0.001583 0.002876 -0.015502 0.000000 0.082994 0.000000
# 6 0.000000 0.000000 0.000000 -0.021277 0.000000 0.074962
#
#
# Mechanical properties :
#
#
# Convention : Reuss Voigt Hill
#
# Bulk Modulus (GPa) = 37.05478 44.38369 40.71924
# Shear Modulus (GPa) = 17.05479 23.18682 20.12081
#
# Velocity S-wave (km/s) = 3.06387 3.57246 3.32790
# Velocity P-wave (km/s) = 5.73691 6.43788 6.09748
#
# Compressibility (1/GPa) = 0.02698707
#
# Stress axis : x y z
#
# Youngs Moduli (GPa) = 97.04491 93.75735 45.33193
#
# Poissons Ratio (x) = 0.21949 0.02586
# Poissons Ratio (y) = 0.22719 0.23164
# Poissons Ratio (z) = 0.05536 0.47909
#
# Static dielectric constant tensor:
#      x y z
#    x 3.446650 0.000000 0.035720 
#    y 0.000000 3.568180 0.000000 
#    z 0.035720 0.000000 3.135560 
# 
# 
# High freq. dielectric constant tensor:
#      x y z
#    x 1.710450 0.000000 -0.001240 
#    y 0.000000 1.713690 0.000000 
#    z -0.001240 0.000000 1.675690 
# 
# From -- ./inp_files/135993.got.cif
#   From: 2010.06.25/outbox.cif.g09.slc.cpg/sg12_68_cif.got.tgz:135993.got - 2010.06.28 00:19:55.
