data_PCOD8096766
_publ_section_title
;
Structure prediction by ZEFSAII (Michael W. Deem and Ramdas Pophale) SiO2 
 PCOD8096766
Probable space group: C 2/M
;
_chemical_formula_sum "Si O2"
_cell_formula_units_Z 44
_cell_length_a 29.589180
_cell_length_b 12.987208
_cell_length_c 11.215713
_cell_angle_alpha 90.000000
_cell_angle_beta 149.087511
_cell_angle_gamma 90.000000
_cell_volume 2214.160423
_symmetry_space_group_name_H-M "C 2/M"
_symmetry_group_IT_number 12
_symmetry_cell_setting 'monoclinic'
loop_
_space_group_symop_operation_xyz
x,y,z
-x,y,-z
-x,-y,-z
x,-y,z
1/2+x,1/2+y,z
1/2-x,1/2+y,-z
1/2-x,1/2-y,-z
1/2+x,1/2-y,z
loop_
_atom_site_type_symbol
_atom_site_label
_atom_site_fract_x
_atom_site_fract_y
_atom_site_fract_z
Si Si1 0.133830 0.768985 0.991161
Si Si2 0.280316 0.615735 0.403295
Si Si3 0.500000 0.284636 0.500000
Si Si4 0.144019 0.176229 0.659530
Si Si5 0.922363 0.879191 0.909475
Si Si6 0.730852 0.117137 0.858429
O O1 0.069763 0.722066 0.741431
O O2 0.193776 0.681229 0.183093
O O3 0.073314 0.818126 0.956657
O O4 0.194852 0.857560 0.072065
O O5 0.246543 0.500000 0.333443
O O6 0.355043 0.627423 0.469470
O O7 0.328171 0.645737 0.634751
O O8 0.443739 0.354403 0.465777
O O9 0.150588 0.301664 0.664265
O O10 0.229725 0.130775 0.919894
O O11 0.933521 0.000000 0.958991
O O12 0.000000 0.838510 0.000000
O O13 0.697287 0.000000 0.763804
#
# Coordination Sequence:
#
# PCOD8096766 Si02
#       6
#     8   8   4   8   8   8
#     4  10  20  35  53  75 104 136 170 210 252 298
#     4  10  20  35  55  76 101 135 173 209 250 303
#     4  10  20  34  50  74 106 136 168 206 254 300
#     4   9  18  31  48  71  99 131 165 207 253 295
#     4  10  20  34  55  81 105 131 165 209 261 309
#     4   9  17  31  50  70  96 131 170 208 248 298
#
# _framework density 19.872091000000001
#
# number of rings (size 3 to 8) (size 9 to 14) (size 15 to 20)
#    0.000    2.364    0.000    3.818    0.000    0.000 
#    0.000   17.273    0.000    0.545    0.000    0.000 
#    0.000    0.000    0.000    0.000    0.000    0.000 
#
# Total GULP energy -272640.086912 kJ/mol
# GULP energy per Si atom -12392.731223 kJ/mol
# Density = 1.982686 g / cm^3
# Si number density = 19.872091 Si / 1000 Ang^3
#
#
#
# Elastic Constant Matrix: (Units=GPa)
#
#
# Indices 1 2 3 4 5 6 
#
# 1 106.0185 16.6570 20.3172 0.0000 0.9755 0.0000
# 2 16.6570 83.5419 36.9431 0.0000 -11.2380 0.0000
# 3 20.3172 36.9431 86.1465 0.0000 -6.9485 0.0000
# 4 0.0000 0.0000 0.0000 18.0625 0.0000 -1.2929
# 5 0.9755 -11.2380 -6.9485 0.0000 30.5618 0.0000
# 6 0.0000 0.0000 0.0000 -1.2929 0.0000 17.3812
#
#
#
# Elastic Compliance Matrix: (Units=1/GPa)
#
#
# Indices 1 2 3 4 5 6 
#
# 1 0.010015 -0.001326 -0.001893 0.000000 -0.001238 0.000000
# 2 -0.001326 0.015460 -0.005965 0.000000 0.004371 0.000000
# 3 -0.001893 -0.005965 0.014710 0.000000 0.001212 0.000000
# 4 0.000000 0.000000 0.000000 0.055660 0.000000 0.004140
# 5 -0.001238 0.004371 0.001212 0.000000 0.034643 0.000000
# 6 0.000000 0.000000 0.000000 0.004140 0.000000 0.057841
#
#
# Mechanical properties :
#
#
# Convention : Reuss Voigt Hill
#
# Bulk Modulus (GPa) = 45.83478 47.06015 46.44746
# Shear Modulus (GPa) = 23.36786 26.65375 25.01080
#
# Velocity S-wave (km/s) = 3.43288 3.66630 3.55151
# Velocity P-wave (km/s) = 6.23120 6.45409 6.34362
#
# Compressibility (1/GPa) = 0.02181750
#
# Stress axis : x y z
#
# Youngs Moduli (GPa) = 99.85174 64.68287 67.98022
#
# Poissons Ratio (x) = 0.08578 0.12869
# Poissons Ratio (y) = 0.13242 0.40547
# Poissons Ratio (z) = 0.18903 0.38580
#
# Static dielectric constant tensor:
#      x y z
#    x 3.778400 0.000000 -0.107780 
#    y 0.000000 3.250990 0.000000 
#    z -0.107780 0.000000 3.576330 
# 
# 
# High freq. dielectric constant tensor:
#      x y z
#    x 1.786890 0.000000 -0.011550 
#    y 0.000000 1.734830 0.000000 
#    z -0.011550 0.000000 1.768540 
# 
# From -- ./inp_files/189279.got.cif
#   From: 2010.06.25/outbox.cif.g09.slc.cpg/sg12_95_cif.got.tgz:189279.got - 2010.06.28 00:19:55.
