data_PCOD8096788
_publ_section_title
;
Structure prediction by ZEFSAII (Michael W. Deem and Ramdas Pophale) SiO2 
 PCOD8096788
Probable space group: C 2/M
;
_chemical_formula_sum "Si O2"
_cell_formula_units_Z 64
_cell_length_a 22.199924
_cell_length_b 25.351459
_cell_length_c 19.659108
_cell_angle_alpha 90.000000
_cell_angle_beta 160.639599
_cell_angle_gamma 90.000000
_cell_volume 3667.868763
_symmetry_space_group_name_H-M "C 2/M"
_symmetry_group_IT_number 12
_symmetry_cell_setting 'monoclinic'
loop_
_space_group_symop_operation_xyz
x,y,z
-x,y,-z
-x,-y,-z
x,-y,z
1/2+x,1/2+y,z
1/2-x,1/2+y,-z
1/2-x,1/2-y,-z
1/2+x,1/2-y,z
loop_
_atom_site_type_symbol
_atom_site_label
_atom_site_fract_x
_atom_site_fract_y
_atom_site_fract_z
Si Si1 0.115271 0.869128 0.313866
Si Si2 0.601062 0.060590 0.440751
Si Si3 0.443148 0.700440 0.227442
Si Si4 0.282093 0.440123 0.916376
Si Si5 0.351854 0.762212 0.002893
Si Si6 0.211699 0.906785 0.221220
Si Si7 0.290817 0.215155 0.286945
Si Si8 0.280732 0.741115 0.641754
O O1 0.296798 0.904887 0.508256
O O2 0.159808 0.817904 0.315823
O O3 0.053653 0.852879 0.325284
O O4 0.950805 0.901194 0.104907
O O5 0.693329 0.070048 0.611573
O O6 0.621517 0.000000 0.441754
O O7 0.388055 0.076439 0.216966
O O8 0.293516 0.692487 0.128784
O O9 0.587050 0.745093 0.403082
O O10 0.336235 0.717715 0.045136
O O11 0.342032 0.500000 0.996664
O O12 0.211149 0.436153 0.763213
O O13 0.311029 0.736355 0.887258
O O14 0.562617 0.780997 0.220947
O O15 0.251608 0.845453 0.256841
O O16 0.000000 0.918623 0.000000
O O17 0.500000 0.226344 0.500000
O O18 0.225077 0.246983 0.283258
#
# Coordination Sequence:
#
# PCOD8096788 Si02
#       8
#     8   8   8   8   8   8   8   8
#     4  11  21  35  53  70  96 131 176 216 264 312
#     4  11  23  36  50  70  98 133 174 222 267 307
#     4  10  22  36  51  75 100 134 174 222 267 321
#     4  11  23  36  50  70  98 132 174 222 267 310
#     4  10  20  34  51  70 101 131 167 217 265 309
#     4  12  21  32  48  72  96 132 174 221 269 307
#     4  12  21  33  52  75 105 136 179 224 263 311
#     4  11  21  36  52  77 100 133 176 221 266 318
#
# _framework density 17.448826
#
# number of rings (size 3 to 8) (size 9 to 14) (size 15 to 20)
#    0.000    1.000    3.750    6.000    0.000    5.500 
#    0.000    0.000    0.000    0.000    0.000    0.000 
#    0.000    0.000    0.000    9.000    0.000   63.000 
#
# Total GULP energy -396571.964304 kJ/mol
# GULP energy per Si atom -12392.873885 kJ/mol
# Density = 1.740911 g / cm^3
# Si number density = 17.448826 Si / 1000 Ang^3
#
#
#
# Elastic Constant Matrix: (Units=GPa)
#
#
# Indices 1 2 3 4 5 6 
#
# 1 105.3076 40.0854 32.9875 -0.0016 28.0477 0.0003
# 2 40.0854 52.2411 18.9924 -0.0010 7.9096 0.0003
# 3 32.9875 18.9924 61.8540 -0.0075 13.4748 0.0010
# 4 -0.0016 -0.0010 -0.0075 23.8559 -0.0031 7.3369
# 5 28.0477 7.9096 13.4748 -0.0031 35.9087 0.0004
# 6 0.0003 0.0003 0.0010 7.3369 0.0004 27.9751
#
#
#
# Elastic Compliance Matrix: (Units=1/GPa)
#
#
# Indices 1 2 3 4 5 6 
#
# 1 0.017246 -0.010341 -0.003903 -0.000002 -0.009728 0.000001
# 2 -0.010341 0.027951 -0.003796 0.000000 0.003345 0.000000
# 3 -0.003903 -0.003796 0.020221 0.000006 -0.003703 -0.000002
# 4 -0.000002 0.000000 0.000006 0.045596 0.000003 -0.011958
# 5 -0.009728 0.003345 -0.003703 0.000003 0.036100 -0.000001
# 6 0.000001 0.000000 -0.000002 -0.011958 -0.000001 0.038882
#
#
# Mechanical properties :
#
#
# Convention : Reuss Voigt Hill
#
# Bulk Modulus (GPa) = 34.08642 44.83705 39.46173
# Shear Modulus (GPa) = 21.56521 26.03710 23.80116
#
# Velocity S-wave (km/s) = 3.51937 3.86709 3.69732
# Velocity P-wave (km/s) = 6.00767 6.75953 6.39466
#
# Compressibility (1/GPa) = 0.02933720
#
# Stress axis : x y z
#
# Youngs Moduli (GPa) = 57.98450 35.77744 49.45385
#
# Poissons Ratio (x) = 0.36999 0.19301
# Poissons Ratio (y) = 0.59964 0.18772
# Poissons Ratio (z) = 0.22631 0.13581
#
# Static dielectric constant tensor:
#      x y z
#    x 3.727830 0.000000 0.473690 
#    y 0.000000 3.068870 0.000000 
#    z 0.473690 0.000000 3.508180 
# 
# 
# High freq. dielectric constant tensor:
#      x y z
#    x 1.673770 0.000000 0.037360 
#    y 0.000000 1.626870 0.000000 
#    z 0.037360 0.000000 1.682310 
# 
# From -- ./inp_files/286709.got.cif
#   From: 2010.06.25/outbox.cif.g09.slc.cpg/sg12_144_cif.got.tgz:286709.got - 2010.06.28 00:19:55.
