data_PCOD8096936
_publ_section_title
;
Structure prediction by ZEFSAII (Michael W. Deem and Ramdas Pophale) SiO2 
 PCOD8096936
Probable space group: C 2/M
;
_chemical_formula_sum "Si O2"
_cell_formula_units_Z 56
_cell_length_a 18.526115
_cell_length_b 9.437395
_cell_length_c 22.514988
_cell_angle_alpha 90.000000
_cell_angle_beta 52.719066
_cell_angle_gamma 90.000000
_cell_volume 3132.160217
_symmetry_space_group_name_H-M "C 2/M"
_symmetry_group_IT_number 12
_symmetry_cell_setting 'monoclinic'
loop_
_space_group_symop_operation_xyz
x,y,z
-x,y,-z
-x,-y,-z
x,-y,z
1/2+x,1/2+y,z
1/2-x,1/2+y,-z
1/2-x,1/2-y,-z
1/2+x,1/2-y,z
loop_
_atom_site_type_symbol
_atom_site_label
_atom_site_fract_x
_atom_site_fract_y
_atom_site_fract_z
Si Si1 0.080509 0.664832 0.003959
Si Si2 0.715498 0.168832 0.267798
Si Si3 0.593255 0.838130 0.433358
Si Si4 0.258319 0.338393 0.436908
Si Si5 0.432349 0.333543 0.868633
Si Si6 0.276132 0.664558 0.855334
Si Si7 0.374200 0.667579 0.272116
O O1 0.074579 0.500000 0.023701
O O2 0.072679 0.754004 0.067127
O O3 0.175086 0.702444 0.925862
O O4 0.000000 0.709696 0.000000
O O5 0.636246 0.224774 0.351465
O O6 0.698870 0.243141 0.213784
O O7 0.811812 0.218417 0.247982
O O8 0.712966 0.000000 0.260482
O O9 0.500000 0.759722 0.500000
O O10 0.662609 0.825812 0.452432
O O11 0.570574 0.000000 0.429902
O O12 0.280557 0.500000 0.442898
O O13 0.250000 0.250000 0.500000
O O14 0.336320 0.274587 0.354154
O O15 0.436783 0.500000 0.879794
O O16 0.345123 0.293115 0.873265
O O17 0.522735 0.282566 0.788916
O O18 0.286102 0.500000 0.833851
O O19 0.364323 0.500000 0.280486
#
# Coordination Sequence:
#
# PCOD8096936 Si02
#       7
#     8   8   8   8   8   8   8
#     4  10  21  36  52  71  97 126 154 190 237 280
#     4   9  17  31  52  72  90 122 165 197 225 273
#     4   8  15  29  48  69  94 124 158 196 234 272
#     4   9  17  30  48  69  95 125 156 193 235 278
#     4  10  20  34  52  72  95 125 159 192 229 278
#     4  10  21  34  48  71 101 126 149 189 243 282
#     4   8  16  32  50  68  93 125 159 194 232 274
#
# _framework density 17.879034999999998
#
# number of rings (size 3 to 8) (size 9 to 14) (size 15 to 20)
#    0.000    2.857    0.000    3.000    0.000    2.571 
#    0.000    3.571    0.000    0.857    0.000    0.000 
#    0.000    0.000    0.000    0.000    0.000    0.000 
#
# Total GULP energy -347102.073817 kJ/mol
# GULP energy per Si atom -12396.502636 kJ/mol
# Density = 1.783834 g / cm^3
# Si number density = 17.879035 Si / 1000 Ang^3
#
#
#
# Elastic Constant Matrix: (Units=GPa)
#
#
# Indices 1 2 3 4 5 6 
#
# 1 123.9599 38.2050 86.4251 0.0000 -6.9986 0.0001
# 2 38.2050 42.6208 52.8697 0.0000 10.0095 0.0002
# 3 86.4251 52.8697 146.6248 0.0000 5.8840 0.0000
# 4 0.0000 0.0000 0.0000 29.2678 0.0000 9.7633
# 5 -6.9986 10.0095 5.8840 0.0000 37.8743 0.0000
# 6 0.0001 0.0002 0.0000 9.7633 0.0000 18.5191
#
#
#
# Elastic Compliance Matrix: (Units=1/GPa)
#
#
# Indices 1 2 3 4 5 6 
#
# 1 0.015103 -0.006368 -0.006828 0.000000 0.005534 0.000000
# 2 -0.006368 0.048338 -0.013199 0.000000 -0.011901 0.000000
# 3 -0.006828 -0.013199 0.015612 0.000000 -0.000199 0.000000
# 4 0.000000 0.000000 0.000000 0.041459 0.000000 -0.021857
# 5 0.005534 -0.011901 -0.000199 0.000000 0.030602 0.000000
# 6 0.000000 0.000000 0.000000 -0.021857 0.000000 0.065522
#
#
# Mechanical properties :
#
#
# Convention : Reuss Voigt Hill
#
# Bulk Modulus (GPa) = 38.07520 74.24502 56.16011
# Shear Modulus (GPa) = 17.97407 26.17927 22.07667
#
# Velocity S-wave (km/s) = 3.17411 3.83070 3.51776
# Velocity P-wave (km/s) = 5.89708 7.82190 6.92667
#
# Compressibility (1/GPa) = 0.02626382
#
# Stress axis : x y z
#
# Youngs Moduli (GPa) = 66.21350 20.68751 64.05370
#
# Poissons Ratio (x) = 0.13173 0.43736
# Poissons Ratio (y) = 0.42163 0.84543
# Poissons Ratio (z) = 0.45210 0.27305
#
# Static dielectric constant tensor:
#      x y z
#    x 3.516880 0.000000 -0.340770 
#    y 0.000000 2.978590 0.000000 
#    z -0.340770 0.000000 3.600120 
# 
# 
# High freq. dielectric constant tensor:
#      x y z
#    x 1.696710 0.000000 -0.007160 
#    y 0.000000 1.655150 0.000000 
#    z -0.007160 0.000000 1.707080 
# 
# From -- ./inp_files/276648.got.cif
#   From: 2010.06.25/outbox.cif.g09.slc.cpg/sg12_139_cif.got.tgz:276648.got - 2010.06.28 00:19:55.
