data_PCOD8096881
_publ_section_title
;
Structure prediction by ZEFSAII (Michael W. Deem and Ramdas Pophale) SiO2 
 PCOD8096881
Probable space group: C 2/M
;
_chemical_formula_sum "Si O2"
_cell_formula_units_Z 56
_cell_length_a 18.938098
_cell_length_b 8.962972
_cell_length_c 26.333675
_cell_angle_alpha 90.000000
_cell_angle_beta 42.606042
_cell_angle_gamma 90.000000
_cell_volume 3025.929226
_symmetry_space_group_name_H-M "C 2/M"
_symmetry_group_IT_number 12
_symmetry_cell_setting 'monoclinic'
loop_
_space_group_symop_operation_xyz
x,y,z
-x,y,-z
-x,-y,-z
x,-y,z
1/2+x,1/2+y,z
1/2-x,1/2+y,-z
1/2-x,1/2-y,-z
1/2+x,1/2-y,z
loop_
_atom_site_type_symbol
_atom_site_label
_atom_site_fract_x
_atom_site_fract_y
_atom_site_fract_z
Si Si1 0.664594 0.676174 0.580391
Si Si2 0.966486 0.322261 0.073942
Si Si3 0.854175 0.662917 0.949231
Si Si4 0.739222 0.176940 0.756917
Si Si5 0.528325 0.160836 0.212506
Si Si6 0.331041 0.670961 0.305911
Si Si7 0.057118 0.328250 0.308961
O O1 0.656562 0.500000 0.575122
O O2 0.750000 0.750000 0.500000
O O3 0.701312 0.709598 0.618955
O O4 0.554157 0.749093 0.623882
O O5 0.963570 0.500000 0.076648
O O6 0.853859 0.265638 0.155543
O O7 0.055700 0.259759 0.064642
O O8 0.000000 0.264036 0.000000
O O9 0.832012 0.500000 0.984655
O O10 0.884437 0.649803 0.875233
O O11 0.750000 0.750000 0.000000
O O12 0.722378 0.224027 0.707384
O O13 0.850611 0.245504 0.711048
O O14 0.745961 0.000000 0.756222
O O15 0.454285 0.298699 0.238402
O O16 0.587385 0.185535 0.234030
O O17 0.466752 0.000000 0.247090
O O18 0.307530 0.500000 0.304609
O O19 0.049739 0.500000 0.331345
#
# Coordination Sequence:
#
# PCOD8096881 Si02
#       7
#     8   8   8   8   8   8   8
#     4  10  21  39  63  91 119 149 183 224 275 334
#     4   9  19  35  53  75 107 148 191 237 288 337
#     4  10  20  34  51  74 105 140 184 234 285 339
#     4  11  21  36  58  81 113 153 194 236 284 341
#     4   9  18  35  54  74 105 145 187 231 281 333
#     4  10  20  35  58  85 112 143 185 228 273 329
#     4  10  21  36  57  84 115 148 187 234 281 331
#
# _framework density 18.506710999999999
#
# number of rings (size 3 to 8) (size 9 to 14) (size 15 to 20)
#    0.000    2.143    1.429    1.714    2.000    2.857 
#    0.000    0.714    0.000    6.429    0.000    0.000 
#    0.000    0.000    0.000    0.000    0.000    0.000 
#
# Total GULP energy -346928.319829 kJ/mol
# GULP energy per Si atom -12390.297137 kJ/mol
# Density = 1.846459 g / cm^3
# Si number density = 18.506711 Si / 1000 Ang^3
#
#
#
# Elastic Constant Matrix: (Units=GPa)
#
#
# Indices 1 2 3 4 5 6 
#
# 1 118.5497 51.8231 69.9271 0.0000 -6.6632 -0.0002
# 2 51.8231 86.5189 52.6937 0.0000 -2.3759 -0.0009
# 3 69.9271 52.6937 118.7307 0.0000 -1.7759 0.0000
# 4 0.0000 0.0000 0.0000 27.7250 0.0000 -4.5490
# 5 -6.6632 -2.3759 -1.7759 0.0000 24.9817 0.0000
# 6 -0.0002 -0.0009 0.0000 -4.5490 0.0000 33.0697
#
#
#
# Elastic Compliance Matrix: (Units=1/GPa)
#
#
# Indices 1 2 3 4 5 6 
#
# 1 0.014393 -0.004665 -0.006362 0.000000 0.002943 0.000000
# 2 -0.004665 0.017377 -0.004964 0.000000 0.000055 0.000000
# 3 -0.006362 -0.004964 0.014355 0.000000 -0.001149 0.000000
# 4 0.000000 0.000000 0.000000 0.036901 0.000000 0.005076
# 5 0.002943 0.000055 -0.001149 0.000000 0.040738 0.000000
# 6 0.000000 0.000000 0.000000 0.005076 0.000000 0.030937
#
#
# Mechanical properties :
#
#
# Convention : Reuss Voigt Hill
#
# Bulk Modulus (GPa) = 70.70699 74.74300 72.72499
# Shear Modulus (GPa) = 26.12346 27.11231 26.61788
#
# Velocity S-wave (km/s) = 3.76116 3.83168 3.79658
# Velocity P-wave (km/s) = 7.55982 7.74922 7.65510
#
# Compressibility (1/GPa) = 0.01414287
#
# Stress axis : x y z
#
# Youngs Moduli (GPa) = 69.47865 57.54657 69.66110
#
# Poissons Ratio (x) = 0.26848 0.44320
# Poissons Ratio (y) = 0.32414 0.34577
# Poissons Ratio (z) = 0.44204 0.28564
#
# Static dielectric constant tensor:
#      x y z
#    x 3.429520 0.000000 0.118410 
#    y 0.000000 3.094650 0.000000 
#    z 0.118410 0.000000 3.326540 
# 
# 
# High freq. dielectric constant tensor:
#      x y z
#    x 1.722300 0.000000 0.008390 
#    y 0.000000 1.712350 0.000000 
#    z 0.008390 0.000000 1.707940 
# 
# From -- ./inp_files/363022.got.cif
#   From: 2010.06.25/outbox.cif.g09.slc.cpg/sg12_182_cif.got.tgz:363022.got - 2010.06.28 00:19:55.
