data_PCOD8096760
_publ_section_title
;
Structure prediction by ZEFSAII (Michael W. Deem and Ramdas Pophale) SiO2 
 PCOD8096760
Probable space group: C 2/M
;
_chemical_formula_sum "Si O2"
_cell_formula_units_Z 48
_cell_length_a 15.009677
_cell_length_b 9.441314
_cell_length_c 32.429329
_cell_angle_alpha 90.000000
_cell_angle_beta 144.502581
_cell_angle_gamma 90.000000
_cell_volume 2668.507077
_symmetry_space_group_name_H-M "C 2/M"
_symmetry_group_IT_number 12
_symmetry_cell_setting 'monoclinic'
loop_
_space_group_symop_operation_xyz
x,y,z
-x,y,-z
-x,-y,-z
x,-y,z
1/2+x,1/2+y,z
1/2-x,1/2+y,-z
1/2-x,1/2-y,-z
1/2+x,1/2-y,z
loop_
_atom_site_type_symbol
_atom_site_label
_atom_site_fract_x
_atom_site_fract_y
_atom_site_fract_z
Si Si1 0.651567 0.663500 0.930761
Si Si2 0.269457 0.667282 0.431073
Si Si3 0.069522 0.167783 0.590273
Si Si4 0.163294 0.335161 0.079077
Si Si5 0.937140 0.332829 0.331213
Si Si6 0.315514 0.335440 0.830700
O O1 0.680504 0.500000 0.951977
O O2 0.704984 0.698050 0.904586
O O3 0.473936 0.705424 0.867845
O O4 0.750000 0.750000 0.000000
O O5 0.264058 0.500000 0.428193
O O6 0.397440 0.715028 0.512376
O O7 0.314683 0.717525 0.402187
O O8 0.104066 0.727986 0.381391
O O9 0.119494 0.251952 0.649582
O O10 0.079100 0.000000 0.601857
O O11 0.154083 0.500000 0.086987
O O12 0.207435 0.250812 0.136330
O O13 0.000000 0.282299 0.000000
O O14 0.939565 0.500000 0.341098
O O15 0.821578 0.293860 0.251236
O O16 0.311473 0.500000 0.840771
#
# Coordination Sequence:
#
# PCOD8096760 Si02
#       6
#     8   8   8   8   8   8
#     4  10  20  35  54  75  99 127 162 206 251 298
#     4   8  16  32  53  74 102 136 171 208 248 296
#     4   9  17  32  54  77  98 133 178 211 242 290
#     4  10  20  35  55  76  98 127 166 211 253 294
#     4  10  20  34  50  73 107 138 164 205 257 301
#     4  10  22  36  51  75 105 136 167 202 254 310
#
# _framework density 17.987586
#
# number of rings (size 3 to 8) (size 9 to 14) (size 15 to 20)
#    0.000    2.500    1.667    1.500    0.000    3.000 
#    0.000    2.500    0.000    0.000    0.000    0.000 
#    0.000    0.000    0.000    0.000    0.000    0.000 
#
# Total GULP energy -297618.894472 kJ/mol
# GULP energy per Si atom -12400.787270 kJ/mol
# Density = 1.794665 g / cm^3
# Si number density = 17.987586 Si / 1000 Ang^3
#
#
#
# Elastic Constant Matrix: (Units=GPa)
#
#
# Indices 1 2 3 4 5 6 
#
# 1 102.4917 36.8762 47.6016 0.0000 -14.3235 0.0000
# 2 36.8762 44.3220 45.8255 0.0000 -14.5028 0.0000
# 3 47.6016 45.8255 107.1285 0.0000 -20.0894 0.0000
# 4 0.0000 0.0000 0.0000 29.0075 0.0000 -9.2867
# 5 -14.3235 -14.5028 -20.0894 0.0000 31.0479 0.0000
# 6 0.0000 0.0000 0.0000 -9.2867 0.0000 27.0105
#
#
#
# Elastic Compliance Matrix: (Units=1/GPa)
#
#
# Indices 1 2 3 4 5 6 
#
# 1 0.014240 -0.009322 -0.002190 0.000000 0.000798 0.000000
# 2 -0.009322 0.048766 -0.015083 0.000000 0.008719 0.000000
# 3 -0.002190 -0.015083 0.017355 0.000000 0.003174 0.000000
# 4 0.000000 0.000000 0.000000 0.038738 0.000000 0.013319
# 5 0.000798 0.008719 0.003174 0.000000 0.038703 0.000000
# 6 0.000000 0.000000 0.000000 0.013319 0.000000 0.041602
#
#
# Mechanical properties :
#
#
# Convention : Reuss Voigt Hill
#
# Bulk Modulus (GPa) = 36.80522 57.17207 46.98864
# Shear Modulus (GPa) = 19.10959 25.65578 22.38268
#
# Velocity S-wave (km/s) = 3.26295 3.78074 3.53135
# Velocity P-wave (km/s) = 5.89081 7.13525 6.54269
#
# Compressibility (1/GPa) = 0.02717006
#
# Stress axis : x y z
#
# Youngs Moduli (GPa) = 70.22686 20.50620 57.62136
#
# Poissons Ratio (x) = 0.19116 0.12619
# Poissons Ratio (y) = 0.65466 0.86909
# Poissons Ratio (z) = 0.15379 0.30929
#
# Static dielectric constant tensor:
#      x y z
#    x 3.651910 0.000000 0.188270 
#    y 0.000000 3.081730 0.000000 
#    z 0.188270 0.000000 3.306140 
# 
# 
# High freq. dielectric constant tensor:
#      x y z
#    x 1.710570 0.000000 0.000050 
#    y 0.000000 1.674330 0.000000 
#    z 0.000050 0.000000 1.693140 
# 
# From -- ./inp_files/303837.got.cif
#   From: 2010.06.25/outbox.cif.g09.slc.cpg/sg12_152_cif.got.tgz:303837.got - 2010.06.28 00:19:55.
