data_PCOD8096123
_publ_section_title
;
Structure prediction by ZEFSAII (Michael W. Deem and Ramdas Pophale) SiO2 
 PCOD8096123
Probable space group: C 2/M
;
_chemical_formula_sum "Si O2"
_cell_formula_units_Z 56
_cell_length_a 22.894254
_cell_length_b 12.753099
_cell_length_c 20.824431
_cell_angle_alpha 90.000000
_cell_angle_beta 154.120549
_cell_angle_gamma 90.000000
_cell_volume 2653.865205
_symmetry_space_group_name_H-M "C 2/M"
_symmetry_group_IT_number 12
_symmetry_cell_setting 'monoclinic'
loop_
_space_group_symop_operation_xyz
x,y,z
-x,y,-z
-x,-y,-z
x,-y,z
1/2+x,1/2+y,z
1/2-x,1/2+y,-z
1/2-x,1/2-y,-z
1/2+x,1/2-y,z
loop_
_atom_site_type_symbol
_atom_site_label
_atom_site_fract_x
_atom_site_fract_y
_atom_site_fract_z
Si Si1 0.465088 0.621402 0.711549
Si Si2 0.105877 0.624908 0.874659
Si Si3 0.616940 0.120173 0.535612
Si Si4 0.815031 0.122506 0.978167
Si Si5 0.827873 0.695802 0.278118
Si Si6 0.325552 0.874354 0.550551
Si Si7 0.174639 0.119787 0.809460
O O1 0.442730 0.500000 0.706490
O O2 0.314828 0.670969 0.559123
O O3 0.541198 0.633483 0.719679
O O4 0.556130 0.674739 0.858318
O O5 0.102229 0.500000 0.877892
O O6 0.180062 0.657150 0.882049
O O7 0.954329 0.671599 0.717599
O O8 0.193532 0.666138 0.022501
O O9 0.457716 0.129530 0.386117
O O10 0.694574 0.186601 0.667719
O O11 0.664366 0.161641 0.513560
O O12 0.658273 0.000000 0.585769
O O13 0.799459 0.151423 0.887775
O O14 0.836274 0.000000 0.008057
O O15 0.846000 0.817693 0.277115
O O16 0.333944 0.000000 0.563233
O O17 0.198245 0.000000 0.814084
#
# Coordination Sequence:
#
# PCOD8096123 Si02
#       7
#     8   8   8   8   8   8   8
#     4   8  16  29  48  74 106 138 162 198 256 309
#     4   8  14  26  47  72  98 130 165 205 247 294
#     4  10  20  33  51  79 105 130 166 213 249 299
#     4   9  15  27  46  72 101 130 163 201 248 300
#     4  11  19  30  51  72 101 134 174 205 254 290
#     4   9  15  29  51  75 105 137 166 196 250 310
#     4   9  19  34  50  73 104 131 169 213 249 295
#
# _framework density 21.101298
#
# number of rings (size 3 to 8) (size 9 to 14) (size 15 to 20)
#    0.000    2.857    1.429    3.429    0.000    2.286 
#    0.000    2.857    0.000    3.429    0.000    0.000 
#    0.000    5.714    0.000    1.143    0.000    0.000 
#
# Total GULP energy -347094.873120 kJ/mol
# GULP energy per Si atom -12396.245469 kJ/mol
# Density = 2.105327 g / cm^3
# Si number density = 21.101298 Si / 1000 Ang^3
#
#
#
# Elastic Constant Matrix: (Units=GPa)
#
#
# Indices 1 2 3 4 5 6 
#
# 1 65.4666 26.4365 45.2709 0.0003 -9.5008 0.0002
# 2 26.4365 45.9476 45.1820 0.0000 -4.8982 0.0000
# 3 45.2709 45.1820 137.2911 0.0003 3.7875 0.0001
# 4 0.0003 0.0000 0.0003 39.4043 0.0000 -6.6076
# 5 -9.5008 -4.8982 3.7875 0.0000 37.1922 0.0000
# 6 0.0002 0.0000 0.0001 -6.6076 0.0000 22.9115
#
#
#
# Elastic Compliance Matrix: (Units=1/GPa)
#
#
# Indices 1 2 3 4 5 6 
#
# 1 0.022596 -0.007334 -0.005184 0.000000 0.005334 0.000000
# 2 -0.007334 0.035647 -0.009417 0.000000 0.003780 0.000000
# 3 -0.005184 -0.009417 0.012197 0.000000 -0.003807 0.000000
# 4 0.000000 0.000000 0.000000 0.026668 0.000000 0.007691
# 5 0.005334 0.003780 -0.003807 0.000000 0.029135 0.000000
# 6 0.000000 0.000000 0.000000 0.007691 0.000000 0.045864
#
#
# Mechanical properties :
#
#
# Convention : Reuss Voigt Hill
#
# Bulk Modulus (GPa) = 37.63807 53.60936 45.62372
# Shear Modulus (GPa) = 22.23854 28.68934 25.46394
#
# Velocity S-wave (km/s) = 3.24990 3.69128 3.47760
# Velocity P-wave (km/s) = 5.65314 6.60517 6.14761
#
# Compressibility (1/GPa) = 0.02656884
#
# Stress axis : x y z
#
# Youngs Moduli (GPa) = 44.25615 28.05290 81.98429
#
# Poissons Ratio (x) = 0.20574 0.42503
# Poissons Ratio (y) = 0.32458 0.77206
# Poissons Ratio (z) = 0.22944 0.26418
#
# Static dielectric constant tensor:
#      x y z
#    x 3.390150 0.000000 -0.024190 
#    y 0.000000 3.988980 0.000000 
#    z -0.024190 0.000000 4.206280 
# 
# 
# High freq. dielectric constant tensor:
#      x y z
#    x 1.762470 0.000000 -0.010440 
#    y 0.000000 1.862650 0.000000 
#    z -0.010440 0.000000 1.835760 
# 
# From -- ./inp_files/352084.got.cif
#   From: 2010.06.25/outbox.cif.g09.slc.cpg/sg12_177_cif.got.tgz:352084.got - 2010.06.28 00:19:55.
