data_PCOD8096245
_publ_section_title
;
Structure prediction by ZEFSAII (Michael W. Deem and Ramdas Pophale) SiO2 
 PCOD8096245
Probable space group: C 2/M
;
_chemical_formula_sum "Si O2"
_cell_formula_units_Z 56
_cell_length_a 30.665736
_cell_length_b 9.076281
_cell_length_c 14.513820
_cell_angle_alpha 90.000000
_cell_angle_beta 46.327391
_cell_angle_gamma 90.000000
_cell_volume 2921.863555
_symmetry_space_group_name_H-M "C 2/M"
_symmetry_group_IT_number 12
_symmetry_cell_setting 'monoclinic'
loop_
_space_group_symop_operation_xyz
x,y,z
-x,y,-z
-x,-y,-z
x,-y,z
1/2+x,1/2+y,z
1/2-x,1/2+y,-z
1/2-x,1/2-y,-z
1/2+x,1/2-y,z
loop_
_atom_site_type_symbol
_atom_site_label
_atom_site_fract_x
_atom_site_fract_y
_atom_site_fract_z
Si Si1 0.074605 0.170045 0.552075
Si Si2 0.104257 0.670638 0.329921
Si Si3 0.349957 0.671788 0.074556
Si Si4 0.241235 0.330934 0.107623
Si Si5 0.820494 0.328665 0.492703
Si Si6 0.697255 0.829236 0.692510
Si Si7 0.561120 0.668240 0.214082
O O1 0.068457 0.236820 0.458620
O O2 0.122129 0.258014 0.543022
O O3 0.010089 0.188642 0.694900
O O4 0.093880 0.000000 0.517034
O O5 0.086179 0.500000 0.364526
O O6 0.175064 0.694931 0.245613
O O7 0.087360 0.725605 0.253491
O O8 0.347273 0.500000 0.103373
O O9 0.289865 0.726485 0.109740
O O10 0.352980 0.764330 0.164749
O O11 0.408248 0.709689 0.927817
O O12 0.253779 0.500000 0.067320
O O13 0.250000 0.250000 0.000000
O O14 0.817834 0.500000 0.522656
O O15 0.759729 0.255364 0.618620
O O16 0.827448 0.302162 0.373788
O O17 0.708526 0.000000 0.695540
O O18 0.577242 0.500000 0.217836
#
# Coordination Sequence:
#
# PCOD8096245 Si02
#       7
#     8   8   8   8   8   8   8
#     4  11  23  38  58  82 109 148 196 238 278 329
#     4  11  22  35  55  84 113 148 192 236 284 334
#     4  10  20  36  57  81 114 153 188 229 279 330
#     4  10  20  33  52  78 108 142 180 223 271 323
#     4  10  21  39  61  86 115 144 181 230 283 335
#     4  10  21  37  61  90 115 143 180 226 281 341
#     4  10  22  39  56  78 112 154 196 234 274 328
#
# _framework density 19.165849999999999
#
# number of rings (size 3 to 8) (size 9 to 14) (size 15 to 20)
#    0.000    1.714    1.429    3.000    0.000    7.429 
#    0.000    0.714    0.000    4.286    0.000    0.000 
#    0.000    0.000    0.000    0.000    0.000    0.000 
#
# Total GULP energy -347338.531152 kJ/mol
# GULP energy per Si atom -12404.947541 kJ/mol
# Density = 1.912223 g / cm^3
# Si number density = 19.165850 Si / 1000 Ang^3
#
#
#
# Elastic Constant Matrix: (Units=GPa)
#
#
# Indices 1 2 3 4 5 6 
#
# 1 59.2392 42.0116 36.6542 -0.0001 1.9125 0.0003
# 2 42.0116 106.6993 62.0496 0.0001 7.4490 0.0002
# 3 36.6542 62.0496 134.1208 0.0000 9.2193 0.0001
# 4 -0.0001 0.0001 0.0000 34.2751 0.0000 6.7205
# 5 1.9125 7.4490 9.2193 0.0000 25.9944 0.0000
# 6 0.0003 0.0002 0.0001 6.7205 0.0000 30.7595
#
#
#
# Elastic Compliance Matrix: (Units=1/GPa)
#
#
# Indices 1 2 3 4 5 6 
#
# 1 0.024350 -0.007886 -0.003114 0.000000 0.001573 0.000000
# 2 -0.007886 0.015442 -0.004843 0.000000 -0.002127 0.000000
# 3 -0.003114 -0.004843 0.010697 0.000000 -0.002177 0.000000
# 4 0.000000 0.000000 0.000000 0.030482 0.000000 -0.006660
# 5 0.001573 -0.002127 -0.002177 0.000000 0.039736 0.000000
# 6 0.000000 0.000000 0.000000 -0.006660 0.000000 0.033965
#
#
# Mechanical properties :
#
#
# Convention : Reuss Voigt Hill
#
# Bulk Modulus (GPa) = 53.18398 64.60999 58.89698
# Shear Modulus (GPa) = 25.95722 28.82872 27.39297
#
# Velocity S-wave (km/s) = 3.68414 3.88257 3.78466
# Velocity P-wave (km/s) = 6.77545 7.34053 7.06364
#
# Compressibility (1/GPa) = 0.01880266
#
# Stress axis : x y z
#
# Youngs Moduli (GPa) = 41.06849 64.75912 93.48364
#
# Poissons Ratio (x) = 0.51070 0.29113
# Poissons Ratio (y) = 0.32387 0.45270
# Poissons Ratio (z) = 0.12790 0.31360
#
# Static dielectric constant tensor:
#      x y z
#    x 3.388740 0.000000 -0.011910 
#    y 0.000000 3.593960 0.000000 
#    z -0.011910 0.000000 3.707440 
# 
# 
# High freq. dielectric constant tensor:
#      x y z
#    x 1.731930 0.000000 0.002460 
#    y 0.000000 1.752320 0.000000 
#    z 0.002460 0.000000 1.755010 
# 
# From -- ./inp_files/237481.got.cif
#   From: 2010.06.25/outbox.cif.g09.slc.cpg/sg12_119_cif.got.tgz:237481.got - 2010.06.28 00:19:55.
