data_PCOD8096909
_publ_section_title
;
Structure prediction by ZEFSAII (Michael W. Deem and Ramdas Pophale) SiO2 
 PCOD8096909
Probable space group: C 2/M
;
_chemical_formula_sum "Si O2"
_cell_formula_units_Z 64
_cell_length_a 20.567745
_cell_length_b 9.077688
_cell_length_c 20.135374
_cell_angle_alpha 90.000000
_cell_angle_beta 112.779468
_cell_angle_gamma 90.000000
_cell_volume 3466.198865
_symmetry_space_group_name_H-M "C 2/M"
_symmetry_group_IT_number 12
_symmetry_cell_setting 'monoclinic'
loop_
_space_group_symop_operation_xyz
x,y,z
-x,y,-z
-x,-y,-z
x,-y,z
1/2+x,1/2+y,z
1/2-x,1/2+y,-z
1/2-x,1/2-y,-z
1/2+x,1/2-y,z
loop_
_atom_site_type_symbol
_atom_site_label
_atom_site_fract_x
_atom_site_fract_y
_atom_site_fract_z
Si Si1 0.547686 0.674737 0.268402
Si Si2 0.710067 0.331600 0.722972
Si Si3 0.678265 0.172098 0.952113
Si Si4 0.146475 0.174679 0.188410
Si Si5 0.610203 0.328049 0.802804
Si Si6 0.710740 0.669959 0.575138
Si Si7 0.919143 0.328961 0.962613
Si Si8 0.347967 0.327136 0.582906
O O1 0.543785 0.500000 0.265567
O O2 0.594675 0.733331 0.225782
O O3 0.468833 0.737449 0.231190
O O4 0.581754 0.730224 0.351765
O O5 0.736299 0.500000 0.739996
O O6 0.774688 0.227609 0.766824
O O7 0.644380 0.300733 0.744605
O O8 0.681279 0.299224 0.637133
O O9 0.654083 0.236495 0.872866
O O10 0.693256 0.000000 0.950352
O O11 0.750000 0.250000 0.000000
O O12 0.617893 0.203895 0.982119
O O13 0.120212 0.235175 0.108161
O O14 0.146755 0.000000 0.185395
O O15 0.611663 0.500000 0.823177
O O16 0.730859 0.500000 0.573177
O O17 0.652800 0.715556 0.495885
O O18 0.781210 0.761638 0.594028
O O19 0.913941 0.500000 0.940945
O O20 0.000000 0.277348 0.000000
O O21 0.342435 0.500000 0.591177
#
# Coordination Sequence:
#
# PCOD8096909 Si02
#       8
#     8   8   8   8   8   8   8   8
#     4   9  18  33  52  77 106 138 173 212 260 306
#     4  10  20  34  51  76 106 137 173 213 257 304
#     4  11  23  39  58  79 103 135 175 215 258 311
#     4  11  21  33  54  80 103 131 172 217 258 305
#     4  10  21  37  55  74 105 142 173 211 259 311
#     4   9  17  29  49  77 105 135 173 214 254 301
#     4  10  22  39  56  76 104 135 167 211 264 311
#     4   9  16  30  51  75 105 137 171 212 257 303
#
# _framework density 18.464030000000001
#
# number of rings (size 3 to 8) (size 9 to 14) (size 15 to 20)
#    0.000    2.125    1.250    2.250    0.000    4.750 
#    0.000    1.875    0.000    3.750    0.000    0.000 
#    0.000    6.000    0.000    0.000    0.000    0.000 
#
# Total GULP energy -396772.552425 kJ/mol
# GULP energy per Si atom -12399.142263 kJ/mol
# Density = 1.842201 g / cm^3
# Si number density = 18.464030 Si / 1000 Ang^3
#
#
#
# Elastic Constant Matrix: (Units=GPa)
#
#
# Indices 1 2 3 4 5 6 
#
# 1 87.1522 27.1934 34.4659 0.0000 -4.7466 0.0000
# 2 27.1934 47.2914 35.4421 0.0000 -5.3421 0.0000
# 3 34.4659 35.4421 128.7024 0.0000 -8.8344 0.0000
# 4 0.0000 0.0000 0.0000 18.3391 0.0000 -1.9705
# 5 -4.7466 -5.3421 -8.8344 0.0000 30.2451 0.0000
# 6 0.0000 0.0000 0.0000 -1.9705 0.0000 23.0940
#
#
#
# Elastic Compliance Matrix: (Units=1/GPa)
#
#
# Indices 1 2 3 4 5 6 
#
# 1 0.014381 -0.006745 -0.001960 0.000000 0.000493 0.000000
# 2 -0.006745 0.030012 -0.006293 0.000000 0.002404 0.000000
# 3 -0.001960 -0.006293 0.010134 0.000000 0.001541 0.000000
# 4 0.000000 0.000000 0.000000 0.055033 0.000000 0.004696
# 5 0.000493 0.002404 0.001541 0.000000 0.034015 0.000000
# 6 0.000000 0.000000 0.000000 0.004696 0.000000 0.043702
#
#
# Mechanical properties :
#
#
# Convention : Reuss Voigt Hill
#
# Bulk Modulus (GPa) = 40.76613 50.81652 45.79132
# Shear Modulus (GPa) = 22.17799 25.40527 23.79163
#
# Velocity S-wave (km/s) = 3.46951 3.71338 3.59352
# Velocity P-wave (km/s) = 6.17873 6.77992 6.48629
#
# Compressibility (1/GPa) = 0.02453017
#
# Stress axis : x y z
#
# Youngs Moduli (GPa) = 69.53829 33.32010 98.68181
#
# Poissons Ratio (x) = 0.22473 0.19340
# Poissons Ratio (y) = 0.46901 0.62105
# Poissons Ratio (z) = 0.13629 0.20970
#
# Static dielectric constant tensor:
#      x y z
#    x 3.541700 0.000000 0.079360 
#    y 0.000000 3.294090 0.000000 
#    z 0.079360 0.000000 3.917780 
# 
# 
# High freq. dielectric constant tensor:
#      x y z
#    x 1.706490 0.000000 -0.004630 
#    y 0.000000 1.702360 0.000000 
#    z -0.004630 0.000000 1.734920 
# 
# From -- ./inp_files/319945.got.cif
#   From: 2010.06.25/outbox.cif.g09.slc.cpg/sg12_160_cif.got.tgz:319945.got - 2010.06.28 00:19:55.
