data_PCOD8096691
_publ_section_title
;
Structure prediction by ZEFSAII (Michael W. Deem and Ramdas Pophale) SiO2 
 PCOD8096691
Probable space group: C 2/M
;
_chemical_formula_sum "Si O2"
_cell_formula_units_Z 36
_cell_length_a 14.173939
_cell_length_b 14.127526
_cell_length_c 21.291263
_cell_angle_alpha 90.000000
_cell_angle_beta 158.842411
_cell_angle_gamma 90.000000
_cell_volume 1538.814677
_symmetry_space_group_name_H-M "C 2/M"
_symmetry_group_IT_number 12
_symmetry_cell_setting 'monoclinic'
loop_
_space_group_symop_operation_xyz
x,y,z
-x,y,-z
-x,-y,-z
x,-y,z
1/2+x,1/2+y,z
1/2-x,1/2+y,-z
1/2-x,1/2-y,-z
1/2+x,1/2-y,z
loop_
_atom_site_type_symbol
_atom_site_label
_atom_site_fract_x
_atom_site_fract_y
_atom_site_fract_z
Si Si1 0.726932 0.000000 0.089226
Si Si2 0.424886 0.000000 0.774316
Si Si3 0.665342 0.796792 0.255016
Si Si4 0.525196 0.201626 0.653704
Si Si5 0.181542 0.500000 0.796463
Si Si6 0.173451 0.800016 0.859122
O O1 0.902332 0.092968 0.208179
O O2 0.500000 0.000000 0.000000
O O3 0.636466 0.000000 0.960883
O O4 0.251469 0.904442 0.674694
O O5 0.575554 0.000000 0.801742
O O6 0.580019 0.742867 0.264626
O O7 0.903566 0.739265 0.371898
O O8 0.427066 0.798670 0.058994
O O9 0.250000 0.250000 0.500000
O O10 0.559424 0.088460 0.681634
O O11 0.733593 0.242179 0.833380
O O12 0.500000 0.500000 0.000000
#
# Coordination Sequence:
#
# PCOD8096691 Si02
#       6
#     4   4   8   8   4   8
#     4  10  20  33  63  99 132 162 220 298 365 404
#     4  10  20  41  70 104 123 177 239 298 340 411
#     4  10  21  39  69  95 132 174 241 301 342 413
#     4  12  27  43  64 101 146 187 228 290 369 425
#     4  12  26  46  77 107 141 186 253 302 344 420
#     4  10  20  38  63  95 127 177 236 292 349 407
#
# _framework density 23.394629999999999
#
# number of rings (size 3 to 8) (size 9 to 14) (size 15 to 20)
#    0.000    1.333    2.222    4.667    6.222    2.667 
#    0.000    1.111    0.000    2.667    0.000    0.000 
#    0.000    0.000    0.000    0.000    0.000    0.000 
#
# Total GULP energy -223026.996058 kJ/mol
# GULP energy per Si atom -12390.388670 kJ/mol
# Density = 2.334138 g / cm^3
# Si number density = 23.394630 Si / 1000 Ang^3
#
#
#
# Elastic Constant Matrix: (Units=GPa)
#
#
# Indices 1 2 3 4 5 6 
#
# 1 128.0590 58.4300 -3.0996 -0.0421 26.2093 0.0141
# 2 58.4300 245.6136 24.8880 0.0527 22.7307 0.0235
# 3 -3.0996 24.8880 69.1873 0.0387 19.3495 0.0361
# 4 -0.0421 0.0527 0.0387 9.0191 0.0344 1.8601
# 5 26.2093 22.7307 19.3495 0.0344 19.7883 -0.0054
# 6 0.0141 0.0235 0.0361 1.8601 -0.0054 47.7581
#
#
#
# Elastic Compliance Matrix: (Units=1/GPa)
#
#
# Indices 1 2 3 4 5 6 
#
# 1 0.013724 -0.001867 0.007942 0.000135 -0.023799 -0.000017
# 2 -0.001867 0.004813 -0.001322 -0.000024 -0.001763 0.000000
# 3 0.007942 -0.001322 0.024503 0.000071 -0.032961 -0.000027
# 4 0.000135 -0.000024 0.000071 0.111776 -0.000415 -0.004354
# 5 -0.023799 -0.001763 -0.032961 -0.000415 0.116311 0.000062
# 6 -0.000017 0.000000 -0.000027 -0.004354 0.000062 0.021108
#
#
# Mechanical properties :
#
#
# Convention : Reuss Voigt Hill
#
# Bulk Modulus (GPa) = 19.03109 67.03296 43.03202
# Shear Modulus (GPa) = 16.65311 39.48919 28.07115
#
# Velocity S-wave (km/s) = 2.67092 4.11294 3.46771
# Velocity P-wave (km/s) = 4.20288 7.16033 5.87088
#
# Compressibility (1/GPa) = 0.05254561
#
# Stress axis : x y z
#
# Youngs Moduli (GPa) = 72.86576 207.78348 40.81156
#
# Poissons Ratio (x) = 0.38796 -0.32413
# Poissons Ratio (y) = 0.13605 0.05395
# Poissons Ratio (z) = -0.57871 0.27467
#
# Static dielectric constant tensor:
#      x y z
#    x 4.663440 0.000040 -0.061280 
#    y 0.000040 4.997510 -0.000260 
#    z -0.061280 -0.000260 3.813150 
# 
# 
# High freq. dielectric constant tensor:
#      x y z
#    x 1.943360 0.000000 -0.005530 
#    y 0.000000 1.944790 -0.000020 
#    z -0.005530 -0.000020 1.900270 
# 
# From -- ./inp_files/340266.got.cif
#   From: 2010.06.25/outbox.cif.g09.slc.cpg/sg12_171_cif.got.tgz:340266.got - 2010.06.28 00:19:55.
