data_PCOD8096722
_publ_section_title
;
Structure prediction by ZEFSAII (Michael W. Deem and Ramdas Pophale) SiO2 
 PCOD8096722
Probable space group: C 2/M
;
_chemical_formula_sum "Si O2"
_cell_formula_units_Z 56
_cell_length_a 29.035343
_cell_length_b 9.113363
_cell_length_c 18.820970
_cell_angle_alpha 90.000000
_cell_angle_beta 141.317901
_cell_angle_gamma 90.000000
_cell_volume 3112.625080
_symmetry_space_group_name_H-M "C 2/M"
_symmetry_group_IT_number 12
_symmetry_cell_setting 'monoclinic'
loop_
_space_group_symop_operation_xyz
x,y,z
-x,y,-z
-x,-y,-z
x,-y,z
1/2+x,1/2+y,z
1/2-x,1/2+y,-z
1/2-x,1/2-y,-z
1/2+x,1/2-y,z
loop_
_atom_site_type_symbol
_atom_site_label
_atom_site_fract_x
_atom_site_fract_y
_atom_site_fract_z
Si Si1 0.464193 0.671788 0.029273
Si Si2 0.415987 0.164565 0.309909
Si Si3 0.817532 0.332104 0.898165
Si Si4 0.882043 0.665254 0.119115
Si Si5 0.478333 0.669387 0.753956
Si Si6 0.422671 0.830593 0.560113
Si Si7 0.840490 0.826247 0.341698
O O1 0.447464 0.500000 0.004710
O O2 0.386047 0.748497 0.946744
O O3 0.500000 0.731760 0.000000
O O4 0.523386 0.704800 0.163654
O O5 0.359248 0.183617 0.174580
O O6 0.498087 0.195830 0.380513
O O7 0.397648 0.277542 0.349689
O O8 0.410618 0.000000 0.335072
O O9 0.825592 0.500000 0.884572
O O10 0.740812 0.268220 0.776675
O O11 0.815769 0.318215 0.982665
O O12 0.917576 0.500000 0.153966
O O13 0.939271 0.792852 0.170753
O O14 0.461593 0.500000 0.718091
O O15 0.421586 0.766641 0.639345
O O16 0.361061 0.745229 0.441376
O O17 0.400985 0.000000 0.537299
O O18 0.844134 0.000000 0.352351
#
# Coordination Sequence:
#
# PCOD8096722 Si02
#       7
#     8   8   8   8   8   8   8
#     4   9  18  33  55  82 105 123 148 187 236 290
#     4   9  18  31  47  67  91 125 169 209 244 282
#     4   9  19  34  49  70 100 131 161 194 239 290
#     4   8  15  30  48  65  93 129 161 196 237 284
#     4   9  16  28  49  75  99 122 152 193 237 279
#     4  10  20  34  50  67  93 130 170 206 239 281
#     4  11  22  32  45  68  98 130 166 208 244 277
#
# _framework density 17.991246
#
# number of rings (size 3 to 8) (size 9 to 14) (size 15 to 20)
#    0.000    2.714    0.000    2.571    0.000    7.143 
#    0.000    0.000    0.000    0.857    0.000    0.000 
#    0.000    0.000    0.000    0.000    0.000    0.000 
#
# Total GULP energy -346994.213106 kJ/mol
# GULP energy per Si atom -12392.650468 kJ/mol
# Density = 1.795030 g / cm^3
# Si number density = 17.991246 Si / 1000 Ang^3
#
#
#
# Elastic Constant Matrix: (Units=GPa)
#
#
# Indices 1 2 3 4 5 6 
#
# 1 39.5622 23.4816 33.6555 0.0000 -18.0841 0.0000
# 2 23.4816 72.7463 49.6149 0.0000 -11.9037 0.0000
# 3 33.6555 49.6149 140.3895 0.0000 -21.1041 0.0000
# 4 0.0000 0.0000 0.0000 29.2524 0.0000 -2.8549
# 5 -18.0841 -11.9037 -21.1041 0.0000 24.6916 0.0000
# 6 0.0000 0.0000 0.0000 -2.8549 0.0000 20.3668
#
#
#
# Elastic Compliance Matrix: (Units=1/GPa)
#
#
# Indices 1 2 3 4 5 6 
#
# 1 0.045142 -0.007397 -0.004330 0.000000 0.025795 0.000000
# 2 -0.007397 0.019630 -0.005228 0.000000 -0.000422 0.000000
# 3 -0.004330 -0.005228 0.010502 0.000000 0.003285 0.000000
# 4 0.000000 0.000000 0.000000 0.034659 0.000000 0.004858
# 5 0.025795 -0.000422 0.003285 0.000000 0.061996 0.000000
# 6 0.000000 0.000000 0.000000 0.004858 0.000000 0.049780
#
#
# Mechanical properties :
#
#
# Convention : Reuss Voigt Hill
#
# Bulk Modulus (GPa) = 24.17514 51.80020 37.98767
# Shear Modulus (GPa) = 18.55923 24.59191 21.57557
#
# Velocity S-wave (km/s) = 3.21529 3.70115 3.46674
# Velocity P-wave (km/s) = 5.22020 6.86433 6.09793
#
# Compressibility (1/GPa) = 0.04136481
#
# Stress axis : x y z
#
# Youngs Moduli (GPa) = 22.15256 50.94121 95.21642
#
# Poissons Ratio (x) = 0.37682 0.41228
# Poissons Ratio (y) = 0.16386 0.49776
# Poissons Ratio (z) = 0.09592 0.26631
#
# Static dielectric constant tensor:
#      x y z
#    x 2.991390 0.000000 -0.370210 
#    y 0.000000 3.322190 0.000000 
#    z -0.370210 0.000000 3.696470 
# 
# 
# High freq. dielectric constant tensor:
#      x y z
#    x 1.643650 0.000000 -0.030130 
#    y 0.000000 1.701910 0.000000 
#    z -0.030130 0.000000 1.709000 
# 
# From -- ./inp_files/287411.got.cif
#   From: 2010.06.25/outbox.cif.g09.slc.cpg/sg12_144_cif.got.tgz:287411.got - 2010.06.28 00:19:55.
