data_PCOD8096628
_publ_section_title
;
Structure prediction by ZEFSAII (Michael W. Deem and Ramdas Pophale) SiO2 
 PCOD8096628
Probable space group: C 2/M
;
_chemical_formula_sum "Si O2"
_cell_formula_units_Z 40
_cell_length_a 26.882667
_cell_length_b 18.772941
_cell_length_c 9.253217
_cell_angle_alpha 90.000000
_cell_angle_beta 26.977237
_cell_angle_gamma 90.000000
_cell_volume 2118.387393
_symmetry_space_group_name_H-M "C 2/M"
_symmetry_group_IT_number 12
_symmetry_cell_setting 'monoclinic'
loop_
_space_group_symop_operation_xyz
x,y,z
-x,y,-z
-x,-y,-z
x,-y,z
1/2+x,1/2+y,z
1/2-x,1/2+y,-z
1/2-x,1/2-y,-z
1/2+x,1/2-y,z
loop_
_atom_site_type_symbol
_atom_site_label
_atom_site_fract_x
_atom_site_fract_y
_atom_site_fract_z
Si Si1 0.617762 0.657375 0.749521
Si Si2 0.933077 0.307190 0.983359
Si Si3 0.297867 0.190121 0.063614
Si Si4 0.318408 0.166855 0.694609
Si Si5 0.278636 0.082836 0.530280
O O1 0.698799 0.652045 0.403636
O O2 0.662731 0.606155 0.759679
O O3 0.500000 0.630370 0.000000
O O4 0.617441 0.737767 0.809904
O O5 0.063044 0.306684 0.668658
O O6 0.906081 0.307787 0.882881
O O7 0.879610 0.376287 0.194484
O O8 0.269542 0.270978 0.097628
O O9 0.322622 0.145622 0.853047
O O10 0.278326 0.100149 0.702515
O O11 0.297885 0.000000 0.456664
#
# Coordination Sequence:
#
# PCOD8096628 Si02
#       5
#     8   8   8   8   8
#     4  11  19  38  61  85 110 148 196 243 277 329
#     4  11  19  37  59  88 112 146 192 240 281 334
#     4  10  20  33  56  88 115 140 185 242 285 326
#     4  11  20  34  56  88 115 146 185 236 292 331
#     4  11  23  38  58  83 119 155 189 230 283 346
#
# _framework density 18.882287000000002
#
# number of rings (size 3 to 8) (size 9 to 14) (size 15 to 20)
#    0.000    1.200    6.000    2.400    0.000    2.000 
#    0.000    5.000    0.000    7.200    0.000    0.000 
#    0.000    0.000    0.000    0.000    0.000    0.000 
#
# Total GULP energy -248024.381428 kJ/mol
# GULP energy per Si atom -12401.219071 kJ/mol
# Density = 1.883931 g / cm^3
# Si number density = 18.882287 Si / 1000 Ang^3
#
#
#
# Elastic Constant Matrix: (Units=GPa)
#
#
# Indices 1 2 3 4 5 6 
#
# 1 145.1675 46.0760 33.6140 0.0000 12.8598 0.0000
# 2 46.0760 105.8109 28.8349 0.0000 7.9890 0.0000
# 3 33.6140 28.8349 57.0794 0.0000 6.4962 0.0000
# 4 0.0000 0.0000 0.0000 11.2559 0.0000 4.8422
# 5 12.8598 7.9890 6.4962 0.0000 33.2142 0.0000
# 6 0.0000 0.0000 0.0000 4.8422 0.0000 18.8281
#
#
#
# Elastic Compliance Matrix: (Units=1/GPa)
#
#
# Indices 1 2 3 4 5 6 
#
# 1 0.008746 -0.002683 -0.003562 0.000000 -0.002044 0.000000
# 2 -0.002683 0.011865 -0.004303 0.000000 -0.000973 0.000000
# 3 -0.003562 -0.004303 0.022006 0.000000 -0.001890 0.000000
# 4 0.000000 0.000000 0.000000 0.099894 0.000000 -0.025690
# 5 -0.002044 -0.000973 -0.001890 0.000000 0.031503 0.000000
# 6 0.000000 0.000000 0.000000 -0.025690 0.000000 0.059719
#
#
# Mechanical properties :
#
#
# Convention : Reuss Voigt Hill
#
# Bulk Modulus (GPa) = 46.46813 58.34531 52.40672
# Shear Modulus (GPa) = 19.08361 25.96185 22.52273
#
# Velocity S-wave (km/s) = 3.18254 3.71203 3.45744
# Velocity P-wave (km/s) = 6.17799 7.02416 6.61462
#
# Compressibility (1/GPa) = 0.02152012
#
# Stress axis : x y z
#
# Youngs Moduli (GPa) = 114.33403 84.27806 45.44177
#
# Poissons Ratio (x) = 0.22616 0.16188
# Poissons Ratio (y) = 0.30681 0.19554
# Poissons Ratio (z) = 0.40731 0.36265
#
# Static dielectric constant tensor:
#      x y z
#    x 4.057110 0.000000 0.080750 
#    y 0.000000 2.980730 0.000000 
#    z 0.080750 0.000000 3.358940 
# 
# 
# High freq. dielectric constant tensor:
#      x y z
#    x 1.768090 0.000000 -0.000060 
#    y 0.000000 1.684580 0.000000 
#    z -0.000060 0.000000 1.723240 
# 
# From -- ./inp_files/59213.got.cif
#   From: 2010.06.25/outbox.cif.g09.slc.cpg/sg12_30_cif.got.tgz:59213.got - 2010.06.28 00:19:55.
