data_PCOD8096376
_publ_section_title
;
Structure prediction by ZEFSAII (Michael W. Deem and Ramdas Pophale) SiO2 
 PCOD8096376
Probable space group: C 2/M
;
_chemical_formula_sum "Si O2"
_cell_formula_units_Z 60
_cell_length_a 24.441265
_cell_length_b 12.430240
_cell_length_c 24.279786
_cell_angle_alpha 90.000000
_cell_angle_beta 28.915827
_cell_angle_gamma 90.000000
_cell_volume 3566.697365
_symmetry_space_group_name_H-M "C 2/M"
_symmetry_group_IT_number 12
_symmetry_cell_setting 'monoclinic'
loop_
_space_group_symop_operation_xyz
x,y,z
-x,y,-z
-x,-y,-z
x,-y,z
1/2+x,1/2+y,z
1/2-x,1/2+y,-z
1/2-x,1/2-y,-z
1/2+x,1/2-y,z
loop_
_atom_site_type_symbol
_atom_site_label
_atom_site_fract_x
_atom_site_fract_y
_atom_site_fract_z
Si Si1 0.640506 0.125971 0.567405
Si Si2 0.490961 0.375689 0.131842
Si Si3 0.222854 0.125778 0.348516
Si Si4 0.500000 0.737616 0.500000
Si Si5 0.338494 0.749719 0.344509
Si Si6 0.389678 0.240549 0.126158
Si Si7 0.208871 0.120765 0.879531
Si Si8 0.958172 0.623430 0.642622
O O1 0.612722 0.171250 0.652234
O O2 0.766152 0.156596 0.437547
O O3 0.551979 0.172292 0.600786
O O4 0.628230 0.000000 0.582273
O O5 0.461047 0.500000 0.168779
O O6 0.447969 0.304501 0.220499
O O7 0.426654 0.337084 0.133797
O O8 0.626113 0.357038 0.004627
O O9 0.101670 0.164350 0.433008
O O10 0.257417 0.187342 0.373659
O O11 0.320405 0.146938 0.217413
O O12 0.216174 0.000000 0.367143
O O13 0.546657 0.811547 0.409892
O O14 0.309323 0.293827 0.152264
O O15 0.500000 0.187998 0.000000
O O16 0.340045 0.132001 0.780272
O O17 0.183066 0.000000 0.880376
O O18 0.985903 0.500000 0.602885
#
# Coordination Sequence:
#
# PCOD8096376 Si02
#       8
#     8   8   8   4   8   8   8   8
#     4  10  20  35  54  74  98 130 169 208 250 297
#     4   9  17  29  49  76 103 131 163 203 251 300
#     4  11  22  34  50  72 100 137 173 205 246 296
#     4  12  20  36  50  76 106 136 162 204 246 312
#     4  10  20  35  52  74 101 130 168 210 251 291
#     4   9  17  30  48  72 102 133 166 203 247 293
#     4   9  16  29  49  74 103 131 162 201 252 303
#     4  10  20  33  53  79 104 131 162 204 253 302
#
# _framework density 16.822285000000001
#
# number of rings (size 3 to 8) (size 9 to 14) (size 15 to 20)
#    0.000    2.133    2.667    1.600    0.000    1.867 
#    0.000    0.667    0.000    0.000    0.000    0.000 
#    0.000    0.000    0.000    0.000    0.000    0.000 
#
# Total GULP energy -371929.278260 kJ/mol
# GULP energy per Si atom -12397.642609 kJ/mol
# Density = 1.678400 g / cm^3
# Si number density = 16.822285 Si / 1000 Ang^3
#
#
#
# Elastic Constant Matrix: (Units=GPa)
#
#
# Indices 1 2 3 4 5 6 
#
# 1 71.6761 28.1052 33.6771 -0.0001 7.8857 0.0000
# 2 28.1052 70.3626 36.1587 -0.0004 5.2546 0.0001
# 3 33.6771 36.1587 105.2255 -0.0006 5.4911 0.0002
# 4 -0.0001 -0.0004 -0.0006 21.9190 0.0002 -0.8776
# 5 7.8857 5.2546 5.4911 0.0002 24.4014 -0.0001
# 6 0.0000 0.0001 0.0002 -0.8776 -0.0001 22.4854
#
#
#
# Elastic Compliance Matrix: (Units=1/GPa)
#
#
# Indices 1 2 3 4 5 6 
#
# 1 0.018161 -0.004954 -0.003905 0.000000 -0.003923 0.000000
# 2 -0.004954 0.018753 -0.004787 0.000000 -0.001360 0.000000
# 3 -0.003905 -0.004787 0.012425 0.000000 -0.000503 0.000000
# 4 0.000000 0.000000 0.000000 0.045694 0.000000 0.001783
# 5 -0.003923 -0.001360 -0.000503 0.000000 0.042655 0.000000
# 6 0.000000 0.000000 0.000000 0.001783 0.000000 0.044543
#
#
# Mechanical properties :
#
#
# Convention : Reuss Voigt Hill
#
# Bulk Modulus (GPa) = 45.36288 49.23845 47.30066
# Shear Modulus (GPa) = 23.05508 23.71604 23.38556
#
# Velocity S-wave (km/s) = 3.70605 3.75880 3.73252
# Velocity P-wave (km/s) = 6.73332 6.94057 6.83773
#
# Compressibility (1/GPa) = 0.02204446
#
# Stress axis : x y z
#
# Youngs Moduli (GPa) = 55.06389 53.32543 80.48551
#
# Poissons Ratio (x) = 0.26419 0.31431
# Poissons Ratio (y) = 0.27280 0.38532
# Poissons Ratio (z) = 0.21503 0.25529
#
# Static dielectric constant tensor:
#      x y z
#    x 3.079730 0.000000 -0.009080 
#    y 0.000000 2.971720 0.000000 
#    z -0.009080 0.000000 3.319540 
# 
# 
# High freq. dielectric constant tensor:
#      x y z
#    x 1.632050 0.000000 -0.000970 
#    y 0.000000 1.637070 0.000000 
#    z -0.000970 0.000000 1.660310 
# 
# From -- ./inp_files/349357.got.cif
#   From: 2010.06.25/outbox.cif.g09.slc.cpg/sg12_175_cif.got.tgz:349357.got - 2010.06.28 00:19:55.
