data_PCOD8096137
_publ_section_title
;
Structure prediction by ZEFSAII (Michael W. Deem and Ramdas Pophale) SiO2 
 PCOD8096137
Probable space group: C 2/M
;
_chemical_formula_sum "Si O2"
_cell_formula_units_Z 64
_cell_length_a 27.470645
_cell_length_b 13.349964
_cell_length_c 9.489954
_cell_angle_alpha 90.000000
_cell_angle_beta 116.930905
_cell_angle_gamma 90.000000
_cell_volume 3102.847271
_symmetry_space_group_name_H-M "C 2/M"
_symmetry_group_IT_number 12
_symmetry_cell_setting 'monoclinic'
loop_
_space_group_symop_operation_xyz
x,y,z
-x,y,-z
-x,-y,-z
x,-y,z
1/2+x,1/2+y,z
1/2-x,1/2+y,-z
1/2-x,1/2-y,-z
1/2+x,1/2-y,z
loop_
_atom_site_type_symbol
_atom_site_label
_atom_site_fract_x
_atom_site_fract_y
_atom_site_fract_z
Si Si1 0.013519 0.328180 0.860853
Si Si2 0.333891 0.811135 0.609255
Si Si3 0.716921 0.388600 0.403102
Si Si4 0.749126 0.113876 0.865376
Si Si5 0.870617 0.388676 0.949069
Si Si6 0.451088 0.276118 0.354511
Si Si7 0.576362 0.112482 0.462340
Si Si8 0.332165 0.737788 0.135209
O O1 0.028679 0.234273 0.779757
O O2 0.963383 0.386815 0.725197
O O3 0.065453 0.400985 0.932780
O O4 0.000000 0.288098 0.000000
O O5 0.326648 0.690713 0.594549
O O6 0.276300 0.867172 0.544419
O O7 0.367415 0.844801 0.788713
O O8 0.365897 0.841431 0.510332
O O9 0.698340 0.500000 0.424566
O O10 0.718451 0.378793 0.237317
O O11 0.697090 0.189009 0.789486
O O12 0.729895 0.000000 0.870354
O O13 0.791239 0.148180 0.042431
O O14 0.844268 0.500000 0.926770
O O15 0.841929 0.310701 0.015427
O O16 0.500000 0.339300 0.500000
O O17 0.447897 0.170888 0.435651
O O18 0.388080 0.314668 0.268184
O O19 0.586213 0.000000 0.526955
#
# Coordination Sequence:
#
# PCOD8096137 Si02
#       8
#     8   8   8   8   8   8   8   8
#     4  10  20  33  51  79 115 148 183 222 268 325
#     4  11  21  33  53  78 106 144 184 220 271 327
#     4  10  21  37  54  76 107 141 181 229 278 327
#     4  10  20  36  57  79 107 146 188 233 282 332
#     4  11  20  31  48  78 112 144 178 224 269 318
#     4   9  21  36  54  79 113 151 189 224 276 337
#     4  11  21  34  52  78 112 150 184 219 269 332
#     4  10  20  35  55  79 109 143 190 229 277 332
#
# _framework density 20.626214999999998
#
# number of rings (size 3 to 8) (size 9 to 14) (size 15 to 20)
#    0.000    1.750    2.500    2.625    0.000    6.250 
#    0.000    0.000    0.000    0.375    0.000    8.750 
#    0.000    0.000    0.000    0.000    0.000    0.000 
#
# Total GULP energy -396543.058616 kJ/mol
# GULP energy per Si atom -12391.970582 kJ/mol
# Density = 2.057927 g / cm^3
# Si number density = 20.626215 Si / 1000 Ang^3
#
#
#
# Elastic Constant Matrix: (Units=GPa)
#
#
# Indices 1 2 3 4 5 6 
#
# 1 58.4568 -3.9141 10.2426 0.0000 8.1334 0.0000
# 2 -3.9141 53.8391 6.8420 0.0000 5.0046 0.0000
# 3 10.2426 6.8420 75.8865 0.0000 6.8676 0.0000
# 4 0.0000 0.0000 0.0000 14.4196 0.0000 -2.5276
# 5 8.1334 5.0046 6.8676 0.0000 38.3162 0.0000
# 6 0.0000 0.0000 0.0000 -2.5276 0.0000 20.3044
#
#
#
# Elastic Compliance Matrix: (Units=1/GPa)
#
#
# Indices 1 2 3 4 5 6 
#
# 1 0.018154 0.001955 -0.002292 0.000000 -0.003698 0.000000
# 2 0.001955 0.019182 -0.001757 0.000000 -0.002605 0.000000
# 3 -0.002292 -0.001757 0.013804 0.000000 -0.001758 0.000000
# 4 0.000000 0.000000 0.000000 0.070897 0.000000 0.008826
# 5 -0.003698 -0.002605 -0.001758 0.000000 0.027539 0.000000
# 6 0.000000 0.000000 0.000000 0.008826 0.000000 0.050349
#
#
# Mechanical properties :
#
#
# Convention : Reuss Voigt Hill
#
# Bulk Modulus (GPa) = 21.29900 23.83593 22.56747
# Shear Modulus (GPa) = 22.75165 26.27549 24.51357
#
# Velocity S-wave (km/s) = 3.32482 3.57303 3.45115
# Velocity P-wave (km/s) = 5.00877 5.34820 5.18127
#
# Compressibility (1/GPa) = 0.04695055
#
# Stress axis : x y z
#
# Youngs Moduli (GPa) = 55.08536 52.13353 72.44024
#
# Poissons Ratio (x) = -0.10191 0.16602
# Poissons Ratio (y) = -0.10768 0.12731
# Poissons Ratio (z) = 0.12625 0.09162
#
# Static dielectric constant tensor:
#      x y z
#    x 3.880670 0.000000 0.173950 
#    y 0.000000 3.339240 0.000000 
#    z 0.173950 0.000000 3.900200 
# 
# 
# High freq. dielectric constant tensor:
#      x y z
#    x 1.810720 0.000000 0.008000 
#    y 0.000000 1.752740 0.000000 
#    z 0.008000 0.000000 1.822250 
# 
# From -- ./inp_files/104697.got.cif
#   From: 2010.06.25/outbox.cif.g09.slc.cpg/sg12_53_cif.got.tgz:104697.got - 2010.06.28 00:19:55.
