data_PCOD8096450
_publ_section_title
;
Structure prediction by ZEFSAII (Michael W. Deem and Ramdas Pophale) SiO2 
 PCOD8096450
Probable space group: C 2/M
;
_chemical_formula_sum "Si O2"
_cell_formula_units_Z 40
_cell_length_a 30.242608
_cell_length_b 9.123384
_cell_length_c 15.196964
_cell_angle_alpha 90.000000
_cell_angle_beta 151.722908
_cell_angle_gamma 90.000000
_cell_volume 1986.408410
_symmetry_space_group_name_H-M "C 2/M"
_symmetry_group_IT_number 12
_symmetry_cell_setting 'monoclinic'
loop_
_space_group_symop_operation_xyz
x,y,z
-x,y,-z
-x,-y,-z
x,-y,z
1/2+x,1/2+y,z
1/2-x,1/2+y,-z
1/2-x,1/2-y,-z
1/2+x,1/2-y,z
loop_
_atom_site_type_symbol
_atom_site_label
_atom_site_fract_x
_atom_site_fract_y
_atom_site_fract_z
Si Si1 0.215190 0.327565 0.526031
Si Si2 0.667293 0.331981 0.098492
Si Si3 0.498190 0.837247 0.594996
Si Si4 0.789314 0.661097 0.987869
Si Si5 0.545004 0.328139 0.314636
O O1 0.201653 0.500000 0.486411
O O2 0.250000 0.250000 0.500000
O O3 0.293546 0.295927 0.736778
O O4 0.116308 0.258136 0.378107
O O5 0.682118 0.500000 0.098557
O O6 0.729482 0.241752 0.137391
O O7 0.557629 0.293246 0.903556
O O8 0.500000 0.768761 0.500000
O O9 0.601150 0.853115 0.811080
O O10 0.442750 0.730247 0.563620
O O11 0.450953 0.000000 0.510093
O O12 0.742645 0.500000 0.904044
O O13 0.750000 0.750000 0.000000
O O14 0.567555 0.500000 0.352865
#
# Coordination Sequence:
#
# PCOD8096450 Si02
#       5
#     8   8   8   8   8
#     4  11  24  42  64  89 117 153 197 244 299 356
#     4   9  21  41  61  82 117 159 194 236 293 354
#     4   9  19  35  54  79 113 155 194 231 285 347
#     4  10  20  33  53  82 116 153 193 237 286 343
#     4  10  21  39  61  87 118 152 195 244 292 346
#
# _framework density 20.136845000000001
#
# number of rings (size 3 to 8) (size 9 to 14) (size 15 to 20)
#    0.000    2.200    0.000    1.800    2.800    4.400 
#    0.000    4.000    0.000    0.000    0.000    0.000 
#    0.000    0.000    0.000    0.000    0.000    0.000 
#
# Total GULP energy -247998.385243 kJ/mol
# GULP energy per Si atom -12399.919262 kJ/mol
# Density = 2.009101 g / cm^3
# Si number density = 20.136845 Si / 1000 Ang^3
#
#
#
# Elastic Constant Matrix: (Units=GPa)
#
#
# Indices 1 2 3 4 5 6 
#
# 1 185.7455 106.8609 52.6833 0.0000 -14.9678 0.0000
# 2 106.8609 153.7484 53.7120 0.0000 -7.2891 0.0000
# 3 52.6833 53.7120 70.6471 0.0000 -12.8504 0.0000
# 4 0.0000 0.0000 0.0000 27.7745 0.0000 -1.5028
# 5 -14.9678 -7.2891 -12.8504 0.0000 30.1791 0.0000
# 6 0.0000 0.0000 0.0000 -1.5028 0.0000 43.4620
#
#
#
# Elastic Compliance Matrix: (Units=1/GPa)
#
#
# Indices 1 2 3 4 5 6 
#
# 1 0.009502 -0.005674 -0.002346 0.000000 0.002343 0.000000
# 2 -0.005674 0.012261 -0.005490 0.000000 -0.002190 0.000000
# 3 -0.002346 -0.005490 0.021273 0.000000 0.006569 0.000000
# 4 0.000000 0.000000 0.000000 0.036072 0.000000 0.001247
# 5 0.002343 -0.002190 0.006569 0.000000 0.036566 0.000000
# 6 0.000000 0.000000 0.000000 0.001247 0.000000 0.023052
#
#
# Mechanical properties :
#
#
# Convention : Reuss Voigt Hill
#
# Bulk Modulus (GPa) = 62.43064 92.96148 77.69606
# Shear Modulus (GPa) = 29.22548 33.40875 31.31711
#
# Velocity S-wave (km/s) = 3.81378 4.07761 3.94790
# Velocity P-wave (km/s) = 7.10378 8.27250 7.71032
#
# Compressibility (1/GPa) = 0.01601778
#
# Stress axis : x y z
#
# Youngs Moduli (GPa) = 105.24082 81.55643 47.00810
#
# Poissons Ratio (x) = 0.46271 0.11029
# Poissons Ratio (y) = 0.59709 0.25806
# Poissons Ratio (z) = 0.24691 0.44772
#
# Static dielectric constant tensor:
#      x y z
#    x 3.575520 0.000000 -0.135100 
#    y 0.000000 3.954230 0.000000 
#    z -0.135100 0.000000 3.590420 
# 
# 
# High freq. dielectric constant tensor:
#      x y z
#    x 1.785470 0.000000 -0.002710 
#    y 0.000000 1.794570 0.000000 
#    z -0.002710 0.000000 1.782430 
# 
# From -- ./inp_files/211216.got.cif
#   From: 2010.06.25/outbox.cif.g09.slc.cpg/sg12_106_cif.got.tgz:211216.got - 2010.06.28 00:19:55.
