data_PCOD8096092
_publ_section_title
;
Structure prediction by ZEFSAII (Michael W. Deem and Ramdas Pophale) SiO2 
 PCOD8096092
Probable space group: C 2/M
;
_chemical_formula_sum "Si O2"
_cell_formula_units_Z 56
_cell_length_a 18.067794
_cell_length_b 8.860674
_cell_length_c 25.614939
_cell_angle_alpha 90.000000
_cell_angle_beta 44.352438
_cell_angle_gamma 90.000000
_cell_volume 2866.724008
_symmetry_space_group_name_H-M "C 2/M"
_symmetry_group_IT_number 12
_symmetry_cell_setting 'monoclinic'
loop_
_space_group_symop_operation_xyz
x,y,z
-x,y,-z
-x,-y,-z
x,-y,z
1/2+x,1/2+y,z
1/2-x,1/2+y,-z
1/2-x,1/2-y,-z
1/2+x,1/2-y,z
loop_
_atom_site_type_symbol
_atom_site_label
_atom_site_fract_x
_atom_site_fract_y
_atom_site_fract_z
Si Si1 0.043655 0.677710 0.874412
Si Si2 0.821440 0.822310 0.008344
Si Si3 0.510095 0.679225 0.576786
Si Si4 0.035365 0.826583 0.286728
Si Si5 0.166753 0.179477 0.411926
Si Si6 0.272333 0.827656 0.138816
Si Si7 0.102557 0.321346 0.729461
O O1 0.020403 0.500000 0.886135
O O2 0.137255 0.721180 0.866463
O O3 0.075866 0.736001 0.800873
O O4 0.940577 0.764096 0.945408
O O5 0.773243 0.780463 0.088580
O O6 0.819079 0.000000 0.001985
O O7 0.750000 0.750000 0.000000
O O8 0.500812 0.500000 0.583431
O O9 0.509441 0.741523 0.636198
O O10 0.617760 0.729453 0.492705
O O11 0.408550 0.741953 0.596256
O O12 0.161545 0.809313 0.224349
O O13 0.988970 0.732425 0.262624
O O14 0.001645 0.000000 0.296406
O O15 0.284283 0.247113 0.345812
O O16 0.170058 0.000000 0.407110
O O17 0.289522 0.000000 0.111511
O O18 0.107329 0.500000 0.726192
#
# Coordination Sequence:
#
# PCOD8096092 Si02
#       7
#     8   8   8   8   8   8   8
#     4  10  21  38  59  81 107 140 178 220 266 316
#     4  12  25  40  59  83 111 141 175 216 263 316
#     4   8  14  27  49  75 101 132 174 220 260 303
#     4  10  20  33  51  77 107 139 175 215 261 312
#     4   8  14  27  49  75 101 132 174 220 260 303
#     4  10  21  38  59  81 107 140 178 220 266 316
#     4  10  20  33  51  77 107 139 175 215 261 312
#
# _framework density 19.534492
#
# number of rings (size 3 to 8) (size 9 to 14) (size 15 to 20)
#    0.000    2.286    0.000    4.286    0.000    9.714 
#    0.000    0.000    0.000    2.571    0.000    2.000 
#    0.000    0.000    0.000    0.000    0.000    0.000 
#
# Total GULP energy -347208.489317 kJ/mol
# GULP energy per Si atom -12400.303190 kJ/mol
# Density = 1.949003 g / cm^3
# Si number density = 19.534492 Si / 1000 Ang^3
#
#
#
# Elastic Constant Matrix: (Units=GPa)
#
#
# Indices 1 2 3 4 5 6 
#
# 1 104.4919 14.5904 28.5753 0.0000 17.7133 0.0002
# 2 14.5904 27.7076 12.9633 0.0000 7.0109 0.0001
# 3 28.5753 12.9633 96.7754 0.0000 16.7086 0.0000
# 4 0.0000 0.0000 0.0000 8.7987 0.0000 4.1116
# 5 17.7133 7.0109 16.7086 0.0000 40.7392 0.0000
# 6 0.0002 0.0001 0.0000 4.1116 0.0000 24.5693
#
#
#
# Elastic Compliance Matrix: (Units=1/GPa)
#
#
# Indices 1 2 3 4 5 6 
#
# 1 0.011307 -0.004079 -0.002222 0.000000 -0.003303 0.000000
# 2 -0.004079 0.040889 -0.003620 0.000000 -0.003778 0.000000
# 3 -0.002222 -0.003620 0.012053 0.000000 -0.003354 0.000000
# 4 0.000000 0.000000 0.000000 0.123296 0.000000 -0.020633
# 5 -0.003303 -0.003778 -0.003354 0.000000 0.028009 0.000000
# 6 0.000000 0.000000 0.000000 -0.020633 0.000000 0.044154
#
#
# Mechanical properties :
#
#
# Convention : Reuss Voigt Hill
#
# Bulk Modulus (GPa) = 22.51902 37.91477 30.21689
# Shear Modulus (GPa) = 16.98640 26.34449 21.66545
#
# Velocity S-wave (km/s) = 2.95203 3.67633 3.33391
# Velocity P-wave (km/s) = 4.81375 6.12142 5.50654
#
# Compressibility (1/GPa) = 0.04440691
#
# Stress axis : x y z
#
# Youngs Moduli (GPa) = 88.43882 24.45646 82.96387
#
# Poissons Ratio (x) = 0.09975 0.18435
# Poissons Ratio (y) = 0.36073 0.30037
# Poissons Ratio (z) = 0.19652 0.08854
#
# Static dielectric constant tensor:
#      x y z
#    x 3.623470 0.000000 0.038570 
#    y 0.000000 3.173730 0.000000 
#    z 0.038570 0.000000 3.925530 
# 
# 
# High freq. dielectric constant tensor:
#      x y z
#    x 1.768050 0.000000 0.002150 
#    y 0.000000 1.715950 0.000000 
#    z 0.002150 0.000000 1.780440 
# 
# From -- ./inp_files/300885.got.cif
#   From: 2010.06.25/outbox.cif.g09.slc.cpg/sg12_151_cif.got.tgz:300885.got - 2010.06.28 00:19:55.
