data_PCOD8096038
_publ_section_title
;
Structure prediction by ZEFSAII (Michael W. Deem and Ramdas Pophale) SiO2 
 PCOD8096038
Probable space group: C 2/M
;
_chemical_formula_sum "Si O2"
_cell_formula_units_Z 56
_cell_length_a 14.944447
_cell_length_b 7.755660
_cell_length_c 27.832334
_cell_angle_alpha 90.000000
_cell_angle_beta 122.292326
_cell_angle_gamma 90.000000
_cell_volume 2726.944284
_symmetry_space_group_name_H-M "C 2/M"
_symmetry_group_IT_number 12
_symmetry_cell_setting 'monoclinic'
loop_
_space_group_symop_operation_xyz
x,y,z
-x,y,-z
-x,-y,-z
x,-y,z
1/2+x,1/2+y,z
1/2-x,1/2+y,-z
1/2-x,1/2-y,-z
1/2+x,1/2-y,z
loop_
_atom_site_type_symbol
_atom_site_label
_atom_site_fract_x
_atom_site_fract_y
_atom_site_fract_z
Si Si1 0.167248 0.500000 0.065316
Si Si2 0.391179 0.697711 0.643444
Si Si3 0.548922 0.000000 0.939075
Si Si4 0.261938 0.307329 0.855203
Si Si5 0.534470 0.298096 0.769370
Si Si6 0.660126 0.296179 0.569166
Si Si7 0.970302 0.197513 0.857355
Si Si8 0.051955 0.794942 0.443161
O O1 0.231792 0.671072 0.099226
O O2 0.054835 0.500000 0.058418
O O3 0.151525 0.500000 0.003224
O O4 0.423970 0.500000 0.649799
O O5 0.460231 0.781020 0.706105
O O6 0.267381 0.713224 0.619476
O O7 0.416894 0.786920 0.599396
O O8 0.550815 0.173373 0.907518
O O9 0.278923 0.500000 0.880994
O O10 0.350179 0.267381 0.840081
O O11 0.147304 0.295618 0.797917
O O12 0.553831 0.500000 0.768345
O O13 0.475597 0.259810 0.802613
O O14 0.671818 0.500000 0.572856
O O15 0.633461 0.229180 0.507535
O O16 0.566740 0.235382 0.577884
O O17 0.005040 0.000000 0.878101
O O18 0.057436 0.000000 0.443781
#
# Coordination Sequence:
#
# PCOD8096038 Si02
#       8
#     4   8   4   8   8   8   8   8
#     4   9  18  36  58  88 115 137 184 231 271 325
#     4  10  20  33  51  76 103 139 177 220 272 317
#     4   9  18  34  62  86 109 147 182 223 275 331
#     4  10  20  36  59  81 109 149 184 224 277 327
#     4  10  21  37  54  73 111 147 182 234 275 324
#     4   9  17  32  52  74 104 137 177 224 264 319
#     4   9  20  37  56  81 112 146 183 226 276 326
#     4   8  16  32  52  73 103 142 175 215 273 325
#
# _framework density 20.535806999999998
#
# number of rings (size 3 to 8) (size 9 to 14) (size 15 to 20)
#    0.000    2.714    0.714    1.286    1.000    2.286 
#    0.000    5.714    0.000    0.000    0.000    0.000 
#    0.000    0.000    0.000    0.000    0.000    0.000 
#
# Total GULP energy -347124.558108 kJ/mol
# GULP energy per Si atom -12397.305647 kJ/mol
# Density = 2.048907 g / cm^3
# Si number density = 20.535807 Si / 1000 Ang^3
#
#
#
# Elastic Constant Matrix: (Units=GPa)
#
#
# Indices 1 2 3 4 5 6 
#
# 1 75.8053 23.9622 51.0368 0.0000 3.5916 0.0000
# 2 23.9622 70.8048 41.2197 0.0000 -5.5037 0.0000
# 3 51.0368 41.2197 152.2405 0.0000 4.8347 0.0000
# 4 0.0000 0.0000 0.0000 21.0422 0.0000 6.0259
# 5 3.5916 -5.5037 4.8347 0.0000 27.4273 0.0000
# 6 0.0000 0.0000 0.0000 6.0259 0.0000 18.4200
#
#
#
# Elastic Compliance Matrix: (Units=1/GPa)
#
#
# Indices 1 2 3 4 5 6 
#
# 1 0.017668 -0.003243 -0.004978 0.000000 -0.002087 0.000000
# 2 -0.003243 0.017854 -0.003896 0.000000 0.004694 0.000000
# 3 -0.004978 -0.003896 0.009349 0.000000 -0.001778 0.000000
# 4 0.000000 0.000000 0.000000 0.052436 0.000000 -0.017154
# 5 -0.002087 0.004694 -0.001778 0.000000 0.037989 0.000000
# 6 0.000000 0.000000 0.000000 -0.017154 0.000000 0.059901
#
#
# Mechanical properties :
#
#
# Convention : Reuss Voigt Hill
#
# Bulk Modulus (GPa) = 48.46074 59.03202 53.74638
# Shear Modulus (GPa) = 22.09375 25.55336 23.82355
#
# Velocity S-wave (km/s) = 3.28360 3.53134 3.40972
# Velocity P-wave (km/s) = 6.16647 6.74058 6.45991
#
# Compressibility (1/GPa) = 0.02063526
#
# Stress axis : x y z
#
# Youngs Moduli (GPa) = 56.60103 56.01066 106.96563
#
# Poissons Ratio (x) = 0.18165 0.53253
# Poissons Ratio (y) = 0.18356 0.41672
# Poissons Ratio (z) = 0.28179 0.21821
#
# Static dielectric constant tensor:
#      x y z
#    x 3.720090 0.000000 -0.122370 
#    y 0.000000 3.552940 0.000000 
#    z -0.122370 0.000000 3.929350 
# 
# 
# High freq. dielectric constant tensor:
#      x y z
#    x 1.799000 0.000000 0.002190 
#    y 0.000000 1.791020 0.000000 
#    z 0.002190 0.000000 1.792280 
# 
# From -- ./inp_files/375153.got.cif
#   From: 2010.06.25/outbox.cif.g09.slc.cpg/sg12_188_cif.got.tgz:375153.got - 2010.06.28 00:19:55.
