data_PCOD8096486
_publ_section_title
;
Structure prediction by ZEFSAII (Michael W. Deem and Ramdas Pophale) SiO2 
 PCOD8096486
Probable space group: C 2/M
;
_chemical_formula_sum "Si O2"
_cell_formula_units_Z 56
_cell_length_a 23.682028
_cell_length_b 8.521380
_cell_length_c 31.868764
_cell_angle_alpha 90.000000
_cell_angle_beta 153.490536
_cell_angle_gamma 90.000000
_cell_volume 2870.551418
_symmetry_space_group_name_H-M "C 2/M"
_symmetry_group_IT_number 12
_symmetry_cell_setting 'monoclinic'
loop_
_space_group_symop_operation_xyz
x,y,z
-x,y,-z
-x,-y,-z
x,-y,z
1/2+x,1/2+y,z
1/2-x,1/2+y,-z
1/2-x,1/2-y,-z
1/2+x,1/2-y,z
loop_
_atom_site_type_symbol
_atom_site_label
_atom_site_fract_x
_atom_site_fract_y
_atom_site_fract_z
Si Si1 0.387509 0.818735 0.534670
Si Si2 0.475391 0.186900 0.918658
Si Si3 0.915327 0.318770 0.405166
Si Si4 0.151578 0.316368 0.247149
Si Si5 0.517973 0.684738 0.699832
Si Si6 0.363794 0.815392 0.669371
Si Si7 0.800683 0.686503 0.876748
O O1 0.511451 0.788278 0.589274
O O2 0.420165 0.768411 0.603488
O O3 0.273479 0.715641 0.441382
O O4 0.345660 0.000000 0.505911
O O5 0.449223 0.250837 0.854073
O O6 0.364486 0.248012 0.876161
O O7 0.470406 0.000000 0.915795
O O8 0.612218 0.244968 0.026176
O O9 0.878928 0.500000 0.387303
O O10 0.789649 0.217103 0.320656
O O11 0.000000 0.259333 0.500000
O O12 0.134697 0.500000 0.240144
O O13 0.131011 0.244428 0.279792
O O14 0.513914 0.500000 0.689145
O O15 0.473052 0.725297 0.716781
O O16 0.659223 0.754198 0.787374
O O17 0.390587 0.000000 0.686050
O O18 0.795070 0.500000 0.873546
#
# Coordination Sequence:
#
# PCOD8096486 Si02
#       7
#     8   8   8   8   8   8   8
#     4  11  22  37  56  77 104 140 176 217 263 313
#     4   8  14  29  53  82 108 130 162 212 266 311
#     4  10  20  34  52  76 108 140 168 206 261 317
#     4  10  20  33  54  80 107 139 178 220 258 302
#     4  11  22  36  55  78 103 137 180 222 260 308
#     4  11  23  37  51  73 106 144 180 219 262 307
#     4   8  15  29  53  81 107 131 164 212 264 313
#
# _framework density 19.508447
#
# number of rings (size 3 to 8) (size 9 to 14) (size 15 to 20)
#    0.000    2.143    1.429    3.429    0.000    3.143 
#    0.000    0.714    0.000    1.714    0.000    7.000 
#    0.000    0.000    0.000    0.000    0.000    0.000 
#
# Total GULP energy -347166.172217 kJ/mol
# GULP energy per Si atom -12398.791865 kJ/mol
# Density = 1.946405 g / cm^3
# Si number density = 19.508447 Si / 1000 Ang^3
#
#
#
# Elastic Constant Matrix: (Units=GPa)
#
#
# Indices 1 2 3 4 5 6 
#
# 1 109.8918 13.8983 57.9562 0.0002 -12.5957 -0.0002
# 2 13.8983 22.3040 6.8837 0.0004 0.1951 -0.0007
# 3 57.9562 6.8837 119.5742 0.0006 -20.0366 -0.0002
# 4 0.0002 0.0004 0.0006 4.3886 0.0003 5.3864
# 5 -12.5957 0.1951 -20.0366 0.0003 28.9783 0.0000
# 6 -0.0002 -0.0007 -0.0002 5.3864 0.0000 23.6487
#
#
#
# Elastic Compliance Matrix: (Units=1/GPa)
#
#
# Indices 1 2 3 4 5 6 
#
# 1 0.013120 -0.006437 -0.005684 0.000001 0.001816 0.000000
# 2 -0.006437 0.048953 -0.000251 -0.000008 -0.003301 0.000003
# 3 -0.005684 -0.000251 0.012123 -0.000003 0.005914 0.000001
# 4 0.000001 -0.000008 -0.000003 0.316279 -0.000004 -0.072038
# 5 0.001816 -0.003301 0.005914 -0.000004 0.039409 0.000001
# 6 0.000000 0.000003 0.000001 -0.072038 0.000001 0.058694
#
#
# Mechanical properties :
#
#
# Convention : Reuss Voigt Hill
#
# Bulk Modulus (GPa) = 20.22215 45.47184 32.84699
# Shear Modulus (GPa) = 9.43742 22.93858 16.18800
#
# Velocity S-wave (km/s) = 2.20184 3.43275 2.88374
# Velocity P-wave (km/s) = 4.10518 6.25069 5.28789
#
# Compressibility (1/GPa) = 0.04945072
#
# Stress axis : x y z
#
# Youngs Moduli (GPa) = 76.21996 20.42794 82.48458
#
# Poissons Ratio (x) = 0.13149 0.46886
# Poissons Ratio (y) = 0.49063 0.02074
# Poissons Ratio (z) = 0.43325 0.00514
#
# Static dielectric constant tensor:
#      x y z
#    x 3.800410 0.000000 -0.189210 
#    y 0.000000 3.172310 0.000000 
#    z -0.189210 0.000000 3.777290 
# 
# 
# High freq. dielectric constant tensor:
#      x y z
#    x 1.764190 0.000000 -0.009990 
#    y 0.000000 1.727740 0.000000 
#    z -0.009990 0.000000 1.758670 
# 
# From -- ./inp_files/243075.got.cif
#   From: 2010.06.25/outbox.cif.g09.slc.cpg/sg12_122_cif.got.tgz:243075.got - 2010.06.28 00:19:55.
