data_PCOD8096374
_publ_section_title
;
Structure prediction by ZEFSAII (Michael W. Deem and Ramdas Pophale) SiO2 
 PCOD8096374
Probable space group: C 2/M
;
_chemical_formula_sum "Si O2"
_cell_formula_units_Z 48
_cell_length_a 24.073839
_cell_length_b 9.215210
_cell_length_c 18.846631
_cell_angle_alpha 90.000000
_cell_angle_beta 141.023040
_cell_angle_gamma 90.000000
_cell_volume 2629.906863
_symmetry_space_group_name_H-M "C 2/M"
_symmetry_group_IT_number 12
_symmetry_cell_setting 'monoclinic'
loop_
_space_group_symop_operation_xyz
x,y,z
-x,y,-z
-x,-y,-z
x,-y,z
1/2+x,1/2+y,z
1/2-x,1/2+y,-z
1/2-x,1/2-y,-z
1/2+x,1/2-y,z
loop_
_atom_site_type_symbol
_atom_site_label
_atom_site_fract_x
_atom_site_fract_y
_atom_site_fract_z
Si Si1 0.155904 0.830990 0.985103
Si Si2 0.353529 0.668539 0.538181
Si Si3 0.985585 0.169944 0.903881
Si Si4 0.169130 0.169965 0.835277
Si Si5 0.650724 0.830764 0.323075
Si Si6 0.503996 0.327605 0.582876
O O1 0.070635 0.778313 0.943756
O O2 0.141728 0.792757 0.888581
O O3 0.172855 0.000000 0.013944
O O4 0.241092 0.747686 0.099302
O O5 0.369068 0.500000 0.572326
O O6 0.379092 0.759155 0.632896
O O7 0.254344 0.697668 0.413584
O O8 0.417027 0.722764 0.538538
O O9 0.900468 0.257455 0.792761
O O10 0.967648 0.000000 0.875037
O O11 0.000000 0.209066 0.000000
O O12 0.091375 0.231191 0.708493
O O13 0.183784 0.000000 0.839610
O O14 0.628177 0.000000 0.303447
O O15 0.500000 0.261165 0.500000
O O16 0.507621 0.500000 0.583600
#
# Coordination Sequence:
#
# PCOD8096374 Si02
#       6
#     8   8   8   8   8   8
#     4   9  18  33  51  71  96 128 165 202 243 291
#     4   9  18  34  54  75 102 135 169 206 250 301
#     4  10  21  36  53  73 101 138 171 201 248 307
#     4   9  17  30  51  75  96 124 163 205 243 281
#     4  10  20  33  53  79 102 129 168 213 254 291
#     4   9  17  30  50  75 101 131 166 201 242 296
#
# _framework density 18.251597
#
# number of rings (size 3 to 8) (size 9 to 14) (size 15 to 20)
#    0.000    2.667    0.000    1.500    0.000    5.667 
#    0.000    5.833    0.000    2.000    0.000    0.000 
#    0.000    0.000    0.000    0.000    0.000    0.000 
#
# Total GULP energy -297658.394396 kJ/mol
# GULP energy per Si atom -12402.433100 kJ/mol
# Density = 1.821006 g / cm^3
# Si number density = 18.251597 Si / 1000 Ang^3
#
#
#
# Elastic Constant Matrix: (Units=GPa)
#
#
# Indices 1 2 3 4 5 6 
#
# 1 91.1352 34.1665 75.5895 0.0000 -6.4996 0.0000
# 2 34.1665 50.4715 51.9603 0.0000 -3.4053 0.0000
# 3 75.5895 51.9603 154.6818 0.0000 -7.1983 0.0000
# 4 0.0000 0.0000 0.0000 32.2094 0.0000 2.3358
# 5 -6.4996 -3.4053 -7.1983 0.0000 22.8766 0.0000
# 6 0.0000 0.0000 0.0000 2.3358 0.0000 19.4969
#
#
#
# Elastic Compliance Matrix: (Units=1/GPa)
#
#
# Indices 1 2 3 4 5 6 
#
# 1 0.019404 -0.005087 -0.007664 0.000000 0.002344 0.000000
# 2 -0.005087 0.031661 -0.008116 0.000000 0.000714 0.000000
# 3 -0.007664 -0.008116 0.012969 0.000000 0.000695 0.000000
# 4 0.000000 0.000000 0.000000 0.031319 0.000000 -0.003752
# 5 0.002344 0.000714 0.000695 0.000000 0.044704 0.000000
# 6 0.000000 0.000000 0.000000 -0.003752 0.000000 0.051740
#
#
# Mechanical properties :
#
#
# Convention : Reuss Voigt Hill
#
# Bulk Modulus (GPa) = 44.84600 68.85788 56.85194
# Shear Modulus (GPa) = 20.74999 23.88805 22.31902
#
# Velocity S-wave (km/s) = 3.37543 3.62169 3.50073
# Velocity P-wave (km/s) = 6.30997 7.43625 6.89614
#
# Compressibility (1/GPa) = 0.02229853
#
# Stress axis : x y z
#
# Youngs Moduli (GPa) = 51.53582 31.58508 77.10634
#
# Poissons Ratio (x) = 0.16066 0.59098
# Poissons Ratio (y) = 0.26215 0.62582
# Poissons Ratio (z) = 0.39500 0.25636
#
# Static dielectric constant tensor:
#      x y z
#    x 3.445900 0.000000 0.025040 
#    y 0.000000 3.152910 0.000000 
#    z 0.025040 0.000000 3.466400 
# 
# 
# High freq. dielectric constant tensor:
#      x y z
#    x 1.707330 0.000000 0.005870 
#    y 0.000000 1.684170 0.000000 
#    z 0.005870 0.000000 1.715540 
# 
# From -- ./inp_files/327361.got.cif
#   From: 2010.06.25/outbox.cif.g09.slc.cpg/sg12_164_cif.got.tgz:327361.got - 2010.06.28 00:19:55.
