data_PCOD8096469
_publ_section_title
;
Structure prediction by ZEFSAII (Michael W. Deem and Ramdas Pophale) SiO2 
 PCOD8096469
Probable space group: C 2/M
;
_chemical_formula_sum "Si O2"
_cell_formula_units_Z 56
_cell_length_a 5.120660
_cell_length_b 29.843622
_cell_length_c 17.873247
_cell_angle_alpha 90.000000
_cell_angle_beta 98.344479
_cell_angle_gamma 90.000000
_cell_volume 2702.456598
_symmetry_space_group_name_H-M "C 2/M"
_symmetry_group_IT_number 12
_symmetry_cell_setting 'monoclinic'
loop_
_space_group_symop_operation_xyz
x,y,z
-x,y,-z
-x,-y,-z
x,-y,z
1/2+x,1/2+y,z
1/2-x,1/2+y,-z
1/2-x,1/2-y,-z
1/2+x,1/2-y,z
loop_
_atom_site_type_symbol
_atom_site_label
_atom_site_fract_x
_atom_site_fract_y
_atom_site_fract_z
Si Si1 0.652760 0.856220 0.236275
Si Si2 0.333164 0.589666 0.720371
Si Si3 0.973493 0.549392 0.587466
Si Si4 0.621644 0.550701 0.121661
Si Si5 0.229635 0.638784 0.448861
Si Si6 0.608810 0.102586 0.081356
Si Si7 0.852493 0.279548 0.665377
O O1 0.395956 0.877179 0.263025
O O2 0.648420 0.859533 0.146019
O O3 0.648527 0.802827 0.252888
O O4 0.908775 0.880197 0.283249
O O5 0.391908 0.554327 0.788760
O O6 0.246594 0.563068 0.641417
O O7 0.879117 0.500000 0.613641
O O8 0.768437 0.590265 0.593908
O O9 0.000000 0.544939 0.500000
O O10 0.576360 0.500000 0.095660
O O11 0.388456 0.579613 0.074829
O O12 0.906129 0.565586 0.103557
O O13 0.500000 0.647552 0.500000
O O14 0.191207 0.679317 0.391573
O O15 0.000000 0.638382 0.500000
O O16 0.500000 0.124453 0.000000
O O17 0.626522 0.242545 0.652949
#
# Coordination Sequence:
#
# PCOD8096469 Si02
#       7
#     8   8   8   8   8   8   8
#     4  10  22  40  62  86 117 154 194 246 301 357
#     4  10  20  38  60  80 119 162 202 247 296 346
#     4  10  22  38  61  90 121 167 213 250 293 348
#     4  10  20  33  53  84 118 156 202 250 292 345
#     4  11  25  42  63  89 127 164 198 257 309 356
#     4  10  21  36  57  83 115 159 195 235 302 364
#     4  12  25  41  68  94 118 156 204 250 312 376
#
# _framework density 20.721886999999999
#
# number of rings (size 3 to 8) (size 9 to 14) (size 15 to 20)
#    0.000    1.571    1.429    3.000    4.000    3.714 
#    0.000    5.000    0.000    0.857    0.000    0.000 
#    0.000    0.000    0.000    0.000    0.000    0.000 
#
# Total GULP energy -347048.320547 kJ/mol
# GULP energy per Si atom -12394.582877 kJ/mol
# Density = 2.067472 g / cm^3
# Si number density = 20.721887 Si / 1000 Ang^3
#
#
#
# Elastic Constant Matrix: (Units=GPa)
#
#
# Indices 1 2 3 4 5 6 
#
# 1 94.7850 17.0970 11.3752 0.0000 6.3199 0.0000
# 2 17.0970 118.1478 37.4795 0.0000 1.5112 0.0000
# 3 11.3752 37.4795 106.1964 0.0000 17.8470 0.0000
# 4 0.0000 0.0000 0.0000 11.3886 0.0000 -4.7941
# 5 6.3199 1.5112 17.8470 0.0000 26.7037 0.0000
# 6 0.0000 0.0000 0.0000 -4.7941 0.0000 17.6364
#
#
#
# Elastic Compliance Matrix: (Units=1/GPa)
#
#
# Indices 1 2 3 4 5 6 
#
# 1 0.011005 -0.001479 -0.000263 0.000000 -0.002345 0.000000
# 2 -0.001479 0.009819 -0.003686 0.000000 0.002258 0.000000
# 3 -0.000263 -0.003686 0.012054 0.000000 -0.007785 0.000000
# 4 0.000000 0.000000 0.000000 0.099154 0.000000 0.026953
# 5 -0.002345 0.002258 -0.007785 0.000000 0.043078 0.000000
# 6 0.000000 0.000000 0.000000 0.026953 0.000000 0.064028
#
#
# Mechanical properties :
#
#
# Convention : Reuss Voigt Hill
#
# Bulk Modulus (GPa) = 45.41062 50.11475 47.76268
# Shear Modulus (GPa) = 19.43004 28.02423 23.72713
#
# Velocity S-wave (km/s) = 3.06544 3.68149 3.38750
# Velocity P-wave (km/s) = 5.87292 6.50447 6.19674
#
# Compressibility (1/GPa) = 0.02202128
#
# Stress axis : x y z
#
# Youngs Moduli (GPa) = 90.86867 101.84831 82.96005
#
# Poissons Ratio (x) = 0.15065 0.02179
# Poissons Ratio (y) = 0.13441 0.30581
# Poissons Ratio (z) = 0.02386 0.37544
#
# Static dielectric constant tensor:
#      x y z
#    x 3.780770 0.000000 0.145910 
#    y 0.000000 3.980270 0.000000 
#    z 0.145910 0.000000 4.098420 
# 
# 
# High freq. dielectric constant tensor:
#      x y z
#    x 1.816720 0.000000 0.009260 
#    y 0.000000 1.790830 0.000000 
#    z 0.009260 0.000000 1.819520 
# 
# From -- ./inp_files/253650.got.cif
#   From: 2010.06.25/outbox.cif.g09.slc.cpg/sg12_127_cif.got.tgz:253650.got - 2010.06.28 00:19:55.
