data_PCOD8096657
_publ_section_title
;
Structure prediction by ZEFSAII (Michael W. Deem and Ramdas Pophale) SiO2 
 PCOD8096657
Probable space group: C 2/M
;
_chemical_formula_sum "Si O2"
_cell_formula_units_Z 56
_cell_length_a 23.588947
_cell_length_b 9.243617
_cell_length_c 13.743905
_cell_angle_alpha 90.000000
_cell_angle_beta 74.332340
_cell_angle_gamma 90.000000
_cell_volume 2885.471037
_symmetry_space_group_name_H-M "C 2/M"
_symmetry_group_IT_number 12
_symmetry_cell_setting 'monoclinic'
loop_
_space_group_symop_operation_xyz
x,y,z
-x,y,-z
-x,-y,-z
x,-y,z
1/2+x,1/2+y,z
1/2-x,1/2+y,-z
1/2-x,1/2-y,-z
1/2+x,1/2-y,z
loop_
_atom_site_type_symbol
_atom_site_label
_atom_site_fract_x
_atom_site_fract_y
_atom_site_fract_z
Si Si1 0.773332 0.832504 0.845226
Si Si2 0.689220 0.165368 0.530594
Si Si3 0.351779 0.165086 0.666007
Si Si4 0.667933 0.332200 0.977948
Si Si5 0.983950 0.671558 0.612527
Si Si6 0.083297 0.327937 0.709461
Si Si7 0.433648 0.167329 0.063047
O O1 0.805155 0.771780 0.735779
O O2 0.712366 0.748296 0.884891
O O3 0.758568 0.000000 0.836021
O O4 0.814598 0.806002 0.918820
O O5 0.750000 0.250000 0.500000
O O6 0.653306 0.180561 0.447322
O O7 0.645550 0.225510 0.635193
O O8 0.705667 0.000000 0.544059
O O9 0.416893 0.213464 0.669536
O O10 0.339005 0.000000 0.704537
O O11 0.667376 0.500000 0.950813
O O12 0.604171 0.262501 0.993724
O O13 0.990461 0.500000 0.604466
O O14 0.000000 0.738306 0.500000
O O15 0.028215 0.735625 0.673272
O O16 0.080502 0.500000 0.706114
O O17 0.076933 0.273636 0.822850
O O18 0.415061 0.000000 0.062831
O O19 0.500000 0.190549 0.000000
#
# Coordination Sequence:
#
# PCOD8096657 Si02
#       7
#     8   8   8   8   8   8   8
#     4  10  22  39  60  84 112 147 185 233 294 350
#     4  10  21  36  54  81 116 152 193 233 279 339
#     4  10  20  33  57  88 112 141 188 239 284 336
#     4  10  22  41  61  82 111 147 191 239 287 341
#     4   9  15  29  54  81 108 140 183 233 277 320
#     4   9  18  34  54  80 113 150 188 230 281 332
#     4  10  22  37  57  87 119 153 194 236 283 342
#
# _framework density 19.407575999999999
#
# number of rings (size 3 to 8) (size 9 to 14) (size 15 to 20)
#    0.000    2.286    1.429    0.857    4.000    2.571 
#    0.000    0.000    0.000    1.286    0.000    0.000 
#    0.000    0.000    0.000    0.000    0.000    0.000 
#
# Total GULP energy -347242.930126 kJ/mol
# GULP energy per Si atom -12401.533219 kJ/mol
# Density = 1.936340 g / cm^3
# Si number density = 19.407576 Si / 1000 Ang^3
#
#
#
# Elastic Constant Matrix: (Units=GPa)
#
#
# Indices 1 2 3 4 5 6 
#
# 1 106.6981 41.3936 23.8200 0.0000 -7.5908 0.0000
# 2 41.3936 71.0945 32.3866 0.0000 -6.8268 0.0000
# 3 23.8200 32.3866 96.2250 0.0000 -18.4844 0.0000
# 4 0.0000 0.0000 0.0000 23.3046 0.0000 -0.7450
# 5 -7.5908 -6.8268 -18.4844 0.0000 25.7048 0.0000
# 6 0.0000 0.0000 0.0000 -0.7450 0.0000 28.4741
#
#
#
# Elastic Compliance Matrix: (Units=1/GPa)
#
#
# Indices 1 2 3 4 5 6 
#
# 1 0.012199 -0.006750 -0.000465 0.000000 0.001476 0.000000
# 2 -0.006750 0.020352 -0.005249 0.000000 -0.000362 0.000000
# 3 -0.000465 -0.005249 0.013900 0.000000 0.008464 0.000000
# 4 0.000000 0.000000 0.000000 0.042946 0.000000 0.001124
# 5 0.001476 -0.000362 0.008464 0.000000 0.045329 0.000000
# 6 0.000000 0.000000 0.000000 0.001124 0.000000 0.035149
#
#
# Mechanical properties :
#
#
# Convention : Reuss Voigt Hill
#
# Bulk Modulus (GPa) = 46.45690 52.13533 49.29611
# Shear Modulus (GPa) = 24.75542 27.25788 26.00665
#
# Velocity S-wave (km/s) = 3.57536 3.75173 3.66461
# Velocity P-wave (km/s) = 6.40576 6.75936 6.58494
#
# Compressibility (1/GPa) = 0.02152533
#
# Stress axis : x y z
#
# Youngs Moduli (GPa) = 81.97091 49.13586 71.94340
#
# Poissons Ratio (x) = 0.33164 0.03343
# Poissons Ratio (y) = 0.55326 0.37760
# Poissons Ratio (z) = 0.03809 0.25789
#
# Static dielectric constant tensor:
#      x y z
#    x 3.665610 0.000000 0.047600 
#    y 0.000000 3.213470 0.000000 
#    z 0.047600 0.000000 3.582630 
# 
# 
# High freq. dielectric constant tensor:
#      x y z
#    x 1.767590 0.000000 -0.002710 
#    y 0.000000 1.716100 0.000000 
#    z -0.002710 0.000000 1.760060 
# 
# From -- ./inp_files/237333.got.cif
#   From: 2010.06.25/outbox.cif.g09.slc.cpg/sg12_119_cif.got.tgz:237333.got - 2010.06.28 00:19:55.
