data_PCOD8096649
_publ_section_title
;
Structure prediction by ZEFSAII (Michael W. Deem and Ramdas Pophale) SiO2 
 PCOD8096649
Probable space group: C 2/M
;
_chemical_formula_sum "Si O2"
_cell_formula_units_Z 48
_cell_length_a 27.488402
_cell_length_b 14.264193
_cell_length_c 14.491115
_cell_angle_alpha 90.000000
_cell_angle_beta 27.533463
_cell_angle_gamma 90.000000
_cell_volume 2626.582239
_symmetry_space_group_name_H-M "C 2/M"
_symmetry_group_IT_number 12
_symmetry_cell_setting 'monoclinic'
loop_
_space_group_symop_operation_xyz
x,y,z
-x,y,-z
-x,-y,-z
x,-y,z
1/2+x,1/2+y,z
1/2-x,1/2+y,-z
1/2-x,1/2-y,-z
1/2+x,1/2-y,z
loop_
_atom_site_type_symbol
_atom_site_label
_atom_site_fract_x
_atom_site_fract_y
_atom_site_fract_z
Si Si1 0.213571 0.109305 0.195496
Si Si2 0.346714 0.398675 0.909097
Si Si3 0.618415 0.766862 0.814966
Si Si4 0.691831 0.392414 0.561819
Si Si5 0.378772 0.762889 0.975202
Si Si6 0.562404 0.654871 0.602268
O O1 0.178734 0.134608 0.151358
O O2 0.335313 0.138647 0.008576
O O3 0.145625 0.172771 0.380743
O O4 0.200062 0.000000 0.241192
O O5 0.292882 0.500000 0.018633
O O6 0.472792 0.412361 0.709980
O O7 0.308024 0.319783 0.046049
O O8 0.634861 0.666770 0.737759
O O9 0.694102 0.847301 0.648109
O O10 0.641000 0.752213 0.883921
O O11 0.500000 0.802876 0.000000
O O12 0.706071 0.500000 0.570437
O O13 0.620473 0.392291 0.590707
O O14 0.502493 0.750378 0.738673
#
# Coordination Sequence:
#
# PCOD8096649 Si02
#       6
#     8   8   8   8   8   8
#     4  11  20  36  58  82 112 150 185 224 272 322
#     4   9  19  33  54  84 115 143 183 227 270 323
#     4  11  22  40  58  80 112 147 183 225 278 330
#     4  11  23  38  59  84 111 142 184 229 275 328
#     4  10  22  34  55  85 115 142 181 233 274 322
#     4  10  20  33  57  84 112 138 180 229 274 315
#
# _framework density 18.274699999999999
#
# number of rings (size 3 to 8) (size 9 to 14) (size 15 to 20)
#    1.000    0.667    3.333    2.500    0.000    2.667 
#    0.000    0.000    0.000    1.000    0.000    3.500 
#    0.000    0.000    0.000    0.000    0.000    0.000 
#
# Total GULP energy -297362.533558 kJ/mol
# GULP energy per Si atom -12390.105565 kJ/mol
# Density = 1.823311 g / cm^3
# Si number density = 18.274700 Si / 1000 Ang^3
#
#
#
# Elastic Constant Matrix: (Units=GPa)
#
#
# Indices 1 2 3 4 5 6 
#
# 1 126.7298 37.8912 24.4614 0.0000 2.9070 0.0000
# 2 37.8912 62.6421 25.8989 0.0000 -7.6812 0.0000
# 3 24.4614 25.8989 64.9138 0.0000 -13.7263 0.0000
# 4 0.0000 0.0000 0.0000 20.7015 0.0000 -0.0131
# 5 2.9070 -7.6812 -13.7263 0.0000 22.3850 0.0000
# 6 0.0000 0.0000 0.0000 -0.0131 0.0000 3.7426
#
#
#
# Elastic Compliance Matrix: (Units=1/GPa)
#
#
# Indices 1 2 3 4 5 6 
#
# 1 0.010209 -0.005696 -0.002606 0.000000 -0.004878 0.000000
# 2 -0.005696 0.022387 -0.005750 0.000000 0.004895 0.000000
# 3 -0.002606 -0.005750 0.021067 0.000000 0.011283 0.000000
# 4 0.000000 0.000000 0.000000 0.048306 0.000000 0.000170
# 5 -0.004878 0.004895 0.011283 0.000000 0.053905 0.000000
# 6 0.000000 0.000000 0.000000 0.000170 0.000000 0.267194
#
#
# Mechanical properties :
#
#
# Convention : Reuss Voigt Hill
#
# Bulk Modulus (GPa) = 39.12575 47.86540 43.49557
# Shear Modulus (GPa) = 10.87687 20.43478 15.65583
#
# Velocity S-wave (km/s) = 2.44229 3.34758 2.93011
# Velocity P-wave (km/s) = 5.42304 6.41800 5.94138
#
# Compressibility (1/GPa) = 0.02555862
#
# Stress axis : x y z
#
# Youngs Moduli (GPa) = 97.95557 44.66939 47.46730
#
# Poissons Ratio (x) = 0.25443 0.12370
# Poissons Ratio (y) = 0.55794 0.27295
# Poissons Ratio (z) = 0.25527 0.25686
#
# Static dielectric constant tensor:
#      x y z
#    x 3.483950 0.000000 -0.040850 
#    y 0.000000 3.174260 0.000000 
#    z -0.040850 0.000000 3.257950 
# 
# 
# High freq. dielectric constant tensor:
#      x y z
#    x 1.727810 0.000000 0.001200 
#    y 0.000000 1.687930 0.000000 
#    z 0.001200 0.000000 1.690120 
# 
# From -- ./inp_files/246277.got.cif
#   From: 2010.06.25/outbox.cif.g09.slc.cpg/sg12_124_cif.got.tgz:246277.got - 2010.06.28 00:19:55.
