data_PCOD8096392
_publ_section_title
;
Structure prediction by ZEFSAII (Michael W. Deem and Ramdas Pophale) SiO2 
 PCOD8096392
Probable space group: C 2/M
;
_chemical_formula_sum "Si O2"
_cell_formula_units_Z 48
_cell_length_a 20.016843
_cell_length_b 17.791732
_cell_length_c 8.883613
_cell_angle_alpha 90.000000
_cell_angle_beta 118.067524
_cell_angle_gamma 90.000000
_cell_volume 2791.681320
_symmetry_space_group_name_H-M "C 2/M"
_symmetry_group_IT_number 12
_symmetry_cell_setting 'monoclinic'
loop_
_space_group_symop_operation_xyz
x,y,z
-x,y,-z
-x,-y,-z
x,-y,z
1/2+x,1/2+y,z
1/2-x,1/2+y,-z
1/2-x,1/2-y,-z
1/2+x,1/2-y,z
loop_
_atom_site_type_symbol
_atom_site_label
_atom_site_fract_x
_atom_site_fract_y
_atom_site_fract_z
Si Si1 0.898199 0.082472 0.193757
Si Si2 0.246660 0.583365 0.213099
Si Si3 0.813296 0.188792 0.524162
Si Si4 0.079632 0.233445 0.623000
Si Si5 0.909944 0.167726 0.916029
Si Si6 0.672719 0.212912 0.977505
O O1 0.813282 0.081052 0.162648
O O2 0.939161 0.151517 0.321855
O O3 0.936274 0.000000 0.264266
O O4 0.898264 0.096398 0.013927
O O5 0.215486 0.500000 0.213478
O O6 0.272429 0.619112 0.398724
O O7 0.182238 0.631844 0.062989
O O8 0.750000 0.250000 0.500000
O O9 0.868854 0.229703 0.468205
O O10 0.866398 0.154198 0.712060
O O11 0.000000 0.270754 0.500000
O O12 0.117944 0.291999 0.777012
O O13 0.867257 0.238951 0.937155
O O14 0.000000 0.183351 0.000000
O O15 0.750000 0.250000 0.000000
#
# Coordination Sequence:
#
# PCOD8096392 Si02
#       6
#     8   8   8   8   8   8
#     4   9  19  34  51  73 110 148 176 204 256 323
#     4  10  20  35  57  81 103 138 184 224 261 309
#     4  11  19  32  54  80 107 136 176 224 260 307
#     4  10  20  33  53  80 104 138 183 216 257 316
#     4  11  21  32  52  82 111 139 177 216 267 314
#     4  11  17  37  58  75 102 143 185 219 252 315
#
# _framework density 17.193939
#
# number of rings (size 3 to 8) (size 9 to 14) (size 15 to 20)
#    0.000    1.667    6.667    2.000    0.000    1.333 
#    0.000    3.333    0.000    1.000    0.000    0.000 
#    0.000    0.000    0.000    0.000    0.000    0.000 
#
# Total GULP energy -297380.719986 kJ/mol
# GULP energy per Si atom -12390.863333 kJ/mol
# Density = 1.715480 g / cm^3
# Si number density = 17.193939 Si / 1000 Ang^3
#
#
#
# Elastic Constant Matrix: (Units=GPa)
#
#
# Indices 1 2 3 4 5 6 
#
# 1 68.3088 56.6661 59.3849 0.0000 -0.1158 0.0000
# 2 56.6661 91.3464 41.3886 0.0000 5.3309 0.0000
# 3 59.3849 41.3886 142.3462 0.0000 5.3919 0.0000
# 4 0.0000 0.0000 0.0000 13.6457 0.0000 4.6612
# 5 -0.1158 5.3309 5.3919 0.0000 33.1990 0.0000
# 6 0.0000 0.0000 0.0000 4.6612 0.0000 11.5579
#
#
#
# Elastic Compliance Matrix: (Units=1/GPa)
#
#
# Indices 1 2 3 4 5 6 
#
# 1 0.042707 -0.021477 -0.011781 0.000000 0.005511 0.000000
# 2 -0.021477 0.023477 0.002293 0.000000 -0.004217 0.000000
# 3 -0.011781 0.002293 0.011359 0.000000 -0.002254 0.000000
# 4 0.000000 0.000000 0.000000 0.084991 0.000000 -0.034276
# 5 0.005511 -0.004217 -0.002254 0.000000 0.031184 0.000000
# 6 0.000000 0.000000 0.000000 -0.034276 0.000000 0.100344
#
#
# Mechanical properties :
#
#
# Convention : Reuss Voigt Hill
#
# Bulk Modulus (GPa) = 64.04485 68.54228 66.29357
# Shear Modulus (GPa) = 13.84298 21.31797 17.58048
#
# Velocity S-wave (km/s) = 2.84052 3.52498 3.20109
# Velocity P-wave (km/s) = 6.93451 7.51785 7.23206
#
# Compressibility (1/GPa) = 0.01561406
#
# Stress axis : x y z
#
# Youngs Moduli (GPa) = 23.41562 42.59446 88.03957
#
# Poissons Ratio (x) = 0.91478 1.03718
# Poissons Ratio (y) = 0.50289 -0.20189
# Poissons Ratio (z) = 0.27586 -0.09768
#
# Static dielectric constant tensor:
#      x y z
#    x 3.236500 0.000000 -0.048030 
#    y 0.000000 3.483520 0.000000 
#    z -0.048030 0.000000 3.640370 
# 
# 
# High freq. dielectric constant tensor:
#      x y z
#    x 1.661250 0.000000 -0.011390 
#    y 0.000000 1.636480 0.000000 
#    z -0.011390 0.000000 1.675560 
# 
# From -- ./inp_files/87135.got.cif
#   From: 2010.06.25/outbox.cif.g09.slc.cpg/sg12_44_cif.got.tgz:87135.got - 2010.06.28 00:19:55.
