data_PCOD8096021
_publ_section_title
;
Structure prediction by ZEFSAII (Michael W. Deem and Ramdas Pophale) SiO2 
 PCOD8096021
Probable space group: C 2/M
;
_chemical_formula_sum "Si O2"
_cell_formula_units_Z 64
_cell_length_a 24.833664
_cell_length_b 8.908510
_cell_length_c 16.919075
_cell_angle_alpha 90.000000
_cell_angle_beta 102.048014
_cell_angle_gamma 90.000000
_cell_volume 3660.575469
_symmetry_space_group_name_H-M "C 2/M"
_symmetry_group_IT_number 12
_symmetry_cell_setting 'monoclinic'
loop_
_space_group_symop_operation_xyz
x,y,z
-x,y,-z
-x,-y,-z
x,-y,z
1/2+x,1/2+y,z
1/2-x,1/2+y,-z
1/2-x,1/2-y,-z
1/2+x,1/2-y,z
loop_
_atom_site_type_symbol
_atom_site_label
_atom_site_fract_x
_atom_site_fract_y
_atom_site_fract_z
Si Si1 0.697236 0.323303 0.946637
Si Si2 0.308181 0.327334 0.519105
Si Si3 0.695748 0.327410 0.657465
Si Si4 0.964773 0.671492 0.165562
Si Si5 0.916824 0.678626 0.821723
Si Si6 0.677526 0.822789 0.323496
Si Si7 0.101501 0.327295 0.006389
Si Si8 0.643927 0.178428 0.786652
O O1 0.704833 0.500000 0.940397
O O2 0.688984 0.252953 0.857388
O O3 0.750000 0.250000 0.000000
O O4 0.647360 0.284696 0.988798
O O5 0.300996 0.500000 0.539235
O O6 0.250000 0.250000 0.500000
O O7 0.332271 0.309147 0.437895
O O8 0.343135 0.248165 0.599386
O O9 0.692927 0.500000 0.684448
O O10 0.759826 0.273725 0.678091
O O11 0.658543 0.224703 0.702273
O O12 0.968768 0.500000 0.192396
O O13 0.916733 0.742067 0.206399
O O14 0.025542 0.744522 0.196443
O O15 0.950669 0.685530 0.067983
O O16 0.918801 0.500000 0.819698
O O17 0.864258 0.737811 0.756380
O O18 0.912985 0.731340 0.911023
O O19 0.674288 0.000000 0.331868
O O20 0.123066 0.500000 0.014035
O O21 0.646413 0.000000 0.797828
#
# Coordination Sequence:
#
# PCOD8096021 Si02
#       8
#     8   8   8   8   8   8   8   8
#     4  11  22  35  49  67  98 134 165 202 247 291
#     4   9  17  31  50  71  98 130 160 195 243 295
#     4   9  18  31  48  72 100 129 160 198 244 299
#     4   8  15  29  48  72  99 127 169 211 243 285
#     4   9  16  28  50  75 100 130 163 208 252 289
#     4   9  18  30  47  75 103 129 161 197 249 299
#     4   9  17  30  50  74  96 127 170 208 247 290
#     4  10  20  33  51  75  97 127 168 205 243 288
#
# _framework density 17.48359
#
# number of rings (size 3 to 8) (size 9 to 14) (size 15 to 20)
#    0.000    2.750    0.000    3.750    1.750    4.000 
#    0.000    0.625    0.000   11.250    0.000    5.250 
#    0.000    0.000    0.000    0.000    0.000    0.000 
#
# Total GULP energy -396547.684068 kJ/mol
# GULP energy per Si atom -12392.115127 kJ/mol
# Density = 1.744380 g / cm^3
# Si number density = 17.483590 Si / 1000 Ang^3
#
#
#
# Elastic Constant Matrix: (Units=GPa)
#
#
# Indices 1 2 3 4 5 6 
#
# 1 68.7478 19.5397 50.8855 0.0000 -5.6754 0.0000
# 2 19.5397 57.8394 28.8834 0.0000 -7.7773 0.0000
# 3 50.8855 28.8834 109.4339 0.0000 -13.1129 0.0000
# 4 0.0000 0.0000 0.0000 28.6825 0.0000 -4.1175
# 5 -5.6754 -7.7773 -13.1129 0.0000 20.2383 0.0000
# 6 0.0000 0.0000 0.0000 -4.1175 0.0000 15.8313
#
#
#
# Elastic Compliance Matrix: (Units=1/GPa)
#
#
# Indices 1 2 3 4 5 6 
#
# 1 0.022576 -0.002847 -0.009886 0.000000 -0.001169 0.000000
# 2 -0.002847 0.020677 -0.003553 0.000000 0.004845 0.000000
# 3 -0.009886 -0.003553 0.015370 0.000000 0.005821 0.000000
# 4 0.000000 0.000000 0.000000 0.036217 0.000000 0.009420
# 5 -0.001169 0.004845 0.005821 0.000000 0.054717 0.000000
# 6 0.000000 0.000000 0.000000 0.009420 0.000000 0.065616
#
#
# Mechanical properties :
#
#
# Convention : Reuss Voigt Hill
#
# Bulk Modulus (GPa) = 38.38658 48.29315 43.33986
# Shear Modulus (GPa) = 19.49858 22.06458 20.78158
#
# Velocity S-wave (km/s) = 3.34316 3.55634 3.45140
# Velocity P-wave (km/s) = 6.07501 6.67423 6.38166
#
# Compressibility (1/GPa) = 0.02605077
#
# Stress axis : x y z
#
# Youngs Moduli (GPa) = 44.29439 48.36335 65.06116
#
# Poissons Ratio (x) = 0.13769 0.64321
# Poissons Ratio (y) = 0.12611 0.23115
# Poissons Ratio (z) = 0.43791 0.17183
#
# Static dielectric constant tensor:
#      x y z
#    x 3.233720 0.000000 -0.029310 
#    y 0.000000 3.075860 0.000000 
#    z -0.029310 0.000000 3.550370 
# 
# 
# High freq. dielectric constant tensor:
#      x y z
#    x 1.657830 0.000000 -0.005040 
#    y 0.000000 1.652570 0.000000 
#    z -0.005040 0.000000 1.676010 
# 
# From -- ./inp_files/287750.got.cif
#   From: 2010.06.25/outbox.cif.g09.slc.cpg/sg12_144_cif.got.tgz:287750.got - 2010.06.28 00:19:55.
