data_PCOD8096680
_publ_section_title
;
Structure prediction by ZEFSAII (Michael W. Deem and Ramdas Pophale) SiO2 
 PCOD8096680
Probable space group: C 2/M
;
_chemical_formula_sum "Si O2"
_cell_formula_units_Z 48
_cell_length_a 19.435788
_cell_length_b 14.768853
_cell_length_c 11.776202
_cell_angle_alpha 90.000000
_cell_angle_beta 137.172068
_cell_angle_gamma 90.000000
_cell_volume 2297.918589
_symmetry_space_group_name_H-M "C 2/M"
_symmetry_group_IT_number 12
_symmetry_cell_setting 'monoclinic'
loop_
_space_group_symop_operation_xyz
x,y,z
-x,y,-z
-x,-y,-z
x,-y,z
1/2+x,1/2+y,z
1/2-x,1/2+y,-z
1/2-x,1/2-y,-z
1/2+x,1/2-y,z
loop_
_atom_site_type_symbol
_atom_site_label
_atom_site_fract_x
_atom_site_fract_y
_atom_site_fract_z
Si Si1 0.674080 0.261999 0.801638
Si Si2 0.519590 0.680396 0.307373
Si Si3 0.838734 0.321504 0.608372
Si Si4 0.278534 0.394951 0.335365
Si Si5 0.080564 0.896942 0.017290
Si Si6 0.801325 0.604258 0.322634
O O1 0.561618 0.293424 0.696668
O O2 0.729764 0.334778 0.787825
O O3 0.641434 0.169812 0.695574
O O4 0.750000 0.250000 0.000000
O O5 0.554589 0.767736 0.273833
O O6 0.616701 0.630866 0.476313
O O7 0.458133 0.609149 0.157189
O O8 0.750000 0.250000 0.500000
O O9 0.819702 0.378468 0.701110
O O10 0.833315 0.387009 0.492109
O O11 0.280041 0.500000 0.302660
O O12 0.092913 0.000000 0.071340
O O13 0.189087 0.853290 0.169848
O O14 0.000000 0.846393 0.000000
O O15 0.813559 0.500000 0.298555
#
# Coordination Sequence:
#
# PCOD8096680 Si02
#       6
#     8   8   8   8   8   8
#     4  12  25  42  61  92 131 172 207 254 318 380
#     4  11  22  37  65  92 131 163 211 253 320 370
#     4  10  20  39  65  92 126 163 204 258 317 372
#     4  11  24  42  68  98 126 159 210 270 322 369
#     4  10  20  33  58  94 122 156 208 263 315 364
#     4  11  22  40  62  88 127 169 209 257 308 371
#
# _framework density 20.888468
#
# number of rings (size 3 to 8) (size 9 to 14) (size 15 to 20)
#    0.000    1.167    5.000    3.500    0.000    4.000 
#    0.000    2.500    0.000    1.000    0.000    0.000 
#    0.000    0.000    0.000    0.000    0.000    0.000 
#
# Total GULP energy -297380.306315 kJ/mol
# GULP energy per Si atom -12390.846096 kJ/mol
# Density = 2.084092 g / cm^3
# Si number density = 20.888468 Si / 1000 Ang^3
#
#
#
# Elastic Constant Matrix: (Units=GPa)
#
#
# Indices 1 2 3 4 5 6 
#
# 1 108.4580 37.4920 17.3588 0.0000 -26.4101 0.0000
# 2 37.4920 117.3942 12.2163 0.0000 -20.9697 0.0000
# 3 17.3588 12.2163 55.2386 0.0000 -16.2626 0.0000
# 4 0.0000 0.0000 0.0000 23.6494 0.0000 -11.0502
# 5 -26.4101 -20.9697 -16.2626 0.0000 27.9943 0.0000
# 6 0.0000 0.0000 0.0000 -11.0502 0.0000 23.3013
#
#
#
# Elastic Compliance Matrix: (Units=1/GPa)
#
#
# Indices 1 2 3 4 5 6 
#
# 1 0.012442 -0.002167 -0.000546 0.000000 0.009798 0.000000
# 2 -0.002167 0.010211 0.000088 0.000000 0.005656 0.000000
# 3 -0.000546 0.000088 0.021862 0.000000 0.012251 0.000000
# 4 0.000000 0.000000 0.000000 0.054321 0.000000 0.025761
# 5 0.009798 0.005656 0.012251 0.000000 0.056319 0.000000
# 6 0.000000 0.000000 0.000000 0.025761 0.000000 0.055132
#
#
# Mechanical properties :
#
#
# Convention : Reuss Voigt Hill
#
# Bulk Modulus (GPa) = 25.46758 46.13610 35.80184
# Shear Modulus (GPa) = 21.86966 29.25725 25.56346
#
# Velocity S-wave (km/s) = 3.23921 3.74657 3.50209
# Velocity P-wave (km/s) = 5.11943 6.39145 5.79047
#
# Compressibility (1/GPa) = 0.03926561
#
# Stress axis : x y z
#
# Youngs Moduli (GPa) = 80.37010 97.92916 45.74102
#
# Poissons Ratio (x) = 0.21218 0.02499
# Poissons Ratio (y) = 0.17414 -0.00401
# Poissons Ratio (z) = 0.04390 -0.00859
#
# Static dielectric constant tensor:
#      x y z
#    x 4.458340 0.000000 -0.001460 
#    y 0.000000 3.802460 0.000000 
#    z -0.001460 0.000000 3.621720 
# 
# 
# High freq. dielectric constant tensor:
#      x y z
#    x 1.831020 0.000000 -0.008020 
#    y 0.000000 1.809950 0.000000 
#    z -0.008020 0.000000 1.797210 
# 
# From -- ./inp_files/167623.got.cif
#   From: 2010.06.25/outbox.cif.g09.slc.cpg/sg12_84_cif.got.tgz:167623.got - 2010.06.28 00:19:55.
