data_PCOD8096715
_publ_section_title
;
Structure prediction by ZEFSAII (Michael W. Deem and Ramdas Pophale) SiO2 
 PCOD8096715
Probable space group: C 2/M
;
_chemical_formula_sum "Si O2"
_cell_formula_units_Z 40
_cell_length_a 13.551371
_cell_length_b 13.558341
_cell_length_c 20.517139
_cell_angle_alpha 90.000000
_cell_angle_beta 36.745482
_cell_angle_gamma 90.000000
_cell_volume 2255.265018
_symmetry_space_group_name_H-M "C 2/M"
_symmetry_group_IT_number 12
_symmetry_cell_setting 'monoclinic'
loop_
_space_group_symop_operation_xyz
x,y,z
-x,y,-z
-x,-y,-z
x,-y,z
1/2+x,1/2+y,z
1/2-x,1/2+y,-z
1/2-x,1/2-y,-z
1/2+x,1/2-y,z
loop_
_atom_site_type_symbol
_atom_site_label
_atom_site_fract_x
_atom_site_fract_y
_atom_site_fract_z
Si Si1 0.762121 0.700757 0.654462
Si Si2 0.453965 0.616526 0.127026
Si Si3 0.422115 0.113343 0.451630
Si Si4 0.379852 0.113877 0.324401
Si Si5 0.249462 0.383712 0.112938
O O1 0.595347 0.666967 0.778944
O O2 0.776718 0.639556 0.579221
O O3 0.750292 0.817486 0.644617
O O4 0.920646 0.682130 0.616042
O O5 0.437360 0.500000 0.144152
O O6 0.331837 0.657736 0.135414
O O7 0.641532 0.646832 0.007925
O O8 0.357766 0.131652 0.413118
O O9 0.478316 0.000000 0.430389
O O10 0.561296 0.150779 0.206063
O O11 0.346884 0.000000 0.323169
O O12 0.253343 0.500000 0.118821
#
# Coordination Sequence:
#
# PCOD8096715 Si02
#       5
#     8   8   8   8   8
#     4  11  19  29  52  77  95 125 168 199 238 286
#     4   9  15  27  49  75  98 122 158 203 243 282
#     4  10  20  35  52  73 101 126 156 204 248 282
#     4  10  20  34  49  70 102 133 159 196 242 288
#     4   8  15  28  47  71  99 126 154 197 247 284
#
# _framework density 17.736274000000002
#
# number of rings (size 3 to 8) (size 9 to 14) (size 15 to 20)
#    0.000    2.400    2.000    4.200    0.000    0.800 
#    0.000    2.000    0.000    3.600    0.000    2.800 
#    0.000    0.000    0.000    0.000    0.000    0.000 
#
# Total GULP energy -247880.564711 kJ/mol
# GULP energy per Si atom -12394.028236 kJ/mol
# Density = 1.769591 g / cm^3
# Si number density = 17.736274 Si / 1000 Ang^3
#
#
#
# Elastic Constant Matrix: (Units=GPa)
#
#
# Indices 1 2 3 4 5 6 
#
# 1 42.6106 44.8304 22.3392 -0.0002 2.1235 0.0001
# 2 44.8304 85.0888 31.9262 -0.0004 4.9021 0.0001
# 3 22.3392 31.9262 133.5975 -0.0021 19.4267 0.0008
# 4 -0.0002 -0.0004 -0.0021 15.4879 0.0010 -3.4941
# 5 2.1235 4.9021 19.4267 0.0010 15.8077 -0.0003
# 6 0.0001 0.0001 0.0008 -3.4941 -0.0003 29.5962
#
#
#
# Elastic Compliance Matrix: (Units=1/GPa)
#
#
# Indices 1 2 3 4 5 6 
#
# 1 0.053709 -0.027401 -0.003189 -0.000001 0.005202 0.000000
# 2 -0.027401 0.026890 -0.001421 0.000000 -0.002912 0.000000
# 3 -0.003189 -0.001421 0.010023 0.000002 -0.011448 0.000000
# 4 -0.000001 0.000000 0.000002 0.066333 -0.000006 0.007831
# 5 0.005202 -0.002912 -0.011448 -0.000006 0.077534 0.000000
# 6 0.000000 0.000000 0.000000 0.007831 0.000000 0.034713
#
#
# Mechanical properties :
#
#
# Convention : Reuss Voigt Hill
#
# Bulk Modulus (GPa) = 37.59338 51.05427 44.32382
# Shear Modulus (GPa) = 14.61605 22.99176 18.80390
#
# Velocity S-wave (km/s) = 2.87379 3.60434 3.25960
# Velocity P-wave (km/s) = 5.67920 6.79481 6.26190
#
# Compressibility (1/GPa) = 0.02660043
#
# Stress axis : x y z
#
# Youngs Moduli (GPa) = 18.61875 37.18885 99.77354
#
# Poissons Ratio (x) = 1.01900 0.31820
# Poissons Ratio (y) = 0.51017 0.14176
# Poissons Ratio (z) = 0.05938 0.05284
#
# Static dielectric constant tensor:
#      x y z
#    x 2.937410 0.000000 -0.013300 
#    y 0.000000 3.027000 0.000000 
#    z -0.013300 0.000000 3.908790 
# 
# 
# High freq. dielectric constant tensor:
#      x y z
#    x 1.645560 0.000000 0.008510 
#    y 0.000000 1.656380 0.000000 
#    z 0.008510 0.000000 1.710440 
# 
# From -- ./inp_files/129238.got.cif
#   From: 2010.06.25/outbox.cif.g09.slc.cpg/sg12_65_cif.got.tgz:129238.got - 2010.06.28 00:19:55.
