data_PCOD8096832
_publ_section_title
;
Structure prediction by ZEFSAII (Michael W. Deem and Ramdas Pophale) SiO2 
 PCOD8096832
Probable space group: C 2/M
;
_chemical_formula_sum "Si O2"
_cell_formula_units_Z 64
_cell_length_a 14.052288
_cell_length_b 9.155195
_cell_length_c 29.121054
_cell_angle_alpha 90.000000
_cell_angle_beta 72.670678
_cell_angle_gamma 90.000000
_cell_volume 3576.407709
_symmetry_space_group_name_H-M "C 2/M"
_symmetry_group_IT_number 12
_symmetry_cell_setting 'monoclinic'
loop_
_space_group_symop_operation_xyz
x,y,z
-x,y,-z
-x,-y,-z
x,-y,z
1/2+x,1/2+y,z
1/2-x,1/2+y,-z
1/2-x,1/2-y,-z
1/2+x,1/2-y,z
loop_
_atom_site_type_symbol
_atom_site_label
_atom_site_fract_x
_atom_site_fract_y
_atom_site_fract_z
Si Si1 0.613180 0.828916 0.298434
Si Si2 0.085457 0.330228 0.619192
Si Si3 0.364468 0.669439 0.800384
Si Si4 0.834090 0.668376 0.116444
Si Si5 0.790048 0.829613 0.634756
Si Si6 0.261396 0.830746 0.950718
Si Si7 0.540096 0.168602 0.132362
Si Si8 0.488925 0.329891 0.553070
O O1 0.502910 0.794343 0.332781
O O2 0.623787 0.755826 0.247986
O O3 0.694664 0.760523 0.320861
O O4 0.633687 0.000000 0.291171
O O5 0.090996 0.500000 0.606715
O O6 0.187636 0.274742 0.627029
O O7 0.069835 0.248161 0.573489
O O8 0.388124 0.500000 0.788939
O O9 0.252621 0.694769 0.834193
O O10 0.443375 0.732380 0.825411
O O11 0.838124 0.500000 0.100277
O O12 0.817527 0.765563 0.073876
O O13 0.937031 0.718627 0.124447
O O14 0.877498 0.795748 0.586108
O O15 0.785711 0.000000 0.648346
O O16 0.373343 0.804998 0.917055
O O17 0.236779 0.000000 0.961012
O O18 0.250000 0.750000 0.000000
O O19 0.536431 0.000000 0.148576
O O20 0.500000 0.268376 0.500000
O O21 0.513753 0.500000 0.551113
#
# Coordination Sequence:
#
# PCOD8096832 Si02
#       8
#     8   8   8   8   8   8   8   8
#     4  10  20  34  51  72  99 129 164 203 242 289
#     4   9  19  34  51  71  96 130 167 201 239 287
#     4  10  20  34  53  76 101 129 162 203 249 293
#     4   9  19  36  55  74  99 131 167 204 243 291
#     4   9  18  34  52  70  97 130 164 201 242 290
#     4  10  20  34  53  76 103 133 166 204 245 289
#     4   9  19  36  55  74  99 133 168 202 242 290
#     4   9  18  32  50  73 100 128 159 200 248 292
#
# _framework density 17.895050999999999
#
# number of rings (size 3 to 8) (size 9 to 14) (size 15 to 20)
#    0.000    2.625    0.000    1.125    0.000    4.750 
#    0.000    7.500    0.000    0.000    0.000    0.000 
#    0.000    0.000    0.000    0.000    0.000    0.000 
#
# Total GULP energy -396917.035902 kJ/mol
# GULP energy per Si atom -12403.657372 kJ/mol
# Density = 1.785432 g / cm^3
# Si number density = 17.895051 Si / 1000 Ang^3
#
#
#
# Elastic Constant Matrix: (Units=GPa)
#
#
# Indices 1 2 3 4 5 6 
#
# 1 150.2869 59.7780 67.9496 0.0000 30.2690 0.0000
# 2 59.7780 92.1178 78.1406 0.0000 18.6108 0.0000
# 3 67.9496 78.1406 149.4496 0.0000 26.7859 0.0000
# 4 0.0000 0.0000 0.0000 36.5986 0.0000 7.2913
# 5 30.2690 18.6108 26.7859 0.0000 19.5221 0.0000
# 6 0.0000 0.0000 0.0000 7.2913 0.0000 29.3642
#
#
#
# Elastic Compliance Matrix: (Units=1/GPa)
#
#
# Indices 1 2 3 4 5 6 
#
# 1 0.011083 -0.004136 -0.000668 0.000000 -0.012326 0.000000
# 2 -0.004136 0.021615 -0.009120 0.000000 -0.001680 0.000000
# 3 -0.000668 -0.009120 0.013287 0.000000 -0.008501 0.000000
# 4 0.000000 0.000000 0.000000 0.028745 0.000000 -0.007138
# 5 -0.012326 -0.001680 -0.008501 0.000000 0.083602 0.000000
# 6 0.000000 0.000000 0.000000 -0.007138 0.000000 0.035827
#
#
# Mechanical properties :
#
#
# Convention : Reuss Voigt Hill
#
# Bulk Modulus (GPa) = 55.13114 89.28784 72.20949
# Shear Modulus (GPa) = 21.92470 29.49604 25.71037
#
# Velocity S-wave (km/s) = 3.50406 4.06431 3.79454
# Velocity P-wave (km/s) = 6.87358 8.48695 7.72252
#
# Compressibility (1/GPa) = 0.01813857
#
# Stress axis : x y z
#
# Youngs Moduli (GPa) = 90.22500 46.26363 75.26179
#
# Poissons Ratio (x) = 0.19133 0.05025
# Poissons Ratio (y) = 0.37315 0.68640
# Poissons Ratio (z) = 0.06024 0.42193
#
# Static dielectric constant tensor:
#      x y z
#    x 3.433760 0.000000 0.058410 
#    y 0.000000 3.351750 0.000000 
#    z 0.058410 0.000000 3.300990 
# 
# 
# High freq. dielectric constant tensor:
#      x y z
#    x 1.693900 0.000000 0.006210 
#    y 0.000000 1.695710 0.000000 
#    z 0.006210 0.000000 1.694290 
# 
# From -- ./inp_files/359849.got.cif
#   From: 2010.06.25/outbox.cif.g09.slc.cpg/sg12_180_cif.got.tgz:359849.got - 2010.06.28 00:19:55.
