data_PCOD8096062
_publ_section_title
;
Structure prediction by ZEFSAII (Michael W. Deem and Ramdas Pophale) SiO2 
 PCOD8096062
Probable space group: C 2/M
;
_chemical_formula_sum "Si O2"
_cell_formula_units_Z 48
_cell_length_a 20.580390
_cell_length_b 8.741346
_cell_length_c 32.005528
_cell_angle_alpha 90.000000
_cell_angle_beta 27.332903
_cell_angle_gamma 90.000000
_cell_volume 2643.752210
_symmetry_space_group_name_H-M "C 2/M"
_symmetry_group_IT_number 12
_symmetry_cell_setting 'monoclinic'
loop_
_space_group_symop_operation_xyz
x,y,z
-x,y,-z
-x,-y,-z
x,-y,z
1/2+x,1/2+y,z
1/2-x,1/2+y,-z
1/2-x,1/2-y,-z
1/2+x,1/2-y,z
loop_
_atom_site_type_symbol
_atom_site_label
_atom_site_fract_x
_atom_site_fract_y
_atom_site_fract_z
Si Si1 0.038426 0.820433 0.931119
Si Si2 0.809287 0.823350 0.739709
Si Si3 0.877442 0.181350 0.452684
Si Si4 0.392450 0.817629 0.936711
Si Si5 0.136717 0.816999 0.445726
Si Si6 0.664858 0.823398 0.736728
O O1 0.201524 0.774932 0.829191
O O2 0.927899 0.736920 0.963378
O O3 0.020629 0.000000 0.934818
O O4 0.000000 0.770515 0.000000
O O5 0.780189 0.799494 0.707250
O O6 0.971813 0.770025 0.653866
O O7 0.787223 0.000000 0.764746
O O8 0.750000 0.250000 0.500000
O O9 0.861257 0.247934 0.508675
O O10 0.866626 0.000000 0.459605
O O11 0.515442 0.750880 0.835972
O O12 0.385851 0.000000 0.940932
O O13 0.250000 0.750000 0.000000
O O14 0.273734 0.754383 0.341594
O O15 0.000000 0.753189 0.500000
O O16 0.134415 0.000000 0.446981
O O17 0.635649 0.000000 0.746089
#
# Coordination Sequence:
#
# PCOD8096062 Si02
#       6
#     8   8   8   8   8   8
#     4  10  21  37  57  80 104 135 181 229 269 321
#     4   9  17  32  54  77 102 136 175 216 263 316
#     4  10  20  33  51  76 108 140 171 211 260 312
#     4  10  20  35  56  80 111 143 173 217 269 319
#     4   9  14  26  52  78  97 125 172 216 245 290
#     4   8  14  27  50  78  99 125 171 217 251 294
#
# _framework density 18.156013999999999
#
# number of rings (size 3 to 8) (size 9 to 14) (size 15 to 20)
#    0.000    2.667    1.667    2.000    0.000    2.000 
#    3.000    0.000    0.000    4.500    0.000    0.000 
#    0.000    0.000    0.000    0.000    0.000    0.000 
#
# Total GULP energy -297447.491995 kJ/mol
# GULP energy per Si atom -12393.645500 kJ/mol
# Density = 1.811469 g / cm^3
# Si number density = 18.156014 Si / 1000 Ang^3
#
#
#
# Elastic Constant Matrix: (Units=GPa)
#
#
# Indices 1 2 3 4 5 6 
#
# 1 129.8116 31.9843 87.9428 -0.0089 -3.8385 -0.0852
# 2 31.9843 41.2581 33.6991 -0.0060 0.0990 0.0213
# 3 87.9428 33.6991 139.7326 0.0023 -3.6406 0.0079
# 4 -0.0089 -0.0060 0.0023 22.4165 -0.0056 -6.3236
# 5 -3.8385 0.0990 -3.6406 -0.0056 39.7543 0.0087
# 6 -0.0852 0.0213 0.0079 -6.3236 0.0087 25.9174
#
#
#
# Elastic Compliance Matrix: (Units=1/GPa)
#
#
# Indices 1 2 3 4 5 6 
#
# 1 0.014110 -0.004609 -0.007752 0.000022 0.000664 0.000058
# 2 -0.004609 0.031711 -0.004772 -0.000005 -0.000961 -0.000041
# 3 -0.007752 -0.004772 0.013198 -0.000014 0.000472 -0.000029
# 4 0.000022 -0.000005 -0.000014 0.047907 0.000005 0.011689
# 5 0.000664 -0.000961 0.000472 0.000005 0.025264 -0.000004
# 6 0.000058 -0.000041 -0.000029 0.011689 -0.000004 0.041436
#
#
# Mechanical properties :
#
#
# Convention : Reuss Voigt Hill
#
# Bulk Modulus (GPa) = 40.39724 68.67275 54.53500
# Shear Modulus (GPa) = 23.13279 28.09605 25.61442
#
# Velocity S-wave (km/s) = 3.57334 3.93807 3.76013
# Velocity P-wave (km/s) = 6.27084 7.65400 6.99668
#
# Compressibility (1/GPa) = 0.02475417
#
# Stress axis : x y z
#
# Youngs Moduli (GPa) = 70.87090 31.53522 75.76717
#
# Poissons Ratio (x) = 0.14534 0.58732
# Poissons Ratio (y) = 0.32662 0.36157
# Poissons Ratio (z) = 0.54937 0.15049
#
# Static dielectric constant tensor:
#      x y z
#    x 3.161930 -0.000860 -0.027860 
#    y -0.000860 3.002480 -0.000680 
#    z -0.027860 -0.000680 3.735690 
# 
# 
# High freq. dielectric constant tensor:
#      x y z
#    x 1.689630 -0.000010 0.004180 
#    y -0.000010 1.669010 0.000000 
#    z 0.004180 0.000000 1.719980 
# 
# From -- ./inp_files/280074.got.cif
#   From: 2010.06.25/outbox.cif.g09.slc.cpg/sg12_141_cif.got.tgz:280074.got - 2010.06.28 00:19:55.
