data_PCOD8096860
_publ_section_title
;
Structure prediction by ZEFSAII (Michael W. Deem and Ramdas Pophale) SiO2 
 PCOD8096860
Probable space group: C 2/M
;
_chemical_formula_sum "Si O2"
_cell_formula_units_Z 56
_cell_length_a 15.829786
_cell_length_b 27.044427
_cell_length_c 9.465512
_cell_angle_alpha 90.000000
_cell_angle_beta 131.245435
_cell_angle_gamma 90.000000
_cell_volume 3046.860691
_symmetry_space_group_name_H-M "C 2/M"
_symmetry_group_IT_number 12
_symmetry_cell_setting 'monoclinic'
loop_
_space_group_symop_operation_xyz
x,y,z
-x,y,-z
-x,-y,-z
x,-y,z
1/2+x,1/2+y,z
1/2-x,1/2+y,-z
1/2-x,1/2-y,-z
1/2+x,1/2-y,z
loop_
_atom_site_type_symbol
_atom_site_label
_atom_site_fract_x
_atom_site_fract_y
_atom_site_fract_z
Si Si1 0.236265 0.737522 0.246077
Si Si2 0.185153 0.555000 0.152928
Si Si3 0.562536 0.685333 0.931544
Si Si4 0.535283 0.854017 0.690053
Si Si5 0.230118 0.856317 0.916623
Si Si6 0.548639 0.054685 0.266292
Si Si7 0.090870 0.266890 0.351153
O O1 0.264417 0.693160 0.170747
O O2 0.174898 0.717643 0.318287
O O3 0.349687 0.763489 0.429544
O O4 0.162979 0.777938 0.084351
O O5 0.236618 0.500000 0.186739
O O6 0.271802 0.595866 0.188594
O O7 0.158194 0.563983 0.288826
O O8 0.065482 0.559380 0.946950
O O9 0.616982 0.644121 0.888107
O O10 0.467767 0.714612 0.741554
O O11 0.500000 0.661609 0.000000
O O12 0.500000 0.833939 0.500000
O O13 0.458755 0.903297 0.623511
O O14 0.499828 0.810656 0.757895
O O15 0.666888 0.862309 0.860287
O O16 0.557713 0.000000 0.345327
#
# Coordination Sequence:
#
# PCOD8096860 Si02
#       7
#     8   8   8   8   8   8   8
#     4  10  20  34  51  73  98 134 174 204 249 305
#     4   8  15  29  51  75  96 122 165 212 252 303
#     4  10  21  35  48  69 101 136 171 211 251 295
#     4  11  21  29  46  72 103 139 170 206 243 299
#     4  11  20  32  53  72  97 135 172 206 253 309
#     4   8  15  29  47  71 102 131 160 202 254 304
#     4  10  21  33  48  72 105 132 166 214 249 293
#
# _framework density 18.379574000000002
#
# number of rings (size 3 to 8) (size 9 to 14) (size 15 to 20)
#    0.000    2.286    1.429    3.000    2.000    1.429 
#    0.000    0.000    0.000    0.429    0.000    2.000 
#    0.000    3.429    0.000    0.000    0.000    1.143 
#
# Total GULP energy -347002.887384 kJ/mol
# GULP energy per Si atom -12392.960264 kJ/mol
# Density = 1.833774 g / cm^3
# Si number density = 18.379574 Si / 1000 Ang^3
#
#
#
# Elastic Constant Matrix: (Units=GPa)
#
#
# Indices 1 2 3 4 5 6 
#
# 1 115.6069 57.9278 9.4978 0.0000 -10.3378 0.0000
# 2 57.9278 76.4453 -5.1254 0.0000 -9.8731 0.0000
# 3 9.4978 -5.1254 49.2379 0.0000 -0.0723 0.0000
# 4 0.0000 0.0000 0.0000 12.0050 0.0000 -3.3132
# 5 -10.3378 -9.8731 -0.0723 0.0000 19.1734 0.0000
# 6 0.0000 0.0000 0.0000 -3.3132 0.0000 31.0973
#
#
#
# Elastic Compliance Matrix: (Units=1/GPa)
#
#
# Indices 1 2 3 4 5 6 
#
# 1 0.014781 -0.011186 -0.004012 0.000000 0.002194 0.000000
# 2 -0.011186 0.022586 0.004517 0.000000 0.005616 0.000000
# 3 -0.004012 0.004517 0.021554 0.000000 0.000244 0.000000
# 4 0.000000 0.000000 0.000000 0.085822 0.000000 0.009144
# 5 0.002194 0.005616 0.000244 0.000000 0.056232 0.000000
# 6 0.000000 0.000000 0.000000 0.009144 0.000000 0.033131
#
#
# Mechanical properties :
#
#
# Convention : Reuss Voigt Hill
#
# Bulk Modulus (GPa) = 26.62544 40.65450 33.63997
# Shear Modulus (GPa) = 18.65751 24.38778 21.52265
#
# Velocity S-wave (km/s) = 3.18955 3.64661 3.42571
# Velocity P-wave (km/s) = 5.29927 6.31647 5.83009
#
# Compressibility (1/GPa) = 0.03755806
#
# Stress axis : x y z
#
# Youngs Moduli (GPa) = 67.65456 44.27534 46.39488
#
# Poissons Ratio (x) = 0.49527 0.18615
# Poissons Ratio (y) = 0.75680 -0.20957
# Poissons Ratio (z) = 0.27146 -0.19999
#
# Static dielectric constant tensor:
#      x y z
#    x 3.527780 0.000000 -0.174620 
#    y 0.000000 3.400500 0.000000 
#    z -0.174620 0.000000 3.194380 
# 
# 
# High freq. dielectric constant tensor:
#      x y z
#    x 1.707900 0.000000 -0.018250 
#    y 0.000000 1.692680 0.000000 
#    z -0.018250 0.000000 1.688630 
# 
# From -- ./inp_files/66839.got.cif
#   From: 2010.06.25/outbox.cif.g09.slc.cpg/sg12_34_cif.got.tgz:66839.got - 2010.06.28 00:19:55.
