data_PCOD8096603
_publ_section_title
;
Structure prediction by ZEFSAII (Michael W. Deem and Ramdas Pophale) SiO2 
 PCOD8096603
Probable space group: C 2/M
;
_chemical_formula_sum "Si O2"
_cell_formula_units_Z 64
_cell_length_a 18.834059
_cell_length_b 14.404952
_cell_length_c 20.335429
_cell_angle_alpha 90.000000
_cell_angle_beta 35.940336
_cell_angle_gamma 90.000000
_cell_volume 3238.207108
_symmetry_space_group_name_H-M "C 2/M"
_symmetry_group_IT_number 12
_symmetry_cell_setting 'monoclinic'
loop_
_space_group_symop_operation_xyz
x,y,z
-x,y,-z
-x,-y,-z
x,-y,z
1/2+x,1/2+y,z
1/2-x,1/2+y,-z
1/2-x,1/2-y,-z
1/2+x,1/2-y,z
loop_
_atom_site_type_symbol
_atom_site_label
_atom_site_fract_x
_atom_site_fract_y
_atom_site_fract_z
Si Si1 0.863661 0.895227 0.269264
Si Si2 0.210161 0.608582 0.117183
Si Si3 0.046378 0.395569 0.112140
Si Si4 0.458256 0.710893 0.955743
Si Si5 0.093727 0.896563 0.609705
Si Si6 0.347947 0.896437 0.359735
Si Si7 0.008585 0.286519 0.334008
Si Si8 0.401378 0.901411 0.521777
O O1 0.865343 0.877839 0.346289
O O2 0.726485 0.876594 0.349101
O O3 0.940004 0.821528 0.171361
O O4 0.907204 0.000000 0.219851
O O5 0.211920 0.500000 0.134081
O O6 0.144930 0.624558 0.095965
O O7 0.137889 0.665797 0.227026
O O8 0.344251 0.648720 0.020365
O O9 0.068665 0.500000 0.067642
O O10 0.067170 0.320121 0.038910
O O11 0.906759 0.388057 0.242708
O O12 0.500000 0.696061 0.000000
O O13 0.204104 0.880925 0.474995
O O14 0.985266 0.825648 0.673173
O O15 0.040875 0.000000 0.641521
O O16 0.412893 0.817618 0.351749
O O17 0.380297 0.000000 0.361959
O O18 0.950660 0.314390 0.445749
O O19 0.500000 0.925371 0.500000
O O20 0.382963 0.000000 0.495119
#
# Coordination Sequence:
#
# PCOD8096603 Si02
#       8
#     8   8   8   8   8   8   8   8
#     4  10  21  37  56  83 118 150 185 233 292 351
#     4  10  22  40  62  87 115 152 198 246 296 354
#     4   9  20  39  64  87 113 153 203 251 290 341
#     4  12  26  40  58  85 121 161 203 242 294 349
#     4  10  20  33  55  90 122 146 181 234 296 350
#     4   9  16  30  55  89 118 142 179 236 300 354
#     4  11  19  32  58  83 114 151 189 233 284 348
#     4  10  21  34  53  82 114 149 186 232 284 349
#
# _framework density 19.764022000000001
#
# number of rings (size 3 to 8) (size 9 to 14) (size 15 to 20)
#    0.000    1.875    1.250    4.500    3.500    1.250 
#    0.000    1.875    0.000    0.375    0.000    0.000 
#    0.000    0.000    0.000    0.000    0.000    0.000 
#
# Total GULP energy -396460.390782 kJ/mol
# GULP energy per Si atom -12389.387212 kJ/mol
# Density = 1.971904 g / cm^3
# Si number density = 19.764022 Si / 1000 Ang^3
#
#
#
# Elastic Constant Matrix: (Units=GPa)
#
#
# Indices 1 2 3 4 5 6 
#
# 1 48.9380 47.0833 36.0257 0.0000 -11.4185 0.0000
# 2 47.0833 131.5657 52.0775 0.0000 -6.3472 0.0000
# 3 36.0257 52.0775 84.2415 0.0000 -19.5971 0.0000
# 4 0.0000 0.0000 0.0000 32.1681 0.0000 0.0091
# 5 -11.4185 -6.3472 -19.5971 0.0000 18.8599 0.0000
# 6 0.0000 0.0000 0.0000 0.0091 0.0000 17.8937
#
#
#
# Elastic Compliance Matrix: (Units=1/GPa)
#
#
# Indices 1 2 3 4 5 6 
#
# 1 0.038609 -0.010359 -0.007228 0.000000 0.012379 0.000000
# 2 -0.010359 0.013084 -0.005398 0.000000 -0.007477 0.000000
# 3 -0.007228 -0.005398 0.022232 0.000000 0.016908 0.000000
# 4 0.000000 0.000000 0.000000 0.031087 0.000000 -0.000016
# 5 0.012379 -0.007477 0.016908 0.000000 0.075570 0.000000
# 6 0.000000 0.000000 0.000000 -0.000016 0.000000 0.055886
#
#
# Mechanical properties :
#
#
# Convention : Reuss Voigt Hill
#
# Bulk Modulus (GPa) = 35.77011 59.45759 47.61385
# Shear Modulus (GPa) = 17.13767 22.42158 19.77962
#
# Velocity S-wave (km/s) = 2.94788 3.37183 3.16696
# Velocity P-wave (km/s) = 5.45202 6.73113 6.12506
#
# Compressibility (1/GPa) = 0.02795630
#
# Stress axis : x y z
#
# Youngs Moduli (GPa) = 25.90040 76.43046 44.98088
#
# Poissons Ratio (x) = 0.79175 0.32510
# Poissons Ratio (y) = 0.26830 0.24279
# Poissons Ratio (z) = 0.18720 0.41255
#
# Static dielectric constant tensor:
#      x y z
#    x 3.043070 0.000000 -0.260030 
#    y 0.000000 5.367480 0.000000 
#    z -0.260030 0.000000 3.509350 
# 
# 
# High freq. dielectric constant tensor:
#      x y z
#    x 1.720030 0.000000 -0.011740 
#    y 0.000000 1.787790 0.000000 
#    z -0.011740 0.000000 1.766660 
# 
# From -- ./inp_files/278159.got.cif
#   From: 2010.06.25/outbox.cif.g09.slc.cpg/sg12_140_cif.got.tgz:278159.got - 2010.06.28 00:19:55.
