data_PCOD8096470
_publ_section_title
;
Structure prediction by ZEFSAII (Michael W. Deem and Ramdas Pophale) SiO2 
 PCOD8096470
Probable space group: C 2/M
;
_chemical_formula_sum "Si O2"
_cell_formula_units_Z 64
_cell_length_a 19.970247
_cell_length_b 14.021624
_cell_length_c 14.542856
_cell_angle_alpha 90.000000
_cell_angle_beta 53.765800
_cell_angle_gamma 90.000000
_cell_volume 3284.685441
_symmetry_space_group_name_H-M "C 2/M"
_symmetry_group_IT_number 12
_symmetry_cell_setting 'monoclinic'
loop_
_space_group_symop_operation_xyz
x,y,z
-x,y,-z
-x,-y,-z
x,-y,z
1/2+x,1/2+y,z
1/2-x,1/2+y,-z
1/2-x,1/2-y,-z
1/2+x,1/2-y,z
loop_
_atom_site_type_symbol
_atom_site_label
_atom_site_fract_x
_atom_site_fract_y
_atom_site_fract_z
Si Si1 0.557929 0.249911 0.188159
Si Si2 0.211021 0.392803 0.806802
Si Si3 0.172485 0.390076 0.181174
Si Si4 0.297971 0.387840 0.920815
Si Si5 0.194734 0.890222 0.784534
Si Si6 0.246940 0.109495 0.428928
Si Si7 0.137760 0.219039 0.648853
Si Si8 0.911455 0.750987 0.037142
O O1 0.588723 0.173392 0.239712
O O2 0.608967 0.347909 0.151780
O O3 0.461169 0.274412 0.273452
O O4 0.580673 0.206123 0.070348
O O5 0.180829 0.500000 0.849153
O O6 0.262027 0.352761 0.851905
O O7 0.266375 0.385776 0.670126
O O8 0.128970 0.328209 0.862723
O O9 0.149698 0.500000 0.180120
O O10 0.210840 0.379832 0.253210
O O11 0.237755 0.351060 0.051340
O O12 0.306570 0.500000 0.919340
O O13 0.177271 0.827736 0.708492
O O14 0.139175 0.850385 0.913996
O O15 0.172727 0.000000 0.782583
O O16 0.164153 0.150967 0.542996
O O17 0.325583 0.174557 0.394744
O O18 0.263515 0.000000 0.446919
O O19 0.000000 0.780485 0.000000
#
# Coordination Sequence:
#
# PCOD8096470 Si02
#       8
#     8   8   8   8   8   8   8   8
#     4  12  22  35  59  89 127 158 192 256 303 354
#     4  10  20  37  60  82 112 157 201 245 296 358
#     4  10  21  36  58  88 124 165 200 236 297 372
#     4  10  20  33  53  84 119 158 196 234 294 363
#     4  11  22  37  57  85 120 161 200 238 292 362
#     4  10  22  43  66  84 113 157 208 254 297 353
#     4  11  24  41  62  91 116 155 205 253 308 354
#     4  12  21  34  52  88 125 154 194 245 306 364
#
# _framework density 19.484362000000001
#
# number of rings (size 3 to 8) (size 9 to 14) (size 15 to 20)
#    0.000    1.250    5.000    1.500    0.000    2.000 
#    0.000    0.625    0.000    2.250    0.000    4.375 
#    0.000    0.000    0.000    0.000    0.000    0.000 
#
# Total GULP energy -396650.990624 kJ/mol
# GULP energy per Si atom -12395.343457 kJ/mol
# Density = 1.944001 g / cm^3
# Si number density = 19.484362 Si / 1000 Ang^3
#
#
#
# Elastic Constant Matrix: (Units=GPa)
#
#
# Indices 1 2 3 4 5 6 
#
# 1 84.1071 42.7593 33.2281 0.0000 -1.6140 0.0000
# 2 42.7593 108.2492 39.3091 0.0000 -6.8403 0.0000
# 3 33.2281 39.3091 89.6839 0.0000 -6.5519 0.0000
# 4 0.0000 0.0000 0.0000 21.3548 0.0000 8.2542
# 5 -1.6140 -6.8403 -6.5519 0.0000 21.9540 0.0000
# 6 0.0000 0.0000 0.0000 8.2542 0.0000 23.4973
#
#
#
# Elastic Compliance Matrix: (Units=1/GPa)
#
#
# Indices 1 2 3 4 5 6 
#
# 1 0.015907 -0.004994 -0.003816 0.000000 -0.001525 0.000000
# 2 -0.004994 0.012644 -0.003507 0.000000 0.002526 0.000000
# 3 -0.003816 -0.003507 0.014313 0.000000 0.002898 0.000000
# 4 0.000000 0.000000 0.000000 0.054185 0.000000 -0.019034
# 5 -0.001525 0.002526 0.002898 0.000000 0.047089 0.000000
# 6 0.000000 0.000000 0.000000 -0.019034 0.000000 0.049245
#
#
# Mechanical properties :
#
#
# Convention : Reuss Voigt Hill
#
# Bulk Modulus (GPa) = 54.85636 56.95927 55.90781
# Shear Modulus (GPa) = 22.31213 24.47747 23.39480
#
# Velocity S-wave (km/s) = 3.38765 3.54822 3.46887
# Velocity P-wave (km/s) = 6.59672 6.78847 6.69328
#
# Compressibility (1/GPa) = 0.01822943
#
# Stress axis : x y z
#
# Youngs Moduli (GPa) = 62.86605 79.09057 69.86633
#
# Poissons Ratio (x) = 0.39498 0.26661
# Poissons Ratio (y) = 0.31395 0.24502
# Poissons Ratio (z) = 0.23990 0.27737
#
# Static dielectric constant tensor:
#      x y z
#    x 3.548210 0.000000 0.210040 
#    y 0.000000 3.655900 0.000000 
#    z 0.210040 0.000000 3.529700 
# 
# 
# High freq. dielectric constant tensor:
#      x y z
#    x 1.750850 0.000000 0.016930 
#    y 0.000000 1.773770 0.000000 
#    z 0.016930 0.000000 1.736920 
# 
# From -- ./inp_files/225270.got.cif
#   From: 2010.06.25/outbox.cif.g09.slc.cpg/sg12_113_cif.got.tgz:225270.got - 2010.06.28 00:19:55.
