data_PCOD8096557
_publ_section_title
;
Structure prediction by ZEFSAII (Michael W. Deem and Ramdas Pophale) SiO2 
 PCOD8096557
Probable space group: C 2/M
;
_chemical_formula_sum "Si O2"
_cell_formula_units_Z 56
_cell_length_a 20.424225
_cell_length_b 19.073997
_cell_length_c 23.584199
_cell_angle_alpha 90.000000
_cell_angle_beta 159.643862
_cell_angle_gamma 90.000000
_cell_volume 3195.993999
_symmetry_space_group_name_H-M "C 2/M"
_symmetry_group_IT_number 12
_symmetry_cell_setting 'monoclinic'
loop_
_space_group_symop_operation_xyz
x,y,z
-x,y,-z
-x,-y,-z
x,-y,z
1/2+x,1/2+y,z
1/2-x,1/2+y,-z
1/2-x,1/2-y,-z
1/2+x,1/2-y,z
loop_
_atom_site_type_symbol
_atom_site_label
_atom_site_fract_x
_atom_site_fract_y
_atom_site_fract_z
Si Si1 0.399588 0.420400 0.734021
Si Si2 0.330247 0.920988 0.114079
Si Si3 0.207396 0.350553 0.681077
Si Si4 0.750927 0.209026 0.559600
Si Si5 0.568739 0.206085 0.874112
Si Si6 0.476946 0.756971 0.043325
Si Si7 0.648172 0.150947 0.754691
O O1 0.364524 0.500000 0.685675
O O2 0.273459 0.405261 0.687150
O O3 0.343924 0.369459 0.636097
O O4 0.612123 0.407388 0.925271
O O5 0.447523 0.868429 0.169886
O O6 0.383403 0.907488 0.222855
O O7 0.389270 0.000000 0.146789
O O8 0.330810 0.280859 0.783915
O O9 0.206118 0.386752 0.742723
O O10 0.000000 0.323477 0.500000
O O11 0.750000 0.250000 0.500000
O O12 0.535739 0.199769 0.404326
O O13 0.874873 0.252629 0.704823
O O14 0.577405 0.191024 0.949070
O O15 0.750000 0.250000 0.000000
O O16 0.500000 0.794418 0.000000
O O17 0.315279 0.699544 0.911230
#
# Coordination Sequence:
#
# PCOD8096557 Si02
#       7
#     8   8   8   8   8   8   8
#     4  11  23  38  52  75 112 151 185 221 270 324
#     4  11  23  37  55  79 109 145 183 227 275 325
#     4  11  19  34  51  75 110 148 184 215 262 323
#     4  12  21  34  55  80 102 146 184 229 271 315
#     4  12  18  37  59  75 108 145 185 229 274 320
#     4  10  20  33  55  81 107 139 181 231 275 316
#     4  11  20  33  53  78 110 140 181 222 264 326
#
# _framework density 17.521934999999999
#
# number of rings (size 3 to 8) (size 9 to 14) (size 15 to 20)
#    0.000    0.857    8.571    0.000    0.000    1.429 
#    0.000    1.429    0.000    0.429    0.000    0.000 
#    0.000    5.714    0.000    0.000    0.000    0.000 
#
# Total GULP energy -346960.822788 kJ/mol
# GULP energy per Si atom -12391.457957 kJ/mol
# Density = 1.748205 g / cm^3
# Si number density = 17.521935 Si / 1000 Ang^3
#
#
#
# Elastic Constant Matrix: (Units=GPa)
#
#
# Indices 1 2 3 4 5 6 
#
# 1 116.7030 51.8353 13.8345 0.0169 -24.3365 0.0249
# 2 51.8353 91.5520 28.2894 0.0083 -9.3245 0.0014
# 3 13.8345 28.2894 90.1143 0.0881 2.2860 -0.0089
# 4 0.0169 0.0083 0.0881 22.0529 -0.0340 -5.9071
# 5 -24.3365 -9.3245 2.2860 -0.0340 29.1096 -0.0015
# 6 0.0249 0.0014 -0.0089 -5.9071 -0.0015 20.3141
#
#
#
# Elastic Compliance Matrix: (Units=1/GPa)
#
#
# Indices 1 2 3 4 5 6 
#
# 1 0.013434 -0.006608 -0.000220 0.000003 0.009132 -0.000014
# 2 -0.006608 0.015877 -0.003966 0.000017 -0.000127 0.000010
# 3 -0.000220 -0.003966 0.012438 -0.000054 -0.002431 -0.000010
# 4 0.000003 0.000017 -0.000054 0.049176 0.000071 0.014300
# 5 0.009132 -0.000127 -0.002431 0.000071 0.042138 0.000011
# 6 -0.000014 0.000010 -0.000010 0.014300 0.000011 0.053385
#
#
# Mechanical properties :
#
#
# Convention : Reuss Voigt Hill
#
# Bulk Modulus (GPa) = 49.60302 54.03198 51.81750
# Shear Modulus (GPa) = 23.28217 27.92267 25.60242
#
# Velocity S-wave (km/s) = 3.64915 3.99630 3.82666
# Velocity P-wave (km/s) = 6.79158 7.22479 7.01153
#
# Compressibility (1/GPa) = 0.02016006
#
# Stress axis : x y z
#
# Youngs Moduli (GPa) = 74.43639 62.98439 80.40121
#
# Poissons Ratio (x) = 0.41622 0.01765
# Poissons Ratio (y) = 0.49190 0.31891
# Poissons Ratio (z) = 0.01634 0.24983
#
# Static dielectric constant tensor:
#      x y z
#    x 3.583980 -0.000010 -0.112310 
#    y -0.000010 3.012700 -0.000700 
#    z -0.112310 -0.000700 3.586860 
# 
# 
# High freq. dielectric constant tensor:
#      x y z
#    x 1.677950 -0.000020 -0.009750 
#    y -0.000020 1.629310 -0.000040 
#    z -0.009750 -0.000040 1.701360 
# 
# From -- ./inp_files/87239.got.cif
#   From: 2010.06.25/outbox.cif.g09.slc.cpg/sg12_44_cif.got.tgz:87239.got - 2010.06.28 00:19:55.
