data_PCOD8096090
_publ_section_title
;
Structure prediction by ZEFSAII (Michael W. Deem and Ramdas Pophale) SiO2 
 PCOD8096090
Probable space group: C 2/M
;
_chemical_formula_sum "Si O2"
_cell_formula_units_Z 56
_cell_length_a 9.045794
_cell_length_b 18.217303
_cell_length_c 28.991711
_cell_angle_alpha 90.000000
_cell_angle_beta 141.268208
_cell_angle_gamma 90.000000
_cell_volume 2989.192209
_symmetry_space_group_name_H-M "C 2/M"
_symmetry_group_IT_number 12
_symmetry_cell_setting 'monoclinic'
loop_
_space_group_symop_operation_xyz
x,y,z
-x,y,-z
-x,-y,-z
x,-y,z
1/2+x,1/2+y,z
1/2-x,1/2+y,-z
1/2-x,1/2-y,-z
1/2+x,1/2-y,z
loop_
_atom_site_type_symbol
_atom_site_label
_atom_site_fract_x
_atom_site_fract_y
_atom_site_fract_z
Si Si1 0.188709 0.914965 0.144226
Si Si2 0.252053 0.671739 0.432143
Si Si3 0.343691 0.171884 0.268787
Si Si4 0.090894 0.672131 0.567818
Si Si5 0.825710 0.828007 0.999965
Si Si6 0.467454 0.914944 0.855666
Si Si7 0.500238 0.672063 0.268831
O O1 0.270215 0.887976 0.213791
O O2 0.400051 0.900508 0.160058
O O3 0.122471 0.000000 0.130927
O O4 0.953412 0.872342 0.071769
O O5 0.500000 0.626593 0.500000
O O6 0.323331 0.749678 0.429049
O O7 0.072037 0.637285 0.350921
O O8 0.127580 0.680521 0.450942
O O9 0.394625 0.249878 0.257817
O O10 0.131020 0.185064 0.252424
O O11 0.317350 0.637623 0.648984
O O12 0.000000 0.627127 0.500000
O O13 0.594421 0.872350 0.928136
O O14 0.750000 0.750000 0.000000
O O15 0.000000 0.816887 0.000000
O O16 0.201288 0.887824 0.786067
O O17 0.467228 0.000000 0.868824
#
# Coordination Sequence:
#
# PCOD8096090 Si02
#       7
#     8   8   8   8   8   8   8
#     4  10  21  37  56  77 104 139 175 212 257 308
#     4   9  16  26  43  69 100 132 167 210 258 304
#     4  10  20  33  51  77 107 138 174 217 261 307
#     4   9  16  26  43  69 100 132 167 210 258 304
#     4  10  21  37  57  81 107 134 169 212 256 304
#     4  10  21  37  56  77 104 139 175 212 257 308
#     4  10  20  33  51  77 107 138 174 217 261 307
#
# _framework density 18.734158999999998
#
# number of rings (size 3 to 8) (size 9 to 14) (size 15 to 20)
#    0.000    2.286    0.000    3.857    0.000    9.143 
#    0.000    0.000    0.000    3.429    0.000    0.000 
#    0.000    0.000    0.000    0.000    0.000    0.000 
#
# Total GULP energy -347057.495971 kJ/mol
# GULP energy per Si atom -12394.910570 kJ/mol
# Density = 1.869152 g / cm^3
# Si number density = 18.734159 Si / 1000 Ang^3
#
#
#
# Elastic Constant Matrix: (Units=GPa)
#
#
# Indices 1 2 3 4 5 6 
#
# 1 106.0098 45.1674 79.1612 0.0002 -0.7667 0.0001
# 2 45.1674 89.1002 64.4173 0.0001 -0.2800 0.0001
# 3 79.1612 64.4173 179.0559 -0.0003 -0.7119 0.0001
# 4 0.0002 0.0001 -0.0003 5.9603 0.0002 0.2589
# 5 -0.7667 -0.2800 -0.7119 0.0002 31.6041 0.0002
# 6 0.0001 0.0001 0.0001 0.2589 0.0002 26.0159
#
#
#
# Elastic Compliance Matrix: (Units=1/GPa)
#
#
# Indices 1 2 3 4 5 6 
#
# 1 0.014974 -0.003790 -0.005256 -0.000001 0.000211 0.000000
# 2 -0.003790 0.016128 -0.004127 0.000000 -0.000042 0.000000
# 3 -0.005256 -0.004127 0.009393 0.000001 0.000048 0.000000
# 4 -0.000001 0.000000 0.000001 0.167848 -0.000001 -0.001670
# 5 0.000211 -0.000042 0.000048 -0.000001 0.031647 0.000000
# 6 0.000000 0.000000 0.000000 -0.001670 0.000000 0.038455
#
#
# Mechanical properties :
#
#
# Convention : Reuss Voigt Hill
#
# Bulk Modulus (GPa) = 70.67145 83.51752 77.09448
# Shear Modulus (GPa) = 16.15467 25.07740 20.61603
#
# Velocity S-wave (km/s) = 2.93970 3.66265 3.32090
# Velocity P-wave (km/s) = 7.02336 7.90973 7.47969
#
# Compressibility (1/GPa) = 0.01414999
#
# Stress axis : x y z
#
# Youngs Moduli (GPa) = 66.78159 62.00328 106.46011
#
# Poissons Ratio (x) = 0.23502 0.55952
# Poissons Ratio (y) = 0.25313 0.43933
# Poissons Ratio (z) = 0.35098 0.25587
#
# Static dielectric constant tensor:
#      x y z
#    x 3.559920 0.000000 -0.010260 
#    y 0.000000 3.008760 0.000000 
#    z -0.010260 0.000000 4.451980 
# 
# 
# High freq. dielectric constant tensor:
#      x y z
#    x 1.734300 0.000000 -0.000270 
#    y 0.000000 1.682960 0.000000 
#    z -0.000270 0.000000 1.756610 
# 
# From -- ./inp_files/313736.got.cif
#   From: 2010.06.25/outbox.cif.g09.slc.cpg/sg12_157_cif.got.tgz:313736.got - 2010.06.28 00:19:55.
