data_PCOD8096876
_publ_section_title
;
Structure prediction by ZEFSAII (Michael W. Deem and Ramdas Pophale) SiO2 
 PCOD8096876
Probable space group: C 2/M
;
_chemical_formula_sum "Si O2"
_cell_formula_units_Z 48
_cell_length_a 22.572872
_cell_length_b 8.876851
_cell_length_c 29.077176
_cell_angle_alpha 90.000000
_cell_angle_beta 28.007552
_cell_angle_gamma 90.000000
_cell_volume 2735.992527
_symmetry_space_group_name_H-M "C 2/M"
_symmetry_group_IT_number 12
_symmetry_cell_setting 'monoclinic'
loop_
_space_group_symop_operation_xyz
x,y,z
-x,y,-z
-x,-y,-z
x,-y,z
1/2+x,1/2+y,z
1/2-x,1/2+y,-z
1/2-x,1/2-y,-z
1/2+x,1/2-y,z
loop_
_atom_site_type_symbol
_atom_site_label
_atom_site_fract_x
_atom_site_fract_y
_atom_site_fract_z
Si Si1 0.113445 0.321429 0.089157
Si Si2 0.447929 0.322225 0.281355
Si Si3 0.218678 0.824305 0.473506
Si Si4 0.804821 0.176700 0.145296
Si Si5 0.953574 0.827809 0.685495
Si Si6 0.466649 0.321593 0.949191
O O1 0.125531 0.500000 0.083258
O O2 0.028650 0.263359 0.188586
O O3 0.048935 0.272701 0.086124
O O4 0.250000 0.250000 0.000000
O O5 0.448988 0.500000 0.271513
O O6 0.303090 0.260979 0.377349
O O7 0.504655 0.277676 0.292066
O O8 0.250000 0.750000 0.500000
O O9 0.067588 0.802917 0.570591
O O10 0.254260 0.000000 0.450012
O O11 0.666008 0.236884 0.250416
O O12 0.898910 0.226635 0.121467
O O13 0.799175 0.000000 0.148555
O O14 0.857155 0.229397 0.059778
O O15 0.912375 0.000000 0.715495
O O16 0.460081 0.500000 0.943478
#
# Coordination Sequence:
#
# PCOD8096876 Si02
#       6
#     8   8   8   8   8   8
#     4  12  24  36  52  75 102 135 168 202 246 298
#     4  10  20  34  51  74 103 135 168 208 253 299
#     4   9  17  30  47  71 102 135 168 207 252 298
#     4   9  18  32  53  75  98 130 167 206 249 292
#     4   9  18  30  48  75 104 130 163 204 248 295
#     4   9  19  36  52  72 101 132 167 207 247 293
#
# _framework density 17.543907999999998
#
# number of rings (size 3 to 8) (size 9 to 14) (size 15 to 20)
#    0.000    2.333    0.000    5.500    0.000    8.000 
#    0.000    1.667    0.000    1.000    0.000    7.000 
#    0.000    0.000    0.000    0.000    0.000    0.000 
#
# Total GULP energy -297503.977229 kJ/mol
# GULP energy per Si atom -12395.999051 kJ/mol
# Density = 1.750398 g / cm^3
# Si number density = 17.543908 Si / 1000 Ang^3
#
#
#
# Elastic Constant Matrix: (Units=GPa)
#
#
# Indices 1 2 3 4 5 6 
#
# 1 74.1995 36.9827 50.3498 -0.0024 -3.5023 0.0106
# 2 36.9827 84.0375 46.8287 -0.0028 1.9156 0.0169
# 3 50.3498 46.8287 135.0032 0.0004 -5.2614 0.0090
# 4 -0.0024 -0.0028 0.0004 36.0151 0.0003 -2.8541
# 5 -3.5023 1.9156 -5.2614 0.0003 24.3842 -0.0039
# 6 0.0106 0.0169 0.0090 -2.8541 -0.0039 27.3975
#
#
#
# Elastic Compliance Matrix: (Units=1/GPa)
#
#
# Indices 1 2 3 4 5 6 
#
# 1 0.020195 -0.005936 -0.005387 0.000001 0.002205 -0.000002
# 2 -0.005936 0.016622 -0.003667 0.000000 -0.002950 -0.000007
# 3 -0.005387 -0.003667 0.010760 -0.000001 0.001836 0.000001
# 4 0.000001 0.000000 -0.000001 0.027997 0.000000 0.002917
# 5 0.002205 -0.002950 0.001836 0.000000 0.041955 0.000006
# 6 -0.000002 -0.000007 0.000001 0.002917 0.000006 0.036804
#
#
# Mechanical properties :
#
#
# Convention : Reuss Voigt Hill
#
# Bulk Modulus (GPa) = 56.82527 62.39585 59.61056
# Shear Modulus (GPa) = 26.29113 28.16463 27.22788
#
# Velocity S-wave (km/s) = 3.87536 4.01107 3.94380
# Velocity P-wave (km/s) = 7.24467 7.55608 7.40201
#
# Compressibility (1/GPa) = 0.01759780
#
# Stress axis : x y z
#
# Youngs Moduli (GPa) = 49.51651 60.16041 92.93823
#
# Poissons Ratio (x) = 0.35710 0.50066
# Poissons Ratio (y) = 0.29392 0.34080
# Poissons Ratio (z) = 0.26675 0.22060
#
# Static dielectric constant tensor:
#      x y z
#    x 3.281070 -0.000340 -0.480930 
#    y -0.000340 3.452100 0.000470 
#    z -0.480930 0.000470 4.286930 
# 
# 
# High freq. dielectric constant tensor:
#      x y z
#    x 1.645460 0.000000 -0.011050 
#    y 0.000000 1.684300 0.000000 
#    z -0.011050 0.000000 1.691480 
# 
# From -- ./inp_files/236601.got.cif
#   From: 2010.06.25/outbox.cif.g09.slc.cpg/sg12_119_cif.got.tgz:236601.got - 2010.06.28 00:19:55.
