data_PCOD8096525
_publ_section_title
;
Structure prediction by ZEFSAII (Michael W. Deem and Ramdas Pophale) SiO2 
 PCOD8096525
Probable space group: C 2/M
;
_chemical_formula_sum "Si O2"
_cell_formula_units_Z 56
_cell_length_a 22.529606
_cell_length_b 9.117541
_cell_length_c 16.163569
_cell_angle_alpha 90.000000
_cell_angle_beta 119.023441
_cell_angle_gamma 90.000000
_cell_volume 2903.282558
_symmetry_space_group_name_H-M "C 2/M"
_symmetry_group_IT_number 12
_symmetry_cell_setting 'monoclinic'
loop_
_space_group_symop_operation_xyz
x,y,z
-x,y,-z
-x,-y,-z
x,-y,z
1/2+x,1/2+y,z
1/2-x,1/2+y,-z
1/2-x,1/2-y,-z
1/2+x,1/2-y,z
loop_
_atom_site_type_symbol
_atom_site_label
_atom_site_fract_x
_atom_site_fract_y
_atom_site_fract_z
Si Si1 0.199654 0.327007 0.834925
Si Si2 0.336154 0.328608 0.739473
Si Si3 0.335418 0.830436 0.907118
Si Si4 0.685144 0.172120 0.639358
Si Si5 0.961986 0.828278 0.715863
Si Si6 0.053131 0.328550 0.463681
Si Si7 0.918215 0.331369 0.121959
O O1 0.213872 0.500000 0.848861
O O2 0.269539 0.245005 0.902952
O O3 0.174946 0.277320 0.727122
O O4 0.143085 0.276752 0.861381
O O5 0.336943 0.500000 0.763002
O O6 0.357871 0.242424 0.836347
O O7 0.260290 0.280929 0.659276
O O8 0.387170 0.290828 0.699979
O O9 0.318602 0.000000 0.880357
O O10 0.397621 0.811562 0.012613
O O11 0.626172 0.238769 0.541315
O O12 0.675034 0.000000 0.628290
O O13 0.972174 0.754059 0.634464
O O14 0.016231 0.766937 0.817578
O O15 0.973165 0.000000 0.713831
O O16 0.056855 0.500000 0.444920
O O17 0.000000 0.297386 0.500000
O O18 0.935587 0.500000 0.154234
#
# Coordination Sequence:
#
# PCOD8096525 Si02
#       7
#     8   8   8   8   8   8   8
#     4   9  17  33  56  80 110 145 177 213 264 329
#     4   9  20  39  56  74 106 147 187 222 268 327
#     4  10  20  33  54  84 111 138 179 229 272 316
#     4   8  15  31  56  78 100 138 179 212 254 319
#     4  11  24  38  54  78 108 142 184 234 274 311
#     4  10  20  36  59  84 109 139 175 215 269 336
#     4  10  21  36  54  78 110 147 183 221 272 330
#
# _framework density 19.288512000000001
#
# number of rings (size 3 to 8) (size 9 to 14) (size 15 to 20)
#    0.000    2.429    0.000    3.000    0.000    6.571 
#    0.000    5.714    0.000    0.000    0.000    0.000 
#    0.000    0.000    0.000    0.000    0.000    0.000 
#
# Total GULP energy -347216.572213 kJ/mol
# GULP energy per Si atom -12400.591865 kJ/mol
# Density = 1.924461 g / cm^3
# Si number density = 19.288512 Si / 1000 Ang^3
#
#
#
# Elastic Constant Matrix: (Units=GPa)
#
#
# Indices 1 2 3 4 5 6 
#
# 1 91.1822 47.2027 40.2195 0.0000 6.9215 0.0000
# 2 47.2027 67.0198 40.9127 0.0000 3.8366 0.0000
# 3 40.2195 40.9127 95.7341 0.0000 18.2527 0.0000
# 4 0.0000 0.0000 0.0000 28.6858 0.0000 0.8337
# 5 6.9215 3.8366 18.2527 0.0000 25.6990 0.0000
# 6 0.0000 0.0000 0.0000 0.8337 0.0000 26.0831
#
#
#
# Elastic Compliance Matrix: (Units=1/GPa)
#
#
# Indices 1 2 3 4 5 6 
#
# 1 0.017866 -0.010933 -0.002576 0.000000 -0.001350 0.000000
# 2 -0.010933 0.027171 -0.007872 0.000000 0.004480 0.000000
# 3 -0.002576 -0.007872 0.016812 0.000000 -0.010072 0.000000
# 4 0.000000 0.000000 0.000000 0.034893 0.000000 -0.001115
# 5 -0.001350 0.004480 -0.010072 0.000000 0.045760 0.000000
# 6 0.000000 0.000000 0.000000 -0.001115 0.000000 0.038375
#
#
# Mechanical properties :
#
#
# Convention : Reuss Voigt Hill
#
# Bulk Modulus (GPa) = 52.39535 56.73398 54.56466
# Shear Modulus (GPa) = 21.73901 24.46701 23.10301
#
# Velocity S-wave (km/s) = 3.36079 3.56543 3.46462
# Velocity P-wave (km/s) = 6.50253 6.81373 6.65995
#
# Compressibility (1/GPa) = 0.01908566
#
# Stress axis : x y z
#
# Youngs Moduli (GPa) = 55.97374 36.80439 59.47971
#
# Poissons Ratio (x) = 0.40239 0.15321
# Poissons Ratio (y) = 0.61197 0.46825
# Poissons Ratio (z) = 0.14418 0.28974
#
# Static dielectric constant tensor:
#      x y z
#    x 3.622690 0.000000 0.148400 
#    y 0.000000 3.341000 0.000000 
#    z 0.148400 0.000000 3.565400 
# 
# 
# High freq. dielectric constant tensor:
#      x y z
#    x 1.752600 0.000000 0.005060 
#    y 0.000000 1.731030 0.000000 
#    z 0.005060 0.000000 1.753510 
# 
# From -- ./inp_files/238362.got.cif
#   From: 2010.06.25/outbox.cif.g09.slc.cpg/sg12_120_cif.got.tgz:238362.got - 2010.06.28 00:19:55.
