data_PCOD8096367
_publ_section_title
;
Structure prediction by ZEFSAII (Michael W. Deem and Ramdas Pophale) SiO2 
 PCOD8096367
Probable space group: C 2/M
;
_chemical_formula_sum "Si O2"
_cell_formula_units_Z 64
_cell_length_a 29.926550
_cell_length_b 9.539008
_cell_length_c 14.393291
_cell_angle_alpha 90.000000
_cell_angle_beta 130.416944
_cell_angle_gamma 90.000000
_cell_volume 3128.256738
_symmetry_space_group_name_H-M "C 2/M"
_symmetry_group_IT_number 12
_symmetry_cell_setting 'monoclinic'
loop_
_space_group_symop_operation_xyz
x,y,z
-x,y,-z
-x,-y,-z
x,-y,z
1/2+x,1/2+y,z
1/2-x,1/2+y,-z
1/2-x,1/2-y,-z
1/2+x,1/2-y,z
loop_
_atom_site_type_symbol
_atom_site_label
_atom_site_fract_x
_atom_site_fract_y
_atom_site_fract_z
Si Si1 0.787958 0.660075 0.419808
Si Si2 0.946653 0.336167 0.867183
Si Si3 0.299188 0.158657 0.936236
Si Si4 0.320088 0.839033 0.747930
Si Si5 0.305197 0.841291 0.231144
Si Si6 0.007063 0.834759 0.401024
Si Si7 0.916190 0.661551 0.623882
Si Si8 0.101272 0.338571 0.789223
O O1 0.766721 0.500000 0.400053
O O2 0.733133 0.757388 0.375852
O O3 0.809018 0.697221 0.344018
O O4 0.847380 0.688299 0.559291
O O5 0.944078 0.500000 0.887316
O O6 0.883460 0.271768 0.809851
O O7 0.955641 0.310050 0.769034
O O8 0.000000 0.268656 0.000000
O O9 0.313809 0.178097 0.848744
O O10 0.242800 0.249330 0.887422
O O11 0.283372 0.000000 0.940549
O O12 0.355063 0.207122 0.070211
O O13 0.315604 0.000000 0.708616
O O14 0.368431 0.815151 0.270077
O O15 0.285092 0.000000 0.188570
O O16 0.953132 0.765004 0.274197
O O17 0.000000 0.800022 0.500000
O O18 0.064885 0.763523 0.434635
O O19 0.009285 0.000000 0.385536
O O20 0.922670 0.500000 0.599231
O O21 0.080440 0.500000 0.772924
#
# Coordination Sequence:
#
# PCOD8096367 Si02
#       8
#     8   8   8   8   8   8   8   8
#     4   9  18  33  53  79 110 144 185 231 282 336
#     4   9  19  35  59  87 115 148 190 239 283 330
#     4   9  18  30  49  78 109 142 185 231 275 330
#     4   9  18  33  54  82 113 146 185 230 281 329
#     4   9  17  30  48  73 108 145 182 229 280 330
#     4  11  25  41  56  80 113 147 184 232 289 341
#     4  10  21  38  62  86 110 149 196 237 280 335
#     4  10  20  33  53  78 105 144 192 235 275 332
#
# _framework density 20.458679
#
# number of rings (size 3 to 8) (size 9 to 14) (size 15 to 20)
#    0.000    2.500    0.000    1.500    1.750    4.000 
#    0.000    3.125    0.000    0.750    0.000    0.000 
#    0.000    0.000    0.000    0.000    0.000    0.000 
#
# Total GULP energy -396735.660140 kJ/mol
# GULP energy per Si atom -12397.989379 kJ/mol
# Density = 2.041211 g / cm^3
# Si number density = 20.458679 Si / 1000 Ang^3
#
#
#
# Elastic Constant Matrix: (Units=GPa)
#
#
# Indices 1 2 3 4 5 6 
#
# 1 73.2779 37.7904 25.4292 0.0000 26.3093 0.0000
# 2 37.7904 72.3603 39.3895 0.0000 17.6991 0.0000
# 3 25.4292 39.3895 104.1430 0.0000 19.8372 0.0000
# 4 0.0000 0.0000 0.0000 26.8003 0.0000 9.9810
# 5 26.3093 17.6991 19.8372 0.0000 28.4815 0.0000
# 6 0.0000 0.0000 0.0000 9.9810 0.0000 25.2780
#
#
#
# Elastic Compliance Matrix: (Units=1/GPa)
#
#
# Indices 1 2 3 4 5 6 
#
# 1 0.024147 -0.008757 0.000724 0.000000 -0.017368 0.000000
# 2 -0.008757 0.021954 -0.005889 0.000000 -0.001452 0.000000
# 3 0.000724 -0.005889 0.012778 0.000000 -0.005910 0.000000
# 4 0.000000 0.000000 0.000000 0.043746 0.000000 -0.017273
# 5 -0.017368 -0.001452 -0.005910 0.000000 0.056172 0.000000
# 6 0.000000 0.000000 0.000000 -0.017273 0.000000 0.046380
#
#
# Mechanical properties :
#
#
# Convention : Reuss Voigt Hill
#
# Bulk Modulus (GPa) = 32.22015 50.55550 41.38782
# Shear Modulus (GPa) = 20.54517 25.92345 23.23431
#
# Velocity S-wave (km/s) = 3.17239 3.56351 3.37363
# Velocity P-wave (km/s) = 5.40387 6.45726 5.95391
#
# Compressibility (1/GPa) = 0.03103648
#
# Stress axis : x y z
#
# Youngs Moduli (GPa) = 41.41252 45.55032 78.25813
#
# Poissons Ratio (x) = 0.39889 -0.05668
# Poissons Ratio (y) = 0.36265 0.46083
# Poissons Ratio (z) = -0.02999 0.26823
#
# Static dielectric constant tensor:
#      x y z
#    x 3.692440 0.000000 0.085340 
#    y 0.000000 3.537620 0.000000 
#    z 0.085340 0.000000 3.835060 
# 
# 
# High freq. dielectric constant tensor:
#      x y z
#    x 1.801350 0.000000 -0.000900 
#    y 0.000000 1.766630 0.000000 
#    z -0.000900 0.000000 1.809430 
# 
# From -- ./inp_files/250032.got.cif
#   From: 2010.06.25/outbox.cif.g09.slc.cpg/sg12_126_cif.got.tgz:250032.got - 2010.06.28 00:19:55.
