data_PCOD8096259
_publ_section_title
;
Structure prediction by ZEFSAII (Michael W. Deem and Ramdas Pophale) SiO2 
 PCOD8096259
Probable space group: C 2/M
;
_chemical_formula_sum "Si O2"
_cell_formula_units_Z 56
_cell_length_a 13.652474
_cell_length_b 13.354797
_cell_length_c 28.380255
_cell_angle_alpha 90.000000
_cell_angle_beta 146.373406
_cell_angle_gamma 90.000000
_cell_volume 2865.501983
_symmetry_space_group_name_H-M "C 2/M"
_symmetry_group_IT_number 12
_symmetry_cell_setting 'monoclinic'
loop_
_space_group_symop_operation_xyz
x,y,z
-x,y,-z
-x,-y,-z
x,-y,z
1/2+x,1/2+y,z
1/2-x,1/2+y,-z
1/2-x,1/2-y,-z
1/2+x,1/2-y,z
loop_
_atom_site_type_symbol
_atom_site_label
_atom_site_fract_x
_atom_site_fract_y
_atom_site_fract_z
Si Si1 0.351641 0.800129 0.979657
Si Si2 0.368668 0.884193 0.086140
Si Si3 0.210709 0.700693 0.258548
Si Si4 0.973834 0.885508 0.294452
Si Si5 0.504842 0.614638 0.199286
Si Si6 0.988909 0.799203 0.551022
Si Si7 0.217793 0.387718 0.510847
O O1 0.296504 0.683393 0.962757
O O2 0.184769 0.868759 0.900079
O O3 0.500000 0.810518 0.000000
O O4 0.429701 0.844778 0.059262
O O5 0.536403 0.869341 0.187977
O O6 0.310180 0.000000 0.062373
O O7 0.327498 0.685368 0.258835
O O8 0.153008 0.816837 0.234242
O O9 0.324542 0.671093 0.350425
O O10 0.996242 0.851844 0.250033
O O11 0.160688 0.870802 0.394804
O O12 0.908261 0.000000 0.272412
O O13 0.562941 0.500000 0.216506
O O14 0.950763 0.683885 0.550027
O O15 0.828905 0.865664 0.507857
O O16 0.000000 0.818012 0.500000
O O17 0.143963 0.500000 0.478565
#
# Coordination Sequence:
#
# PCOD8096259 Si02
#       7
#     8   8   8   8   8   8   8
#     4  10  21  36  56  81 106 134 170 211 253 300
#     4  10  21  37  56  79 107 137 170 208 253 308
#     4  10  20  33  53  77 104 136 173 212 258 307
#     4   9  17  32  54  76 102 137 173 211 257 308
#     4  10  20  33  52  79 106 133 171 214 253 301
#     4  10  20  34  53  75 102 136 174 218 260 300
#     4   9  19  34  51  75 104 135 173 213 258 311
#
# _framework density 19.542825000000001
#
# number of rings (size 3 to 8) (size 9 to 14) (size 15 to 20)
#    0.000    2.286    0.000    2.571    0.000    4.286 
#    0.000    0.000    0.000    9.429    0.000    0.000 
#    0.000    0.000    0.000    0.000    0.000    0.000 
#
# Total GULP energy -347250.508275 kJ/mol
# GULP energy per Si atom -12401.803867 kJ/mol
# Density = 1.949834 g / cm^3
# Si number density = 19.542825 Si / 1000 Ang^3
#
#
#
# Elastic Constant Matrix: (Units=GPa)
#
#
# Indices 1 2 3 4 5 6 
#
# 1 73.6903 24.1670 32.8965 0.0000 -9.8025 0.0000
# 2 24.1670 103.0625 19.9977 0.0000 -4.5395 0.0000
# 3 32.8965 19.9977 80.4628 0.0001 -11.1165 0.0000
# 4 0.0000 0.0000 0.0001 20.8548 0.0000 -3.0949
# 5 -9.8025 -4.5395 -11.1165 0.0000 23.6754 0.0000
# 6 0.0000 0.0000 0.0000 -3.0949 0.0000 22.0774
#
#
#
# Elastic Compliance Matrix: (Units=1/GPa)
#
#
# Indices 1 2 3 4 5 6 
#
# 1 0.017694 -0.002812 -0.005986 0.000000 0.003976 0.000000
# 2 -0.002812 0.010656 -0.001473 0.000000 0.000187 0.000000
# 3 -0.005986 -0.001473 0.015891 0.000000 0.004701 0.000000
# 4 0.000000 0.000000 0.000000 0.048969 0.000000 0.006865
# 5 0.003976 0.000187 0.004701 0.000000 0.046127 0.000000
# 6 0.000000 0.000000 0.000000 0.006865 0.000000 0.046258
#
#
# Mechanical properties :
#
#
# Convention : Reuss Voigt Hill
#
# Bulk Modulus (GPa) = 42.19551 45.70421 43.94986
# Shear Modulus (GPa) = 23.36053 25.33180 24.34616
#
# Velocity S-wave (km/s) = 3.46114 3.60421 3.53340
# Velocity P-wave (km/s) = 6.13276 6.38419 6.25974
#
# Compressibility (1/GPa) = 0.02369921
#
# Stress axis : x y z
#
# Youngs Moduli (GPa) = 56.51759 93.84081 62.92985
#
# Poissons Ratio (x) = 0.26392 0.37667
# Poissons Ratio (y) = 0.15895 0.09268
# Poissons Ratio (z) = 0.33829 0.13820
#
# Static dielectric constant tensor:
#      x y z
#    x 3.399450 0.000000 -0.148080 
#    y 0.000000 3.560320 0.000000 
#    z -0.148080 0.000000 3.645350 
# 
# 
# High freq. dielectric constant tensor:
#      x y z
#    x 1.746620 0.000000 -0.007290 
#    y 0.000000 1.756940 0.000000 
#    z -0.007290 0.000000 1.768540 
# 
# From -- ./inp_files/358244.got.cif
#   From: 2010.06.25/outbox.cif.g09.slc.cpg/sg12_180_cif.got.tgz:358244.got - 2010.06.28 00:19:55.
