data_PCOD8096536
_publ_section_title
;
Structure prediction by ZEFSAII (Michael W. Deem and Ramdas Pophale) SiO2 
 PCOD8096536
Probable space group: C 2/M
;
_chemical_formula_sum "Si O2"
_cell_formula_units_Z 56
_cell_length_a 15.386124
_cell_length_b 25.033115
_cell_length_c 9.214181
_cell_angle_alpha 90.000000
_cell_angle_beta 122.724130
_cell_angle_gamma 90.000000
_cell_volume 2985.678708
_symmetry_space_group_name_H-M "C 2/M"
_symmetry_group_IT_number 12
_symmetry_cell_setting 'monoclinic'
loop_
_space_group_symop_operation_xyz
x,y,z
-x,y,-z
-x,-y,-z
x,-y,z
1/2+x,1/2+y,z
1/2-x,1/2+y,-z
1/2-x,1/2-y,-z
1/2+x,1/2-y,z
loop_
_atom_site_type_symbol
_atom_site_label
_atom_site_fract_x
_atom_site_fract_y
_atom_site_fract_z
Si Si1 0.764621 0.560679 0.771327
Si Si2 0.876273 0.118714 0.568066
Si Si3 0.422913 0.560409 0.187211
Si Si4 0.885556 0.661401 0.947573
Si Si5 0.207893 0.296015 0.863980
Si Si6 0.112052 0.865982 0.094750
Si Si7 0.286668 0.724081 0.383634
O O1 0.805239 0.500000 0.792574
O O2 0.706083 0.577561 0.572002
O O3 0.685383 0.566827 0.831523
O O4 0.860697 0.599440 0.890629
O O5 0.844192 0.122186 0.707114
O O6 0.869382 0.177192 0.487595
O O7 0.992827 0.097253 0.654479
O O8 0.463696 0.500000 0.227002
O O9 0.407960 0.578475 0.007924
O O10 0.811588 0.700073 0.788896
O O11 0.875494 0.671634 0.113347
O O12 0.000000 0.674493 0.000000
O O13 0.306134 0.332408 0.919947
O O14 0.162217 0.270163 0.673444
O O15 0.250000 0.250000 0.000000
O O16 0.000000 0.835725 0.000000
O O17 0.250000 0.750000 0.500000
#
# Coordination Sequence:
#
# PCOD8096536 Si02
#       7
#     8   8   8   8   8   8   8
#     4  10  20  36  59  82 111 147 188 238 291 340
#     4  10  20  33  54  85 119 146 185 232 285 353
#     4  10  20  35  56  86 119 152 187 232 294 359
#     4  10  22  40  59  81 111 148 198 243 277 332
#     4  10  20  37  57  77 112 150 190 237 280 326
#     4  10  20  34  57  84 115 150 187 228 284 358
#     4  10  20  38  58  83 114 149 193 232 287 342
#
# _framework density 18.756205000000001
#
# number of rings (size 3 to 8) (size 9 to 14) (size 15 to 20)
#    0.000    2.000    2.857    0.857    0.000    6.857 
#    0.000    2.143    0.000    0.000    0.000    1.000 
#    0.000    0.000    0.000    0.000    0.000    0.000 
#
# Total GULP energy -347085.135303 kJ/mol
# GULP energy per Si atom -12395.897689 kJ/mol
# Density = 1.871352 g / cm^3
# Si number density = 18.756205 Si / 1000 Ang^3
#
#
#
# Elastic Constant Matrix: (Units=GPa)
#
#
# Indices 1 2 3 4 5 6 
#
# 1 101.0798 36.8918 32.9984 0.0000 -10.6438 0.0000
# 2 36.8918 100.2391 42.6137 0.0000 -4.7158 0.0000
# 3 32.9984 42.6137 99.1953 0.0000 -20.4974 0.0000
# 4 0.0000 0.0000 0.0000 27.5940 0.0000 -1.7297
# 5 -10.6438 -4.7158 -20.4974 0.0000 27.8761 0.0000
# 6 0.0000 0.0000 0.0000 -1.7297 0.0000 25.4197
#
#
#
# Elastic Compliance Matrix: (Units=1/GPa)
#
#
# Indices 1 2 3 4 5 6 
#
# 1 0.012084 -0.003478 -0.001997 0.000000 0.002557 0.000000
# 2 -0.003478 0.013312 -0.005154 0.000000 -0.002866 0.000000
# 3 -0.001997 -0.005154 0.014883 0.000000 0.009309 0.000000
# 4 0.000000 0.000000 0.000000 0.036395 0.000000 0.002477
# 5 0.002557 -0.002866 0.009309 0.000000 0.043210 0.000000
# 6 0.000000 0.000000 0.000000 0.002477 0.000000 0.039508
#
#
# Mechanical properties :
#
#
# Convention : Reuss Voigt Hill
#
# Bulk Modulus (GPa) = 52.57400 58.39133 55.48267
# Shear Modulus (GPa) = 26.73918 28.71199 27.72558
#
# Velocity S-wave (km/s) = 3.77983 3.91679 3.84892
# Velocity P-wave (km/s) = 6.86590 7.18709 7.02833
#
# Compressibility (1/GPa) = 0.01902081
#
# Stress axis : x y z
#
# Youngs Moduli (GPa) = 82.75519 75.11765 67.18885
#
# Poissons Ratio (x) = 0.26125 0.13420
# Poissons Ratio (y) = 0.28781 0.34630
# Poissons Ratio (z) = 0.16530 0.38717
#
# Static dielectric constant tensor:
#      x y z
#    x 3.435020 0.000000 -0.411800 
#    y 0.000000 3.538660 0.000000 
#    z -0.411800 0.000000 3.656680 
# 
# 
# High freq. dielectric constant tensor:
#      x y z
#    x 1.713300 0.000000 -0.026840 
#    y 0.000000 1.731910 0.000000 
#    z -0.026840 0.000000 1.725540 
# 
# From -- ./inp_files/67068.got.cif
#   From: 2010.06.25/outbox.cif.g09.slc.cpg/sg12_34_cif.got.tgz:67068.got - 2010.06.28 00:19:55.
