data_PCOD8096995
_publ_section_title
;
Structure prediction by ZEFSAII (Michael W. Deem and Ramdas Pophale) SiO2 
 PCOD8096995
Probable space group: C 2/M
;
_chemical_formula_sum "Si O2"
_cell_formula_units_Z 64
_cell_length_a 11.231265
_cell_length_b 12.949537
_cell_length_c 25.018229
_cell_angle_alpha 90.000000
_cell_angle_beta 109.816720
_cell_angle_gamma 90.000000
_cell_volume 3423.169644
_symmetry_space_group_name_H-M "C 2/M"
_symmetry_group_IT_number 12
_symmetry_cell_setting 'monoclinic'
loop_
_space_group_symop_operation_xyz
x,y,z
-x,y,-z
-x,-y,-z
x,-y,z
1/2+x,1/2+y,z
1/2-x,1/2+y,-z
1/2-x,1/2-y,-z
1/2+x,1/2-y,z
loop_
_atom_site_type_symbol
_atom_site_label
_atom_site_fract_x
_atom_site_fract_y
_atom_site_fract_z
Si Si1 0.099069 0.736545 0.467262
Si Si2 0.822025 0.747549 0.095049
Si Si3 0.926074 0.881338 0.381071
Si Si4 0.465577 0.253276 0.284470
Si Si5 0.850779 0.617451 0.625855
Si Si6 0.860126 0.386010 0.998517
Si Si7 0.716691 0.885466 0.808660
Si Si8 0.003073 0.885706 0.187165
O O1 0.250000 0.750000 0.500000
O O2 0.089363 0.644207 0.422712
O O3 0.000000 0.707422 0.500000
O O4 0.047085 0.842560 0.433225
O O5 0.713305 0.822418 0.057487
O O6 0.770017 0.680323 0.135670
O O7 0.938872 0.816678 0.131833
O O8 0.866040 0.671186 0.055670
O O9 0.905198 0.814881 0.324615
O O10 0.800987 0.867925 0.398400
O O11 0.950262 0.000000 0.369311
O O12 0.592944 0.193300 0.320570
O O13 0.369014 0.168106 0.248737
O O14 0.493990 0.336316 0.243760
O O15 0.886845 0.500000 0.645519
O O16 0.798106 0.500000 0.996297
O O17 0.000000 0.399715 0.000000
O O18 0.852144 0.896110 0.803954
O O19 0.662380 0.000000 0.813382
O O20 0.940288 0.000000 0.178819
#
# Coordination Sequence:
#
# PCOD8096995 Si02
#       8
#     8   8   8   8   8   8   8   8
#     4  11  22  39  61  86 116 149 187 232 278 327
#     4  10  20  34  52  75 102 138 176 216 267 325
#     4  10  21  37  59  83 111 149 187 224 275 333
#     4  10  20  35  56  80 109 141 181 226 269 320
#     4  10  21  37  58  83 113 147 185 228 276 328
#     4  10  20  34  52  74 102 134 174 222 269 316
#     4  10  20  34  53  77 107 140 175 218 271 323
#     4  10  20  34  53  77 106 139 177 220 267 321
#
# _framework density 18.696123
#
# number of rings (size 3 to 8) (size 9 to 14) (size 15 to 20)
#    0.000    1.875    1.250    3.000    0.000    1.000 
#    0.000    0.000    0.000   18.000    0.000    0.000 
#    0.000    0.000    0.000    0.000    0.000    0.000 
#
# Total GULP energy -396707.550997 kJ/mol
# GULP energy per Si atom -12397.110969 kJ/mol
# Density = 1.865357 g / cm^3
# Si number density = 18.696123 Si / 1000 Ang^3
#
#
#
# Elastic Constant Matrix: (Units=GPa)
#
#
# Indices 1 2 3 4 5 6 
#
# 1 89.5700 49.9491 45.1754 0.0000 0.5738 0.0000
# 2 49.9491 152.2268 59.7342 0.0000 -0.4090 0.0000
# 3 45.1754 59.7342 114.7137 0.0000 0.7504 0.0000
# 4 0.0000 0.0000 0.0000 6.5906 0.0000 1.6841
# 5 0.5738 -0.4090 0.7504 0.0000 20.3259 0.0000
# 6 0.0000 0.0000 0.0000 1.6841 0.0000 29.2415
#
#
#
# Elastic Compliance Matrix: (Units=1/GPa)
#
#
# Indices 1 2 3 4 5 6 
#
# 1 0.015151 -0.003308 -0.004242 0.000000 -0.000338 0.000000
# 2 -0.003308 0.008980 -0.003376 0.000000 0.000399 0.000000
# 3 -0.004242 -0.003376 0.012149 0.000000 -0.000397 0.000000
# 4 0.000000 0.000000 0.000000 0.153998 0.000000 -0.008869
# 5 -0.000338 0.000399 -0.000397 0.000000 0.049231 0.000000
# 6 0.000000 0.000000 0.000000 -0.008869 0.000000 0.034709
#
#
# Mechanical properties :
#
#
# Convention : Reuss Voigt Hill
#
# Bulk Modulus (GPa) = 69.31034 74.02531 71.66782
# Shear Modulus (GPa) = 16.61801 24.67504 20.64653
#
# Velocity S-wave (km/s) = 2.98459 3.63684 3.32674
# Velocity P-wave (km/s) = 7.00211 7.57069 7.29194
#
# Compressibility (1/GPa) = 0.01442786
#
# Stress axis : x y z
#
# Youngs Moduli (GPa) = 66.00418 111.35345 82.31415
#
# Poissons Ratio (x) = 0.36832 0.34917
# Poissons Ratio (y) = 0.21832 0.27792
# Poissons Ratio (z) = 0.27998 0.37597
#
# Static dielectric constant tensor:
#      x y z
#    x 3.356770 0.000000 -0.030690 
#    y 0.000000 3.647910 0.000000 
#    z -0.030690 0.000000 3.704140 
# 
# 
# High freq. dielectric constant tensor:
#      x y z
#    x 1.720180 0.000000 0.000440 
#    y 0.000000 1.740900 0.000000 
#    z 0.000440 0.000000 1.735450 
# 
# From -- ./inp_files/335194.got.cif
#   From: 2010.06.25/outbox.cif.g09.slc.cpg/sg12_168_cif.got.tgz:335194.got - 2010.06.28 00:19:55.
