data_PCOD8096874
_publ_section_title
;
Structure prediction by ZEFSAII (Michael W. Deem and Ramdas Pophale) SiO2 
 PCOD8096874
Probable space group: C 2/M
;
_chemical_formula_sum "Si O2"
_cell_formula_units_Z 48
_cell_length_a 27.572156
_cell_length_b 8.564248
_cell_length_c 11.868957
_cell_angle_alpha 90.000000
_cell_angle_beta 71.642580
_cell_angle_gamma 90.000000
_cell_volume 2660.046433
_symmetry_space_group_name_H-M "C 2/M"
_symmetry_group_IT_number 12
_symmetry_cell_setting 'monoclinic'
loop_
_space_group_symop_operation_xyz
x,y,z
-x,y,-z
-x,-y,-z
x,-y,z
1/2+x,1/2+y,z
1/2-x,1/2+y,-z
1/2-x,1/2-y,-z
1/2+x,1/2-y,z
loop_
_atom_site_type_symbol
_atom_site_label
_atom_site_fract_x
_atom_site_fract_y
_atom_site_fract_z
Si Si1 0.443751 0.184349 0.029802
Si Si2 0.211549 0.180007 0.883771
Si Si3 0.315409 0.318168 0.741568
Si Si4 0.631841 0.817937 0.103874
Si Si5 0.198159 0.319730 0.487737
Si Si6 0.646173 0.179381 0.750100
O O1 0.410164 0.229457 0.164866
O O2 0.449194 0.000000 0.016955
O O3 0.500000 0.261585 0.000000
O O4 0.415922 0.244829 0.936122
O O5 0.270673 0.223881 0.836395
O O6 0.188811 0.212387 0.776462
O O7 0.204865 0.000000 0.922097
O O8 0.183263 0.286826 0.995486
O O9 0.303815 0.500000 0.755241
O O10 0.365835 0.273665 0.778103
O O11 0.321573 0.269321 0.607740
O O12 0.626361 0.000000 0.133365
O O13 0.207960 0.500000 0.450636
O O14 0.250000 0.250000 0.500000
O O15 0.152112 0.300393 0.611724
O O16 0.656931 0.000000 0.777983
#
# Coordination Sequence:
#
# PCOD8096874 Si02
#       6
#     8   8   8   8   8   8
#     4   8  15  31  57  83 102 124 159 211 267 310
#     4  11  20  31  49  72 102 137 172 208 252 305
#     4  12  23  34  48  69 102 140 177 212 251 300
#     4  10  20  34  51  74 103 132 168 211 258 309
#     4  11  21  33  50  73 104 142 179 211 247 296
#     4   9  18  32  51  76 105 134 170 212 251 299
#
# _framework density 18.044798
#
# number of rings (size 3 to 8) (size 9 to 14) (size 15 to 20)
#    0.000    1.833    1.667    5.500    0.000    0.667 
#    0.000    0.000    0.000   13.500    0.000    7.000 
#    0.000    0.000    0.000    0.000    0.000    0.000 
#
# Total GULP energy -297539.742727 kJ/mol
# GULP energy per Si atom -12397.489280 kJ/mol
# Density = 1.800373 g / cm^3
# Si number density = 18.044798 Si / 1000 Ang^3
#
#
#
# Elastic Constant Matrix: (Units=GPa)
#
#
# Indices 1 2 3 4 5 6 
#
# 1 107.7692 20.7254 62.0833 0.0000 6.4005 0.0000
# 2 20.7254 65.0972 21.9529 0.0000 4.4813 0.0000
# 3 62.0833 21.9529 106.2473 0.0000 22.6986 0.0000
# 4 0.0000 0.0000 0.0000 26.8501 0.0000 6.1980
# 5 6.4005 4.4813 22.6986 0.0000 22.8810 0.0000
# 6 0.0000 0.0000 0.0000 6.1980 0.0000 16.0302
#
#
#
# Elastic Compliance Matrix: (Units=1/GPa)
#
#
# Indices 1 2 3 4 5 6 
#
# 1 0.014734 -0.001902 -0.009410 0.000000 0.005586 0.000000
# 2 -0.001902 0.016758 -0.002238 0.000000 -0.000530 0.000000
# 3 -0.009410 -0.002238 0.018675 0.000000 -0.015455 0.000000
# 4 0.000000 0.000000 0.000000 0.040894 0.000000 -0.015811
# 5 0.005586 -0.000530 -0.015455 0.000000 0.057578 0.000000
# 6 0.000000 0.000000 0.000000 -0.015811 0.000000 0.068495
#
#
# Mechanical properties :
#
#
# Convention : Reuss Voigt Hill
#
# Bulk Modulus (GPa) = 43.35141 54.29299 48.82220
# Shear Modulus (GPa) = 19.84735 24.77572 22.31154
#
# Velocity S-wave (km/s) = 3.32006 3.70944 3.52014
# Velocity P-wave (km/s) = 6.22684 6.96418 6.60581
#
# Compressibility (1/GPa) = 0.02306730
#
# Stress axis : x y z
#
# Youngs Moduli (GPa) = 67.87075 59.67145 53.54851
#
# Poissons Ratio (x) = 0.11350 0.50388
# Poissons Ratio (y) = 0.12910 0.11984
# Poissons Ratio (z) = 0.63865 0.13354
#
# Static dielectric constant tensor:
#      x y z
#    x 3.434240 0.000000 0.146690 
#    y 0.000000 3.238640 0.000000 
#    z 0.146690 0.000000 3.481870 
# 
# 
# High freq. dielectric constant tensor:
#      x y z
#    x 1.666510 0.000000 0.018090 
#    y 0.000000 1.692780 0.000000 
#    z 0.018090 0.000000 1.698760 
# 
# From -- ./inp_files/179210.got.cif
#   From: 2010.06.25/outbox.cif.g09.slc.cpg/sg12_90_cif.got.tgz:179210.got - 2010.06.28 00:19:55.
