data_PCOD8096279
_publ_section_title
;
Structure prediction by ZEFSAII (Michael W. Deem and Ramdas Pophale) SiO2 
 PCOD8096279
Probable space group: C 2/M
;
_chemical_formula_sum "Si O2"
_cell_formula_units_Z 48
_cell_length_a 19.026909
_cell_length_b 8.720209
_cell_length_c 15.226207
_cell_angle_alpha 90.000000
_cell_angle_beta 90.652183
_cell_angle_gamma 90.000000
_cell_volume 2526.147639
_symmetry_space_group_name_H-M "C 2/M"
_symmetry_group_IT_number 12
_symmetry_cell_setting 'monoclinic'
loop_
_space_group_symop_operation_xyz
x,y,z
-x,y,-z
-x,-y,-z
x,-y,z
1/2+x,1/2+y,z
1/2-x,1/2+y,-z
1/2-x,1/2-y,-z
1/2+x,1/2-y,z
loop_
_atom_site_type_symbol
_atom_site_label
_atom_site_fract_x
_atom_site_fract_y
_atom_site_fract_z
Si Si1 0.326700 0.182079 0.996016
Si Si2 0.919887 0.320516 0.841047
Si Si3 0.079534 0.180636 0.654452
Si Si4 0.173558 0.318561 0.508964
Si Si5 0.421341 0.179743 0.159405
Si Si6 0.430161 0.818310 0.646003
O O1 0.366002 0.252276 0.910705
O O2 0.322884 0.000000 0.991310
O O3 0.250000 0.250000 0.000000
O O4 0.369247 0.234243 0.082530
O O5 0.907309 0.500000 0.842485
O O6 0.905434 0.259356 0.742020
O O7 0.999513 0.281700 0.870478
O O8 0.139968 0.254135 0.596604
O O9 0.097384 0.225371 0.754311
O O10 0.004187 0.242778 0.621769
O O11 0.081127 0.000000 0.643328
O O12 0.178091 0.500000 0.514699
O O13 0.250000 0.250000 0.500000
O O14 0.127722 0.265983 0.424519
O O15 0.414202 0.000000 0.180947
O O16 0.442354 0.000000 0.646726
#
# Coordination Sequence:
#
# PCOD8096279 Si02
#       6
#     8   8   8   8   8   8
#     4  10  20  33  52  79 110 143 176 216 269 327
#     4   8  15  32  57  79  99 131 179 222 256 309
#     4  11  22  36  57  83 109 141 183 231 277 320
#     4  11  23  38  56  81 114 149 183 221 270 328
#     4   9  18  35  57  78 102 139 185 226 266 317
#     4   9  19  37  60  82 106 141 181 222 272 329
#
# _framework density 19.001265
#
# number of rings (size 3 to 8) (size 9 to 14) (size 15 to 20)
#    0.000    2.333    0.000    4.000    0.000    7.333 
#    0.000    5.000    0.000    5.000    0.000    0.000 
#    0.000    0.000    0.000    0.000    0.000    0.000 
#
# Total GULP energy -297606.070883 kJ/mol
# GULP energy per Si atom -12400.252953 kJ/mol
# Density = 1.895802 g / cm^3
# Si number density = 19.001265 Si / 1000 Ang^3
#
#
#
# Elastic Constant Matrix: (Units=GPa)
#
#
# Indices 1 2 3 4 5 6 
#
# 1 146.8096 30.7866 78.7810 0.0000 -19.2243 0.0000
# 2 30.7866 45.9300 26.9743 0.0000 -6.0134 0.0000
# 3 78.7810 26.9743 98.7845 0.0000 -12.7799 0.0000
# 4 0.0000 0.0000 0.0000 19.2261 0.0000 -1.7299
# 5 -19.2243 -6.0134 -12.7799 0.0000 24.7585 0.0000
# 6 0.0000 0.0000 0.0000 -1.7299 0.0000 33.8245
#
#
#
# Elastic Compliance Matrix: (Units=1/GPa)
#
#
# Indices 1 2 3 4 5 6 
#
# 1 0.012713 -0.002752 -0.008784 0.000000 0.004669 0.000000
# 2 -0.002752 0.026713 -0.004861 0.000000 0.001842 0.000000
# 3 -0.008784 -0.004861 0.018667 0.000000 0.001635 0.000000
# 4 0.000000 0.000000 0.000000 0.052253 0.000000 0.002672
# 5 0.004669 0.001842 0.001635 0.000000 0.045307 0.000000
# 6 0.000000 0.000000 0.000000 0.002672 0.000000 0.029701
#
#
# Mechanical properties :
#
#
# Convention : Reuss Voigt Hill
#
# Bulk Modulus (GPa) = 39.52602 62.73422 51.13012
# Shear Modulus (GPa) = 22.06714 25.89399 23.98057
#
# Velocity S-wave (km/s) = 3.41156 3.69555 3.55639
# Velocity P-wave (km/s) = 6.03036 7.16219 6.62051
#
# Compressibility (1/GPa) = 0.02529979
#
# Stress axis : x y z
#
# Youngs Moduli (GPa) = 78.65660 37.43488 53.57085
#
# Poissons Ratio (x) = 0.10302 0.47054
# Poissons Ratio (y) = 0.21646 0.26043
# Poissons Ratio (z) = 0.69088 0.18198
#
# Static dielectric constant tensor:
#      x y z
#    x 3.678400 0.000000 -0.139740 
#    y 0.000000 3.248490 0.000000 
#    z -0.139740 0.000000 3.855000 
# 
# 
# High freq. dielectric constant tensor:
#      x y z
#    x 1.738100 0.000000 -0.002780 
#    y 0.000000 1.715420 0.000000 
#    z -0.002780 0.000000 1.754850 
# 
# From -- ./inp_files/221662.got.cif
#   From: 2010.06.25/outbox.cif.g09.slc.cpg/sg12_111_cif.got.tgz:221662.got - 2010.06.28 00:19:55.
