data_PCOD8096618
_publ_section_title
;
Structure prediction by ZEFSAII (Michael W. Deem and Ramdas Pophale) SiO2 
 PCOD8096618
Probable space group: C 2/M
;
_chemical_formula_sum "Si O2"
_cell_formula_units_Z 48
_cell_length_a 24.883658
_cell_length_b 11.179717
_cell_length_c 10.892084
_cell_angle_alpha 90.000000
_cell_angle_beta 123.168947
_cell_angle_gamma 90.000000
_cell_volume 2536.372884
_symmetry_space_group_name_H-M "C 2/M"
_symmetry_group_IT_number 12
_symmetry_cell_setting 'monoclinic'
loop_
_space_group_symop_operation_xyz
x,y,z
-x,y,-z
-x,-y,-z
x,-y,z
1/2+x,1/2+y,z
1/2-x,1/2+y,-z
1/2-x,1/2-y,-z
1/2+x,1/2-y,z
loop_
_atom_site_type_symbol
_atom_site_label
_atom_site_fract_x
_atom_site_fract_y
_atom_site_fract_z
Si Si1 0.277114 0.865453 0.188343
Si Si2 0.000000 0.804998 0.000000
Si Si3 0.617453 0.863645 0.088565
Si Si4 0.752887 0.299345 0.638449
Si Si5 0.580974 0.500000 0.725797
Si Si6 0.343752 0.283637 0.094199
Si Si7 0.027882 0.000000 0.238055
Si Si8 0.148105 0.000000 0.545311
O O1 0.250814 0.818983 0.284018
O O2 0.336266 0.785885 0.213883
O O3 0.300771 0.000000 0.234856
O O4 0.220909 0.856855 0.017067
O O5 0.062074 0.721001 0.071078
O O6 0.008964 0.884419 0.133422
O O7 0.678927 0.863757 0.255596
O O8 0.592534 0.000000 0.045315
O O9 0.639057 0.816365 0.983502
O O10 0.750000 0.250000 0.500000
O O11 0.693536 0.384646 0.598029
O O12 0.602032 0.381537 0.823661
O O13 0.505553 0.500000 0.667400
O O14 0.604289 0.500000 0.614183
O O15 0.103240 0.000000 0.367745
#
# Coordination Sequence:
#
# PCOD8096618 Si02
#       8
#     8   4   8   8   4   8   4   4
#     4  10  20  33  56  86 119 159 197 250 306 353
#     4  11  23  42  64  94 123 159 210 254 306 361
#     4  11  22  39  63  89 123 161 201 255 307 361
#     4  11  24  39  58  89 125 161 200 248 306 370
#     4  12  20  41  62  89 120 158 204 261 304 357
#     4  10  20  34  57  88 121 150 202 256 305 353
#     4  11  25  42  64  90 126 162 205 260 302 358
#     4  12  24  43  64  90 123 167 206 245 307 371
#
# _framework density 18.924662000000001
#
# number of rings (size 3 to 8) (size 9 to 14) (size 15 to 20)
#    0.000    1.167    5.000    2.000    1.167    0.000 
#    1.500    0.000    0.000    0.000    0.000    2.333 
#    0.000    0.000    0.000    0.000    0.000    0.000 
#
# Total GULP energy -297515.692240 kJ/mol
# GULP energy per Si atom -12396.487177 kJ/mol
# Density = 1.888159 g / cm^3
# Si number density = 18.924662 Si / 1000 Ang^3
#
#
#
# Elastic Constant Matrix: (Units=GPa)
#
#
# Indices 1 2 3 4 5 6 
#
# 1 107.3828 41.9553 36.2293 0.0000 -0.8828 0.0000
# 2 41.9553 135.7531 37.0212 0.0000 0.1662 0.0000
# 3 36.2293 37.0212 86.2648 0.0000 -1.5590 0.0000
# 4 0.0000 0.0000 0.0000 17.8099 0.0000 1.8770
# 5 -0.8828 0.1662 -1.5590 0.0000 36.6807 0.0000
# 6 0.0000 0.0000 0.0000 1.8770 0.0000 32.7014
#
#
#
# Elastic Compliance Matrix: (Units=1/GPa)
#
#
# Indices 1 2 3 4 5 6 
#
# 1 0.011581 -0.002552 -0.003766 0.000000 0.000130 0.000000
# 2 -0.002552 0.008907 -0.002754 0.000000 -0.000219 0.000000
# 3 -0.003766 -0.002754 0.014366 0.000000 0.000532 0.000000
# 4 0.000000 0.000000 0.000000 0.056490 0.000000 -0.003242
# 5 0.000130 -0.000219 0.000532 0.000000 0.027289 0.000000
# 6 0.000000 0.000000 0.000000 -0.003242 0.000000 0.030766
#
#
# Mechanical properties :
#
#
# Convention : Reuss Voigt Hill
#
# Bulk Modulus (GPa) = 59.85253 62.20137 61.02695
# Shear Modulus (GPa) = 28.88271 31.71805 30.30038
#
# Velocity S-wave (km/s) = 3.91089 4.09836 4.00572
# Velocity P-wave (km/s) = 7.21726 7.43873 7.32883
#
# Compressibility (1/GPa) = 0.01670773
#
# Stress axis : x y z
#
# Youngs Moduli (GPa) = 86.34499 112.27698 69.61074
#
# Poissons Ratio (x) = 0.28657 0.26217
# Poissons Ratio (y) = 0.22039 0.19173
# Poissons Ratio (z) = 0.32519 0.30925
#
# Static dielectric constant tensor:
#      x y z
#    x 3.518500 0.000000 -0.041630 
#    y 0.000000 3.515620 0.000000 
#    z -0.041630 0.000000 3.299320 
# 
# 
# High freq. dielectric constant tensor:
#      x y z
#    x 1.738660 0.000000 -0.013100 
#    y 0.000000 1.745230 0.000000 
#    z -0.013100 0.000000 1.721970 
# 
# From -- ./inp_files/95044.got.cif
#   From: 2010.06.25/outbox.cif.g09.slc.cpg/sg12_48_cif.got.tgz:95044.got - 2010.06.28 00:19:55.
