data_PCOD8096371
_publ_section_title
;
Structure prediction by ZEFSAII (Michael W. Deem and Ramdas Pophale) SiO2 
 PCOD8096371
Probable space group: C 2/M
;
_chemical_formula_sum "Si O2"
_cell_formula_units_Z 64
_cell_length_a 28.432855
_cell_length_b 9.340678
_cell_length_c 14.930191
_cell_angle_alpha 90.000000
_cell_angle_beta 130.271461
_cell_angle_gamma 90.000000
_cell_volume 3025.403528
_symmetry_space_group_name_H-M "C 2/M"
_symmetry_group_IT_number 12
_symmetry_cell_setting 'monoclinic'
loop_
_space_group_symop_operation_xyz
x,y,z
-x,y,-z
-x,-y,-z
x,-y,z
1/2+x,1/2+y,z
1/2-x,1/2+y,-z
1/2-x,1/2-y,-z
1/2+x,1/2-y,z
loop_
_atom_site_type_symbol
_atom_site_label
_atom_site_fract_x
_atom_site_fract_y
_atom_site_fract_z
Si Si1 0.565368 0.664187 0.621114
Si Si2 0.710239 0.669077 0.076800
Si Si3 0.975789 0.341570 0.111076
Si Si4 0.110888 0.162448 0.101535
Si Si5 0.621174 0.161734 0.850727
Si Si6 0.590880 0.660149 0.275225
Si Si7 0.288841 0.336143 0.476204
Si Si8 0.694125 0.335188 0.702303
O O1 0.500000 0.716378 0.500000
O O2 0.559181 0.500000 0.646649
O O3 0.583060 0.763293 0.725709
O O4 0.619855 0.678501 0.614791
O O5 0.716032 0.500000 0.064977
O O6 0.669272 0.705492 0.113648
O O7 0.776850 0.736532 0.183190
O O8 0.681789 0.746535 0.953858
O O9 0.993436 0.500000 0.101027
O O10 0.923585 0.344272 0.120821
O O11 0.036027 0.268691 0.225871
O O12 0.949534 0.256296 0.993614
O O13 0.126379 0.188216 0.224734
O O14 0.092463 0.000000 0.057688
O O15 0.641262 0.000000 0.847927
O O16 0.563330 0.500000 0.242111
O O17 0.639219 0.681458 0.413715
O O18 0.267697 0.500000 0.458265
O O19 0.250000 0.250000 0.500000
O O20 0.281822 0.281900 0.365330
O O21 0.713983 0.500000 0.742788
#
# Coordination Sequence:
#
# PCOD8096371 Si02
#       8
#     8   8   8   8   8   8   8   8
#     4  10  23  42  66  92 119 157 204 249 296 357
#     4  10  20  37  63  90 117 155 201 246 296 359
#     4  10  21  34  51  80 114 149 191 239 294 352
#     4   9  18  33  52  79 113 150 194 241 288 344
#     4  10  22  40  61  88 122 157 194 245 305 357
#     4  10  20  33  53  78 109 151 197 242 290 349
#     4  10  22  39  59  85 118 156 197 244 296 351
#     4  10  22  40  61  90 123 156 198 251 306 353
#
# _framework density 21.154202000000002
#
# number of rings (size 3 to 8) (size 9 to 14) (size 15 to 20)
#    0.000    2.125    0.000    2.250    1.750    7.250 
#    0.000    0.000    0.000    0.000    0.000    0.000 
#    0.000    0.000    0.000    0.000    0.000    0.000 
#
# Total GULP energy -396811.110165 kJ/mol
# GULP energy per Si atom -12400.347193 kJ/mol
# Density = 2.110605 g / cm^3
# Si number density = 21.154202 Si / 1000 Ang^3
#
#
#
# Elastic Constant Matrix: (Units=GPa)
#
#
# Indices 1 2 3 4 5 6 
#
# 1 41.1975 29.1017 28.7600 0.0000 14.3134 0.0000
# 2 29.1017 115.3471 68.2148 0.0000 5.2280 0.0000
# 3 28.7600 68.2148 139.5996 0.0000 4.5942 0.0000
# 4 0.0000 0.0000 0.0000 32.8771 0.0000 2.4690
# 5 14.3134 5.2280 4.5942 0.0000 29.8674 0.0000
# 6 0.0000 0.0000 0.0000 2.4690 0.0000 29.5054
#
#
#
# Elastic Compliance Matrix: (Units=1/GPa)
#
#
# Indices 1 2 3 4 5 6 
#
# 1 0.037091 -0.006221 -0.004073 0.000000 -0.016060 0.000000
# 2 -0.006221 0.013281 -0.005256 0.000000 0.001465 0.000000
# 3 -0.004073 -0.005256 0.010530 0.000000 0.001252 0.000000
# 4 0.000000 0.000000 0.000000 0.030609 0.000000 -0.002561
# 5 -0.016060 0.001465 0.001252 0.000000 0.040729 0.000000
# 6 0.000000 0.000000 0.000000 -0.002561 0.000000 0.034106
#
#
# Mechanical properties :
#
#
# Convention : Reuss Voigt Hill
#
# Bulk Modulus (GPa) = 33.55618 60.92189 47.23904
# Shear Modulus (GPa) = 24.11030 29.78782 26.94906
#
# Velocity S-wave (km/s) = 3.37967 3.75657 3.57309
# Velocity P-wave (km/s) = 5.57912 6.90487 6.27710
#
# Compressibility (1/GPa) = 0.02980077
#
# Stress axis : x y z
#
# Youngs Moduli (GPa) = 26.96077 75.29411 94.96955
#
# Poissons Ratio (x) = 0.46844 0.38679
# Poissons Ratio (y) = 0.16773 0.49919
# Poissons Ratio (z) = 0.10981 0.39577
#
# Static dielectric constant tensor:
#      x y z
#    x 3.725770 0.000000 0.012540 
#    y 0.000000 3.932580 0.000000 
#    z 0.012540 0.000000 3.816640 
# 
# 
# High freq. dielectric constant tensor:
#      x y z
#    x 1.831120 0.000000 0.000000 
#    y 0.000000 1.825740 0.000000 
#    z 0.000000 0.000000 1.828400 
# 
# From -- ./inp_files/250130.got.cif
#   From: 2010.06.25/outbox.cif.g09.slc.cpg/sg12_126_cif.got.tgz:250130.got - 2010.06.28 00:19:55.
