data_PCOD8096491
_publ_section_title
;
Structure prediction by ZEFSAII (Michael W. Deem and Ramdas Pophale) SiO2 
 PCOD8096491
Probable space group: C 2/M
;
_chemical_formula_sum "Si O2"
_cell_formula_units_Z 56
_cell_length_a 28.327256
_cell_length_b 9.275537
_cell_length_c 19.378025
_cell_angle_alpha 90.000000
_cell_angle_beta 144.512839
_cell_angle_gamma 90.000000
_cell_volume 2955.770095
_symmetry_space_group_name_H-M "C 2/M"
_symmetry_group_IT_number 12
_symmetry_cell_setting 'monoclinic'
loop_
_space_group_symop_operation_xyz
x,y,z
-x,y,-z
-x,-y,-z
x,-y,z
1/2+x,1/2+y,z
1/2-x,1/2+y,-z
1/2-x,1/2-y,-z
1/2+x,1/2-y,z
loop_
_atom_site_type_symbol
_atom_site_label
_atom_site_fract_x
_atom_site_fract_y
_atom_site_fract_z
Si Si1 0.217991 0.669081 0.894991
Si Si2 0.037873 0.329055 0.697296
Si Si3 0.774178 0.170579 0.813161
Si Si4 0.434484 0.171694 0.979389
Si Si5 0.181337 0.334988 0.456300
Si Si6 0.497052 0.166005 0.796961
Si Si7 0.867365 0.671035 0.452419
O O1 0.223260 0.500000 0.916752
O O2 0.124298 0.714299 0.767719
O O3 0.269906 0.711277 0.889269
O O4 0.250000 0.750000 0.000000
O O5 0.028117 0.500000 0.692131
O O6 0.032674 0.263549 0.769039
O O7 0.961583 0.272171 0.559836
O O8 0.689565 0.224966 0.677730
O O9 0.785550 0.000000 0.816399
O O10 0.847685 0.252963 0.862836
O O11 0.465250 0.235491 0.089330
O O12 0.422793 0.000000 0.964361
O O13 0.500000 0.219144 0.000000
O O14 0.208162 0.500000 0.491549
O O15 0.250000 0.250000 0.500000
O O16 0.099577 0.314816 0.315046
O O17 0.169855 0.273423 0.519736
O O18 0.521841 0.000000 0.827761
O O19 0.869468 0.500000 0.454894
#
# Coordination Sequence:
#
# PCOD8096491 Si02
#       7
#     8   8   8   8   8   8   8
#     4  10  20  33  54  81 105 135 174 213 255 305
#     4   8  14  28  51  74  97 131 170 207 248 297
#     4  10  21  35  51  77 109 134 165 215 267 310
#     4  10  21  35  52  73  99 138 180 212 249 304
#     4   9  17  29  48  70  93 125 163 206 251 294
#     4   8  15  29  47  68  94 124 164 208 245 288
#     4   8  16  31  49  72 103 134 165 206 257 306
#
# _framework density 18.945992
#
# number of rings (size 3 to 8) (size 9 to 14) (size 15 to 20)
#    0.000    3.000    0.000    2.571    2.000    2.571 
#    0.000    3.571    0.000    4.286    0.000    2.000 
#    0.000    0.000    0.000    0.000    0.000    0.000 
#
# Total GULP energy -346973.378497 kJ/mol
# GULP energy per Si atom -12391.906375 kJ/mol
# Density = 1.890287 g / cm^3
# Si number density = 18.945992 Si / 1000 Ang^3
#
#
#
# Elastic Constant Matrix: (Units=GPa)
#
#
# Indices 1 2 3 4 5 6 
#
# 1 107.0661 30.0100 51.5144 0.0000 17.5375 0.0000
# 2 30.0100 26.8740 25.0719 0.0000 6.6543 0.0000
# 3 51.5144 25.0719 120.8289 0.0000 -0.6705 0.0000
# 4 0.0000 0.0000 0.0000 20.2707 0.0000 2.4044
# 5 17.5375 6.6543 -0.6705 0.0000 28.3347 0.0000
# 6 0.0000 0.0000 0.0000 2.4044 0.0000 23.1167
#
#
#
# Elastic Compliance Matrix: (Units=1/GPa)
#
#
# Indices 1 2 3 4 5 6 
#
# 1 0.015976 -0.011994 -0.004362 0.000000 -0.007175 0.000000
# 2 -0.011994 0.058898 -0.007144 0.000000 -0.006578 0.000000
# 3 -0.004362 -0.007144 0.011644 0.000000 0.004653 0.000000
# 4 0.000000 0.000000 0.000000 0.049948 0.000000 -0.005195
# 5 -0.007175 -0.006578 0.004653 0.000000 0.041388 0.000000
# 6 0.000000 0.000000 0.000000 -0.005195 0.000000 0.043799
#
#
# Mechanical properties :
#
#
# Convention : Reuss Voigt Hill
#
# Bulk Modulus (GPa) = 25.30543 51.99575 38.65059
# Shear Modulus (GPa) = 17.74139 24.22264 20.98201
#
# Velocity S-wave (km/s) = 3.06342 3.57950 3.33147
# Velocity P-wave (km/s) = 5.08904 6.67739 5.93658
#
# Compressibility (1/GPa) = 0.03951721
#
# Stress axis : x y z
#
# Youngs Moduli (GPa) = 62.59401 16.97851 85.87931
#
# Poissons Ratio (x) = 0.20364 0.37463
# Poissons Ratio (y) = 0.75075 0.61354
# Poissons Ratio (z) = 0.27305 0.12130
#
# Static dielectric constant tensor:
#      x y z
#    x 3.348200 0.000000 0.155140 
#    y 0.000000 2.911490 0.000000 
#    z 0.155140 0.000000 3.699960 
# 
# 
# High freq. dielectric constant tensor:
#      x y z
#    x 1.739910 0.000000 0.004720 
#    y 0.000000 1.674370 0.000000 
#    z 0.004720 0.000000 1.750020 
# 
# From -- ./inp_files/292511.got.cif
#   From: 2010.06.25/outbox.cif.g09.slc.cpg/sg12_147_cif.got.tgz:292511.got - 2010.06.28 00:19:55.
