data_PCOD8096973
_publ_section_title
;
Structure prediction by ZEFSAII (Michael W. Deem and Ramdas Pophale) SiO2 
 PCOD8096973
Probable space group: C 2/M
;
_chemical_formula_sum "Si O2"
_cell_formula_units_Z 48
_cell_length_a 25.205087
_cell_length_b 13.631864
_cell_length_c 23.721373
_cell_angle_alpha 90.000000
_cell_angle_beta 160.243275
_cell_angle_gamma 90.000000
_cell_volume 2755.084328
_symmetry_space_group_name_H-M "C 2/M"
_symmetry_group_IT_number 12
_symmetry_cell_setting 'monoclinic'
loop_
_space_group_symop_operation_xyz
x,y,z
-x,y,-z
-x,-y,-z
x,-y,z
1/2+x,1/2+y,z
1/2-x,1/2+y,-z
1/2-x,1/2-y,-z
1/2+x,1/2-y,z
loop_
_atom_site_type_symbol
_atom_site_label
_atom_site_fract_x
_atom_site_fract_y
_atom_site_fract_z
Si Si1 0.567476 0.794621 0.236600
Si Si2 0.566634 0.611358 0.843340
Si Si3 0.065987 0.113309 0.626247
Si Si4 0.432516 0.705378 0.601641
Si Si5 0.933365 0.611359 0.210070
Si Si6 0.565992 0.886691 0.005733
O O1 0.529562 0.680602 0.210427
O O2 0.749996 0.814153 0.428765
O O3 0.470961 0.863098 0.182855
O O4 0.520004 0.819756 0.125830
O O5 0.516812 0.500000 0.806020
O O6 0.529029 0.636900 0.740924
O O7 0.750000 0.627928 0.036912
O O8 0.000000 0.145905 0.500000
O O9 0.979989 0.180242 0.585816
O O10 0.025317 0.000000 0.597581
O O11 0.249997 0.133046 0.812377
O O12 0.470435 0.819396 0.651302
O O13 0.983189 0.500000 0.272396
O O14 0.525323 0.000000 0.953058
O O15 0.500000 0.854098 0.000000
#
# Coordination Sequence:
#
# PCOD8096973 Si02
#       6
#     8   8   8   8   8   8
#     4  11  21  32  50  75 103 133 164 202 247 296
#     4  10  20  34  52  73  99 132 168 206 247 291
#     4  10  20  34  52  74 101 132 166 204 245 291
#     4  11  21  32  50  75 103 133 164 202 247 296
#     4  10  20  34  52  73  99 132 168 206 247 291
#     4  10  20  34  52  74 101 132 166 204 245 291
#
# _framework density 17.422333999999999
#
# number of rings (size 3 to 8) (size 9 to 14) (size 15 to 20)
#    0.000    1.667    0.000    8.000    0.000    8.667 
#    0.000    0.000    0.000    1.000    0.000    0.000 
#    0.000    0.000    0.000    0.000    0.000    0.000 
#
# Total GULP energy -297715.025662 kJ/mol
# GULP energy per Si atom -12404.792736 kJ/mol
# Density = 1.738268 g / cm^3
# Si number density = 17.422334 Si / 1000 Ang^3
#
#
#
# Elastic Constant Matrix: (Units=GPa)
#
#
# Indices 1 2 3 4 5 6 
#
# 1 109.6055 51.9668 20.5668 -0.0011 -6.7295 -0.0007
# 2 51.9668 94.6885 32.9660 -0.0013 -5.5224 -0.0012
# 3 20.5668 32.9660 63.6828 -0.0065 -6.6184 -0.0033
# 4 -0.0011 -0.0013 -0.0065 22.6096 -0.0017 -1.0532
# 5 -6.7295 -5.5224 -6.6184 -0.0017 32.9761 -0.0011
# 6 -0.0007 -0.0012 -0.0033 -1.0532 -0.0011 26.2287
#
#
#
# Elastic Compliance Matrix: (Units=1/GPa)
#
#
# Indices 1 2 3 4 5 6 
#
# 1 0.012408 -0.006569 -0.000468 0.000000 0.001338 0.000000
# 2 -0.006569 0.016383 -0.006346 -0.000001 0.000129 0.000000
# 3 -0.000468 -0.006346 0.019424 0.000005 0.002740 0.000002
# 4 0.000000 -0.000001 0.000005 0.044312 0.000003 0.001779
# 5 0.001338 0.000129 0.002740 0.000003 0.031170 0.000002
# 6 0.000000 0.000000 0.000002 0.001779 0.000002 0.038198
#
#
# Mechanical properties :
#
#
# Convention : Reuss Voigt Hill
#
# Bulk Modulus (GPa) = 46.62075 53.21956 49.92015
# Shear Modulus (GPa) = 25.53511 27.19467 26.36489
#
# Velocity S-wave (km/s) = 3.83254 3.95512 3.89431
# Velocity P-wave (km/s) = 6.81188 7.17428 6.99543
#
# Compressibility (1/GPa) = 0.02144968
#
# Stress axis : x y z
#
# Youngs Moduli (GPa) = 80.59295 61.03916 51.48354
#
# Poissons Ratio (x) = 0.40096 0.02408
# Poissons Ratio (y) = 0.52940 0.32671
# Poissons Ratio (z) = 0.03770 0.38735
#
# Static dielectric constant tensor:
#      x y z
#    x 3.352670 0.000000 -0.002560 
#    y 0.000000 3.242190 0.000000 
#    z -0.002560 0.000000 3.344230 
# 
# 
# High freq. dielectric constant tensor:
#      x y z
#    x 1.664790 0.000000 0.007470 
#    y 0.000000 1.662730 0.000000 
#    z 0.007470 0.000000 1.690490 
# 
# From -- ./inp_files/103651.got.cif
#   From: 2010.06.25/outbox.cif.g09.slc.cpg/sg12_52_cif.got.tgz:103651.got - 2010.06.28 00:19:55.
