data_PCOD8096573
_publ_section_title
;
Structure prediction by ZEFSAII (Michael W. Deem and Ramdas Pophale) SiO2 
 PCOD8096573
Probable space group: C 2/M
;
_chemical_formula_sum "Si O2"
_cell_formula_units_Z 56
_cell_length_a 23.035395
_cell_length_b 9.255253
_cell_length_c 14.272101
_cell_angle_alpha 90.000000
_cell_angle_beta 110.415688
_cell_angle_gamma 90.000000
_cell_volume 2851.661020
_symmetry_space_group_name_H-M "C 2/M"
_symmetry_group_IT_number 12
_symmetry_cell_setting 'monoclinic'
loop_
_space_group_symop_operation_xyz
x,y,z
-x,y,-z
-x,-y,-z
x,-y,z
1/2+x,1/2+y,z
1/2-x,1/2+y,-z
1/2-x,1/2-y,-z
1/2+x,1/2-y,z
loop_
_atom_site_type_symbol
_atom_site_label
_atom_site_fract_x
_atom_site_fract_y
_atom_site_fract_z
Si Si1 0.312242 0.831734 0.643541
Si Si2 0.082080 0.671372 0.795772
Si Si3 0.057961 0.832282 0.598096
Si Si4 0.834454 0.165385 0.836161
Si Si5 0.057413 0.832740 0.965680
Si Si6 0.329193 0.332647 0.468895
Si Si7 0.278168 0.165160 0.101344
O O1 0.345793 0.764358 0.752482
O O2 0.341980 0.760587 0.568535
O O3 0.239043 0.799113 0.608851
O O4 0.326986 0.000000 0.648862
O O5 0.074000 0.500000 0.789997
O O6 0.049663 0.737443 0.686273
O O7 0.049316 0.735217 0.869307
O O8 0.153684 0.721543 0.835128
O O9 0.121139 0.787088 0.581124
O O10 0.000000 0.797074 0.500000
O O11 0.059546 0.000000 0.627517
O O12 0.764193 0.186083 0.831134
O O13 0.848102 0.000000 0.815401
O O14 0.880311 0.213751 0.944964
O O15 0.060342 0.000000 0.936924
O O16 0.000000 0.800940 0.000000
O O17 0.336403 0.500000 0.500653
O O18 0.280635 0.000000 0.070562
O O19 0.250000 0.250000 0.000000
#
# Coordination Sequence:
#
# PCOD8096573 Si02
#       7
#     8   8   8   8   8   8   8
#     4  10  20  33  55  84 112 144 180 226 284 339
#     4  11  23  38  59  88 119 149 183 236 299 344
#     4  10  22  40  62  84 109 149 198 238 276 335
#     4  10  20  35  55  81 112 146 185 230 276 329
#     4  10  22  40  60  80 108 152 198 232 270 332
#     4   9  19  37  57  80 110 144 184 232 281 329
#     4  10  20  34  56  85 114 147 186 229 283 339
#
# _framework density 19.637678000000001
#
# number of rings (size 3 to 8) (size 9 to 14) (size 15 to 20)
#    0.000    2.000    1.429    1.714    0.000    4.571 
#    0.000    5.714    0.000    0.000    0.000    0.000 
#    0.000    0.000    0.000    0.000    0.000    0.000 
#
# Total GULP energy -347338.251481 kJ/mol
# GULP energy per Si atom -12404.937553 kJ/mol
# Density = 1.959298 g / cm^3
# Si number density = 19.637678 Si / 1000 Ang^3
#
#
#
# Elastic Constant Matrix: (Units=GPa)
#
#
# Indices 1 2 3 4 5 6 
#
# 1 78.3786 32.6571 39.4785 0.0000 -6.2600 0.0000
# 2 32.6571 88.6791 76.7722 0.0000 -13.3016 0.0000
# 3 39.4785 76.7722 142.4642 0.0000 -18.0417 0.0000
# 4 0.0000 0.0000 0.0000 38.6303 0.0000 -4.1578
# 5 -6.2600 -13.3016 -18.0417 0.0000 24.2003 0.0000
# 6 0.0000 0.0000 0.0000 -4.1578 0.0000 24.4683
#
#
#
# Elastic Compliance Matrix: (Units=1/GPa)
#
#
# Indices 1 2 3 4 5 6 
#
# 1 0.015458 -0.003698 -0.002255 0.000000 0.000285 0.000000
# 2 -0.003698 0.022287 -0.010552 0.000000 0.003427 0.000000
# 3 -0.002255 -0.010552 0.013827 0.000000 0.003926 0.000000
# 4 0.000000 0.000000 0.000000 0.026369 0.000000 0.004481
# 5 0.000285 0.003427 0.003926 0.000000 0.046206 0.000000
# 6 0.000000 0.000000 0.000000 0.004481 0.000000 0.041631
#
#
# Mechanical properties :
#
#
# Convention : Reuss Voigt Hill
#
# Bulk Modulus (GPa) = 53.86700 67.48194 60.67447
# Shear Modulus (GPa) = 24.39333 28.16738 26.28036
#
# Velocity S-wave (km/s) = 3.52827 3.79140 3.66219
# Velocity P-wave (km/s) = 6.63989 7.32150 6.98901
#
# Compressibility (1/GPa) = 0.01856424
#
# Stress axis : x y z
#
# Youngs Moduli (GPa) = 64.69256 44.86863 72.32009
#
# Poissons Ratio (x) = 0.16591 0.16306
# Poissons Ratio (y) = 0.23921 0.76310
# Poissons Ratio (z) = 0.14587 0.47344
#
# Static dielectric constant tensor:
#      x y z
#    x 3.646980 0.000000 0.038440 
#    y 0.000000 3.500510 0.000000 
#    z 0.038440 0.000000 3.460800 
# 
# 
# High freq. dielectric constant tensor:
#      x y z
#    x 1.763260 0.000000 -0.003910 
#    y 0.000000 1.760890 0.000000 
#    z -0.003910 0.000000 1.767200 
# 
# From -- ./inp_files/237902.got.cif
#   From: 2010.06.25/outbox.cif.g09.slc.cpg/sg12_119_cif.got.tgz:237902.got - 2010.06.28 00:19:55.
