data_PCOD8096077
_publ_section_title
;
Structure prediction by ZEFSAII (Michael W. Deem and Ramdas Pophale) SiO2 
 PCOD8096077
Probable space group: C 2/M
;
_chemical_formula_sum "Si O2"
_cell_formula_units_Z 64
_cell_length_a 15.325345
_cell_length_b 9.515232
_cell_length_c 30.370048
_cell_angle_alpha 90.000000
_cell_angle_beta 128.877245
_cell_angle_gamma 90.000000
_cell_volume 3447.700590
_symmetry_space_group_name_H-M "C 2/M"
_symmetry_group_IT_number 12
_symmetry_cell_setting 'monoclinic'
loop_
_space_group_symop_operation_xyz
x,y,z
-x,y,-z
-x,-y,-z
x,-y,z
1/2+x,1/2+y,z
1/2-x,1/2+y,-z
1/2-x,1/2-y,-z
1/2+x,1/2-y,z
loop_
_atom_site_type_symbol
_atom_site_label
_atom_site_fract_x
_atom_site_fract_y
_atom_site_fract_z
Si Si1 0.205025 0.840807 0.945876
Si Si2 0.071495 0.665557 0.368459
Si Si3 0.061025 0.335949 0.761554
Si Si4 0.675850 0.665825 0.556854
Si Si5 0.998609 0.166676 0.571000
Si Si6 0.898179 0.339549 0.938703
Si Si7 0.003349 0.838655 0.175251
Si Si8 0.815677 0.161202 0.835044
O O1 0.283717 0.824435 0.928753
O O2 0.083435 0.790562 0.890500
O O3 0.201567 0.000000 0.962071
O O4 0.250000 0.750000 0.000000
O O5 0.068876 0.500000 0.378406
O O6 0.198230 0.725764 0.405037
O O7 0.011398 0.700599 0.303909
O O8 0.004626 0.748431 0.384789
O O9 0.057050 0.500000 0.771343
O O10 0.187978 0.284953 0.792801
O O11 0.006579 0.255548 0.784964
O O12 0.679780 0.500000 0.559611
O O13 0.610682 0.714916 0.580319
O O14 0.608829 0.712872 0.492080
O O15 0.998424 0.000000 0.580222
O O16 0.923595 0.500000 0.933348
O O17 0.889692 0.249997 0.892083
O O18 0.000000 0.279106 0.000000
O O19 0.128629 0.821164 0.195520
O O20 0.977879 0.000000 0.180205
O O21 0.820538 0.000000 0.852003
#
# Coordination Sequence:
#
# PCOD8096077 Si02
#       8
#     8   8   8   8   8   8   8   8
#     4  10  20  33  51  77 105 132 164 206 255 310
#     4  10  20  34  52  76 108 141 176 220 269 312
#     4  10  22  38  54  76 106 142 180 218 262 316
#     4   8  16  32  53  76 108 144 175 216 266 317
#     4   9  17  32  54  79 105 139 182 219 260 315
#     4  10  20  34  53  79 108 133 165 211 259 311
#     4  10  21  38  57  76 102 136 175 217 261 309
#     4  10  21  37  56  77 103 136 173 214 261 310
#
# _framework density 18.563096999999999
#
# number of rings (size 3 to 8) (size 9 to 14) (size 15 to 20)
#    0.000    2.375    1.250    1.875    0.000    3.250 
#    0.000    1.875    0.000    0.000    0.000    0.000 
#    0.000    0.000    0.000    0.000    0.000    0.000 
#
# Total GULP energy -396813.217491 kJ/mol
# GULP energy per Si atom -12400.413047 kJ/mol
# Density = 1.852085 g / cm^3
# Si number density = 18.563097 Si / 1000 Ang^3
#
#
#
# Elastic Constant Matrix: (Units=GPa)
#
#
# Indices 1 2 3 4 5 6 
#
# 1 95.7965 35.9744 43.6571 0.0000 -10.8283 0.0000
# 2 35.9744 53.0853 44.7708 0.0000 -16.3684 0.0000
# 3 43.6571 44.7708 94.0552 0.0000 -14.8288 0.0000
# 4 0.0000 0.0000 0.0000 21.4731 0.0000 -8.8831
# 5 -10.8283 -16.3684 -14.8288 0.0000 29.6565 0.0000
# 6 0.0000 0.0000 0.0000 -8.8831 0.0000 28.2462
#
#
#
# Elastic Compliance Matrix: (Units=1/GPa)
#
#
# Indices 1 2 3 4 5 6 
#
# 1 0.014651 -0.007094 -0.003471 0.000000 -0.000302 0.000000
# 2 -0.007094 0.038398 -0.013083 0.000000 0.012061 0.000000
# 3 -0.003471 -0.013083 0.018599 0.000000 0.000811 0.000000
# 4 0.000000 0.000000 0.000000 0.053535 0.000000 0.016836
# 5 -0.000302 0.012061 0.000811 0.000000 0.040672 0.000000
# 6 0.000000 0.000000 0.000000 0.016836 0.000000 0.040698
#
#
# Mechanical properties :
#
#
# Convention : Reuss Voigt Hill
#
# Bulk Modulus (GPa) = 41.06654 54.63795 47.85225
# Shear Modulus (GPa) = 19.08652 23.77749 21.43201
#
# Velocity S-wave (km/s) = 3.21003 3.58285 3.40155
# Velocity P-wave (km/s) = 5.99248 6.82739 6.42351
#
# Compressibility (1/GPa) = 0.02435073
#
# Stress axis : x y z
#
# Youngs Moduli (GPa) = 68.25703 26.04305 53.76660
#
# Poissons Ratio (x) = 0.18474 0.18663
# Poissons Ratio (y) = 0.48420 0.70345
# Poissons Ratio (z) = 0.23693 0.34073
#
# Static dielectric constant tensor:
#      x y z
#    x 3.636460 0.000000 0.262780 
#    y 0.000000 3.211170 0.000000 
#    z 0.262780 0.000000 3.393320 
# 
# 
# High freq. dielectric constant tensor:
#      x y z
#    x 1.732930 0.000000 0.006930 
#    y 0.000000 1.700140 0.000000 
#    z 0.006930 0.000000 1.715200 
# 
# From -- ./inp_files/375612.got.cif
#   From: 2010.06.25/outbox.cif.g09.slc.cpg/sg12_188_cif.got.tgz:375612.got - 2010.06.28 00:19:55.
