data_PCOD8096481
_publ_section_title
;
Structure prediction by ZEFSAII (Michael W. Deem and Ramdas Pophale) SiO2 
 PCOD8096481
Probable space group: C 2/M
;
_chemical_formula_sum "Si O2"
_cell_formula_units_Z 56
_cell_length_a 9.396087
_cell_length_b 22.926683
_cell_length_c 16.756692
_cell_angle_alpha 90.000000
_cell_angle_beta 55.681230
_cell_angle_gamma 90.000000
_cell_volume 2981.337763
_symmetry_space_group_name_H-M "C 2/M"
_symmetry_group_IT_number 12
_symmetry_cell_setting 'monoclinic'
loop_
_space_group_symop_operation_xyz
x,y,z
-x,y,-z
-x,-y,-z
x,-y,z
1/2+x,1/2+y,z
1/2-x,1/2+y,-z
1/2-x,1/2-y,-z
1/2+x,1/2-y,z
loop_
_atom_site_type_symbol
_atom_site_label
_atom_site_fract_x
_atom_site_fract_y
_atom_site_fract_z
Si Si1 0.492834 0.687640 0.087367
Si Si2 0.649913 0.315837 0.302379
Si Si3 0.426338 0.500000 0.399656
Si Si4 0.829265 0.689868 0.087897
Si Si5 0.808573 0.320711 0.708904
Si Si6 0.799044 0.875530 0.409505
Si Si7 0.232853 0.500000 0.626901
Si Si8 0.855356 0.376041 0.368049
O O1 0.682169 0.695542 0.066137
O O2 0.398673 0.747654 0.093751
O O3 0.364928 0.657606 0.191268
O O4 0.500000 0.652450 0.000000
O O5 0.749944 0.339766 0.191988
O O6 0.687521 0.248209 0.307007
O O7 0.448420 0.327054 0.355155
O O8 0.700404 0.352791 0.363365
O O9 0.366112 0.441476 0.373128
O O10 0.347015 0.500000 0.511923
O O11 0.634445 0.500000 0.340426
O O12 0.000000 0.655629 0.000000
O O13 0.829034 0.357619 0.621057
O O14 0.975349 0.339019 0.707583
O O15 0.699348 0.868774 0.523383
O O16 0.111163 0.443398 0.665710
#
# Coordination Sequence:
#
# PCOD8096481 Si02
#       8
#     8   8   4   8   8   8   4   8
#     4  10  20  34  54  77 110 146 184 228 273 324
#     4  11  22  35  55  82 117 150 184 219 274 343
#     4   9  18  35  61  73 102 139 197 248 260 311
#     4  10  20  33  54  79 109 144 187 227 271 326
#     4  11  24  35  51  85 120 146 181 221 279 344
#     4  11  21  39  54  82 109 151 191 227 277 313
#     4   9  18  37  55  81  96 141 202 237 272 299
#     4  11  23  35  59  77 114 151 187 234 265 327
#
# _framework density 18.783515000000001
#
# number of rings (size 3 to 8) (size 9 to 14) (size 15 to 20)
#    0.000    1.571    2.857    3.429    8.000    4.000 
#    0.000    2.143    0.000    0.000    0.000    6.000 
#    0.000    0.000    0.000    0.000    0.000    0.000 
#
# Total GULP energy -347020.650495 kJ/mol
# GULP energy per Si atom -12393.594661 kJ/mol
# Density = 1.874076 g / cm^3
# Si number density = 18.783515 Si / 1000 Ang^3
#
#
#
# Elastic Constant Matrix: (Units=GPa)
#
#
# Indices 1 2 3 4 5 6 
#
# 1 94.3644 16.6421 34.6081 0.0000 -3.0924 0.0000
# 2 16.6421 79.6433 34.1133 0.0000 3.8308 0.0000
# 3 34.6081 34.1133 72.1245 0.0000 -3.0523 0.0000
# 4 0.0000 0.0000 0.0000 3.3179 0.0000 -3.0018
# 5 -3.0924 3.8308 -3.0523 0.0000 34.3107 0.0000
# 6 0.0000 0.0000 0.0000 -3.0018 0.0000 13.0399
#
#
#
# Elastic Compliance Matrix: (Units=1/GPa)
#
#
# Indices 1 2 3 4 5 6 
#
# 1 0.012874 -0.000108 -0.006100 0.000000 0.000630 0.000000
# 2 -0.000108 0.015951 -0.007597 0.000000 -0.002467 0.000000
# 3 -0.006100 -0.007597 0.020475 0.000000 0.002120 0.000000
# 4 0.000000 0.000000 0.000000 0.380674 0.000000 0.087630
# 5 0.000630 -0.002467 0.002120 0.000000 0.029666 0.000000
# 6 0.000000 0.000000 0.000000 0.087630 0.000000 0.096860
#
#
# Mechanical properties :
#
#
# Convention : Reuss Voigt Hill
#
# Bulk Modulus (GPa) = 46.10319 46.31770 46.21044
# Shear Modulus (GPa) = 8.45538 20.85163 14.65351
#
# Velocity S-wave (km/s) = 2.12397 3.33543 2.79610
# Velocity P-wave (km/s) = 5.53288 6.28854 5.92277
#
# Compressibility (1/GPa) = 0.02169047
#
# Stress axis : x y z
#
# Youngs Moduli (GPa) = 77.67618 62.69105 48.84021
#
# Poissons Ratio (x) = 0.00675 0.29792
# Poissons Ratio (y) = 0.00836 0.37105
# Poissons Ratio (z) = 0.47381 0.47628
#
# Static dielectric constant tensor:
#      x y z
#    x 3.513540 0.000000 -0.069240 
#    y 0.000000 3.208390 0.000000 
#    z -0.069240 0.000000 4.221250 
# 
# 
# High freq. dielectric constant tensor:
#      x y z
#    x 1.747510 0.000000 0.000880 
#    y 0.000000 1.687790 0.000000 
#    z 0.000880 0.000000 1.726870 
# 
# From -- ./inp_files/198826.got.cif
#   From: 2010.06.25/outbox.cif.g09.slc.cpg/sg12_100_cif.got.tgz:198826.got - 2010.06.28 00:19:55.
