data_PCOD8096983
_publ_section_title
;
Structure prediction by ZEFSAII (Michael W. Deem and Ramdas Pophale) SiO2 
 PCOD8096983
Probable space group: C 2/M
;
_chemical_formula_sum "Si O2"
_cell_formula_units_Z 48
_cell_length_a 14.200998
_cell_length_b 9.241357
_cell_length_c 19.152215
_cell_angle_alpha 90.000000
_cell_angle_beta 89.131149
_cell_angle_gamma 90.000000
_cell_volume 2513.180527
_symmetry_space_group_name_H-M "C 2/M"
_symmetry_group_IT_number 12
_symmetry_cell_setting 'monoclinic'
loop_
_space_group_symop_operation_xyz
x,y,z
-x,y,-z
-x,-y,-z
x,-y,z
1/2+x,1/2+y,z
1/2-x,1/2+y,-z
1/2-x,1/2-y,-z
1/2+x,1/2-y,z
loop_
_atom_site_type_symbol
_atom_site_label
_atom_site_fract_x
_atom_site_fract_y
_atom_site_fract_z
Si Si1 0.283224 0.668750 0.260591
Si Si2 0.888785 0.163701 0.490845
Si Si3 0.759088 0.668524 0.895343
Si Si4 0.629049 0.834161 0.375810
Si Si5 0.605824 0.330841 0.010457
Si Si6 0.587325 0.830898 0.644318
O O1 0.310691 0.500000 0.262454
O O2 0.259123 0.720031 0.183070
O O3 0.193571 0.703936 0.309513
O O4 0.371613 0.762851 0.285315
O O5 0.839724 0.238342 0.558099
O O6 0.862254 0.251102 0.421367
O O7 0.000000 0.168526 0.500000
O O8 0.851504 0.000000 0.483621
O O9 0.783025 0.500000 0.898455
O O10 0.849998 0.751916 0.923161
O O11 0.666258 0.706489 0.941028
O O12 0.523303 0.799261 0.353412
O O13 0.638547 0.000000 0.399191
O O14 0.605774 0.500000 0.027092
O O15 0.500000 0.273405 0.000000
O O16 0.610304 0.000000 0.639569
#
# Coordination Sequence:
#
# PCOD8096983 Si02
#       6
#     8   8   8   8   8   8
#     4  10  21  36  52  73 104 138 169 205 252 303
#     4   9  17  31  52  75  98 128 170 217 258 299
#     4   9  19  35  53  76 106 136 168 206 246 295
#     4   9  19  35  52  71  99 134 170 211 258 304
#     4   9  18  34  56  80 105 134 167 204 248 295
#     4  10  20  34  52  74 100 132 171 213 257 303
#
# _framework density 19.099305000000001
#
# number of rings (size 3 to 8) (size 9 to 14) (size 15 to 20)
#    0.000    2.667    0.000    1.000    0.000    6.333 
#    0.000    0.000    0.000    0.000    0.000    0.000 
#    0.000    0.000    0.000    0.000    0.000    0.000 
#
# Total GULP energy -297680.958388 kJ/mol
# GULP energy per Si atom -12403.373266 kJ/mol
# Density = 1.905583 g / cm^3
# Si number density = 19.099305 Si / 1000 Ang^3
#
#
#
# Elastic Constant Matrix: (Units=GPa)
#
#
# Indices 1 2 3 4 5 6 
#
# 1 76.5858 29.0751 35.5673 0.0000 12.7296 0.0000
# 2 29.0751 72.1951 44.9183 0.0000 11.4374 0.0000
# 3 35.5673 44.9183 133.5169 0.0000 18.4459 0.0000
# 4 0.0000 0.0000 0.0000 33.9769 0.0000 8.0158
# 5 12.7296 11.4374 18.4459 0.0000 26.7778 0.0000
# 6 0.0000 0.0000 0.0000 8.0158 0.0000 24.8077
#
#
#
# Elastic Compliance Matrix: (Units=1/GPa)
#
#
# Indices 1 2 3 4 5 6 
#
# 1 0.016573 -0.004568 -0.002276 0.000000 -0.004360 0.000000
# 2 -0.004568 0.019131 -0.004852 0.000000 -0.002657 0.000000
# 3 -0.002276 -0.004852 0.010270 0.000000 -0.003920 0.000000
# 4 0.000000 0.000000 0.000000 0.031860 0.000000 -0.010295
# 5 -0.004360 -0.002657 -0.003920 0.000000 0.043252 0.000000
# 6 0.000000 0.000000 0.000000 -0.010295 0.000000 0.043636
#
#
# Mechanical properties :
#
#
# Convention : Reuss Voigt Hill
#
# Bulk Modulus (GPa) = 44.28266 55.71326 49.99796
# Shear Modulus (GPa) = 25.55693 28.62828 27.09260
#
# Velocity S-wave (km/s) = 3.66198 3.87579 3.77040
# Velocity P-wave (km/s) = 6.41217 7.01873 6.72230
#
# Compressibility (1/GPa) = 0.02258220
#
# Stress axis : x y z
#
# Youngs Moduli (GPa) = 60.33935 52.27169 97.37208
#
# Poissons Ratio (x) = 0.23877 0.22160
# Poissons Ratio (y) = 0.27562 0.47246
# Poissons Ratio (z) = 0.13732 0.25363
#
# Static dielectric constant tensor:
#      x y z
#    x 3.468650 0.000000 0.040820 
#    y 0.000000 3.478160 0.000000 
#    z 0.040820 0.000000 3.526890 
# 
# 
# High freq. dielectric constant tensor:
#      x y z
#    x 1.743570 0.000000 0.005000 
#    y 0.000000 1.739750 0.000000 
#    z 0.005000 0.000000 1.738970 
# 
# From -- ./inp_files/267624.got.cif
#   From: 2010.06.25/outbox.cif.g09.slc.cpg/sg12_134_cif.got.tgz:267624.got - 2010.06.28 00:19:55.
