data_PCOD8096295
_publ_section_title
;
Structure prediction by ZEFSAII (Michael W. Deem and Ramdas Pophale) SiO2 
 PCOD8096295
Probable space group: C 2/M
;
_chemical_formula_sum "Si O2"
_cell_formula_units_Z 40
_cell_length_a 29.074229
_cell_length_b 9.441749
_cell_length_c 24.181279
_cell_angle_alpha 90.000000
_cell_angle_beta 19.566844
_cell_angle_gamma 90.000000
_cell_volume 2223.122141
_symmetry_space_group_name_H-M "C 2/M"
_symmetry_group_IT_number 12
_symmetry_cell_setting 'monoclinic'
loop_
_space_group_symop_operation_xyz
x,y,z
-x,y,-z
-x,-y,-z
x,-y,z
1/2+x,1/2+y,z
1/2-x,1/2+y,-z
1/2-x,1/2-y,-z
1/2+x,1/2-y,z
loop_
_atom_site_type_symbol
_atom_site_label
_atom_site_fract_x
_atom_site_fract_y
_atom_site_fract_z
Si Si1 0.153903 0.341207 0.968284
Si Si2 0.623722 0.161607 0.509985
Si Si3 0.062256 0.339821 0.701585
Si Si4 0.039271 0.166194 0.393545
Si Si5 0.588635 0.662198 0.771610
O O1 0.153925 0.500000 0.942976
O O2 0.306945 0.278175 0.793192
O O3 0.096625 0.342334 0.096429
O O4 0.048441 0.244039 0.051591
O O5 0.564131 0.214248 0.636547
O O6 0.567295 0.259081 0.525887
O O7 0.789388 0.175566 0.322154
O O8 0.579224 0.000000 0.549293
O O9 0.125263 0.500000 0.632775
O O10 0.143199 0.233472 0.651925
O O11 0.000000 0.207835 0.500000
O O12 0.027665 0.000000 0.395939
O O13 0.549947 0.500000 0.803972
#
# Coordination Sequence:
#
# PCOD8096295 Si02
#       5
#     8   8   8   8   8
#     4   8  17  34  53  73 103 136 165 206 254 299
#     4  10  20  33  52  80 108 133 166 205 252 307
#     4   8  16  31  52  77 108 135 161 202 251 304
#     4  10  22  39  55  72  97 133 179 220 251 292
#     4   9  17  30  51  81 109 132 163 202 248 306
#
# _framework density 17.992712999999998
#
# number of rings (size 3 to 8) (size 9 to 14) (size 15 to 20)
#    1.200    1.800    0.000    0.600    0.000    4.400 
#    0.000    1.000    0.000    6.000    0.000    0.000 
#    0.000    0.000    0.000    0.000    0.000    0.000 
#
# Total GULP energy -247789.880363 kJ/mol
# GULP energy per Si atom -12389.494018 kJ/mol
# Density = 1.795176 g / cm^3
# Si number density = 17.992713 Si / 1000 Ang^3
#
#
#
# Elastic Constant Matrix: (Units=GPa)
#
#
# Indices 1 2 3 4 5 6 
#
# 1 93.5570 51.3104 52.0695 -0.0004 -14.8848 0.0004
# 2 51.3104 84.7995 44.9377 0.0014 -15.7799 0.0010
# 3 52.0695 44.9377 67.9984 0.0001 -20.4283 0.0005
# 4 -0.0004 0.0014 0.0001 23.7088 0.0005 -7.1306
# 5 -14.8848 -15.7799 -20.4283 0.0005 17.1713 -0.0005
# 6 0.0004 0.0010 0.0005 -7.1306 -0.0005 29.9913
#
#
#
# Elastic Compliance Matrix: (Units=1/GPa)
#
#
# Indices 1 2 3 4 5 6 
#
# 1 0.020701 -0.006463 -0.012409 0.000001 -0.002757 0.000000
# 2 -0.006463 0.020322 -0.007087 -0.000002 0.004642 -0.000001
# 3 -0.012409 -0.007087 0.036887 0.000000 0.026615 0.000000
# 4 0.000001 -0.000002 0.000000 0.045427 -0.000002 0.010801
# 5 -0.002757 0.004642 0.026615 -0.000002 0.091776 0.000000
# 6 0.000000 -0.000001 0.000000 0.010801 0.000000 0.035911
#
#
# Mechanical properties :
#
#
# Convention : Reuss Voigt Hill
#
# Bulk Modulus (GPa) = 38.47089 60.33223 49.40156
# Shear Modulus (GPa) = 16.04596 20.71011 18.37803
#
# Velocity S-wave (km/s) = 2.98955 3.39636 3.19943
# Velocity P-wave (km/s) = 5.77445 6.99890 6.41595
#
# Compressibility (1/GPa) = 0.02599368
#
# Stress axis : x y z
#
# Youngs Moduli (GPa) = 48.30789 49.20675 27.10962
#
# Poissons Ratio (x) = 0.31802 0.33639
# Poissons Ratio (y) = 0.31221 0.19212
# Poissons Ratio (z) = 0.59944 0.34872
#
# Static dielectric constant tensor:
#      x y z
#    x 2.919440 0.000000 0.039510 
#    y 0.000000 3.295920 0.000000 
#    z 0.039510 0.000000 3.326050 
# 
# 
# High freq. dielectric constant tensor:
#      x y z
#    x 1.657050 0.000000 -0.000380 
#    y 0.000000 1.697000 0.000000 
#    z -0.000380 0.000000 1.698940 
# 
# From -- ./inp_files/370387.got.cif
#   From: 2010.06.25/outbox.cif.g09.slc.cpg/sg12_186_cif.got.tgz:370387.got - 2010.06.28 00:19:55.
