data_PCOD8096304
_publ_section_title
;
Structure prediction by ZEFSAII (Michael W. Deem and Ramdas Pophale) SiO2 
 PCOD8096304
Probable space group: C 2/M
;
_chemical_formula_sum "Si O2"
_cell_formula_units_Z 64
_cell_length_a 33.931233
_cell_length_b 8.905225
_cell_length_c 17.704674
_cell_angle_alpha 90.000000
_cell_angle_beta 141.705818
_cell_angle_gamma 90.000000
_cell_volume 3315.228797
_symmetry_space_group_name_H-M "C 2/M"
_symmetry_group_IT_number 12
_symmetry_cell_setting 'monoclinic'
loop_
_space_group_symop_operation_xyz
x,y,z
-x,y,-z
-x,-y,-z
x,-y,z
1/2+x,1/2+y,z
1/2-x,1/2+y,-z
1/2-x,1/2-y,-z
1/2+x,1/2-y,z
loop_
_atom_site_type_symbol
_atom_site_label
_atom_site_fract_x
_atom_site_fract_y
_atom_site_fract_z
Si Si1 0.761505 0.324089 0.634174
Si Si2 0.535414 0.174481 0.249151
Si Si3 0.728372 0.677287 0.190997
Si Si4 0.053699 0.674365 0.451429
Si Si5 0.574630 0.326620 0.724731
Si Si6 0.093173 0.174381 0.924234
Si Si7 0.842816 0.175802 0.292530
Si Si8 0.652219 0.324399 0.352560
O O1 0.771376 0.500000 0.659855
O O2 0.752069 0.246910 0.700069
O O3 0.698593 0.285903 0.491798
O O4 0.823280 0.257119 0.685899
O O5 0.553999 0.208900 0.363124
O O6 0.463941 0.230025 0.125852
O O7 0.582201 0.264732 0.264947
O O8 0.540273 0.000000 0.237117
O O9 0.735887 0.500000 0.206242
O O10 0.775533 0.740572 0.198035
O O11 0.657107 0.725102 0.062229
O O12 0.063719 0.500000 0.484455
O O13 0.110571 0.769053 0.571693
O O14 0.986998 0.727095 0.386780
O O15 0.554301 0.500000 0.686132
O O16 0.601577 0.290565 0.848128
O O17 0.629244 0.283961 0.747511
O O18 0.078108 0.000000 0.914694
O O19 0.831955 0.000000 0.286664
O O20 0.649552 0.500000 0.331710
#
# Coordination Sequence:
#
# PCOD8096304 Si02
#       8
#     8   8   8   8   8   8   8   8
#     4  10  21  37  58  84 114 145 174 212 263 315
#     4  10  20  34  55  82 109 140 179 221 265 315
#     4  11  23  38  56  78 106 141 181 224 268 316
#     4  10  20  33  52  80 112 142 175 220 271 321
#     4   9  19  36  55  76 105 141 181 223 269 321
#     4   9  20  39  58  75 102 142 183 224 270 316
#     4  11  22  34  52  78 107 142 181 222 270 323
#     4  10  20  35  58  86 114 143 174 211 259 316
#
# _framework density 19.304850999999999
#
# number of rings (size 3 to 8) (size 9 to 14) (size 15 to 20)
#    0.000    2.000    0.000    3.375    0.000    9.000 
#    0.000    0.625    0.000    3.750    0.000    0.000 
#    0.000    0.000    0.000    0.000    0.000    0.000 
#
# Total GULP energy -396981.330210 kJ/mol
# GULP energy per Si atom -12405.666569 kJ/mol
# Density = 1.926091 g / cm^3
# Si number density = 19.304851 Si / 1000 Ang^3
#
#
#
# Elastic Constant Matrix: (Units=GPa)
#
#
# Indices 1 2 3 4 5 6 
#
# 1 102.2980 36.7567 23.8460 0.0000 27.6666 0.0000
# 2 36.7567 72.6937 26.8855 0.0000 13.6876 0.0000
# 3 23.8460 26.8855 60.7758 0.0000 17.4333 0.0000
# 4 0.0000 0.0000 0.0000 28.1950 0.0000 6.9374
# 5 27.6666 13.6876 17.4333 0.0000 24.5157 0.0000
# 6 0.0000 0.0000 0.0000 6.9374 0.0000 36.9556
#
#
#
# Elastic Compliance Matrix: (Units=1/GPa)
#
#
# Indices 1 2 3 4 5 6 
#
# 1 0.015614 -0.005251 0.000515 0.000000 -0.015055 0.000000
# 2 -0.005251 0.018723 -0.006185 0.000000 -0.000130 0.000000
# 3 0.000515 -0.006185 0.022819 0.000000 -0.013354 0.000000
# 4 0.000000 0.000000 0.000000 0.037185 0.000000 -0.006980
# 5 -0.015055 -0.000130 -0.013354 0.000000 0.067349 0.000000
# 6 0.000000 0.000000 0.000000 -0.006980 0.000000 0.028370
#
#
# Mechanical properties :
#
#
# Convention : Reuss Voigt Hill
#
# Bulk Modulus (GPa) = 28.31746 45.63821 36.97784
# Shear Modulus (GPa) = 22.35415 27.81855 25.08635
#
# Velocity S-wave (km/s) = 3.40657 3.80019 3.60875
# Velocity P-wave (km/s) = 5.49303 6.55342 6.04651
#
# Compressibility (1/GPa) = 0.03531390
#
# Stress axis : x y z
#
# Youngs Moduli (GPa) = 64.04710 53.40946 43.82373
#
# Poissons Ratio (x) = 0.28043 -0.02257
# Poissons Ratio (y) = 0.33628 0.27106
# Poissons Ratio (z) = -0.03299 0.33035
#
# Static dielectric constant tensor:
#      x y z
#    x 3.593600 0.000000 0.094770 
#    y 0.000000 3.565670 0.000000 
#    z 0.094770 0.000000 3.407190 
# 
# 
# High freq. dielectric constant tensor:
#      x y z
#    x 1.757550 0.000000 0.010000 
#    y 0.000000 1.760370 0.000000 
#    z 0.010000 0.000000 1.736220 
# 
# From -- ./inp_files/295719.got.cif
#   From: 2010.06.25/outbox.cif.g09.slc.cpg/sg12_148_cif.got.tgz:295719.got - 2010.06.28 00:19:55.
