data_PCOD8096704
_publ_section_title
;
Structure prediction by ZEFSAII (Michael W. Deem and Ramdas Pophale) SiO2 
 PCOD8096704
Probable space group: C 2/M
;
_chemical_formula_sum "Si O2"
_cell_formula_units_Z 64
_cell_length_a 20.904708
_cell_length_b 9.065851
_cell_length_c 21.271678
_cell_angle_alpha 90.000000
_cell_angle_beta 61.765463
_cell_angle_gamma 90.000000
_cell_volume 3551.725834
_symmetry_space_group_name_H-M "C 2/M"
_symmetry_group_IT_number 12
_symmetry_cell_setting 'monoclinic'
loop_
_space_group_symop_operation_xyz
x,y,z
-x,y,-z
-x,-y,-z
x,-y,z
1/2+x,1/2+y,z
1/2-x,1/2+y,-z
1/2-x,1/2-y,-z
1/2+x,1/2-y,z
loop_
_atom_site_type_symbol
_atom_site_label
_atom_site_fract_x
_atom_site_fract_y
_atom_site_fract_z
Si Si1 0.456055 0.326344 0.337592
Si Si2 0.707304 0.674714 0.835251
Si Si3 0.476158 0.671923 0.823638
Si Si4 0.724066 0.170439 0.325892
Si Si5 0.415878 0.828236 0.675336
Si Si6 0.788514 0.174120 0.424325
Si Si7 0.542522 0.675791 0.920000
Si Si8 0.835168 0.171861 0.825507
O O1 0.470267 0.500000 0.337672
O O2 0.480890 0.266351 0.257314
O O3 0.503533 0.241378 0.369368
O O4 0.372953 0.284360 0.386702
O O5 0.715702 0.500000 0.835823
O O6 0.734240 0.735177 0.754686
O O7 0.625651 0.728027 0.884944
O O8 0.757765 0.745411 0.866777
O O9 0.493705 0.500000 0.817770
O O10 0.506242 0.744058 0.873827
O O11 0.388830 0.699558 0.860074
O O12 0.636321 0.192277 0.361466
O O13 0.753389 0.241664 0.376734
O O14 0.745291 0.000000 0.318334
O O15 0.377968 0.736327 0.747098
O O16 0.421111 0.000000 0.690931
O O17 0.750000 0.250000 0.500000
O O18 0.776164 0.000000 0.434672
O O19 0.537735 0.500000 0.921332
O O20 0.500000 0.739644 0.000000
O O21 0.820735 0.000000 0.822022
#
# Coordination Sequence:
#
# PCOD8096704 Si02
#       8
#     8   8   8   8   8   8   8   8
#     4   9  17  30  49  70  93 122 151 183 227 277
#     4   9  16  28  48  71  92 116 151 192 228 265
#     4   8  14  26  45  67  89 118 154 185 220 270
#     4   8  15  29  49  69  89 118 153 187 223 267
#     4   9  16  28  49  74  95 115 147 191 229 264
#     4  10  20  34  49  66  91 122 156 190 226 268
#     4   9  16  26  43  68  94 119 153 196 230 258
#     4   9  16  27  45  68  94 121 149 185 228 274
#
# _framework density 18.019410000000001
#
# number of rings (size 3 to 8) (size 9 to 14) (size 15 to 20)
#    0.000    3.125    0.000    3.000    0.000    3.500 
#    0.000    4.375    0.000   13.875    0.000    0.000 
#    0.000    0.000    0.000    0.000    0.000    0.000 
#
# Total GULP energy -396487.827219 kJ/mol
# GULP energy per Si atom -12390.244601 kJ/mol
# Density = 1.797840 g / cm^3
# Si number density = 18.019410 Si / 1000 Ang^3
#
#
#
# Elastic Constant Matrix: (Units=GPa)
#
#
# Indices 1 2 3 4 5 6 
#
# 1 180.2391 46.0469 73.0279 0.0000 -20.2202 -0.0001
# 2 46.0469 29.2565 21.5786 -0.0002 -3.5518 -0.0002
# 3 73.0279 21.5786 90.7838 0.0000 -11.8519 0.0000
# 4 0.0000 -0.0002 0.0000 13.6391 0.0000 -3.9019
# 5 -20.2202 -3.5518 -11.8519 0.0000 10.0852 0.0000
# 6 -0.0001 -0.0002 0.0000 -3.9019 0.0000 29.2476
#
#
#
# Elastic Compliance Matrix: (Units=1/GPa)
#
#
# Indices 1 2 3 4 5 6 
#
# 1 0.013145 -0.015169 -0.004991 0.000000 0.015147 0.000000
# 2 -0.015169 0.059060 -0.003651 0.000001 -0.013904 0.000000
# 3 -0.004991 -0.003651 0.017038 0.000000 0.008730 0.000000
# 4 0.000000 0.000001 0.000000 0.076228 0.000000 0.010169
# 5 0.015147 -0.013904 0.008730 0.000000 0.134887 0.000000
# 6 0.000000 0.000000 0.000000 0.010169 0.000000 0.035547
#
#
# Mechanical properties :
#
#
# Convention : Reuss Voigt Hill
#
# Bulk Modulus (GPa) = 24.02679 64.62069 44.32374
# Shear Modulus (GPa) = 12.58180 21.23613 16.90897
#
# Velocity S-wave (km/s) = 2.64528 3.43667 3.06661
# Velocity P-wave (km/s) = 4.76370 7.18938 6.09836
#
# Compressibility (1/GPa) = 0.04162021
#
# Stress axis : x y z
#
# Youngs Moduli (GPa) = 76.07450 16.93204 58.69390
#
# Poissons Ratio (x) = 0.25684 0.29294
# Poissons Ratio (y) = 1.15396 0.21430
# Poissons Ratio (z) = 0.37969 0.06182
#
# Static dielectric constant tensor:
#      x y z
#    x 4.079550 0.000000 0.029130 
#    y 0.000000 3.068320 0.000000 
#    z 0.029130 0.000000 3.143550 
# 
# 
# High freq. dielectric constant tensor:
#      x y z
#    x 1.724800 0.000000 -0.003640 
#    y 0.000000 1.658130 0.000000 
#    z -0.003640 0.000000 1.657530 
# 
# From -- ./inp_files/319909.got.cif
#   From: 2010.06.25/outbox.cif.g09.slc.cpg/sg12_160_cif.got.tgz:319909.got - 2010.06.28 00:19:55.
