data_PCOD8096845
_publ_section_title
;
Structure prediction by ZEFSAII (Michael W. Deem and Ramdas Pophale) SiO2 
 PCOD8096845
Probable space group: C 2/M
;
_chemical_formula_sum "Si O2"
_cell_formula_units_Z 48
_cell_length_a 32.543279
_cell_length_b 10.228269
_cell_length_c 8.727481
_cell_angle_alpha 90.000000
_cell_angle_beta 112.742607
_cell_angle_gamma 90.000000
_cell_volume 2679.177163
_symmetry_space_group_name_H-M "C 2/M"
_symmetry_group_IT_number 12
_symmetry_cell_setting 'monoclinic'
loop_
_space_group_symop_operation_xyz
x,y,z
-x,y,-z
-x,-y,-z
x,-y,z
1/2+x,1/2+y,z
1/2-x,1/2+y,-z
1/2-x,1/2-y,-z
1/2+x,1/2-y,z
loop_
_atom_site_type_symbol
_atom_site_label
_atom_site_fract_x
_atom_site_fract_y
_atom_site_fract_z
Si Si1 0.314248 0.282621 0.178710
Si Si2 0.888832 0.854940 0.509536
Si Si3 0.266551 0.357495 0.816005
Si Si4 0.854974 0.846785 0.795021
Si Si5 0.117722 0.353520 0.922192
Si Si6 0.551305 0.149042 0.561523
O O1 0.350138 0.363476 0.326643
O O2 0.276623 0.233747 0.242927
O O3 0.339551 0.164171 0.127972
O O4 0.290295 0.370369 0.016499
O O5 0.867440 0.814752 0.639908
O O6 0.926110 0.747950 0.525734
O O7 0.910430 0.000000 0.549628
O O8 0.249602 0.500000 0.743271
O O9 0.303038 0.307539 0.745369
O O10 0.862580 0.000000 0.848047
O O11 0.884671 0.755436 0.948391
O O12 0.120406 0.500000 0.995769
O O13 0.072676 0.335702 0.760004
O O14 0.500000 0.188097 0.500000
O O15 0.557255 0.000000 0.510041
#
# Coordination Sequence:
#
# PCOD8096845 Si02
#       6
#     8   8   8   8   8   8
#     4   9  17  28  47  70  95 128 169 209 244 280
#     4  10  20  34  51  73 101 131 164 200 243 293
#     4   9  16  28  45  66  95 131 169 205 243 284
#     4   9  19  33  48  70 102 136 166 200 241 287
#     4   9  17  31  51  73  97 126 162 201 244 294
#     4   9  19  36  57  79  99 121 156 202 247 294
#
# _framework density 17.915949000000001
#
# number of rings (size 3 to 8) (size 9 to 14) (size 15 to 20)
#    0.000    2.833    0.000    1.000    0.000    6.333 
#    0.000    1.667    0.000    5.000    0.000    0.000 
#    0.000    0.000    0.000    0.000    0.000    0.000 
#
# Total GULP energy -297475.497191 kJ/mol
# GULP energy per Si atom -12394.812383 kJ/mol
# Density = 1.787517 g / cm^3
# Si number density = 17.915949 Si / 1000 Ang^3
#
#
#
# Elastic Constant Matrix: (Units=GPa)
#
#
# Indices 1 2 3 4 5 6 
#
# 1 105.4222 47.7887 35.8070 0.0000 -2.6630 0.0000
# 2 47.7887 89.8054 27.6684 0.0000 -8.4117 0.0000
# 3 35.8070 27.6684 50.4540 0.0000 -9.8637 0.0000
# 4 0.0000 0.0000 0.0000 21.0190 0.0000 -6.8185
# 5 -2.6630 -8.4117 -9.8637 0.0000 27.9013 0.0000
# 6 0.0000 0.0000 0.0000 -6.8185 0.0000 21.9619
#
#
#
# Elastic Compliance Matrix: (Units=1/GPa)
#
#
# Indices 1 2 3 4 5 6 
#
# 1 0.014656 -0.005653 -0.007907 0.000000 -0.003101 0.000000
# 2 -0.005653 0.015642 -0.004028 0.000000 0.002752 0.000000
# 3 -0.007907 -0.004028 0.029279 0.000000 0.008382 0.000000
# 4 0.000000 0.000000 0.000000 0.052904 0.000000 0.016425
# 5 -0.003101 0.002752 0.008382 0.000000 0.039338 0.000000
# 6 0.000000 0.000000 0.000000 0.016425 0.000000 0.050633
#
#
# Mechanical properties :
#
#
# Convention : Reuss Voigt Hill
#
# Bulk Modulus (GPa) = 40.98254 52.02331 46.50292
# Shear Modulus (GPa) = 20.34489 23.13760 21.74124
#
# Velocity S-wave (km/s) = 3.37348 3.59758 3.48733
# Velocity P-wave (km/s) = 6.17239 6.80861 6.49829
#
# Compressibility (1/GPa) = 0.02440064
#
# Stress axis : x y z
#
# Youngs Moduli (GPa) = 68.23315 63.92972 34.15389
#
# Poissons Ratio (x) = 0.36140 0.27006
# Poissons Ratio (y) = 0.38573 0.13757
# Poissons Ratio (z) = 0.53953 0.25750
#
# Static dielectric constant tensor:
#      x y z
#    x 3.233170 0.000000 -0.002040 
#    y 0.000000 3.288310 0.000000 
#    z -0.002040 0.000000 3.126820 
# 
# 
# High freq. dielectric constant tensor:
#      x y z
#    x 1.682170 0.000000 -0.001440 
#    y 0.000000 1.696100 0.000000 
#    z -0.001440 0.000000 1.673180 
# 
# From -- ./inp_files/109502.got.cif
#   From: 2010.06.25/outbox.cif.g09.slc.cpg/sg12_55_cif.got.tgz:109502.got - 2010.06.28 00:19:55.
