data_PCOD8096360
_publ_section_title
;
Structure prediction by ZEFSAII (Michael W. Deem and Ramdas Pophale) SiO2 
 PCOD8096360
Probable space group: C 2/M
;
_chemical_formula_sum "Si O2"
_cell_formula_units_Z 56
_cell_length_a 18.966889
_cell_length_b 8.848433
_cell_length_c 21.745604
_cell_angle_alpha 90.000000
_cell_angle_beta 123.993382
_cell_angle_gamma 90.000000
_cell_volume 3025.812338
_symmetry_space_group_name_H-M "C 2/M"
_symmetry_group_IT_number 12
_symmetry_cell_setting 'monoclinic'
loop_
_space_group_symop_operation_xyz
x,y,z
-x,y,-z
-x,-y,-z
x,-y,z
1/2+x,1/2+y,z
1/2-x,1/2+y,-z
1/2-x,1/2-y,-z
1/2+x,1/2-y,z
loop_
_atom_site_type_symbol
_atom_site_label
_atom_site_fract_x
_atom_site_fract_y
_atom_site_fract_z
Si Si1 0.474931 0.825628 0.418739
Si Si2 0.174913 0.321173 0.004197
Si Si3 0.735913 0.174878 0.395089
Si Si4 0.873943 0.825594 0.561693
Si Si5 0.500224 0.671615 0.927109
Si Si6 0.781515 0.675547 0.296580
Si Si7 0.172042 0.677426 0.145017
O O1 0.500000 0.784622 0.500000
O O2 0.528421 0.716666 0.400704
O O3 0.378548 0.784854 0.357701
O O4 0.495777 0.000000 0.414737
O O5 0.175339 0.500000 0.994427
O O6 0.188247 0.275956 0.082057
O O7 0.250000 0.250000 0.000000
O O8 0.082354 0.257148 0.938775
O O9 0.821996 0.213269 0.474287
O O10 0.656387 0.220532 0.397774
O O11 0.728635 0.272230 0.329935
O O12 0.730614 0.000000 0.374803
O O13 0.862718 0.000000 0.574413
O O14 0.502087 0.500000 0.903796
O O15 0.411832 0.749554 0.864408
O O16 0.500000 0.679933 0.000000
O O17 0.765913 0.500000 0.277137
O O18 0.753496 0.765991 0.222424
O O19 0.160832 0.500000 0.145110
#
# Coordination Sequence:
#
# PCOD8096360 Si02
#       7
#     8   8   8   8   8   8   8
#     4  10  20  35  54  77 107 143 184 233 284 336
#     4  10  20  35  58  87 117 149 185 227 273 325
#     4  10  20  34  53  76 104 137 175 223 277 330
#     4  10  20  33  53  78 103 133 177 229 276 328
#     4   9  17  32  56  83 110 142 182 223 263 317
#     4  11  22  36  56  80 109 145 185 229 280 334
#     4  10  21  37  56  81 114 148 183 226 276 328
#
# _framework density 18.507425999999999
#
# number of rings (size 3 to 8) (size 9 to 14) (size 15 to 20)
#    0.000    2.000    1.429    2.571    0.000    6.000 
#    0.000    1.429    0.000    3.429    0.000    0.000 
#    0.000    0.000    0.000    0.000    0.000    0.000 
#
# Total GULP energy -347239.788394 kJ/mol
# GULP energy per Si atom -12401.421014 kJ/mol
# Density = 1.846530 g / cm^3
# Si number density = 18.507426 Si / 1000 Ang^3
#
#
#
# Elastic Constant Matrix: (Units=GPa)
#
#
# Indices 1 2 3 4 5 6 
#
# 1 122.1737 51.5613 42.5621 0.0000 8.8692 0.0000
# 2 51.5613 72.3330 31.5212 0.0000 3.0108 0.0000
# 3 42.5621 31.5212 82.3925 0.0000 7.8789 0.0000
# 4 0.0000 0.0000 0.0000 30.0852 0.0000 1.9611
# 5 8.8692 3.0108 7.8789 0.0000 20.4506 0.0000
# 6 0.0000 0.0000 0.0000 1.9611 0.0000 37.4451
#
#
#
# Elastic Compliance Matrix: (Units=1/GPa)
#
#
# Indices 1 2 3 4 5 6 
#
# 1 0.012760 -0.007469 -0.003437 0.000000 -0.003110 0.000000
# 2 -0.007469 0.020962 -0.004336 0.000000 0.001823 0.000000
# 3 -0.003437 -0.004336 0.015955 0.000000 -0.004018 0.000000
# 4 0.000000 0.000000 0.000000 0.033353 0.000000 -0.001747
# 5 -0.003110 0.001823 -0.004018 0.000000 0.051527 0.000000
# 6 0.000000 0.000000 0.000000 -0.001747 0.000000 0.026797
#
#
# Mechanical properties :
#
#
# Convention : Reuss Voigt Hill
#
# Bulk Modulus (GPa) = 52.09632 58.68761 55.39196
# Shear Modulus (GPa) = 25.22239 27.67981 26.45110
#
# Velocity S-wave (km/s) = 3.69565 3.87150 3.78460
# Velocity P-wave (km/s) = 6.81325 7.19471 7.00658
#
# Compressibility (1/GPa) = 0.01919522
#
# Stress axis : x y z
#
# Youngs Moduli (GPa) = 78.36845 47.70426 62.67432
#
# Poissons Ratio (x) = 0.35629 0.21540
# Poissons Ratio (y) = 0.58531 0.27175
# Poissons Ratio (z) = 0.26934 0.20684
#
# Static dielectric constant tensor:
#      x y z
#    x 3.375630 0.000000 0.094850 
#    y 0.000000 3.435250 0.000000 
#    z 0.094850 0.000000 3.259870 
# 
# 
# High freq. dielectric constant tensor:
#      x y z
#    x 1.718060 0.000000 0.007690 
#    y 0.000000 1.730990 0.000000 
#    z 0.007690 0.000000 1.693150 
# 
# From -- ./inp_files/313727.got.cif
#   From: 2010.06.25/outbox.cif.g09.slc.cpg/sg12_157_cif.got.tgz:313727.got - 2010.06.28 00:19:55.
