data_PCOD8096933
_publ_section_title
;
Structure prediction by ZEFSAII (Michael W. Deem and Ramdas Pophale) SiO2 
 PCOD8096933
Probable space group: C 2/M
;
_chemical_formula_sum "Si O2"
_cell_formula_units_Z 40
_cell_length_a 9.827338
_cell_length_b 28.559044
_cell_length_c 16.190931
_cell_angle_alpha 90.000000
_cell_angle_beta 148.316747
_cell_angle_gamma 90.000000
_cell_volume 2386.684822
_symmetry_space_group_name_H-M "C 2/M"
_symmetry_group_IT_number 12
_symmetry_cell_setting 'monoclinic'
loop_
_space_group_symop_operation_xyz
x,y,z
-x,y,-z
-x,-y,-z
x,-y,z
1/2+x,1/2+y,z
1/2-x,1/2+y,-z
1/2-x,1/2-y,-z
1/2+x,1/2-y,z
loop_
_atom_site_type_symbol
_atom_site_label
_atom_site_fract_x
_atom_site_fract_y
_atom_site_fract_z
Si Si1 0.570332 0.366185 0.630992
Si Si2 0.733178 0.446963 0.815034
Si Si3 0.757892 0.723136 0.816265
Si Si4 0.279402 0.289882 0.681532
Si Si5 0.219351 0.890440 0.369191
O O1 0.500000 0.362643 0.500000
O O2 0.738301 0.413429 0.736778
O O3 0.733965 0.321058 0.742483
O O4 0.307771 0.369637 0.550948
O O5 0.677148 0.500000 0.758020
O O6 0.505134 0.429248 0.760091
O O7 0.000000 0.442779 0.000000
O O8 0.500122 0.731464 0.736578
O O9 0.808645 0.769113 0.788073
O O10 0.000000 0.713370 0.000000
O O11 0.313257 0.346061 0.708659
O O12 0.000000 0.276410 0.500000
O O13 0.500000 0.913939 0.500000
#
# Coordination Sequence:
#
# PCOD8096933 Si02
#       5
#     8   8   8   8   8
#     4   9  19  33  53  77 104 135 172 214 252 303
#     4   9  18  34  58  80 102 133 169 213 261 306
#     4  11  21  34  51  77 104 138 177 216 253 300
#     4  10  20  34  52  72 106 141 174 210 254 306
#     4   8  18  33  52  76 106 132 173 211 252 306
#
# _framework density 16.759647999999999
#
# number of rings (size 3 to 8) (size 9 to 14) (size 15 to 20)
#    1.200    1.400    0.000    2.400    0.000    4.000 
#    0.000    0.000    0.000    0.000    0.000    2.800 
#    0.000    0.000    0.000    0.000    0.000    0.000 
#
# Total GULP energy -247814.482390 kJ/mol
# GULP energy per Si atom -12390.724120 kJ/mol
# Density = 1.672150 g / cm^3
# Si number density = 16.759648 Si / 1000 Ang^3
#
#
#
# Elastic Constant Matrix: (Units=GPa)
#
#
# Indices 1 2 3 4 5 6 
#
# 1 83.3034 33.8035 46.9153 0.0000 16.4453 0.0000
# 2 33.8035 81.3473 49.2291 0.0000 4.9948 0.0000
# 3 46.9153 49.2291 110.1686 0.0000 1.6805 0.0000
# 4 0.0000 0.0000 0.0000 67.5870 0.0000 10.3199
# 5 16.4453 4.9948 1.6805 0.0000 24.0958 0.0000
# 6 0.0000 0.0000 0.0000 10.3199 0.0000 25.0254
#
#
#
# Elastic Compliance Matrix: (Units=1/GPa)
#
#
# Indices 1 2 3 4 5 6 
#
# 1 0.019487 -0.003347 -0.006618 0.000000 -0.012144 0.000000
# 2 -0.003347 0.017640 -0.006443 0.000000 -0.000923 0.000000
# 3 -0.006618 -0.006443 0.014700 0.000000 0.004827 0.000000
# 4 0.000000 0.000000 0.000000 0.015790 0.000000 -0.006511
# 5 -0.012144 -0.000923 0.004827 0.000000 0.049644 0.000000
# 6 0.000000 0.000000 0.000000 -0.006511 0.000000 0.042645
#
#
# Mechanical properties :
#
#
# Convention : Reuss Voigt Hill
#
# Bulk Modulus (GPa) = 52.59899 59.41278 56.00588
# Shear Modulus (GPa) = 25.11827 32.99973 29.05900
#
# Velocity S-wave (km/s) = 3.87555 4.44215 4.16849
# Velocity P-wave (km/s) = 7.17488 7.86366 7.52715
#
# Compressibility (1/GPa) = 0.01901177
#
# Stress axis : x y z
#
# Youngs Moduli (GPa) = 51.31619 56.69082 68.02528
#
# Poissons Ratio (x) = 0.18976 0.45016
# Poissons Ratio (y) = 0.17177 0.43827
# Poissons Ratio (z) = 0.33959 0.36524
#
# Static dielectric constant tensor:
#      x y z
#    x 3.124940 0.000000 0.168480 
#    y 0.000000 3.199130 0.000000 
#    z 0.168480 0.000000 2.892010 
# 
# 
# High freq. dielectric constant tensor:
#      x y z
#    x 1.638790 0.000000 0.015750 
#    y 0.000000 1.645030 0.000000 
#    z 0.015750 0.000000 1.626950 
# 
# From -- ./inp_files/125477.got.cif
#   From: 2010.06.25/outbox.cif.g09.slc.cpg/sg12_63_cif.got.tgz:125477.got - 2010.06.28 00:19:55.
