data_PCOD8096689
_publ_section_title
;
Structure prediction by ZEFSAII (Michael W. Deem and Ramdas Pophale) SiO2 
 PCOD8096689
Probable space group: C 2/M
;
_chemical_formula_sum "Si O2"
_cell_formula_units_Z 48
_cell_length_a 19.142714
_cell_length_b 14.511265
_cell_length_c 9.164422
_cell_angle_alpha 90.000000
_cell_angle_beta 134.204491
_cell_angle_gamma 90.000000
_cell_volume 1824.928121
_symmetry_space_group_name_H-M "C 2/M"
_symmetry_group_IT_number 12
_symmetry_cell_setting 'monoclinic'
loop_
_space_group_symop_operation_xyz
x,y,z
-x,y,-z
-x,-y,-z
x,-y,z
1/2+x,1/2+y,z
1/2-x,1/2+y,-z
1/2-x,1/2-y,-z
1/2+x,1/2-y,z
loop_
_atom_site_type_symbol
_atom_site_label
_atom_site_fract_x
_atom_site_fract_y
_atom_site_fract_z
Si Si1 0.193575 0.684822 0.310479
Si Si2 0.040579 0.000000 0.396646
Si Si3 0.875830 0.187003 0.422836
Si Si4 0.223341 0.500000 0.510673
Si Si5 0.653803 0.500000 0.049112
Si Si6 0.477886 0.000000 0.641189
Si Si7 0.163333 0.195082 0.943844
Si Si8 0.503936 0.190519 0.190783
O O1 0.250000 0.750000 0.500000
O O2 0.255137 0.702757 0.249417
O O3 0.215134 0.582994 0.390233
O O4 0.073510 0.693936 0.142781
O O5 0.104462 0.091285 0.464148
O O6 0.000000 0.000000 0.500000
O O7 0.960127 0.000000 0.151982
O O8 0.909912 0.180311 0.303047
O O9 0.926775 0.270587 0.580702
O O10 0.325871 0.500000 0.748036
O O11 0.138786 0.500000 0.510947
O O12 0.699769 0.595091 0.052151
O O13 0.500000 0.000000 0.500000
O O14 0.523635 0.087976 0.794130
O O15 0.097326 0.249496 0.968914
O O16 0.250000 0.250000 0.000000
#
# Coordination Sequence:
#
# PCOD8096689 Si02
#       8
#     8   4   8   4   4   4   8   8
#     4   9  21  39  67  88 130 175 218 270 326 414
#     4  12  19  39  66  94 128 177 221 274 334 412
#     4  11  20  40  66  91 126 174 230 262 327 410
#     4  10  23  41  61 100 132 163 217 283 341 384
#     4  12  26  41  62 101 141 164 217 293 350 386
#     4  10  20  33  62  87 120 162 213 279 318 388
#     4  12  26  39  66  99 135 175 220 283 337 396
#     4  10  21  39  60  94 123 170 225 269 330 399
#
# _framework density 26.302406999999999
#
# number of rings (size 3 to 8) (size 9 to 14) (size 15 to 20)
#    0.000    1.333    3.333    2.000    9.333    0.000 
#    0.000    2.500    0.000    0.000    0.000    5.833 
#    0.000    0.000    0.000    0.000    0.000    0.000 
#
# Total GULP energy -297418.472535 kJ/mol
# GULP energy per Si atom -12392.436356 kJ/mol
# Density = 2.624254 g / cm^3
# Si number density = 26.302407 Si / 1000 Ang^3
#
#
#
# Elastic Constant Matrix: (Units=GPa)
#
#
# Indices 1 2 3 4 5 6 
#
# 1 161.2799 55.1349 29.2576 0.0000 2.6340 0.0000
# 2 55.1349 195.5245 23.1368 0.0000 8.2887 0.0000
# 3 29.2576 23.1368 92.3359 0.0000 27.2594 0.0000
# 4 0.0000 0.0000 0.0000 13.5593 0.0000 8.5870
# 5 2.6340 8.2887 27.2594 0.0000 46.8294 0.0000
# 6 0.0000 0.0000 0.0000 8.5870 0.0000 29.2253
#
#
#
# Elastic Compliance Matrix: (Units=1/GPa)
#
#
# Indices 1 2 3 4 5 6 
#
# 1 0.007199 -0.001823 -0.002173 0.000000 0.001183 0.000000
# 2 -0.001823 0.005734 -0.000712 0.000000 -0.000498 0.000000
# 3 -0.002173 -0.000712 0.014036 0.000000 -0.007922 0.000000
# 4 0.000000 0.000000 0.000000 0.090610 0.000000 -0.026623
# 5 0.001183 -0.000498 -0.007922 0.000000 0.025987 0.000000
# 6 0.000000 0.000000 0.000000 -0.026623 0.000000 0.042039
#
#
# Mechanical properties :
#
#
# Convention : Reuss Voigt Hill
#
# Bulk Modulus (GPa) = 56.97557 73.79988 65.38773
# Shear Modulus (GPa) = 24.89144 40.69687 32.79415
#
# Velocity S-wave (km/s) = 3.07963 3.93780 3.53485
# Velocity P-wave (km/s) = 5.86125 6.98528 6.44781
#
# Compressibility (1/GPa) = 0.01755138
#
# Stress axis : x y z
#
# Youngs Moduli (GPa) = 138.91781 174.40332 71.24599
#
# Poissons Ratio (x) = 0.31791 0.15484
# Poissons Ratio (y) = 0.25322 0.05074
# Poissons Ratio (z) = 0.30192 0.12421
#
# Static dielectric constant tensor:
#      x y z
#    x 5.781690 0.000000 -0.128490 
#    y 0.000000 5.051810 0.000000 
#    z -0.128490 0.000000 5.076240 
# 
# 
# High freq. dielectric constant tensor:
#      x y z
#    x 2.079080 0.000000 -0.001010 
#    y 0.000000 2.062880 0.000000 
#    z -0.001010 0.000000 2.083410 
# 
# From -- ./inp_files/167694.got.cif
#   From: 2010.06.25/outbox.cif.g09.slc.cpg/sg12_84_cif.got.tgz:167694.got - 2010.06.28 00:19:55.
