data_PCOD8096255
_publ_section_title
;
Structure prediction by ZEFSAII (Michael W. Deem and Ramdas Pophale) SiO2 
 PCOD8096255
Probable space group: C 2/M
;
_chemical_formula_sum "Si O2"
_cell_formula_units_Z 48
_cell_length_a 12.919133
_cell_length_b 13.794014
_cell_length_c 28.749940
_cell_angle_alpha 90.000000
_cell_angle_beta 27.968342
_cell_angle_gamma 90.000000
_cell_volume 2402.805728
_symmetry_space_group_name_H-M "C 2/M"
_symmetry_group_IT_number 12
_symmetry_cell_setting 'monoclinic'
loop_
_space_group_symop_operation_xyz
x,y,z
-x,y,-z
-x,-y,-z
x,-y,z
1/2+x,1/2+y,z
1/2-x,1/2+y,-z
1/2-x,1/2-y,-z
1/2+x,1/2-y,z
loop_
_atom_site_type_symbol
_atom_site_label
_atom_site_fract_x
_atom_site_fract_y
_atom_site_fract_z
Si Si1 0.470070 0.395983 0.061655
Si Si2 0.399960 0.260572 0.244160
Si Si3 0.766171 0.110395 0.615666
Si Si4 0.808343 0.611499 0.111428
Si Si5 0.672875 0.888154 0.261092
Si Si6 0.602785 0.836914 0.077913
O O1 0.356652 0.500000 0.095797
O O2 0.310359 0.341246 0.162294
O O3 0.500000 0.338894 0.000000
O O4 0.709365 0.417788 0.989085
O O5 0.269615 0.193272 0.331948
O O6 0.589857 0.324174 0.193041
O O7 0.227583 0.331464 0.286576
O O8 0.503865 0.186828 0.166914
O O9 0.585257 0.121572 0.646704
O O10 0.000000 0.130964 0.500000
O O11 0.755044 0.000000 0.640656
O O12 0.740850 0.500000 0.129994
O O13 0.906813 0.625328 0.123588
O O14 0.000000 0.643908 0.000000
O O15 0.746693 0.000000 0.237940
O O16 0.750000 0.750000 0.000000
#
# Coordination Sequence:
#
# PCOD8096255 Si02
#       6
#     8   8   8   8   8   8
#     4  10  20  33  52  78 115 159 200 239 285 344
#     4  12  23  37  64  88 118 160 205 251 304 363
#     4  10  24  45  66  88 117 154 202 263 324 373
#     4  11  23  39  57  86 130 172 204 239 289 352
#     4  10  20  38  60  87 117 155 201 248 302 367
#     4  12  22  32  53  85 124 159 196 241 279 350
#
# _framework density 19.976645000000001
#
# number of rings (size 3 to 8) (size 9 to 14) (size 15 to 20)
#    0.000    1.167    3.333    3.000    2.333    6.000 
#    0.000    0.000    0.000    2.500    0.000    0.000 
#    0.000    0.000    0.000    0.000    0.000    0.000 
#
# Total GULP energy -297426.057580 kJ/mol
# GULP energy per Si atom -12392.752399 kJ/mol
# Density = 1.993118 g / cm^3
# Si number density = 19.976645 Si / 1000 Ang^3
#
#
#
# Elastic Constant Matrix: (Units=GPa)
#
#
# Indices 1 2 3 4 5 6 
#
# 1 127.1896 46.8993 67.5734 0.0054 -13.8281 0.0015
# 2 46.8993 100.6515 58.7327 0.0076 5.4368 -0.0001
# 3 67.5734 58.7327 130.2825 -0.0263 -12.7565 -0.0022
# 4 0.0054 0.0076 -0.0263 31.5931 -0.0038 -0.8344
# 5 -13.8281 5.4368 -12.7565 -0.0038 27.3071 0.0025
# 6 0.0015 -0.0001 -0.0022 -0.8344 0.0025 35.3253
#
#
#
# Elastic Compliance Matrix: (Units=1/GPa)
#
#
# Indices 1 2 3 4 5 6 
#
# 1 0.011814 -0.003326 -0.004168 -0.000004 0.004698 -0.000001
# 2 -0.003326 0.015352 -0.005931 -0.000009 -0.007512 0.000000
# 3 -0.004168 -0.005931 0.013015 0.000014 0.005150 0.000001
# 4 -0.000004 -0.000009 0.000014 0.031672 0.000010 0.000748
# 5 0.004698 -0.007512 0.005150 0.000010 0.042901 -0.000003
# 6 -0.000001 0.000000 0.000001 0.000748 -0.000003 0.028326
#
#
# Mechanical properties :
#
#
# Convention : Reuss Voigt Hill
#
# Bulk Modulus (GPa) = 75.01563 78.28159 76.64861
# Shear Modulus (GPa) = 28.67390 31.17299 29.92345
#
# Velocity S-wave (km/s) = 3.79274 3.95457 3.87450
# Velocity P-wave (km/s) = 7.53744 7.75391 7.64644
#
# Compressibility (1/GPa) = 0.01333056
#
# Stress axis : x y z
#
# Youngs Moduli (GPa) = 84.64568 65.13875 76.83178
#
# Poissons Ratio (x) = 0.21668 0.32023
# Poissons Ratio (y) = 0.28157 0.45569
# Poissons Ratio (z) = 0.35280 0.38633
#
# Static dielectric constant tensor:
#      x y z
#    x 3.917010 0.000010 -0.106140 
#    y 0.000010 3.849430 0.000000 
#    z -0.106140 0.000000 3.458770 
# 
# 
# High freq. dielectric constant tensor:
#      x y z
#    x 1.788960 0.000000 -0.012990 
#    y 0.000000 1.792140 0.000000 
#    z -0.012990 0.000000 1.745530 
# 
# From -- ./inp_files/358343.got.cif
#   From: 2010.06.25/outbox.cif.g09.slc.cpg/sg12_180_cif.got.tgz:358343.got - 2010.06.28 00:19:55.
