data_PCOD8096797
_publ_section_title
;
Structure prediction by ZEFSAII (Michael W. Deem and Ramdas Pophale) SiO2 
 PCOD8096797
Probable space group: C 2/M
;
_chemical_formula_sum "Si O2"
_cell_formula_units_Z 64
_cell_length_a 18.831499
_cell_length_b 9.134941
_cell_length_c 24.739297
_cell_angle_alpha 90.000000
_cell_angle_beta 55.543285
_cell_angle_gamma 90.000000
_cell_volume 3509.110293
_symmetry_space_group_name_H-M "C 2/M"
_symmetry_group_IT_number 12
_symmetry_cell_setting 'monoclinic'
loop_
_space_group_symop_operation_xyz
x,y,z
-x,y,-z
-x,-y,-z
x,-y,z
1/2+x,1/2+y,z
1/2-x,1/2+y,-z
1/2-x,1/2-y,-z
1/2+x,1/2-y,z
loop_
_atom_site_type_symbol
_atom_site_label
_atom_site_fract_x
_atom_site_fract_y
_atom_site_fract_z
Si Si1 0.812533 0.327028 0.806681
Si Si2 0.408691 0.831981 0.562152
Si Si3 0.253268 0.669186 0.442105
Si Si4 0.469205 0.171790 0.815679
Si Si5 0.186605 0.829244 0.307004
Si Si6 0.848387 0.670705 0.309793
Si Si7 0.528249 0.673388 0.073251
Si Si8 0.368750 0.673265 0.073267
O O1 0.807406 0.500000 0.799793
O O2 0.893559 0.282006 0.807875
O O3 0.822238 0.251701 0.745335
O O4 0.726272 0.266468 0.872952
O O5 0.500000 0.780588 0.500000
O O6 0.339381 0.809511 0.545032
O O7 0.388001 0.730379 0.621960
O O8 0.411130 0.000000 0.580766
O O9 0.276078 0.500000 0.441310
O O10 0.250000 0.750000 0.500000
O O11 0.327186 0.739255 0.372865
O O12 0.559197 0.223806 0.751249
O O13 0.451320 0.250644 0.879458
O O14 0.470323 0.000000 0.826293
O O15 0.279699 0.794310 0.292488
O O16 0.172308 0.000000 0.304231
O O17 0.848060 0.500000 0.325265
O O18 0.530362 0.500000 0.080644
O O19 0.435271 0.726261 0.090909
O O20 0.600686 0.726347 0.999084
O O21 0.369819 0.500000 0.072509
#
# Coordination Sequence:
#
# PCOD8096797 Si02
#       8
#     8   8   8   8   8   8   8   8
#     4  10  20  34  51  71 100 135 167 201 245 299
#     4   9  19  36  56  76  99 131 168 201 240 295
#     4  10  20  34  54  78 102 130 165 203 244 292
#     4  10  21  34  49  73 103 133 164 202 250 296
#     4  10  20  34  53  75  99 128 165 209 249 286
#     4   9  19  36  53  70  98 133 167 204 245 290
#     4   9  17  32  54  75  97 128 167 208 246 291
#     4   8  16  32  53  75  97 128 169 206 244 292
#
# _framework density 18.238240999999999
#
# number of rings (size 3 to 8) (size 9 to 14) (size 15 to 20)
#    0.000    2.625    0.000    2.250    0.000    3.750 
#    0.000    6.875    0.000    0.000    0.000    0.000 
#    0.000    0.000    0.000    0.000    0.000    0.000 
#
# Total GULP energy -396846.355811 kJ/mol
# GULP energy per Si atom -12401.448619 kJ/mol
# Density = 1.819673 g / cm^3
# Si number density = 18.238241 Si / 1000 Ang^3
#
#
#
# Elastic Constant Matrix: (Units=GPa)
#
#
# Indices 1 2 3 4 5 6 
#
# 1 113.2475 47.3681 98.4315 0.0000 -0.2246 0.0003
# 2 47.3681 53.3013 56.2795 -0.0002 12.3039 0.0006
# 3 98.4315 56.2795 160.0906 0.0000 6.5907 0.0000
# 4 0.0000 -0.0002 0.0000 30.2587 0.0000 5.4617
# 5 -0.2246 12.3039 6.5907 0.0000 37.3673 0.0000
# 6 0.0003 0.0006 0.0000 5.4617 0.0000 22.0899
#
#
#
# Elastic Compliance Matrix: (Units=1/GPa)
#
#
# Indices 1 2 3 4 5 6 
#
# 1 0.021762 -0.009824 -0.010139 0.000000 0.005154 0.000000
# 2 -0.009824 0.036873 -0.006467 0.000000 -0.011060 -0.000001
# 3 -0.010139 -0.006467 0.014776 0.000000 -0.000538 0.000000
# 4 0.000000 0.000000 0.000000 0.034592 0.000000 -0.008553
# 5 0.005154 -0.011060 -0.000538 0.000000 0.030529 0.000000
# 6 0.000000 -0.000001 0.000000 -0.008553 0.000000 0.047384
#
#
# Mechanical properties :
#
#
# Convention : Reuss Voigt Hill
#
# Bulk Modulus (GPa) = 48.65895 81.19973 64.92934
# Shear Modulus (GPa) = 20.35615 26.24721 23.30168
#
# Velocity S-wave (km/s) = 3.34447 3.79770 3.57827
# Velocity P-wave (km/s) = 6.45380 7.99052 7.26292
#
# Compressibility (1/GPa) = 0.02055121
#
# Stress axis : x y z
#
# Youngs Moduli (GPa) = 45.95192 27.12015 67.67709
#
# Poissons Ratio (x) = 0.26642 0.68617
# Poissons Ratio (y) = 0.45142 0.43768
# Poissons Ratio (z) = 0.46590 0.17539
#
# Static dielectric constant tensor:
#      x y z
#    x 3.422070 0.000000 -0.193500 
#    y 0.000000 3.214190 0.000000 
#    z -0.193500 0.000000 3.549040 
# 
# 
# High freq. dielectric constant tensor:
#      x y z
#    x 1.704460 0.000000 -0.002150 
#    y 0.000000 1.692380 0.000000 
#    z -0.002150 0.000000 1.719010 
# 
# From -- ./inp_files/345957.got.cif
#   From: 2010.06.25/outbox.cif.g09.slc.cpg/sg12_173_cif.got.tgz:345957.got - 2010.06.28 00:19:55.
