data_PCOD8096327
_publ_section_title
;
Structure prediction by ZEFSAII (Michael W. Deem and Ramdas Pophale) SiO2 
 PCOD8096327
Probable space group: C 2/M
;
_chemical_formula_sum "Si O2"
_cell_formula_units_Z 56
_cell_length_a 19.345332
_cell_length_b 9.269455
_cell_length_c 20.582238
_cell_angle_alpha 90.000000
_cell_angle_beta 124.733863
_cell_angle_gamma 90.000000
_cell_volume 3033.144167
_symmetry_space_group_name_H-M "C 2/M"
_symmetry_group_IT_number 12
_symmetry_cell_setting 'monoclinic'
loop_
_space_group_symop_operation_xyz
x,y,z
-x,y,-z
-x,-y,-z
x,-y,z
1/2+x,1/2+y,z
1/2-x,1/2+y,-z
1/2-x,1/2-y,-z
1/2+x,1/2-y,z
loop_
_atom_site_type_symbol
_atom_site_label
_atom_site_fract_x
_atom_site_fract_y
_atom_site_fract_z
Si Si1 0.590540 0.163981 0.066186
Si Si2 0.360466 0.665291 0.783550
Si Si3 0.334130 0.834859 0.031335
Si Si4 0.675380 0.831315 0.643944
Si Si5 0.054758 0.169817 0.675539
Si Si6 0.922007 0.841408 0.506357
Si Si7 0.466054 0.332135 0.187214
O O1 0.634800 0.245676 0.148096
O O2 0.575843 0.000000 0.081002
O O3 0.500000 0.233784 0.000000
O O4 0.651919 0.173669 0.037957
O O5 0.362530 0.500000 0.806262
O O6 0.274090 0.702763 0.700876
O O7 0.436374 0.700834 0.775121
O O8 0.411725 0.763680 0.109855
O O9 0.325240 0.000000 0.049668
O O10 0.250000 0.750000 0.000000
O O11 0.628530 0.755958 0.679033
O O12 0.645700 0.770878 0.557937
O O13 0.655087 0.000000 0.635802
O O14 0.054508 0.214631 0.750477
O O15 0.962180 0.208787 0.596682
O O16 0.072253 0.000000 0.675299
O O17 0.000000 0.850703 0.500000
O O18 0.879721 0.000000 0.490097
O O19 0.444490 0.500000 0.164454
#
# Coordination Sequence:
#
# PCOD8096327 Si02
#       7
#     8   8   8   8   8   8   8
#     4  10  21  39  59  79 105 141 182 222 264 313
#     4  10  22  37  55  80 110 144 180 220 268 320
#     4  11  24  40  58  82 111 141 178 225 271 320
#     4  10  20  33  52  82 112 138 174 222 270 317
#     4   9  19  35  56  79 105 140 182 222 263 317
#     4   8  15  31  53  77 104 139 180 218 260 315
#     4  10  21  39  58  78 108 146 182 220 269 320
#
# _framework density 18.462689999999998
#
# number of rings (size 3 to 8) (size 9 to 14) (size 15 to 20)
#    0.000    2.286    1.429    1.714    2.000    5.714 
#    0.000    0.714    0.000    0.000    0.000    0.000 
#    0.000    0.000    0.000    0.000    0.000    0.000 
#
# Total GULP energy -347195.271992 kJ/mol
# GULP energy per Si atom -12399.831143 kJ/mol
# Density = 1.842067 g / cm^3
# Si number density = 18.462690 Si / 1000 Ang^3
#
#
#
# Elastic Constant Matrix: (Units=GPa)
#
#
# Indices 1 2 3 4 5 6 
#
# 1 78.4092 41.8435 25.5699 0.0000 17.1105 0.0000
# 2 41.8435 83.9547 43.6758 0.0000 13.7630 0.0000
# 3 25.5699 43.6758 76.4917 0.0000 16.5619 0.0000
# 4 0.0000 0.0000 0.0000 32.2971 0.0000 4.6133
# 5 17.1105 13.7630 16.5619 0.0000 29.8385 0.0000
# 6 0.0000 0.0000 0.0000 4.6133 0.0000 23.5671
#
#
#
# Elastic Compliance Matrix: (Units=1/GPa)
#
#
# Indices 1 2 3 4 5 6 
#
# 1 0.018607 -0.008088 -0.000113 0.000000 -0.006877 0.000000
# 2 -0.008088 0.020665 -0.009134 0.000000 0.000176 0.000000
# 3 -0.000113 -0.009134 0.019777 0.000000 -0.006699 0.000000
# 4 0.000000 0.000000 0.000000 0.031853 0.000000 -0.006235
# 5 -0.006877 0.000176 -0.006699 0.000000 0.041094 0.000000
# 6 0.000000 0.000000 0.000000 -0.006235 0.000000 0.043653
#
#
# Mechanical properties :
#
#
# Convention : Reuss Voigt Hill
#
# Bulk Modulus (GPa) = 41.01783 51.22600 46.12191
# Shear Modulus (GPa) = 22.88896 25.65831 24.27364
#
# Velocity S-wave (km/s) = 3.52482 3.73196 3.62987
# Velocity P-wave (km/s) = 6.23142 6.80999 6.52712
#
# Compressibility (1/GPa) = 0.02437964
#
# Stress axis : x y z
#
# Youngs Moduli (GPa) = 53.74253 48.39075 50.56365
#
# Poissons Ratio (x) = 0.39137 0.00572
# Poissons Ratio (y) = 0.43466 0.46185
# Poissons Ratio (z) = 0.00608 0.44200
#
# Static dielectric constant tensor:
#      x y z
#    x 3.342680 0.000000 0.089340 
#    y 0.000000 3.448800 0.000000 
#    z 0.089340 0.000000 3.838700 
# 
# 
# High freq. dielectric constant tensor:
#      x y z
#    x 1.701600 0.000000 0.003510 
#    y 0.000000 1.715640 0.000000 
#    z 0.003510 0.000000 1.724870 
# 
# From -- ./inp_files/275544.got.cif
#   From: 2010.06.25/outbox.cif.g09.slc.cpg/sg12_138_cif.got.tgz:275544.got - 2010.06.28 00:19:55.
