data_PCOD8096499
_publ_section_title
;
Structure prediction by ZEFSAII (Michael W. Deem and Ramdas Pophale) SiO2 
 PCOD8096499
Probable space group: C 2/M
;
_chemical_formula_sum "Si O2"
_cell_formula_units_Z 56
_cell_length_a 25.140556
_cell_length_b 9.342361
_cell_length_c 15.987917
_cell_angle_alpha 90.000000
_cell_angle_beta 55.356922
_cell_angle_gamma 90.000000
_cell_volume 3089.368844
_symmetry_space_group_name_H-M "C 2/M"
_symmetry_group_IT_number 12
_symmetry_cell_setting 'monoclinic'
loop_
_space_group_symop_operation_xyz
x,y,z
-x,y,-z
-x,-y,-z
x,-y,z
1/2+x,1/2+y,z
1/2-x,1/2+y,-z
1/2-x,1/2-y,-z
1/2+x,1/2-y,z
loop_
_atom_site_type_symbol
_atom_site_label
_atom_site_fract_x
_atom_site_fract_y
_atom_site_fract_z
Si Si1 0.605200 0.333674 0.398681
Si Si2 0.496317 0.334621 0.368376
Si Si3 0.263940 0.165901 0.733723
Si Si4 0.404356 0.836904 0.988055
Si Si5 0.529264 0.164911 0.775698
Si Si6 0.712238 0.334404 0.963926
Si Si7 0.855983 0.665742 0.212932
O O1 0.624887 0.500000 0.374708
O O2 0.562043 0.288896 0.357206
O O3 0.564990 0.303669 0.518404
O O4 0.667995 0.236529 0.347666
O O5 0.499863 0.500000 0.342110
O O6 0.489679 0.249873 0.289246
O O7 0.249234 0.189229 0.844065
O O8 0.208519 0.239320 0.727145
O O9 0.266561 0.000000 0.706987
O O10 0.359379 0.729788 0.976142
O O11 0.397735 0.805858 0.092238
O O12 0.383594 0.000000 0.986123
O O13 0.477563 0.807168 0.895343
O O14 0.599166 0.211611 0.749006
O O15 0.530449 0.000000 0.749007
O O16 0.707341 0.500000 0.993030
O O17 0.750000 0.250000 0.000000
O O18 0.835625 0.500000 0.237094
#
# Coordination Sequence:
#
# PCOD8096499 Si02
#       7
#     8   8   8   8   8   8   8
#     4   9  19  38  59  77 103 139 176 212 263 327
#     4   9  20  37  56  80 106 135 174 218 263 318
#     4  10  21  35  54  79 105 135 175 222 266 305
#     4   9  18  33  52  75 106 142 178 214 255 305
#     4  10  20  33  54  82 109 137 177 222 262 307
#     4  10  21  34  48  73 108 140 175 215 256 308
#     4   9  18  35  55  76 106 146 181 210 255 316
#
# _framework density 18.12668
#
# number of rings (size 3 to 8) (size 9 to 14) (size 15 to 20)
#    0.000    2.571    0.000    2.143    2.000    5.714 
#    0.000    2.143    0.000    4.286    0.000    0.000 
#    0.000    0.000    0.000    0.000    0.000    0.000 
#
# Total GULP energy -347222.367527 kJ/mol
# GULP energy per Si atom -12400.798840 kJ/mol
# Density = 1.808542 g / cm^3
# Si number density = 18.126680 Si / 1000 Ang^3
#
#
#
# Elastic Constant Matrix: (Units=GPa)
#
#
# Indices 1 2 3 4 5 6 
#
# 1 114.1998 58.4477 48.5407 0.0000 -11.8622 0.0000
# 2 58.4477 85.1327 38.5834 0.0000 -9.7969 0.0000
# 3 48.5407 38.5834 57.4553 0.0000 -6.9368 0.0000
# 4 0.0000 0.0000 0.0000 30.2556 0.0000 1.1959
# 5 -11.8622 -9.7969 -6.9368 0.0000 29.0856 0.0000
# 6 0.0000 0.0000 0.0000 1.1959 0.0000 33.1564
#
#
#
# Elastic Compliance Matrix: (Units=1/GPa)
#
#
# Indices 1 2 3 4 5 6 
#
# 1 0.016287 -0.006918 -0.008848 0.000000 0.002202 0.000000
# 2 -0.006918 0.020095 -0.007386 0.000000 0.002186 0.000000
# 3 -0.008848 -0.007386 0.029967 0.000000 0.001051 0.000000
# 4 0.000000 0.000000 0.000000 0.033099 0.000000 -0.001194
# 5 0.002202 0.002186 0.001051 0.000000 0.036266 0.000000
# 6 0.000000 0.000000 0.000000 -0.001194 0.000000 0.030203
#
#
# Mechanical properties :
#
#
# Convention : Reuss Voigt Hill
#
# Bulk Modulus (GPa) = 49.88961 60.88125 55.38543
# Shear Modulus (GPa) = 22.84114 25.91391 24.37752
#
# Velocity S-wave (km/s) = 3.55362 3.78511 3.67119
# Velocity P-wave (km/s) = 6.66484 7.26376 6.97073
#
# Compressibility (1/GPa) = 0.02004425
#
# Stress axis : x y z
#
# Youngs Moduli (GPa) = 61.39835 49.76367 33.37014
#
# Poissons Ratio (x) = 0.34428 0.29527
# Poissons Ratio (y) = 0.42477 0.24646
# Poissons Ratio (z) = 0.54327 0.36754
#
# Static dielectric constant tensor:
#      x y z
#    x 3.597540 0.000000 -0.018900 
#    y 0.000000 3.637150 0.000000 
#    z -0.018900 0.000000 3.187310 
# 
# 
# High freq. dielectric constant tensor:
#      x y z
#    x 1.709320 0.000000 -0.003950 
#    y 0.000000 1.701760 0.000000 
#    z -0.003950 0.000000 1.688560 
# 
# From -- ./inp_files/238376.got.cif
#   From: 2010.06.25/outbox.cif.g09.slc.cpg/sg12_120_cif.got.tgz:238376.got - 2010.06.28 00:19:55.
