data_PCOD8096179
_publ_section_title
;
Structure prediction by ZEFSAII (Michael W. Deem and Ramdas Pophale) SiO2 
 PCOD8096179
Probable space group: C 2/M
;
_chemical_formula_sum "Si O2"
_cell_formula_units_Z 64
_cell_length_a 14.073471
_cell_length_b 9.302209
_cell_length_c 28.544369
_cell_angle_alpha 90.000000
_cell_angle_beta 102.793310
_cell_angle_gamma 90.000000
_cell_volume 3644.101103
_symmetry_space_group_name_H-M "C 2/M"
_symmetry_group_IT_number 12
_symmetry_cell_setting 'monoclinic'
loop_
_space_group_symop_operation_xyz
x,y,z
-x,y,-z
-x,-y,-z
x,-y,z
1/2+x,1/2+y,z
1/2-x,1/2+y,-z
1/2-x,1/2-y,-z
1/2+x,1/2-y,z
loop_
_atom_site_type_symbol
_atom_site_label
_atom_site_fract_x
_atom_site_fract_y
_atom_site_fract_z
Si Si1 0.023473 0.671397 0.053827
Si Si2 0.819358 0.165591 0.368673
Si Si3 0.707939 0.167651 0.451350
Si Si4 0.457702 0.666376 0.614523
Si Si5 0.209240 0.332890 0.128401
Si Si6 0.597320 0.833968 0.872463
Si Si7 0.908120 0.336374 0.792438
Si Si8 0.654281 0.666431 0.303368
O O1 0.024063 0.500000 0.053738
O O2 0.941317 0.723633 0.081519
O O3 0.129484 0.725322 0.082387
O O4 0.000000 0.735326 0.000000
O O5 0.783343 0.192279 0.417414
O O6 0.756796 0.257615 0.325328
O O7 0.930770 0.215876 0.377212
O O8 0.807969 0.000000 0.352826
O O9 0.750000 0.250000 0.500000
O O10 0.603340 0.235077 0.427557
O O11 0.694208 0.000000 0.461471
O O12 0.444616 0.500000 0.598351
O O13 0.422463 0.692798 0.663496
O O14 0.227921 0.500000 0.122133
O O15 0.308971 0.252117 0.132287
O O16 0.171848 0.303758 0.176696
O O17 0.515273 0.809598 0.824461
O O18 0.625706 0.000000 0.879378
O O19 0.897732 0.500000 0.773560
O O20 0.893375 0.228877 0.748291
O O21 0.676431 0.500000 0.298064
#
# Coordination Sequence:
#
# PCOD8096179 Si02
#       8
#     8   8   8   8   8   8   8   8
#     4   8  15  30  50  70  96 131 165 195 238 299
#     4   9  19  36  55  73  99 136 168 195 240 300
#     4  10  20  34  53  76 102 133 167 203 243 287
#     4   9  19  36  54  73  99 129 163 202 242 289
#     4   9  18  32  50  71  95 127 164 200 240 288
#     4   9  18  32  50  72  97 127 163 203 244 287
#     4   9  19  35  50  66  96 134 164 191 236 300
#     4  10  20  33  52  77 100 123 159 208 249 280
#
# _framework density 17.562629999999999
#
# number of rings (size 3 to 8) (size 9 to 14) (size 15 to 20)
#    0.000    2.875    0.000    2.250    0.000    4.500 
#    0.000    8.125    0.000    0.750    0.000    0.000 
#    0.000    0.000    0.000    0.000    0.000    0.000 
#
# Total GULP energy -396814.814465 kJ/mol
# GULP energy per Si atom -12400.462952 kJ/mol
# Density = 1.752266 g / cm^3
# Si number density = 17.562630 Si / 1000 Ang^3
#
#
#
# Elastic Constant Matrix: (Units=GPa)
#
#
# Indices 1 2 3 4 5 6 
#
# 1 139.1706 51.5853 41.2531 0.0000 1.6972 0.0000
# 2 51.5853 74.0645 52.3608 0.0000 3.8811 0.0000
# 3 41.2531 52.3608 105.1562 0.0000 9.2336 0.0000
# 4 0.0000 0.0000 0.0000 26.8721 0.0000 1.4802
# 5 1.6972 3.8811 9.2336 0.0000 10.6391 0.0000
# 6 0.0000 0.0000 0.0000 1.4802 0.0000 31.8293
#
#
#
# Elastic Compliance Matrix: (Units=1/GPa)
#
#
# Indices 1 2 3 4 5 6 
#
# 1 0.009738 -0.006278 -0.000822 0.000000 0.001450 0.000000
# 2 -0.006278 0.024906 -0.009990 0.000000 0.000586 0.000000
# 3 -0.000822 -0.009990 0.015669 0.000000 -0.009824 0.000000
# 4 0.000000 0.000000 0.000000 0.037309 0.000000 -0.001735
# 5 0.001450 0.000586 -0.009824 0.000000 0.102073 0.000000
# 6 0.000000 0.000000 0.000000 -0.001735 0.000000 0.031498
#
#
# Mechanical properties :
#
#
# Convention : Reuss Voigt Hill
#
# Bulk Modulus (GPa) = 61.98085 67.64331 64.81208
# Shear Modulus (GPa) = 19.17534 25.41423 22.29479
#
# Velocity S-wave (km/s) = 3.30786 3.80815 3.56679
# Velocity P-wave (km/s) = 7.06804 7.61151 7.34481
#
# Compressibility (1/GPa) = 0.01613402
#
# Stress axis : x y z
#
# Youngs Moduli (GPa) = 102.68828 40.15076 63.81945
#
# Poissons Ratio (x) = 0.25205 0.05245
# Poissons Ratio (y) = 0.64463 0.63758
# Poissons Ratio (z) = 0.08439 0.40112
#
# Static dielectric constant tensor:
#      x y z
#    x 3.285840 0.000000 0.018470 
#    y 0.000000 3.149020 0.000000 
#    z 0.018470 0.000000 3.319210 
# 
# 
# High freq. dielectric constant tensor:
#      x y z
#    x 1.682240 0.000000 0.002600 
#    y 0.000000 1.667860 0.000000 
#    z 0.002600 0.000000 1.681080 
# 
# From -- ./inp_files/359908.got.cif
#   From: 2010.06.25/outbox.cif.g09.slc.cpg/sg12_180_cif.got.tgz:359908.got - 2010.06.28 00:19:55.
