data_PCOD8096713
_publ_section_title
;
Structure prediction by ZEFSAII (Michael W. Deem and Ramdas Pophale) SiO2 
 PCOD8096713
Probable space group: C 2/M
;
_chemical_formula_sum "Si O2"
_cell_formula_units_Z 48
_cell_length_a 14.158234
_cell_length_b 32.437495
_cell_length_c 10.331708
_cell_angle_alpha 90.000000
_cell_angle_beta 148.947821
_cell_angle_gamma 90.000000
_cell_volume 2447.515295
_symmetry_space_group_name_H-M "C 2/M"
_symmetry_group_IT_number 12
_symmetry_cell_setting 'monoclinic'
loop_
_space_group_symop_operation_xyz
x,y,z
-x,y,-z
-x,-y,-z
x,-y,z
1/2+x,1/2+y,z
1/2-x,1/2+y,-z
1/2-x,1/2-y,-z
1/2+x,1/2-y,z
loop_
_atom_site_type_symbol
_atom_site_label
_atom_site_fract_x
_atom_site_fract_y
_atom_site_fract_z
Si Si1 0.189528 0.782628 0.589933
Si Si2 0.084437 0.300092 0.383125
Si Si3 0.187244 0.182361 0.870392
Si Si4 0.451033 0.454748 0.793037
Si Si5 0.170284 0.391944 0.543965
Si Si6 0.740916 0.098458 0.919577
O O1 0.168194 0.732962 0.583247
O O2 0.365494 0.788481 0.705806
O O3 0.210070 0.808488 0.744514
O O4 0.000458 0.797601 0.297027
O O5 0.167835 0.345077 0.496491
O O6 0.865907 0.298991 0.150312
O O7 0.184933 0.133521 0.896145
O O8 0.387166 0.500000 0.667858
O O9 0.293427 0.420089 0.593884
O O10 0.500000 0.458909 0.000000
O O11 0.626297 0.441157 0.911925
O O12 0.253236 0.387966 0.784476
O O13 0.969652 0.412798 0.298984
#
# Coordination Sequence:
#
# PCOD8096713 Si02
#       6
#     8   8   8   8   8   8
#     4  10  21  33  49  72  96 130 172 207 241 281
#     4  10  20  34  49  69  99 131 167 206 241 285
#     4  10  20  34  50  70  99 132 166 204 245 286
#     4   9  17  30  49  74 102 129 159 197 244 299
#     4   9  18  31  48  71  99 132 162 195 245 294
#     4   9  18  31  48  71  99 129 161 199 243 293
#
# _framework density 19.611726999999998
#
# number of rings (size 3 to 8) (size 9 to 14) (size 15 to 20)
#    0.000    2.500    0.000    2.000    0.000    7.333 
#    0.000    8.333    0.000    0.000    0.000    9.333 
#    0.000   26.667    0.000    0.000    0.000    0.000 
#
# Total GULP energy -297380.855454 kJ/mol
# GULP energy per Si atom -12390.868977 kJ/mol
# Density = 1.956709 g / cm^3
# Si number density = 19.611727 Si / 1000 Ang^3
#
#
#
# Elastic Constant Matrix: (Units=GPa)
#
#
# Indices 1 2 3 4 5 6 
#
# 1 54.1041 32.8742 15.7117 0.0000 8.8457 0.0000
# 2 32.8742 146.8917 56.0281 0.0000 9.3444 0.0000
# 3 15.7117 56.0281 55.8023 0.0000 16.2509 0.0000
# 4 0.0000 0.0000 0.0000 21.5215 0.0000 10.8194
# 5 8.8457 9.3444 16.2509 0.0000 26.3863 0.0000
# 6 0.0000 0.0000 0.0000 10.8194 0.0000 16.4756
#
#
#
# Elastic Compliance Matrix: (Units=1/GPa)
#
#
# Indices 1 2 3 4 5 6 
#
# 1 0.022233 -0.004647 0.000118 0.000000 -0.005881 0.000000
# 2 -0.004647 0.012284 -0.012445 0.000000 0.004872 0.000000
# 3 0.000118 -0.012445 0.035473 0.000000 -0.017480 0.000000
# 4 0.000000 0.000000 0.000000 0.069365 0.000000 -0.045551
# 5 -0.005881 0.004872 -0.017480 0.000000 0.048910 0.000000
# 6 0.000000 0.000000 0.000000 -0.045551 0.000000 0.090609
#
#
# Mechanical properties :
#
#
# Convention : Reuss Voigt Hill
#
# Bulk Modulus (GPa) = 27.74390 51.78068 39.76229
# Shear Modulus (GPa) = 15.39239 23.02228 19.20733
#
# Velocity S-wave (km/s) = 2.80457 3.42994 3.13290
# Velocity P-wave (km/s) = 4.96636 6.49202 5.77975
#
# Compressibility (1/GPa) = 0.03604396
#
# Stress axis : x y z
#
# Youngs Moduli (GPa) = 44.97725 81.40368 28.19078
#
# Poissons Ratio (x) = 0.37827 -0.00333
# Poissons Ratio (y) = 0.20900 0.35082
# Poissons Ratio (z) = -0.00531 1.01304
#
# Static dielectric constant tensor:
#      x y z
#    x 3.406390 0.000000 0.389600 
#    y 0.000000 3.714720 0.000000 
#    z 0.389600 0.000000 3.671430 
# 
# 
# High freq. dielectric constant tensor:
#      x y z
#    x 1.742790 0.000000 0.035780 
#    y 0.000000 1.758120 0.000000 
#    z 0.035780 0.000000 1.752470 
# 
# From -- ./inp_files/150324.got.cif
#   From: 2010.06.25/outbox.cif.g09.slc.cpg/sg12_76_cif.got.tgz:150324.got - 2010.06.28 00:19:55.
