data_PCOD8096688
_publ_section_title
;
Structure prediction by ZEFSAII (Michael W. Deem and Ramdas Pophale) SiO2 
 PCOD8096688
Probable space group: C 2/M
;
_chemical_formula_sum "Si O2"
_cell_formula_units_Z 52
_cell_length_a 18.547768
_cell_length_b 26.227450
_cell_length_c 11.443886
_cell_angle_alpha 90.000000
_cell_angle_beta 30.740488
_cell_angle_gamma 90.000000
_cell_volume 2845.574459
_symmetry_space_group_name_H-M "C 2/M"
_symmetry_group_IT_number 12
_symmetry_cell_setting 'monoclinic'
loop_
_space_group_symop_operation_xyz
x,y,z
-x,y,-z
-x,-y,-z
x,-y,z
1/2+x,1/2+y,z
1/2-x,1/2+y,-z
1/2-x,1/2-y,-z
1/2+x,1/2-y,z
loop_
_atom_site_type_symbol
_atom_site_label
_atom_site_fract_x
_atom_site_fract_y
_atom_site_fract_z
Si Si1 0.339590 0.500000 0.774453
Si Si2 0.844988 0.345471 0.664712
Si Si3 0.770162 0.109648 0.948390
Si Si4 0.600150 0.197311 0.760601
Si Si5 0.962792 0.604230 0.285474
Si Si6 0.858053 0.246605 0.518346
Si Si7 0.000000 0.174766 0.500000
Si Si8 0.958595 0.500000 0.923498
O O1 0.500000 0.500000 0.500000
O O2 0.316076 0.550121 0.887256
O O3 0.213367 0.500000 0.852077
O O4 0.857155 0.386127 0.541605
O O5 0.786992 0.290489 0.699406
O O6 0.000000 0.335473 0.500000
O O7 0.735047 0.368587 0.911888
O O8 0.875200 0.139541 0.718322
O O9 0.620245 0.120191 0.099885
O O10 0.587420 0.136688 0.757405
O O11 0.754953 0.210738 0.588341
O O12 0.552882 0.223322 0.704312
O O13 0.500000 0.218018 0.000000
O O14 0.962582 0.545895 0.250260
O O15 0.957752 0.210072 0.451592
O O16 0.000000 0.500000 0.000000
#
# Coordination Sequence:
#
# PCOD8096688 Si02
#       8
#     4   8   8   8   8   8   4   4
#     4  10  20  41  55  85 117 144 182 235 288 344
#     4   9  18  36  54  82 113 145 182 237 278 328
#     4  10  21  34  60  81 113 145 185 231 287 334
#     4  10  20  36  52  73 111 150 180 227 278 326
#     4   9  19  36  55  81 112 141 187 236 279 329
#     4  10  22  34  52  79 111 147 189 224 276 336
#     4  12  22  33  52  88 106 149 192 224 280 340
#     4  10  20  33  61  89 107 145 189 239 288 337
#
# _framework density 18.273990999999999
#
# number of rings (size 3 to 8) (size 9 to 14) (size 15 to 20)
#    0.000    2.154    1.538    1.385    2.154    2.462 
#    0.000    3.077    0.000    0.000    0.000    1.077 
#    0.000    0.000    0.000    0.000    0.000    0.000 
#
# Total GULP energy -322237.836509 kJ/mol
# GULP energy per Si atom -12393.762943 kJ/mol
# Density = 1.823240 g / cm^3
# Si number density = 18.273991 Si / 1000 Ang^3
#
#
#
# Elastic Constant Matrix: (Units=GPa)
#
#
# Indices 1 2 3 4 5 6 
#
# 1 90.3261 49.6731 22.8539 0.0009 12.8122 -0.0030
# 2 49.6731 131.1334 34.6526 0.0000 4.7757 0.0031
# 3 22.8539 34.6526 70.1693 -0.0028 16.8923 0.0109
# 4 0.0009 0.0000 -0.0028 21.8568 0.0010 -7.3181
# 5 12.8122 4.7757 16.8923 0.0010 24.9577 0.0001
# 6 -0.0030 0.0031 0.0109 -7.3181 0.0001 54.3172
#
#
#
# Elastic Compliance Matrix: (Units=1/GPa)
#
#
# Indices 1 2 3 4 5 6 
#
# 1 0.015044 -0.005257 -0.000820 0.000000 -0.006162 0.000001
# 2 -0.005257 0.010655 -0.004430 -0.000001 0.003659 0.000000
# 3 -0.000820 -0.004430 0.019593 0.000002 -0.011993 -0.000003
# 4 0.000000 -0.000001 0.000002 0.047914 -0.000003 0.006455
# 5 -0.006162 0.003659 -0.011993 -0.000003 0.050648 0.000001
# 6 0.000001 0.000000 -0.000003 0.006455 0.000001 0.019280
#
#
# Mechanical properties :
#
#
# Convention : Reuss Voigt Hill
#
# Bulk Modulus (GPa) = 41.19223 56.22088 48.70656
# Shear Modulus (GPa) = 26.00901 32.52294 29.26598
#
# Velocity S-wave (km/s) = 3.77673 4.22327 4.00623
# Velocity P-wave (km/s) = 6.45048 7.39011 6.93622
#
# Compressibility (1/GPa) = 0.02427642
#
# Stress axis : x y z
#
# Youngs Moduli (GPa) = 66.47297 93.85438 51.03798
#
# Poissons Ratio (x) = 0.49343 0.04185
# Poissons Ratio (y) = 0.34948 0.22611
# Poissons Ratio (z) = 0.05451 0.41580
#
# Static dielectric constant tensor:
#      x y z
#    x 3.529270 0.000000 0.183880 
#    y 0.000000 3.562950 0.000010 
#    z 0.183880 0.000010 3.311410 
# 
# 
# High freq. dielectric constant tensor:
#      x y z
#    x 1.708020 0.000000 0.016760 
#    y 0.000000 1.718920 0.000000 
#    z 0.016760 0.000000 1.690420 
# 
# From -- ./inp_files/160816.got.cif
#   From: 2010.06.25/outbox.cif.g09.slc.cpg/sg12_81_cif.got.tgz:160816.got - 2010.06.28 00:19:55.
