data_PCOD8096468
_publ_section_title
;
Structure prediction by ZEFSAII (Michael W. Deem and Ramdas Pophale) SiO2 
 PCOD8096468
Probable space group: C 2/M
;
_chemical_formula_sum "Si O2"
_cell_formula_units_Z 48
_cell_length_a 26.302014
_cell_length_b 15.990143
_cell_length_c 11.681069
_cell_angle_alpha 90.000000
_cell_angle_beta 149.893462
_cell_angle_gamma 90.000000
_cell_volume 2464.277754
_symmetry_space_group_name_H-M "C 2/M"
_symmetry_group_IT_number 12
_symmetry_cell_setting 'monoclinic'
loop_
_space_group_symop_operation_xyz
x,y,z
-x,y,-z
-x,-y,-z
x,-y,z
1/2+x,1/2+y,z
1/2-x,1/2+y,-z
1/2-x,1/2-y,-z
1/2+x,1/2-y,z
loop_
_atom_site_type_symbol
_atom_site_label
_atom_site_fract_x
_atom_site_fract_y
_atom_site_fract_z
Si Si1 0.204991 0.196000 0.654803
Si Si2 0.878698 0.796541 0.092053
Si Si3 0.989186 0.755449 0.851855
Si Si4 0.317185 0.405199 0.169889
Si Si5 0.392640 0.907661 0.959644
Si Si6 0.589141 0.122233 0.752815
O O1 0.265687 0.271833 0.832052
O O2 0.126810 0.237043 0.414289
O O3 0.151166 0.145745 0.654106
O O4 0.280957 0.134600 0.732484
O O5 0.877877 0.875201 0.175276
O O6 0.928379 0.720332 0.259109
O O7 0.944210 0.812045 0.104912
O O8 0.024247 0.657850 0.926194
O O9 0.000000 0.793551 0.000000
O O10 0.348251 0.500000 0.252533
O O11 0.198257 0.394940 0.908918
O O12 0.415763 0.925908 0.137105
O O13 0.396048 0.000000 0.905179
O O14 0.500000 0.086820 0.500000
#
# Coordination Sequence:
#
# PCOD8096468 Si02
#       6
#     8   8   8   8   8   8
#     4   9  18  37  59  78 116 153 184 223 285 349
#     4   9  21  32  54  83 113 147 186 227 273 343
#     4  10  22  38  60  82 104 151 205 241 270 329
#     4  10  20  33  53  84 118 145 176 225 287 341
#     4   9  20  35  55  87 114 142 184 235 290 333
#     4   9  17  30  54  79 113 147 176 213 271 348
#
# _framework density 19.478324000000001
#
# number of rings (size 3 to 8) (size 9 to 14) (size 15 to 20)
#    0.000    3.333    0.000    4.000    9.333    4.333 
#    0.000    2.500    0.000    6.500    0.000    0.000 
#    0.000    0.000    0.000    0.000    0.000    0.000 
#
# Total GULP energy -297383.629322 kJ/mol
# GULP energy per Si atom -12390.984555 kJ/mol
# Density = 1.943399 g / cm^3
# Si number density = 19.478324 Si / 1000 Ang^3
#
#
#
# Elastic Constant Matrix: (Units=GPa)
#
#
# Indices 1 2 3 4 5 6 
#
# 1 69.4902 37.3806 39.5472 0.0000 -4.6978 0.0000
# 2 37.3806 69.9602 32.1970 0.0000 1.5942 0.0000
# 3 39.5472 32.1970 92.5919 0.0000 -8.4036 0.0000
# 4 0.0000 0.0000 0.0000 4.9296 0.0000 -1.1552
# 5 -4.6978 1.5942 -8.4036 0.0000 13.7524 0.0000
# 6 0.0000 0.0000 0.0000 -1.1552 0.0000 1.8146
#
#
#
# Elastic Compliance Matrix: (Units=1/GPa)
#
#
# Indices 1 2 3 4 5 6 
#
# 1 0.023573 -0.009898 -0.006132 0.000000 0.005453 0.000000
# 2 -0.009898 0.021640 -0.004057 0.000000 -0.008369 0.000000
# 3 -0.006132 -0.004057 0.015544 0.000000 0.007874 0.000000
# 4 0.000000 0.000000 0.000000 0.238424 0.000000 0.151784
# 5 0.005453 -0.008369 0.007874 0.000000 0.080359 0.000000
# 6 0.000000 0.000000 0.000000 0.151784 0.000000 0.647704
#
#
# Mechanical properties :
#
#
# Convention : Reuss Voigt Hill
#
# Bulk Modulus (GPa) = 48.57971 50.03242 49.30607
# Shear Modulus (GPa) = 4.65428 12.29384 8.47406
#
# Velocity S-wave (km/s) = 1.54747 2.51500 2.08805
# Velocity P-wave (km/s) = 5.30918 5.84599 5.58404
#
# Compressibility (1/GPa) = 0.02058473
#
# Stress axis : x y z
#
# Youngs Moduli (GPa) = 42.42151 46.21053 64.33174
#
# Poissons Ratio (x) = 0.45738 0.39446
# Poissons Ratio (y) = 0.41987 0.26100
# Poissons Ratio (z) = 0.26012 0.18748
#
# Static dielectric constant tensor:
#      x y z
#    x 3.457820 0.000000 0.083630 
#    y 0.000000 3.328600 0.000000 
#    z 0.083630 0.000000 3.328080 
# 
# 
# High freq. dielectric constant tensor:
#      x y z
#    x 1.745350 0.000000 0.007610 
#    y 0.000000 1.737280 0.000000 
#    z 0.007610 0.000000 1.742380 
# 
# From -- ./inp_files/184218.got.cif
#   From: 2010.06.25/outbox.cif.g09.slc.cpg/sg12_93_cif.got.tgz:184218.got - 2010.06.28 00:19:55.
