data_PCOD8096555
_publ_section_title
;
Structure prediction by ZEFSAII (Michael W. Deem and Ramdas Pophale) SiO2 
 PCOD8096555
Probable space group: C 2/M
;
_chemical_formula_sum "Si O2"
_cell_formula_units_Z 56
_cell_length_a 9.241246
_cell_length_b 22.936019
_cell_length_c 19.689137
_cell_angle_alpha 90.000000
_cell_angle_beta 45.630152
_cell_angle_gamma 90.000000
_cell_volume 2983.215121
_symmetry_space_group_name_H-M "C 2/M"
_symmetry_group_IT_number 12
_symmetry_cell_setting 'monoclinic'
loop_
_space_group_symop_operation_xyz
x,y,z
-x,y,-z
-x,-y,-z
x,-y,z
1/2+x,1/2+y,z
1/2-x,1/2+y,-z
1/2-x,1/2-y,-z
1/2+x,1/2-y,z
loop_
_atom_site_type_symbol
_atom_site_label
_atom_site_fract_x
_atom_site_fract_y
_atom_site_fract_z
Si Si1 0.208873 0.811699 0.909162
Si Si2 0.412788 0.323110 0.705722
Si Si3 0.687438 0.875999 0.386632
Si Si4 0.773458 0.000000 0.599064
Si Si5 0.298768 0.374735 0.609236
Si Si6 0.446327 0.186461 0.088390
Si Si7 0.918886 0.312876 0.705123
Si Si8 0.933738 0.500000 0.598450
O O1 0.364120 0.808564 0.921791
O O2 0.132058 0.749587 0.907917
O O3 0.316268 0.839672 0.807484
O O4 0.000000 0.845560 0.000000
O O5 0.605362 0.365746 0.640645
O O6 0.309317 0.329919 0.667118
O O7 0.245126 0.345442 0.814676
O O8 0.465571 0.255333 0.698393
O O9 0.500000 0.867285 0.500000
O O10 0.708827 0.826728 0.320654
O O11 0.692619 0.940159 0.349879
O O12 0.738713 0.059379 0.653233
O O13 0.000000 0.000000 0.500000
O O14 0.629858 0.000000 0.580782
O O15 0.500000 0.376153 0.500000
O O16 0.122164 0.348525 0.620711
O O17 0.500000 0.152924 0.000000
O O18 0.000000 0.500000 0.500000
#
# Coordination Sequence:
#
# PCOD8096555 Si02
#       8
#     8   8   8   4   8   8   8   4
#     4  10  20  33  55  80 111 150 189 233 280 332
#     4  11  24  35  55  87 118 153 186 225 288 346
#     4  11  24  38  58  81 116 155 193 238 277 330
#     4  10  22  38  62  78 103 148 198 252 277 311
#     4  11  22  38  57  81 114 150 195 234 277 329
#     4  10  20  34  54  80 112 148 191 232 280 335
#     4  11  22  37  55  84 122 150 189 226 282 354
#     4  10  22  40  58  80 105 144 205 245 278 316
#
# _framework density 18.771694
#
# number of rings (size 3 to 8) (size 9 to 14) (size 15 to 20)
#    0.000    1.429    2.857    3.429   14.000    3.429 
#    0.000    0.000    0.000    0.000    0.000    6.000 
#    0.000    0.000    0.000    0.000    0.000    0.000 
#
# Total GULP energy -346879.176791 kJ/mol
# GULP energy per Si atom -12388.542028 kJ/mol
# Density = 1.872897 g / cm^3
# Si number density = 18.771694 Si / 1000 Ang^3
#
#
#
# Elastic Constant Matrix: (Units=GPa)
#
#
# Indices 1 2 3 4 5 6 
#
# 1 86.3503 24.1739 36.9805 0.0000 -2.6369 0.0001
# 2 24.1739 79.8095 32.7756 0.0000 -8.7116 0.0000
# 3 36.9805 32.7756 111.0429 0.0001 2.3377 0.0002
# 4 0.0000 0.0000 0.0001 -2.6416 0.0000 -13.3618
# 5 -2.6369 -8.7116 2.3377 0.0000 35.1217 -0.0001
# 6 0.0001 0.0000 0.0002 -13.3618 -0.0001 -11.0274
#
#
#
# Elastic Compliance Matrix: (Units=1/GPa)
#
#
# Indices 1 2 3 4 5 6 
#
# 1 0.013996 -0.002555 -0.003921 0.000000 0.000678 0.000000
# 2 -0.002555 0.015256 -0.003733 0.000000 0.003841 0.000000
# 3 -0.003921 -0.003733 0.011455 0.000000 -0.001983 0.000000
# 4 0.000000 0.000000 0.000000 0.073808 0.000000 -0.089432
# 5 0.000678 0.003841 -0.001983 0.000000 0.029608 0.000000
# 6 0.000000 0.000000 0.000000 -0.089432 0.000000 0.017681
#
#
# Mechanical properties :
#
#
# Convention : Reuss Voigt Hill
#
# Bulk Modulus (GPa) = 49.28855 51.67361 50.48108
# Shear Modulus (GPa) = 26.45718 16.50871 21.48295
#
# Velocity S-wave (km/s) = 3.75830 2.96876 3.38662
# Velocity P-wave (km/s) = 6.71914 6.27205 6.49944
#
# Compressibility (1/GPa) = 0.02028869
#
# Stress axis : x y z
#
# Youngs Moduli (GPa) = 71.44895 65.54803 87.29830
#
# Poissons Ratio (x) = 0.16747 0.34232
# Poissons Ratio (y) = 0.18255 0.32588
# Poissons Ratio (z) = 0.28017 0.24469
#
# Static dielectric constant tensor:
#      x y z
#    x 3.566380 0.000000 0.033780 
#    y 0.000000 3.554400 0.000000 
#    z 0.033780 0.000000 4.627750 
# 
# 
# High freq. dielectric constant tensor:
#      x y z
#    x 1.752410 0.000000 0.000210 
#    y 0.000000 1.690560 0.000000 
#    z 0.000210 0.000000 1.725870 
# 
# From -- ./inp_files/259545.got.cif
#   From: 2010.06.25/outbox.cif.g09.slc.cpg/sg12_130_cif.got.tgz:259545.got - 2010.06.28 00:19:55.
