data_PCOD8096952
_publ_section_title
;
Structure prediction by ZEFSAII (Michael W. Deem and Ramdas Pophale) SiO2 
 PCOD8096952
Probable space group: C 2/M
;
_chemical_formula_sum "Si O2"
_cell_formula_units_Z 56
_cell_length_a 17.937590
_cell_length_b 9.493701
_cell_length_c 19.632536
_cell_angle_alpha 90.000000
_cell_angle_beta 116.920121
_cell_angle_gamma 90.000000
_cell_volume 2981.020081
_symmetry_space_group_name_H-M "C 2/M"
_symmetry_group_IT_number 12
_symmetry_cell_setting 'monoclinic'
loop_
_space_group_symop_operation_xyz
x,y,z
-x,y,-z
-x,-y,-z
x,-y,z
1/2+x,1/2+y,z
1/2-x,1/2+y,-z
1/2-x,1/2-y,-z
1/2+x,1/2-y,z
loop_
_atom_site_type_symbol
_atom_site_label
_atom_site_fract_x
_atom_site_fract_y
_atom_site_fract_z
Si Si1 0.898469 0.336899 0.631674
Si Si2 0.975349 0.833353 0.094234
Si Si3 0.042196 0.165528 0.760497
Si Si4 0.632655 0.666599 0.074342
Si Si5 0.262824 0.336734 0.351440
Si Si6 0.229303 0.838580 0.800866
Si Si7 0.593573 0.162821 0.522691
O O1 0.917903 0.500000 0.655322
O O2 0.816162 0.285203 0.637337
O O3 0.883031 0.310712 0.545870
O O4 0.976427 0.244787 0.686574
O O5 0.962521 0.773373 0.164587
O O6 0.064221 0.782510 0.101475
O O7 0.974830 0.000000 0.094845
O O8 0.899631 0.784798 0.013604
O O9 0.132375 0.200320 0.767406
O O10 0.022018 0.000000 0.750156
O O11 0.647113 0.500000 0.083859
O O12 0.719325 0.743263 0.125504
O O13 0.282554 0.500000 0.373171
O O14 0.241421 0.308409 0.263877
O O15 0.344396 0.250284 0.404789
O O16 0.244601 0.000000 0.827812
O O17 0.500000 0.215101 0.500000
O O18 0.603210 0.000000 0.546843
#
# Coordination Sequence:
#
# PCOD8096952 Si02
#       7
#     8   8   8   8   8   8   8
#     4  10  21  36  53  75 102 129 163 208 248 286
#     4   8  16  32  52  74  98 126 167 211 243 283
#     4  10  20  34  52  73 100 134 167 201 245 295
#     4   9  17  32  54  74  95 129 169 206 245 290
#     4  10  21  36  53  74 102 134 165 200 245 295
#     4  10  21  34  48  73 106 132 160 203 249 293
#     4  10  21  36  54  77 103 129 162 206 248 287
#
# _framework density 18.785516000000001
#
# number of rings (size 3 to 8) (size 9 to 14) (size 15 to 20)
#    0.000    2.429    0.000    3.000    0.000    3.143 
#    0.000    2.143    0.000    0.000    0.000    0.000 
#    0.000    0.000    0.000    0.000    0.000    0.000 
#
# Total GULP energy -347264.675627 kJ/mol
# GULP energy per Si atom -12402.309844 kJ/mol
# Density = 1.874276 g / cm^3
# Si number density = 18.785516 Si / 1000 Ang^3
#
#
#
# Elastic Constant Matrix: (Units=GPa)
#
#
# Indices 1 2 3 4 5 6 
#
# 1 64.9149 20.6694 8.6096 0.0000 10.2512 0.0000
# 2 20.6694 47.8624 32.3773 0.0000 20.8370 0.0000
# 3 8.6096 32.3773 62.4128 0.0000 20.8770 0.0000
# 4 0.0000 0.0000 0.0000 22.8697 0.0000 3.6243
# 5 10.2512 20.8370 20.8770 0.0000 37.8668 0.0000
# 6 0.0000 0.0000 0.0000 3.6243 0.0000 18.5548
#
#
#
# Elastic Compliance Matrix: (Units=1/GPa)
#
#
# Indices 1 2 3 4 5 6 
#
# 1 0.018146 -0.009009 0.002643 0.000000 -0.001412 0.000000
# 2 -0.009009 0.040414 -0.016061 0.000000 -0.010944 0.000000
# 3 0.002643 -0.016061 0.026083 0.000000 -0.006258 0.000000
# 4 0.000000 0.000000 0.000000 0.045123 0.000000 -0.008814
# 5 -0.001412 -0.010944 -0.006258 0.000000 0.036263 0.000000
# 6 0.000000 0.000000 0.000000 -0.008814 0.000000 0.055616
#
#
# Mechanical properties :
#
#
# Convention : Reuss Voigt Hill
#
# Bulk Modulus (GPa) = 25.13408 33.16697 29.15053
# Shear Modulus (GPa) = 17.87233 23.42718 20.64975
#
# Velocity S-wave (km/s) = 3.08780 3.53524 3.31907
# Velocity P-wave (km/s) = 5.11090 5.86156 5.49905
#
# Compressibility (1/GPa) = 0.03978661
#
# Stress axis : x y z
#
# Youngs Moduli (GPa) = 55.10890 24.74413 38.33930
#
# Poissons Ratio (x) = 0.22293 -0.10132
# Poissons Ratio (y) = 0.49650 0.61578
# Poissons Ratio (z) = -0.14564 0.39742
#
# Static dielectric constant tensor:
#      x y z
#    x 3.615100 0.000000 -0.227020 
#    y 0.000000 3.198630 0.000000 
#    z -0.227020 0.000000 3.483530 
# 
# 
# High freq. dielectric constant tensor:
#      x y z
#    x 1.738470 0.000000 -0.004720 
#    y 0.000000 1.706780 0.000000 
#    z -0.004720 0.000000 1.736870 
# 
# From -- ./inp_files/275329.got.cif
#   From: 2010.06.25/outbox.cif.g09.slc.cpg/sg12_138_cif.got.tgz:275329.got - 2010.06.28 00:19:55.
