data_PCOD8096724
_publ_section_title
;
Structure prediction by ZEFSAII (Michael W. Deem and Ramdas Pophale) SiO2 
 PCOD8096724
Probable space group: C 2/M
;
_chemical_formula_sum "Si O2"
_cell_formula_units_Z 40
_cell_length_a 20.604436
_cell_length_b 8.713596
_cell_length_c 17.133691
_cell_angle_alpha 90.000000
_cell_angle_beta 125.826874
_cell_angle_gamma 90.000000
_cell_volume 2494.118727
_symmetry_space_group_name_H-M "C 2/M"
_symmetry_group_IT_number 12
_symmetry_cell_setting 'monoclinic'
loop_
_space_group_symop_operation_xyz
x,y,z
-x,y,-z
-x,-y,-z
x,-y,z
1/2+x,1/2+y,z
1/2-x,1/2+y,-z
1/2-x,1/2-y,-z
1/2+x,1/2-y,z
loop_
_atom_site_type_symbol
_atom_site_label
_atom_site_fract_x
_atom_site_fract_y
_atom_site_fract_z
Si Si1 0.380873 0.681758 0.400820
Si Si2 0.698596 0.180051 0.279484
Si Si3 0.486495 0.180455 0.605930
Si Si4 0.937834 0.825443 0.894462
Si Si5 0.071109 0.826645 0.283171
O O1 0.390281 0.500000 0.400262
O O2 0.289138 0.735279 0.331330
O O3 0.427144 0.761077 0.361853
O O4 0.416687 0.736595 0.508209
O O5 0.645742 0.229855 0.166207
O O6 0.661083 0.261608 0.330343
O O7 0.693930 0.000000 0.288972
O O8 0.476302 0.221644 0.689347
O O9 0.480307 0.000000 0.588577
O O10 0.975720 0.820949 0.833306
O O11 0.918085 0.000000 0.905433
O O12 0.000000 0.751725 0.000000
O O13 0.077268 0.000000 0.319658
#
# Coordination Sequence:
#
# PCOD8096724 Si02
#       5
#     8   8   8   8   8
#     4  10  20  34  50  68  98 133 163 193 239 288
#     4   9  18  31  49  75  97 123 160 200 237 280
#     4  11  21  32  49  71  97 128 167 201 233 280
#     4   8  16  31  51  73  96 125 157 193 242 290
#     4   9  18  32  50  71  98 128 158 196 241 285
#
# _framework density 16.037728000000001
#
# number of rings (size 3 to 8) (size 9 to 14) (size 15 to 20)
#    1.200    1.400    0.000    4.200    0.000    4.400 
#    0.000    0.000    0.000    1.200    0.000    0.000 
#    0.000    0.000    0.000    0.000    0.000    0.000 
#
# Total GULP energy -247818.928648 kJ/mol
# GULP energy per Si atom -12390.946432 kJ/mol
# Density = 1.600123 g / cm^3
# Si number density = 16.037728 Si / 1000 Ang^3
#
#
#
# Elastic Constant Matrix: (Units=GPa)
#
#
# Indices 1 2 3 4 5 6 
#
# 1 99.3782 29.8249 50.7843 0.0000 -2.5947 0.0000
# 2 29.8249 49.0872 14.4986 0.0000 0.8238 0.0000
# 3 50.7843 14.4986 71.9392 0.0000 -0.8499 0.0000
# 4 0.0000 0.0000 0.0000 23.1849 0.0000 0.0337
# 5 -2.5947 0.8238 -0.8499 0.0000 9.4432 0.0000
# 6 0.0000 0.0000 0.0000 0.0337 0.0000 27.4147
#
#
#
# Elastic Compliance Matrix: (Units=1/GPa)
#
#
# Indices 1 2 3 4 5 6 
#
# 1 0.018317 -0.007874 -0.011288 0.000000 0.004704 0.000000
# 2 -0.007874 0.025096 0.000450 0.000000 -0.004312 0.000000
# 3 -0.011288 0.000450 0.021765 0.000000 -0.001182 0.000000
# 4 0.000000 0.000000 0.000000 0.043132 0.000000 -0.000053
# 5 0.004704 -0.004312 -0.001182 0.000000 0.107458 0.000000
# 6 0.000000 0.000000 0.000000 -0.000053 0.000000 0.036477
#
#
# Mechanical properties :
#
#
# Convention : Reuss Voigt Hill
#
# Bulk Modulus (GPa) = 36.03255 45.62446 40.82851
# Shear Modulus (GPa) = 16.72693 20.36168 18.54430
#
# Velocity S-wave (km/s) = 3.23301 3.56703 3.40412
# Velocity P-wave (km/s) = 6.03760 6.74351 6.40029
#
# Compressibility (1/GPa) = 0.02775268
#
# Stress axis : x y z
#
# Youngs Moduli (GPa) = 54.59431 39.84756 45.94621
#
# Poissons Ratio (x) = 0.31376 0.51864
# Poissons Ratio (y) = 0.42988 -0.02067
# Poissons Ratio (z) = 0.61626 -0.01793
#
# Static dielectric constant tensor:
#      x y z
#    x 2.946500 0.000000 0.046200 
#    y 0.000000 3.062830 0.000000 
#    z 0.046200 0.000000 2.918870 
# 
# 
# High freq. dielectric constant tensor:
#      x y z
#    x 1.601380 0.000000 -0.001120 
#    y 0.000000 1.630640 0.000000 
#    z -0.001120 0.000000 1.593110 
# 
# From -- ./inp_files/273537.got.cif
#   From: 2010.06.25/outbox.cif.g09.slc.cpg/sg12_137_cif.got.tgz:273537.got - 2010.06.28 00:19:55.
