data_PCOD8096057
_publ_section_title
;
Structure prediction by ZEFSAII (Michael W. Deem and Ramdas Pophale) SiO2 
 PCOD8096057
Probable space group: C 2/M
;
_chemical_formula_sum "Si O2"
_cell_formula_units_Z 64
_cell_length_a 32.830659
_cell_length_b 19.695883
_cell_length_c 16.152245
_cell_angle_alpha 90.000000
_cell_angle_beta 161.925438
_cell_angle_gamma 90.000000
_cell_volume 3240.454200
_symmetry_space_group_name_H-M "C 2/M"
_symmetry_group_IT_number 12
_symmetry_cell_setting 'monoclinic'
loop_
_space_group_symop_operation_xyz
x,y,z
-x,y,-z
-x,-y,-z
x,-y,z
1/2+x,1/2+y,z
1/2-x,1/2+y,-z
1/2-x,1/2-y,-z
1/2+x,1/2-y,z
loop_
_atom_site_type_symbol
_atom_site_label
_atom_site_fract_x
_atom_site_fract_y
_atom_site_fract_z
Si Si1 0.963694 0.200635 0.024257
Si Si2 0.213788 0.580792 0.901866
Si Si3 0.799333 0.247150 0.419339
Si Si4 0.341673 0.365852 0.384491
Si Si5 0.429015 0.423115 0.074020
Si Si6 0.592105 0.074930 0.836681
Si Si7 0.832694 0.629691 0.368456
Si Si8 0.642247 0.301128 0.754637
O O1 0.067625 0.250707 0.269671
O O2 0.959275 0.125800 0.055689
O O3 0.000000 0.190124 0.000000
O O4 0.822422 0.236328 0.756934
O O5 0.243275 0.500000 0.946976
O O6 0.105953 0.593730 0.765916
O O7 0.165422 0.619084 0.726519
O O8 0.343969 0.622696 0.180299
O O9 0.787359 0.171194 0.361478
O O10 0.800341 0.296336 0.341175
O O11 0.482643 0.400333 0.676013
O O12 0.350237 0.308398 0.329941
O O13 0.234982 0.422395 0.154894
O O14 0.464058 0.500000 0.116075
O O15 0.275310 0.421118 0.801858
O O16 0.486339 0.117381 0.686035
O O17 0.535032 0.000000 0.730710
O O18 0.500000 0.270866 0.500000
O O19 0.750000 0.250000 0.000000
#
# Coordination Sequence:
#
# PCOD8096057 Si02
#       8
#     8   8   8   8   8   8   8   8
#     4  10  21  38  60  83 108 136 168 213 266 330
#     4  10  21  35  53  78 109 148 193 236 274 313
#     4  10  21  36  56  82 107 136 175 214 266 322
#     4  10  21  36  54  75 107 145 182 225 265 313
#     4  10  21  36  56  82 109 140 175 216 270 325
#     4  10  20  33  51  76 106 145 188 226 265 305
#     4  11  20  33  54  78 109 142 179 228 268 309
#     4  11  24  38  54  78 110 151 194 235 279 318
#
# _framework density 19.750318
#
# number of rings (size 3 to 8) (size 9 to 14) (size 15 to 20)
#    0.000    1.750    0.000    4.500    0.000    8.000 
#    0.000    0.000    0.000    0.000    0.000    0.000 
#    0.000   20.500    0.000    0.000    0.000    0.000 
#
# Total GULP energy -396527.529720 kJ/mol
# GULP energy per Si atom -12391.485304 kJ/mol
# Density = 1.970537 g / cm^3
# Si number density = 19.750318 Si / 1000 Ang^3
#
#
#
# Elastic Constant Matrix: (Units=GPa)
#
#
# Indices 1 2 3 4 5 6 
#
# 1 102.4259 39.7991 46.1725 0.0000 8.9195 0.0000
# 2 39.7991 80.4506 41.8269 0.0000 4.3394 0.0000
# 3 46.1725 41.8269 116.9455 0.0000 17.5820 0.0000
# 4 0.0000 0.0000 0.0000 22.1524 0.0000 -1.0424
# 5 8.9195 4.3394 17.5820 0.0000 29.2694 0.0000
# 6 0.0000 0.0000 0.0000 -1.0424 0.0000 17.7641
#
#
#
# Elastic Compliance Matrix: (Units=1/GPa)
#
#
# Indices 1 2 3 4 5 6 
#
# 1 0.013219 -0.004740 -0.003324 0.000000 -0.001329 0.000000
# 2 -0.004740 0.017002 -0.004450 0.000000 0.001597 0.000000
# 3 -0.003324 -0.004450 0.012316 0.000000 -0.005725 0.000000
# 4 0.000000 0.000000 0.000000 0.045267 0.000000 0.002656
# 5 -0.001329 0.001597 -0.005725 0.000000 0.037773 0.000000
# 6 0.000000 0.000000 0.000000 0.002656 0.000000 0.056449
#
#
# Mechanical properties :
#
#
# Convention : Reuss Voigt Hill
#
# Bulk Modulus (GPa) = 57.11094 61.71323 59.41209
# Shear Modulus (GPa) = 23.48640 25.30540 24.39590
#
# Velocity S-wave (km/s) = 3.45217 3.58336 3.51838
# Velocity P-wave (km/s) = 6.69845 6.95954 6.83024
#
# Compressibility (1/GPa) = 0.01750978
#
# Stress axis : x y z
#
# Youngs Moduli (GPa) = 75.64864 58.81669 81.19708
#
# Poissons Ratio (x) = 0.27876 0.26992
# Poissons Ratio (y) = 0.35854 0.36130
# Poissons Ratio (z) = 0.25147 0.26172
#
# Static dielectric constant tensor:
#      x y z
#    x 3.372710 0.000000 0.045550 
#    y 0.000000 3.544330 0.000000 
#    z 0.045550 0.000000 3.775250 
# 
# 
# High freq. dielectric constant tensor:
#      x y z
#    x 1.747330 0.000000 0.007670 
#    y 0.000000 1.765770 0.000000 
#    z 0.007670 0.000000 1.780060 
# 
# From -- ./inp_files/251932.got.cif
#   From: 2010.06.25/outbox.cif.g09.slc.cpg/sg12_126_cif.got.tgz:251932.got - 2010.06.28 00:19:55.
