data_PCOD8096425
_publ_section_title
;
Structure prediction by ZEFSAII (Michael W. Deem and Ramdas Pophale) SiO2 
 PCOD8096425
Probable space group: C 2/M
;
_chemical_formula_sum "Si O2"
_cell_formula_units_Z 64
_cell_length_a 14.267886
_cell_length_b 18.193582
_cell_length_c 15.449843
_cell_angle_alpha 90.000000
_cell_angle_beta 50.175808
_cell_angle_gamma 90.000000
_cell_volume 3080.140929
_symmetry_space_group_name_H-M "C 2/M"
_symmetry_group_IT_number 12
_symmetry_cell_setting 'monoclinic'
loop_
_space_group_symop_operation_xyz
x,y,z
-x,y,-z
-x,-y,-z
x,-y,z
1/2+x,1/2+y,z
1/2-x,1/2+y,-z
1/2-x,1/2-y,-z
1/2+x,1/2-y,z
loop_
_atom_site_type_symbol
_atom_site_label
_atom_site_fract_x
_atom_site_fract_y
_atom_site_fract_z
Si Si1 0.973700 0.348289 0.413572
Si Si2 0.586052 0.583410 0.765585
Si Si3 0.108580 0.587585 0.004034
Si Si4 0.361536 0.416432 0.080360
Si Si5 0.767215 0.083634 0.484373
Si Si6 0.359976 0.833987 0.842801
Si Si7 0.131502 0.838136 0.174973
Si Si8 0.046454 0.185676 0.567301
O O1 0.877106 0.407775 0.437077
O O2 0.918191 0.268126 0.424429
O O3 0.000000 0.361475 0.500000
O O4 0.088822 0.358736 0.281412
O O5 0.547628 0.500000 0.770812
O O6 0.672484 0.589959 0.798272
O O7 0.672691 0.613670 0.639482
O O8 0.456532 0.626583 0.846681
O O9 0.122792 0.500000 0.008764
O O10 0.237394 0.621883 0.894890
O O11 0.070776 0.626947 0.117417
O O12 0.000000 0.604615 0.000000
O O13 0.350148 0.500000 0.052158
O O14 0.278541 0.363965 0.071020
O O15 0.500000 0.389235 0.000000
O O16 0.833205 0.135258 0.515131
O O17 0.798367 0.000000 0.487970
O O18 0.352734 0.746965 0.859035
O O19 0.059547 0.847977 0.308686
O O20 0.000000 0.195027 0.500000
#
# Coordination Sequence:
#
# PCOD8096425 Si02
#       8
#     8   8   8   8   8   8   8   8
#     4  10  21  38  59  85 121 158 187 229 293 354
#     4   9  18  34  55  80 110 145 187 233 284 339
#     4  11  25  43  60  81 116 160 198 235 286 346
#     4  10  20  34  55  80 106 140 181 232 293 345
#     4  10  20  33  53  81 112 149 191 233 277 332
#     4  11  23  38  60  89 117 149 195 243 286 343
#     4  10  21  38  61  86 113 149 193 244 292 335
#     4   9  20  38  59  84 114 151 195 239 286 340
#
# _framework density 20.778269000000002
#
# number of rings (size 3 to 8) (size 9 to 14) (size 15 to 20)
#    0.000    2.000    0.000    3.000    0.000    5.500 
#    0.000    3.750    0.000    0.000    0.000    0.000 
#    0.000    0.000    0.000    0.000    0.000    0.000 
#
# Total GULP energy -396567.279161 kJ/mol
# GULP energy per Si atom -12392.727474 kJ/mol
# Density = 2.073098 g / cm^3
# Si number density = 20.778269 Si / 1000 Ang^3
#
#
#
# Elastic Constant Matrix: (Units=GPa)
#
#
# Indices 1 2 3 4 5 6 
#
# 1 92.2743 49.9576 19.2704 0.0000 -14.5934 0.0000
# 2 49.9576 103.2057 25.1710 0.0000 -13.1599 0.0000
# 3 19.2704 25.1710 59.8441 0.0000 -4.2617 0.0000
# 4 0.0000 0.0000 0.0000 23.9530 0.0000 -9.5649
# 5 -14.5934 -13.1599 -4.2617 0.0000 30.6333 0.0000
# 6 0.0000 0.0000 0.0000 -9.5649 0.0000 30.4448
#
#
#
# Elastic Compliance Matrix: (Units=1/GPa)
#
#
# Indices 1 2 3 4 5 6 
#
# 1 0.015409 -0.006434 -0.001949 0.000000 0.004305 0.000000
# 2 -0.006434 0.014005 -0.003644 0.000000 0.002444 0.000000
# 3 -0.001949 -0.003644 0.018880 0.000000 0.000133 0.000000
# 4 0.000000 0.000000 0.000000 0.047737 0.000000 0.014998
# 5 0.004305 0.002444 0.000133 0.000000 0.035764 0.000000
# 6 0.000000 0.000000 0.000000 0.014998 0.000000 0.037558
#
#
# Mechanical properties :
#
#
# Convention : Reuss Voigt Hill
#
# Bulk Modulus (GPa) = 41.25778 49.34689 45.30234
# Shear Modulus (GPa) = 24.81549 27.73454 26.27502
#
# Velocity S-wave (km/s) = 3.45961 3.65744 3.55990
# Velocity P-wave (km/s) = 5.98815 6.45264 6.22473
#
# Compressibility (1/GPa) = 0.02423785
#
# Stress axis : x y z
#
# Youngs Moduli (GPa) = 64.89815 71.40556 52.96625
#
# Poissons Ratio (x) = 0.45946 0.10322
# Poissons Ratio (y) = 0.41759 0.19303
# Poissons Ratio (z) = 0.12647 0.26023
#
# Static dielectric constant tensor:
#      x y z
#    x 3.925050 0.000000 0.138770 
#    y 0.000000 3.816190 0.000000 
#    z 0.138770 0.000000 3.881430 
# 
# 
# High freq. dielectric constant tensor:
#      x y z
#    x 1.808920 0.000000 0.004690 
#    y 0.000000 1.814270 0.000000 
#    z 0.004690 0.000000 1.817680 
# 
# From -- ./inp_files/271718.got.cif
#   From: 2010.06.25/outbox.cif.g09.slc.cpg/sg12_136_cif.got.tgz:271718.got - 2010.06.28 00:19:55.
