data_PCOD8096800
_publ_section_title
;
Structure prediction by ZEFSAII (Michael W. Deem and Ramdas Pophale) SiO2 
 PCOD8096800
Probable space group: C 2/M
;
_chemical_formula_sum "Si O2"
_cell_formula_units_Z 48
_cell_length_a 30.251695
_cell_length_b 9.179110
_cell_length_c 17.501853
_cell_angle_alpha 90.000000
_cell_angle_beta 32.032910
_cell_angle_gamma 90.000000
_cell_volume 2577.762973
_symmetry_space_group_name_H-M "C 2/M"
_symmetry_group_IT_number 12
_symmetry_cell_setting 'monoclinic'
loop_
_space_group_symop_operation_xyz
x,y,z
-x,y,-z
-x,-y,-z
x,-y,z
1/2+x,1/2+y,z
1/2-x,1/2+y,-z
1/2-x,1/2-y,-z
1/2+x,1/2-y,z
loop_
_atom_site_type_symbol
_atom_site_label
_atom_site_fract_x
_atom_site_fract_y
_atom_site_fract_z
Si Si1 0.016044 0.172570 0.357702
Si Si2 0.367128 0.327604 0.680293
Si Si3 0.773121 0.169081 0.353506
Si Si4 0.215245 0.169868 0.837949
Si Si5 0.467377 0.328035 0.837927
Si Si6 0.620067 0.169956 0.684145
O O1 0.093312 0.224530 0.297103
O O2 0.025605 0.234879 0.258457
O O3 0.928698 0.225008 0.522036
O O4 0.017285 0.000000 0.354376
O O5 0.355171 0.500000 0.695780
O O6 0.278058 0.253090 0.801592
O O7 0.769364 0.219166 0.271506
O O8 0.683164 0.200664 0.521991
O O9 0.843506 0.264341 0.291328
O O10 0.798064 0.000000 0.325042
O O11 0.231761 0.000000 0.824272
O O12 0.122560 0.212780 0.997927
O O13 0.484557 0.500000 0.815611
O O14 0.533525 0.248254 0.794204
O O15 0.604261 0.000000 0.719661
#
# Coordination Sequence:
#
# PCOD8096800 Si02
#       6
#     8   8   8   8   8   8
#     4   8  16  32  53  75  97 128 169 204 239 288
#     4   9  17  32  54  75  97 128 167 208 243 280
#     4   9  19  36  54  72  98 130 162 199 246 296
#     4  10  21  34  49  73 103 133 163 197 243 297
#     4  10  20  34  51  71 101 137 165 194 241 298
#     4  10  20  34  54  77  97 122 164 211 245 282
#
# _framework density 18.620795999999999
#
# number of rings (size 3 to 8) (size 9 to 14) (size 15 to 20)
#    0.000    2.667    0.000    2.500    0.000    3.333 
#    0.000    5.833    0.000    0.000    0.000    0.000 
#    0.000    0.000    0.000    0.000    0.000    0.000 
#
# Total GULP energy -297633.939290 kJ/mol
# GULP energy per Si atom -12401.414137 kJ/mol
# Density = 1.857841 g / cm^3
# Si number density = 18.620796 Si / 1000 Ang^3
#
#
#
# Elastic Constant Matrix: (Units=GPa)
#
#
# Indices 1 2 3 4 5 6 
#
# 1 85.5057 36.0266 38.7715 -0.0027 -30.3714 0.0016
# 2 36.0266 48.0819 33.8724 -0.0023 -20.5373 0.0038
# 3 38.7715 33.8724 71.7012 -0.0053 -26.6100 0.0032
# 4 -0.0027 -0.0023 -0.0053 22.0546 0.0030 -6.8980
# 5 -30.3714 -20.5373 -26.6100 0.0030 32.8863 -0.0012
# 6 0.0016 0.0038 0.0032 -6.8980 -0.0012 28.2757
#
#
#
# Elastic Compliance Matrix: (Units=1/GPa)
#
#
# Indices 1 2 3 4 5 6 
#
# 1 0.020669 -0.008584 -0.002896 0.000000 0.011384 0.000001
# 2 -0.008584 0.037669 -0.010526 -0.000002 0.007079 -0.000004
# 3 -0.002896 -0.010526 0.024372 0.000003 0.010472 0.000000
# 4 0.000000 -0.000002 0.000003 0.049088 -0.000003 0.011975
# 5 0.011384 0.007079 0.010472 -0.000003 0.053816 -0.000001
# 6 0.000001 -0.000004 0.000000 0.011975 -0.000001 0.038287
#
#
# Mechanical properties :
#
#
# Convention : Reuss Voigt Hill
#
# Bulk Modulus (GPa) = 25.84198 46.95886 36.40042
# Shear Modulus (GPa) = 17.80553 23.08455 20.44504
#
# Velocity S-wave (km/s) = 3.09563 3.52478 3.31715
# Velocity P-wave (km/s) = 5.16579 6.46829 5.85338
#
# Compressibility (1/GPa) = 0.03869673
#
# Stress axis : x y z
#
# Youngs Moduli (GPa) = 48.38257 26.54737 41.03027
#
# Poissons Ratio (x) = 0.22787 0.11884
# Poissons Ratio (y) = 0.41529 0.43190
# Poissons Ratio (z) = 0.14014 0.27945
#
# Static dielectric constant tensor:
#      x y z
#    x 3.555730 0.000000 0.133320 
#    y 0.000000 3.144520 0.000000 
#    z 0.133320 0.000000 3.438880 
# 
# 
# High freq. dielectric constant tensor:
#      x y z
#    x 1.732850 0.000000 -0.002660 
#    y 0.000000 1.699630 0.000000 
#    z -0.002660 0.000000 1.719630 
# 
# From -- ./inp_files/244888.got.cif
#   From: 2010.06.25/outbox.cif.g09.slc.cpg/sg12_123_cif.got.tgz:244888.got - 2010.06.28 00:19:55.
