data_PCOD8096079
_publ_section_title
;
Structure prediction by ZEFSAII (Michael W. Deem and Ramdas Pophale) SiO2 
 PCOD8096079
Probable space group: C 2/M
;
_chemical_formula_sum "Si O2"
_cell_formula_units_Z 48
_cell_length_a 14.168797
_cell_length_b 9.320426
_cell_length_c 23.434890
_cell_angle_alpha 90.000000
_cell_angle_beta 53.783450
_cell_angle_gamma 90.000000
_cell_volume 2496.847369
_symmetry_space_group_name_H-M "C 2/M"
_symmetry_group_IT_number 12
_symmetry_cell_setting 'monoclinic'
loop_
_space_group_symop_operation_xyz
x,y,z
-x,y,-z
-x,-y,-z
x,-y,z
1/2+x,1/2+y,z
1/2-x,1/2+y,-z
1/2-x,1/2-y,-z
1/2+x,1/2-y,z
loop_
_atom_site_type_symbol
_atom_site_label
_atom_site_fract_x
_atom_site_fract_y
_atom_site_fract_z
Si Si1 0.151443 0.666865 0.107785
Si Si2 0.511573 0.335531 0.248475
Si Si3 0.417912 0.665422 0.653204
Si Si4 0.253077 0.167860 0.629391
Si Si5 0.891047 0.158218 0.496318
Si Si6 0.118653 0.333876 0.988172
O O1 0.166765 0.500000 0.115563
O O2 0.053411 0.732023 0.183586
O O3 0.106952 0.694514 0.059621
O O4 0.275189 0.742636 0.075544
O O5 0.519935 0.500000 0.224711
O O6 0.591448 0.310787 0.275776
O O7 0.380313 0.293761 0.311335
O O8 0.390193 0.500000 0.646802
O O9 0.325036 0.767059 0.656195
O O10 0.551995 0.700840 0.585173
O O11 0.292520 0.231890 0.553765
O O12 0.276757 0.000000 0.618312
O O13 0.000000 0.160491 0.500000
O O14 0.833952 0.000000 0.513856
O O15 0.144483 0.500000 0.965713
O O16 0.000000 0.282720 0.000000
#
# Coordination Sequence:
#
# PCOD8096079 Si02
#       6
#     8   8   8   8   8   8
#     4  10  21  36  56  84 112 136 172 218 254 296
#     4  10  22  38  53  73 108 147 175 208 262 319
#     4   9  19  36  54  71  98 141 183 215 260 322
#     4  10  20  33  51  77 105 134 174 225 273 310
#     4   8  15  30  51  72  97 133 177 221 264 315
#     4   9  19  38  62  84 108 141 174 204 250 310
#
# _framework density 19.224240999999999
#
# number of rings (size 3 to 8) (size 9 to 14) (size 15 to 20)
#    0.000    2.667    0.000    2.000    0.000    8.000 
#    0.000    5.000    0.000    0.000    0.000    0.000 
#    0.000    0.000    0.000    0.000    0.000    0.000 
#
# Total GULP energy -297585.716536 kJ/mol
# GULP energy per Si atom -12399.404856 kJ/mol
# Density = 1.918049 g / cm^3
# Si number density = 19.224241 Si / 1000 Ang^3
#
#
#
# Elastic Constant Matrix: (Units=GPa)
#
#
# Indices 1 2 3 4 5 6 
#
# 1 60.5576 34.5664 29.9420 0.0000 -10.7676 0.0000
# 2 34.5664 94.3269 58.0188 0.0000 -7.5579 0.0000
# 3 29.9420 58.0188 97.8169 0.0000 1.5888 0.0000
# 4 0.0000 0.0000 0.0000 41.2645 0.0000 -3.3804
# 5 -10.7676 -7.5579 1.5888 0.0000 22.4816 0.0000
# 6 0.0000 0.0000 0.0000 -3.3804 0.0000 20.2749
#
#
#
# Elastic Compliance Matrix: (Units=1/GPa)
#
#
# Indices 1 2 3 4 5 6 
#
# 1 0.023269 -0.005149 -0.004226 0.000000 0.009712 0.000000
# 2 -0.005149 0.018777 -0.009635 0.000000 0.004527 0.000000
# 3 -0.004226 -0.009635 0.017337 0.000000 -0.006488 0.000000
# 4 0.000000 0.000000 0.000000 0.024569 0.000000 0.004096
# 5 0.009712 0.004527 -0.006488 0.000000 0.051113 0.000000
# 6 0.000000 0.000000 0.000000 0.004096 0.000000 0.050005
#
#
# Mechanical properties :
#
#
# Convention : Reuss Voigt Hill
#
# Bulk Modulus (GPa) = 46.81084 55.30618 51.05851
# Shear Modulus (GPa) = 21.71908 25.48250 23.60079
#
# Velocity S-wave (km/s) = 3.36486 3.64475 3.50760
# Velocity P-wave (km/s) = 6.28483 6.82229 6.55907
#
# Compressibility (1/GPa) = 0.02136257
#
# Stress axis : x y z
#
# Youngs Moduli (GPa) = 42.97581 53.25553 57.68011
#
# Poissons Ratio (x) = 0.27423 0.24377
# Poissons Ratio (y) = 0.22130 0.55574
# Poissons Ratio (z) = 0.18162 0.51311
#
# Static dielectric constant tensor:
#      x y z
#    x 3.455600 0.000000 0.169530 
#    y 0.000000 3.487250 0.000000 
#    z 0.169530 0.000000 3.668720 
# 
# 
# High freq. dielectric constant tensor:
#      x y z
#    x 1.741960 0.000000 0.005100 
#    y 0.000000 1.746040 0.000000 
#    z 0.005100 0.000000 1.747960 
# 
# From -- ./inp_files/267721.got.cif
#   From: 2010.06.25/outbox.cif.g09.slc.cpg/sg12_134_cif.got.tgz:267721.got - 2010.06.28 00:19:55.
