data_PCOD8096430
_publ_section_title
;
Structure prediction by ZEFSAII (Michael W. Deem and Ramdas Pophale) SiO2 
 PCOD8096430
Probable space group: C 2/M
;
_chemical_formula_sum "Si O2"
_cell_formula_units_Z 40
_cell_length_a 15.354171
_cell_length_b 8.887409
_cell_length_c 30.755365
_cell_angle_alpha 90.000000
_cell_angle_beta 28.973732
_cell_angle_gamma 90.000000
_cell_volume 2032.985401
_symmetry_space_group_name_H-M "C 2/M"
_symmetry_group_IT_number 12
_symmetry_cell_setting 'monoclinic'
loop_
_space_group_symop_operation_xyz
x,y,z
-x,y,-z
-x,-y,-z
x,-y,z
1/2+x,1/2+y,z
1/2-x,1/2+y,-z
1/2-x,1/2-y,-z
1/2+x,1/2-y,z
loop_
_atom_site_type_symbol
_atom_site_label
_atom_site_fract_x
_atom_site_fract_y
_atom_site_fract_z
Si Si1 0.203445 0.821919 0.727225
Si Si2 0.536700 0.180247 0.716355
Si Si3 0.412401 0.822879 0.403743
Si Si4 0.389646 0.834210 0.908865
Si Si5 0.187037 0.164585 0.908392
O O1 0.166532 0.753284 0.695646
O O2 0.402727 0.772765 0.654275
O O3 0.071528 0.760675 0.822641
O O4 0.179934 0.000000 0.735015
O O5 0.597953 0.231415 0.641855
O O6 0.328189 0.239454 0.812981
O O7 0.540755 0.000000 0.720551
O O8 0.250000 0.750000 0.500000
O O9 0.391374 0.000000 0.414980
O O10 0.300035 0.854591 0.901988
O O11 0.434571 0.000000 0.908570
O O12 0.250000 0.750000 0.000000
O O13 0.129734 0.000000 0.914902
O O14 0.000000 0.256039 0.000000
#
# Coordination Sequence:
#
# PCOD8096430 Si02
#       5
#     8   8   8   8   8
#     4  10  21  38  59  84 116 151 189 238 292 344
#     4   9  19  37  58  82 113 150 192 234 285 343
#     4  10  23  40  61  86 113 151 195 240 291 349
#     4  10  20  33  53  81 114 152 190 231 281 338
#     4   8  15  28  51  77 102 140 185 223 266 327
#
# _framework density 19.675497
#
# number of rings (size 3 to 8) (size 9 to 14) (size 15 to 20)
#    0.000    2.600    0.000    2.400    2.800    3.200 
#    0.000    4.000    0.000    3.000    0.000    0.000 
#    0.000    0.000    0.000    0.000    0.000    0.000 
#
# Total GULP energy -247813.844984 kJ/mol
# GULP energy per Si atom -12390.692249 kJ/mol
# Density = 1.963071 g / cm^3
# Si number density = 19.675497 Si / 1000 Ang^3
#
#
#
# Elastic Constant Matrix: (Units=GPa)
#
#
# Indices 1 2 3 4 5 6 
#
# 1 94.2421 40.7007 83.1157 -0.0002 0.3328 0.0003
# 2 40.7007 69.6252 55.0990 0.0002 -0.1962 0.0004
# 3 83.1157 55.0990 203.1658 0.0004 3.8185 0.0012
# 4 -0.0002 0.0002 0.0004 32.0286 0.0018 0.2667
# 5 0.3328 -0.1962 3.8185 0.0018 37.0658 0.0001
# 6 0.0003 0.0004 0.0012 0.2667 0.0001 25.8336
#
#
#
# Elastic Compliance Matrix: (Units=1/GPa)
#
#
# Indices 1 2 3 4 5 6 
#
# 1 0.018453 -0.006119 -0.005898 0.000000 0.000409 0.000000
# 2 -0.006119 0.020330 -0.003019 0.000000 0.000474 0.000000
# 3 -0.005898 -0.003019 0.008169 0.000000 -0.000805 0.000000
# 4 0.000000 0.000000 0.000000 0.031225 -0.000001 -0.000322
# 5 0.000409 0.000474 -0.000805 -0.000001 0.027061 0.000000
# 6 0.000000 0.000000 0.000000 -0.000322 0.000000 0.038713
#
#
# Mechanical properties :
#
#
# Convention : Reuss Voigt Hill
#
# Bulk Modulus (GPa) = 59.23875 80.54044 69.88959
# Shear Modulus (GPa) = 27.83203 31.52678 29.67940
#
# Velocity S-wave (km/s) = 3.76513 4.00726 3.88808
# Velocity P-wave (km/s) = 7.00535 7.90153 7.46689
#
# Compressibility (1/GPa) = 0.01688084
#
# Stress axis : x y z
#
# Youngs Moduli (GPa) = 54.19036 49.18786 122.41807
#
# Poissons Ratio (x) = 0.30098 0.72197
# Poissons Ratio (y) = 0.33159 0.36960
# Poissons Ratio (z) = 0.31959 0.14851
#
# Static dielectric constant tensor:
#      x y z
#    x 3.113680 -0.000010 -0.391210 
#    y -0.000010 3.487000 -0.000010 
#    z -0.391210 -0.000010 3.663860 
# 
# 
# High freq. dielectric constant tensor:
#      x y z
#    x 1.761040 0.000000 0.001160 
#    y 0.000000 1.743060 0.000000 
#    z 0.001160 0.000000 1.781220 
# 
# From -- ./inp_files/211242.got.cif
#   From: 2010.06.25/outbox.cif.g09.slc.cpg/sg12_106_cif.got.tgz:211242.got - 2010.06.28 00:19:55.
