data_PCOD8096669
_publ_section_title
;
Structure prediction by ZEFSAII (Michael W. Deem and Ramdas Pophale) SiO2 
 PCOD8096669
Probable space group: C 2/M
;
_chemical_formula_sum "Si O2"
_cell_formula_units_Z 44
_cell_length_a 14.504700
_cell_length_b 27.652953
_cell_length_c 7.849968
_cell_angle_alpha 90.000000
_cell_angle_beta 138.162502
_cell_angle_gamma 90.000000
_cell_volume 2100.183046
_symmetry_space_group_name_H-M "C 2/M"
_symmetry_group_IT_number 12
_symmetry_cell_setting 'monoclinic'
loop_
_space_group_symop_operation_xyz
x,y,z
-x,y,-z
-x,-y,-z
x,-y,z
1/2+x,1/2+y,z
1/2-x,1/2+y,-z
1/2-x,1/2-y,-z
1/2+x,1/2-y,z
loop_
_atom_site_type_symbol
_atom_site_label
_atom_site_fract_x
_atom_site_fract_y
_atom_site_fract_z
Si Si1 0.000000 0.285746 0.500000
Si Si2 0.814525 0.218142 0.441742
Si Si3 0.958344 0.148669 0.244367
Si Si4 0.438882 0.448539 0.604857
Si Si5 0.171149 0.655278 0.976537
Si Si6 0.635692 0.946010 0.074765
O O1 0.130782 0.252577 0.633494
O O2 0.038255 0.318564 0.714934
O O3 0.750000 0.250000 0.500000
O O4 0.945222 0.189827 0.707008
O O5 0.706895 0.179998 0.208805
O O6 0.000000 0.144820 0.500000
O O7 0.990634 0.096681 0.200194
O O8 0.796704 0.161340 0.013118
O O9 0.500000 0.450603 0.500000
O O10 0.473641 0.500000 0.743602
O O11 0.273557 0.441071 0.377718
O O12 0.137830 0.598150 0.944080
O O13 0.634168 0.000000 0.985817
O O14 0.500000 0.939452 0.000000
#
# Coordination Sequence:
#
# PCOD8096669 Si02
#       6
#     4   8   8   8   8   8
#     4  12  26  40  57  84 127 170 206 254 316 372
#     4  11  23  39  61  87 117 158 206 264 318 362
#     4   9  16  34  56  82 115 145 195 259 291 356
#     4   9  14  26  52  83 110 146 189 241 307 356
#     4  11  22  41  60  86 125 161 206 257 308 379
#     4  10  20  33  57  93 127 156 198 261 317 374
#
# _framework density 20.950555000000001
#
# number of rings (size 3 to 8) (size 9 to 14) (size 15 to 20)
#    0.000    1.818    8.182    0.545    2.545    0.000 
#    0.000    0.455    0.000    0.000    0.000    0.000 
#    0.000    7.273    0.000    0.000    0.000    0.000 
#
# Total GULP energy -272581.884215 kJ/mol
# GULP energy per Si atom -12390.085646 kJ/mol
# Density = 2.090287 g / cm^3
# Si number density = 20.950555 Si / 1000 Ang^3
#
#
#
# Elastic Constant Matrix: (Units=GPa)
#
#
# Indices 1 2 3 4 5 6 
#
# 1 84.5186 42.0404 18.9272 0.0000 20.5617 0.0000
# 2 42.0404 180.9118 28.4682 0.0000 2.7480 0.0000
# 3 18.9272 28.4682 49.1960 0.0000 13.1091 0.0000
# 4 0.0000 0.0000 0.0000 17.3275 0.0000 15.9913
# 5 20.5617 2.7480 13.1091 0.0000 23.7046 0.0000
# 6 0.0000 0.0000 0.0000 15.9913 0.0000 33.2157
#
#
#
# Elastic Compliance Matrix: (Units=1/GPa)
#
#
# Indices 1 2 3 4 5 6 
#
# 1 0.017270 -0.003681 -0.000746 0.000000 -0.014141 0.000000
# 2 -0.003681 0.006909 -0.003776 0.000000 0.004480 0.000000
# 3 -0.000746 -0.003776 0.026400 0.000000 -0.013515 0.000000
# 4 0.000000 0.000000 0.000000 0.103856 0.000000 -0.050000
# 5 -0.014141 0.004480 -0.013515 0.000000 0.061406 0.000000
# 6 0.000000 0.000000 0.000000 -0.050000 0.000000 0.054178
#
#
# Mechanical properties :
#
#
# Convention : Reuss Voigt Hill
#
# Bulk Modulus (GPa) = 29.26243 54.83312 42.04778
# Shear Modulus (GPa) = 16.78887 29.86227 23.32557
#
# Velocity S-wave (km/s) = 2.83390 3.77950 3.34033
# Velocity P-wave (km/s) = 4.97048 6.72872 5.91529
#
# Compressibility (1/GPa) = 0.03417351
#
# Stress axis : x y z
#
# Youngs Moduli (GPa) = 57.90399 144.73813 37.87878
#
# Poissons Ratio (x) = 0.53278 0.02826
# Poissons Ratio (y) = 0.21314 0.14302
# Poissons Ratio (z) = 0.04320 0.54648
#
# Static dielectric constant tensor:
#      x y z
#    x 3.908870 0.000000 0.367120 
#    y 0.000000 4.739230 0.000000 
#    z 0.367120 0.000000 3.511930 
# 
# 
# High freq. dielectric constant tensor:
#      x y z
#    x 1.788290 0.000000 0.051540 
#    y 0.000000 1.859950 0.000000 
#    z 0.051540 0.000000 1.768980 
# 
# From -- ./inp_files/67165.got.cif
#   From: 2010.06.25/outbox.cif.g09.slc.cpg/sg12_34_cif.got.tgz:67165.got - 2010.06.28 00:19:55.
