data_PCOD8096887
_publ_section_title
;
Structure prediction by ZEFSAII (Michael W. Deem and Ramdas Pophale) SiO2 
 PCOD8096887
Probable space group: C 2/M
;
_chemical_formula_sum "Si O2"
_cell_formula_units_Z 56
_cell_length_a 22.798326
_cell_length_b 24.041759
_cell_length_c 8.962883
_cell_angle_alpha 90.000000
_cell_angle_beta 37.816059
_cell_angle_gamma 90.000000
_cell_volume 3012.093350
_symmetry_space_group_name_H-M "C 2/M"
_symmetry_group_IT_number 12
_symmetry_cell_setting 'monoclinic'
loop_
_space_group_symop_operation_xyz
x,y,z
-x,y,-z
-x,-y,-z
x,-y,z
1/2+x,1/2+y,z
1/2-x,1/2+y,-z
1/2-x,1/2-y,-z
1/2+x,1/2-y,z
loop_
_atom_site_type_symbol
_atom_site_label
_atom_site_fract_x
_atom_site_fract_y
_atom_site_fract_z
Si Si1 0.807753 0.330951 0.639574
Si Si2 0.851942 0.245842 0.127956
Si Si3 0.577356 0.062210 0.123394
Si Si4 0.868267 0.562699 0.649633
Si Si5 0.906066 0.166693 0.271362
Si Si6 0.962104 0.242083 0.412623
Si Si7 0.704607 0.859454 0.666707
O O1 0.704939 0.300893 0.851333
O O2 0.793397 0.389760 0.753537
O O3 0.884019 0.291365 0.569983
O O4 0.838203 0.347452 0.410501
O O5 0.875473 0.222850 0.245204
O O6 0.787575 0.300577 0.264562
O O7 0.947724 0.265846 0.856725
O O8 0.467811 0.080504 0.369743
O O9 0.628552 0.064311 0.179276
O O10 0.579751 0.000000 0.054069
O O11 0.633478 0.098724 0.890692
O O12 0.838608 0.500000 0.658406
O O13 0.927155 0.185525 0.399423
O O14 0.817569 0.122047 0.440836
O O15 0.000000 0.140731 0.000000
O O16 0.000000 0.226240 0.500000
#
# Coordination Sequence:
#
# PCOD8096887 Si02
#       7
#     8   8   8   8   8   8   8
#     4  11  21  34  51  78 106 139 179 212 258 306
#     4  10  20  34  51  74 107 140 173 212 261 310
#     4   9  20  36  54  76 103 138 177 213 258 309
#     4   9  20  37  51  72 108 142 169 211 264 306
#     4   9  18  36  51  69 106 143 167 210 266 308
#     4  11  22  31  47  75 109 139 175 210 253 308
#     4  11  19  34  55  76 102 139 178 217 253 305
#
# _framework density 18.591722000000001
#
# number of rings (size 3 to 8) (size 9 to 14) (size 15 to 20)
#    0.000    2.000    2.857    2.571    4.000    4.000 
#    0.000    1.429    0.000    0.429    0.000    3.000 
#    0.000   21.714    0.000    0.000    0.000    0.000 
#
# Total GULP energy -346979.889925 kJ/mol
# GULP energy per Si atom -12392.138926 kJ/mol
# Density = 1.854941 g / cm^3
# Si number density = 18.591722 Si / 1000 Ang^3
#
#
#
# Elastic Constant Matrix: (Units=GPa)
#
#
# Indices 1 2 3 4 5 6 
#
# 1 87.4079 13.4131 3.2040 0.0000 2.6446 0.0000
# 2 13.4131 45.1586 -9.2506 0.0000 -1.3559 0.0000
# 3 3.2040 -9.2506 35.1716 0.0000 -5.6871 0.0000
# 4 0.0000 0.0000 0.0000 22.2363 0.0000 1.2203
# 5 2.6446 -1.3559 -5.6871 0.0000 23.6719 0.0000
# 6 0.0000 0.0000 0.0000 1.2203 0.0000 21.2454
#
#
#
# Elastic Compliance Matrix: (Units=1/GPa)
#
#
# Indices 1 2 3 4 5 6 
#
# 1 0.012254 -0.004238 -0.002592 0.000000 -0.002234 0.000000
# 2 -0.004238 0.025068 0.007583 0.000000 0.003731 0.000000
# 3 -0.002592 0.007583 0.032024 0.000000 0.008417 0.000000
# 4 0.000000 0.000000 0.000000 0.045114 0.000000 -0.002591
# 5 -0.002234 0.003731 0.008417 0.000000 0.044730 0.000000
# 6 0.000000 0.000000 0.000000 -0.002591 0.000000 0.047218
#
#
# Mechanical properties :
#
#
# Convention : Reuss Voigt Hill
#
# Bulk Modulus (GPa) = 14.11415 20.27457 17.19436
# Shear Modulus (GPa) = 21.88015 24.12218 23.00117
#
# Velocity S-wave (km/s) = 3.43428 3.60595 3.52116
# Velocity P-wave (km/s) = 4.83051 5.31658 5.07936
#
# Compressibility (1/GPa) = 0.07085086
#
# Stress axis : x y z
#
# Youngs Moduli (GPa) = 81.60928 39.89130 31.22705
#
# Poissons Ratio (x) = 0.16904 0.08094
# Poissons Ratio (y) = 0.34583 -0.23678
# Poissons Ratio (z) = 0.21154 -0.30248
#
# Static dielectric constant tensor:
#      x y z
#    x 3.443260 0.000000 -0.088940 
#    y 0.000000 3.184350 0.000000 
#    z -0.088940 0.000000 3.503730 
# 
# 
# High freq. dielectric constant tensor:
#      x y z
#    x 1.721370 0.000000 0.000130 
#    y 0.000000 1.686160 0.000000 
#    z 0.000130 0.000000 1.715420 
# 
# From -- ./inp_files/99608.got.cif
#   From: 2010.06.25/outbox.cif.g09.slc.cpg/sg12_50_cif.got.tgz:99608.got - 2010.06.28 00:19:55.
