data_PCOD8096905
_publ_section_title
;
Structure prediction by ZEFSAII (Michael W. Deem and Ramdas Pophale) SiO2 
 PCOD8096905
Probable space group: C 2/M
;
_chemical_formula_sum "Si O2"
_cell_formula_units_Z 56
_cell_length_a 9.615387
_cell_length_b 23.443964
_cell_length_c 19.484849
_cell_angle_alpha 90.000000
_cell_angle_beta 38.257239
_cell_angle_gamma 90.000000
_cell_volume 2719.700069
_symmetry_space_group_name_H-M "C 2/M"
_symmetry_group_IT_number 12
_symmetry_cell_setting 'monoclinic'
loop_
_space_group_symop_operation_xyz
x,y,z
-x,y,-z
-x,-y,-z
x,-y,z
1/2+x,1/2+y,z
1/2-x,1/2+y,-z
1/2-x,1/2-y,-z
1/2+x,1/2-y,z
loop_
_atom_site_type_symbol
_atom_site_label
_atom_site_fract_x
_atom_site_fract_y
_atom_site_fract_z
Si Si1 0.039214 0.275362 0.622107
Si Si2 0.103915 0.388306 0.272683
Si Si3 0.818941 0.068545 0.814741
Si Si4 0.181085 0.563997 0.381217
Si Si5 0.509625 0.870404 0.162310
Si Si6 0.562790 0.255339 0.761071
Si Si7 0.612125 0.355816 0.090056
O O1 0.250000 0.250000 0.500000
O O2 0.983491 0.240256 0.713005
O O3 0.075935 0.340890 0.631552
O O4 0.818739 0.277462 0.660327
O O5 0.104978 0.436958 0.330633
O O6 0.356016 0.364979 0.168395
O O7 0.038376 0.408153 0.221150
O O8 0.661602 0.094073 0.817462
O O9 0.768275 0.095816 0.908735
O O10 0.073517 0.090967 0.701942
O O11 0.794894 0.000000 0.828317
O O12 0.200902 0.500000 0.399950
O O13 0.000000 0.596435 0.500000
O O14 0.420527 0.808400 0.216485
O O15 0.745795 0.858065 0.034256
O O16 0.386868 0.294106 0.872358
#
# Coordination Sequence:
#
# PCOD8096905 Si02
#       7
#     8   8   8   8   8   8   8
#     4  10  20  34  51  75 109 142 177 228 284 334
#     4   9  21  35  53  81 108 141 185 227 274 338
#     4  10  22  38  58  87 115 145 191 235 278 336
#     4   9  19  39  62  79 103 144 188 226 269 331
#     4  11  21  35  55  82 116 145 180 238 288 324
#     4  10  21  35  53  80 107 144 194 228 271 337
#     4  10  20  37  57  76 110 155 192 227 272 333
#
# _framework density 20.590506000000001
#
# number of rings (size 3 to 8) (size 9 to 14) (size 15 to 20)
#    0.000    2.143    0.000    2.571    0.000    6.286 
#    0.000    6.429    0.000    6.857    0.000    0.000 
#    0.000    0.000    0.000    0.000    0.000    0.000 
#
# Total GULP energy -346922.162259 kJ/mol
# GULP energy per Si atom -12390.077224 kJ/mol
# Density = 2.054364 g / cm^3
# Si number density = 20.590506 Si / 1000 Ang^3
#
#
#
# Elastic Constant Matrix: (Units=GPa)
#
#
# Indices 1 2 3 4 5 6 
#
# 1 108.7121 23.9083 31.2896 0.0006 9.3332 -0.0005
# 2 23.9083 63.5043 15.1427 0.0000 2.0017 -0.0001
# 3 31.2896 15.1427 104.4162 -0.0018 7.1142 0.0005
# 4 0.0006 0.0000 -0.0018 19.2505 0.0001 1.2618
# 5 9.3332 2.0017 7.1142 0.0001 22.5890 -0.0001
# 6 -0.0005 -0.0001 0.0005 1.2618 -0.0001 32.1776
#
#
#
# Elastic Compliance Matrix: (Units=1/GPa)
#
#
# Indices 1 2 3 4 5 6 
#
# 1 0.010981 -0.003415 -0.002562 -0.000001 -0.003428 0.000000
# 2 -0.003415 0.017385 -0.001522 0.000000 0.000350 0.000000
# 3 -0.002562 -0.001522 0.010714 0.000001 -0.002181 0.000000
# 4 -0.000001 0.000000 0.000001 0.052081 0.000000 -0.002042
# 5 -0.003428 0.000350 -0.002181 0.000000 0.046342 0.000000
# 6 0.000000 0.000000 0.000000 -0.002042 0.000000 0.031158
#
#
# Mechanical properties :
#
#
# Convention : Reuss Voigt Hill
#
# Bulk Modulus (GPa) = 41.52408 46.36821 43.94614
# Shear Modulus (GPa) = 26.08450 28.55621 27.32036
#
# Velocity S-wave (km/s) = 3.56311 3.72810 3.64654
# Velocity P-wave (km/s) = 6.09410 6.41091 6.25451
#
# Compressibility (1/GPa) = 0.02408241
#
# Stress axis : x y z
#
# Youngs Moduli (GPa) = 91.06340 57.52228 93.33577
#
# Poissons Ratio (x) = 0.19646 0.23911
# Poissons Ratio (y) = 0.31102 0.14201
# Poissons Ratio (z) = 0.23329 0.08752
#
# Static dielectric constant tensor:
#      x y z
#    x 3.802620 0.000000 0.138110 
#    y 0.000000 3.582200 0.000000 
#    z 0.138110 0.000000 3.911450 
# 
# 
# High freq. dielectric constant tensor:
#      x y z
#    x 1.809880 0.000000 0.006950 
#    y 0.000000 1.788990 0.000000 
#    z 0.006950 0.000000 1.805800 
# 
# From -- ./inp_files/124370.got.cif
#   From: 2010.06.25/outbox.cif.g09.slc.cpg/sg12_63_cif.got.tgz:124370.got - 2010.06.28 00:19:55.
