data_PCOD8096478
_publ_section_title
;
Structure prediction by ZEFSAII (Michael W. Deem and Ramdas Pophale) SiO2 
 PCOD8096478
Probable space group: C 2/M
;
_chemical_formula_sum "Si O2"
_cell_formula_units_Z 56
_cell_length_a 20.868845
_cell_length_b 8.934549
_cell_length_c 20.816580
_cell_angle_alpha 90.000000
_cell_angle_beta 132.591187
_cell_angle_gamma 90.000000
_cell_volume 2857.438849
_symmetry_space_group_name_H-M "C 2/M"
_symmetry_group_IT_number 12
_symmetry_cell_setting 'monoclinic'
loop_
_space_group_symop_operation_xyz
x,y,z
-x,y,-z
-x,-y,-z
x,-y,z
1/2+x,1/2+y,z
1/2-x,1/2+y,-z
1/2-x,1/2-y,-z
1/2+x,1/2-y,z
loop_
_atom_site_type_symbol
_atom_site_label
_atom_site_fract_x
_atom_site_fract_y
_atom_site_fract_z
Si Si1 0.332707 0.677814 0.224901
Si Si2 0.512391 0.177826 0.907299
Si Si3 0.543397 0.822708 0.785106
Si Si4 0.911289 0.177488 0.410721
Si Si5 0.363247 0.177759 0.896905
Si Si6 0.121871 0.171044 0.376007
Si Si7 0.778811 0.828205 0.425444
O O1 0.333058 0.500000 0.216425
O O2 0.368472 0.753174 0.184320
O O3 0.394495 0.727642 0.326169
O O4 0.235198 0.739042 0.171977
O O5 0.528493 0.241789 0.846904
O O6 0.419191 0.233186 0.872880
O O7 0.512544 0.000000 0.904788
O O8 0.589839 0.234863 0.006217
O O9 0.463385 0.771693 0.686819
O O10 0.551485 0.000000 0.790077
O O11 0.829062 0.230245 0.396941
O O12 0.000000 0.248656 0.500000
O O13 0.917987 0.000000 0.419912
O O14 0.361752 0.000000 0.895517
O O15 0.156210 0.190744 0.471071
O O16 0.193951 0.226340 0.374458
O O17 0.097885 0.000000 0.344630
O O18 0.748044 0.000000 0.397816
#
# Coordination Sequence:
#
# PCOD8096478 Si02
#       7
#     8   8   8   8   8   8   8
#     4  10  20  33  54  79 105 138 179 221 265 315
#     4   8  16  31  53  79 105 132 171 223 271 311
#     4  11  22  34  52  77 108 143 175 215 266 320
#     4   9  17  30  50  75 103 138 178 217 254 301
#     4   8  15  31  54  80 103 129 174 227 267 311
#     4  10  20  34  52  76 107 138 174 220 267 315
#     4   9  18  33  54  77 102 136 179 224 266 309
#
# _framework density 19.597968999999999
#
# number of rings (size 3 to 8) (size 9 to 14) (size 15 to 20)
#    0.000    2.714    0.000    2.571    2.000    3.429 
#    0.000    0.714    0.000    2.571    0.000    5.000 
#    0.000    0.000    0.000    0.000    0.000    0.000 
#
# Total GULP energy -347130.110677 kJ/mol
# GULP energy per Si atom -12397.503953 kJ/mol
# Density = 1.955336 g / cm^3
# Si number density = 19.597969 Si / 1000 Ang^3
#
#
#
# Elastic Constant Matrix: (Units=GPa)
#
#
# Indices 1 2 3 4 5 6 
#
# 1 161.4574 29.5615 67.2573 0.0000 -5.5013 0.0000
# 2 29.5615 32.3476 25.5857 0.0000 -3.8625 0.0000
# 3 67.2573 25.5857 77.6573 0.0000 11.3430 0.0000
# 4 0.0000 0.0000 0.0000 9.9820 0.0000 1.2981
# 5 -5.5013 -3.8625 11.3430 0.0000 32.5993 0.0000
# 6 0.0000 0.0000 0.0000 1.2981 0.0000 28.4468
#
#
#
# Elastic Compliance Matrix: (Units=1/GPa)
#
#
# Indices 1 2 3 4 5 6 
#
# 1 0.010524 -0.001736 -0.009242 0.000000 0.004786 0.000000
# 2 -0.001736 0.045635 -0.015043 0.000000 0.010348 0.000000
# 3 -0.009242 -0.015043 0.027735 0.000000 -0.012993 0.000000
# 4 0.000000 0.000000 0.000000 0.100778 0.000000 -0.004599
# 5 0.004786 0.010348 -0.012993 0.000000 0.037230 0.000000
# 6 0.000000 0.000000 0.000000 -0.004599 0.000000 0.035363
#
#
# Mechanical properties :
#
#
# Convention : Reuss Voigt Hill
#
# Bulk Modulus (GPa) = 31.39511 57.36350 44.37930
# Shear Modulus (GPa) = 15.62857 24.14281 19.88569
#
# Velocity S-wave (km/s) = 2.82700 3.51366 3.18886
# Velocity P-wave (km/s) = 5.16819 6.76718 6.02100
#
# Compressibility (1/GPa) = 0.03185209
#
# Stress axis : x y z
#
# Youngs Moduli (GPa) = 95.01664 21.91291 36.05503
#
# Poissons Ratio (x) = 0.03805 0.33322
# Poissons Ratio (y) = 0.16499 0.54238
# Poissons Ratio (z) = 0.87814 0.32964
#
# Static dielectric constant tensor:
#      x y z
#    x 3.899590 0.000000 -0.009710 
#    y 0.000000 3.095860 0.000000 
#    z -0.009710 0.000000 3.657860 
# 
# 
# High freq. dielectric constant tensor:
#      x y z
#    x 1.780240 0.000000 0.000510 
#    y 0.000000 1.708580 0.000000 
#    z 0.000510 0.000000 1.761100 
# 
# From -- ./inp_files/320193.got.cif
#   From: 2010.06.25/outbox.cif.g09.slc.cpg/sg12_161_cif.got.tgz:320193.got - 2010.06.28 00:19:55.
