data_PCOD8096633
_publ_section_title
;
Structure prediction by ZEFSAII (Michael W. Deem and Ramdas Pophale) SiO2 
 PCOD8096633
Probable space group: C 2/M
;
_chemical_formula_sum "Si O2"
_cell_formula_units_Z 64
_cell_length_a 27.695146
_cell_length_b 13.447227
_cell_length_c 19.049588
_cell_angle_alpha 90.000000
_cell_angle_beta 152.846742
_cell_angle_gamma 90.000000
_cell_volume 3237.733896
_symmetry_space_group_name_H-M "C 2/M"
_symmetry_group_IT_number 12
_symmetry_cell_setting 'monoclinic'
loop_
_space_group_symop_operation_xyz
x,y,z
-x,y,-z
-x,-y,-z
x,-y,z
1/2+x,1/2+y,z
1/2-x,1/2+y,-z
1/2-x,1/2-y,-z
1/2+x,1/2-y,z
loop_
_atom_site_type_symbol
_atom_site_label
_atom_site_fract_x
_atom_site_fract_y
_atom_site_fract_z
Si Si1 0.485904 0.298391 0.171455
Si Si2 0.647971 0.614321 0.780157
Si Si3 0.478331 0.887618 0.703665
Si Si4 0.801649 0.299516 0.388917
Si Si5 0.188693 0.383309 0.896005
Si Si6 0.240500 0.717606 0.822965
Si Si7 0.907643 0.884673 0.825451
Si Si8 0.941571 0.886379 0.592952
O O1 0.534133 0.187823 0.247052
O O2 0.554593 0.354084 0.202484
O O3 0.494651 0.364624 0.252874
O O4 0.366366 0.286546 0.991184
O O5 0.676088 0.500000 0.803187
O O6 0.690462 0.671810 0.766368
O O7 0.523544 0.629032 0.634301
O O8 0.713584 0.659408 0.931553
O O9 0.379989 0.880131 0.523825
O O10 0.580534 0.850512 0.793171
O O11 0.488719 0.000000 0.745426
O O12 0.793677 0.324312 0.296388
O O13 0.688348 0.312566 0.278408
O O14 0.842126 0.186968 0.455125
O O15 0.199930 0.500000 0.908143
O O16 0.186876 0.347500 0.813995
O O17 0.872197 0.000000 0.779530
O O18 0.000000 0.865952 0.000000
O O19 0.900345 0.000000 0.540527
#
# Coordination Sequence:
#
# PCOD8096633 Si02
#       8
#     8   8   8   8   8   8   8   8
#     4  11  21  38  66  90 113 155 211 256 295 357
#     4  10  20  35  59  91 125 163 206 244 286 354
#     4  10  22  40  60  89 127 161 194 242 304 364
#     4  11  25  41  59  87 125 159 194 255 315 361
#     4  10  20  33  56  89 122 158 200 242 288 353
#     4  12  21  35  60  89 120 158 202 248 300 351
#     4  11  24  43  66  92 120 152 200 258 311 363
#     4  10  22  40  62  92 126 161 203 249 298 356
#
# _framework density 19.766912000000001
#
# number of rings (size 3 to 8) (size 9 to 14) (size 15 to 20)
#    0.000    1.375    3.750    2.625    0.000    6.000 
#    0.000    4.375    0.000    0.750    0.000    0.000 
#    0.000    0.000    0.000    0.000    0.000    0.000 
#
# Total GULP energy -396839.943775 kJ/mol
# GULP energy per Si atom -12401.248243 kJ/mol
# Density = 1.972192 g / cm^3
# Si number density = 19.766912 Si / 1000 Ang^3
#
#
#
# Elastic Constant Matrix: (Units=GPa)
#
#
# Indices 1 2 3 4 5 6 
#
# 1 71.1311 19.3576 27.2584 0.0000 8.8065 0.0000
# 2 19.3576 69.5222 35.7770 0.0000 16.8314 0.0000
# 3 27.2584 35.7770 97.6733 0.0000 9.5664 0.0000
# 4 0.0000 0.0000 0.0000 27.7586 0.0000 7.6202
# 5 8.8065 16.8314 9.5664 0.0000 33.0299 0.0000
# 6 0.0000 0.0000 0.0000 7.6202 0.0000 24.4470
#
#
#
# Elastic Compliance Matrix: (Units=1/GPa)
#
#
# Indices 1 2 3 4 5 6 
#
# 1 0.016277 -0.002183 -0.003527 0.000000 -0.002206 0.000000
# 2 -0.002183 0.019946 -0.005926 0.000000 -0.007866 0.000000
# 3 -0.003527 -0.005926 0.013385 0.000000 0.000084 0.000000
# 4 0.000000 0.000000 0.000000 0.039396 0.000000 -0.012280
# 5 -0.002206 -0.007866 0.000084 0.000000 0.034848 0.000000
# 6 0.000000 0.000000 0.000000 -0.012280 0.000000 0.044733
#
#
# Mechanical properties :
#
#
# Convention : Reuss Voigt Hill
#
# Bulk Modulus (GPa) = 37.97177 44.79029 41.38103
# Shear Modulus (GPa) = 24.92080 27.44267 26.18173
#
# Velocity S-wave (km/s) = 3.55453 3.73005 3.64335
# Velocity P-wave (km/s) = 6.00814 6.42335 6.21921
#
# Compressibility (1/GPa) = 0.02633535
#
# Stress axis : x y z
#
# Youngs Moduli (GPa) = 61.43507 50.13582 74.71001
#
# Poissons Ratio (x) = 0.10946 0.26350
# Poissons Ratio (y) = 0.13412 0.44276
# Poissons Ratio (z) = 0.21668 0.29712
#
# Static dielectric constant tensor:
#      x y z
#    x 3.473610 0.000000 -0.005450 
#    y 0.000000 3.780670 0.000000 
#    z -0.005450 0.000000 3.605050 
# 
# 
# High freq. dielectric constant tensor:
#      x y z
#    x 1.755480 0.000000 0.001070 
#    y 0.000000 1.780750 0.000000 
#    z 0.001070 0.000000 1.770770 
# 
# From -- ./inp_files/246335.got.cif
#   From: 2010.06.25/outbox.cif.g09.slc.cpg/sg12_124_cif.got.tgz:246335.got - 2010.06.28 00:19:55.
