data_PCOD8096331
_publ_section_title
;
Structure prediction by ZEFSAII (Michael W. Deem and Ramdas Pophale) SiO2 
 PCOD8096331
Probable space group: C 2/M
;
_chemical_formula_sum "Si O2"
_cell_formula_units_Z 64
_cell_length_a 23.416470
_cell_length_b 8.958691
_cell_length_c 28.471783
_cell_angle_alpha 90.000000
_cell_angle_beta 148.567239
_cell_angle_gamma 90.000000
_cell_volume 3114.820036
_symmetry_space_group_name_H-M "C 2/M"
_symmetry_group_IT_number 12
_symmetry_cell_setting 'monoclinic'
loop_
_space_group_symop_operation_xyz
x,y,z
-x,y,-z
-x,-y,-z
x,-y,z
1/2+x,1/2+y,z
1/2-x,1/2+y,-z
1/2-x,1/2-y,-z
1/2+x,1/2-y,z
loop_
_atom_site_type_symbol
_atom_site_label
_atom_site_fract_x
_atom_site_fract_y
_atom_site_fract_z
Si Si1 0.374268 0.671529 0.028570
Si Si2 0.950529 0.172142 0.334201
Si Si3 0.733193 0.671693 0.725093
Si Si4 0.437321 0.327293 0.910702
Si Si5 0.680637 0.822535 0.493324
Si Si6 0.217159 0.677256 0.344527
Si Si7 0.028682 0.667828 0.821275
Si Si8 0.164684 0.670623 0.827000
O O1 0.348044 0.500000 0.019275
O O2 0.488618 0.699249 0.082852
O O3 0.382260 0.746756 0.084916
O O4 0.274368 0.735847 0.927939
O O5 0.890164 0.195465 0.342006
O O6 0.860520 0.217692 0.232730
O O7 0.053731 0.279233 0.399923
O O8 0.986227 0.000000 0.352759
O O9 0.768248 0.500000 0.751297
O O10 0.819856 0.754945 0.819114
O O11 0.734083 0.726318 0.671687
O O12 0.415007 0.500000 0.905210
O O13 0.500000 0.258102 0.000000
O O14 0.750000 0.750000 0.500000
O O15 0.717947 0.763942 0.569954
O O16 0.692912 0.000000 0.498645
O O17 0.227344 0.500000 0.360763
O O18 0.092533 0.735165 0.259389
O O19 0.026824 0.500000 0.838946
O O20 0.063445 0.676996 0.791770
O O21 0.182249 0.500000 0.821524
#
# Coordination Sequence:
#
# PCOD8096331 Si02
#       8
#     8   8   8   8   8   8   8   8
#     4  10  20  33  52  82 120 159 204 255 308 364
#     4  11  24  42  64  92 123 159 204 254 308 366
#     4  10  22  40  62  89 123 163 207 256 310 365
#     4  10  20  34  54  81 118 166 213 259 309 361
#     4  12  26  45  70  98 126 159 200 249 306 371
#     4  10  21  40  64  91 125 164 207 258 312 367
#     4  10  20  35  58  84 116 158 203 250 305 367
#     4  10  21  37  57  85 120 162 207 255 312 369
#
# _framework density 20.546935000000001
#
# number of rings (size 3 to 8) (size 9 to 14) (size 15 to 20)
#    0.000    1.625    1.250    3.375    0.000    5.750 
#    0.000    2.500    0.000    0.000    0.000    0.000 
#    0.000    0.000    0.000    0.000    0.000    0.000 
#
# Total GULP energy -396875.961440 kJ/mol
# GULP energy per Si atom -12402.373795 kJ/mol
# Density = 2.050017 g / cm^3
# Si number density = 20.546935 Si / 1000 Ang^3
#
#
#
# Elastic Constant Matrix: (Units=GPa)
#
#
# Indices 1 2 3 4 5 6 
#
# 1 95.4040 35.9212 38.5232 0.0000 -1.2888 -0.0001
# 2 35.9212 72.1461 36.3738 -0.0002 -4.6179 -0.0005
# 3 38.5232 36.3738 105.3561 -0.0002 -5.1843 0.0000
# 4 0.0000 -0.0002 -0.0002 38.5988 0.0000 -3.8952
# 5 -1.2888 -4.6179 -5.1843 0.0000 37.3972 0.0000
# 6 -0.0001 -0.0005 0.0000 -3.8952 0.0000 24.2232
#
#
#
# Elastic Compliance Matrix: (Units=1/GPa)
#
#
# Indices 1 2 3 4 5 6 
#
# 1 0.013764 -0.005255 -0.003249 0.000000 -0.000625 0.000000
# 2 -0.005255 0.018849 -0.004511 0.000000 0.001521 0.000000
# 3 -0.003249 -0.004511 0.012288 0.000000 0.001034 0.000000
# 4 0.000000 0.000000 0.000000 0.026335 0.000000 0.004235
# 5 -0.000625 0.001521 0.001034 0.000000 0.027050 0.000000
# 6 0.000000 0.000000 0.000000 0.004235 0.000000 0.041964
#
#
# Mechanical properties :
#
#
# Convention : Reuss Voigt Hill
#
# Bulk Modulus (GPa) = 52.99362 54.94919 53.97140
# Shear Modulus (GPa) = 28.97380 30.84972 29.91176
#
# Velocity S-wave (km/s) = 3.75924 3.87903 3.81960
# Velocity P-wave (km/s) = 6.68506 6.84571 6.76586
#
# Compressibility (1/GPa) = 0.01887020
#
# Stress axis : x y z
#
# Youngs Moduli (GPa) = 72.65417 53.05357 81.37949
#
# Poissons Ratio (x) = 0.27878 0.26442
# Poissons Ratio (y) = 0.38178 0.36712
# Poissons Ratio (z) = 0.23607 0.23934
#
# Static dielectric constant tensor:
#      x y z
#    x 3.841620 0.000000 0.025190 
#    y 0.000000 3.559340 0.000000 
#    z 0.025190 0.000000 3.718860 
# 
# 
# High freq. dielectric constant tensor:
#      x y z
#    x 1.817790 0.000000 0.002730 
#    y 0.000000 1.787670 0.000000 
#    z 0.002730 0.000000 1.806450 
# 
# From -- ./inp_files/382430.got.cif
#   From: 2010.06.25/outbox.cif.g09.slc.cpg/sg12_192_cif.got.tgz:382430.got - 2010.06.28 00:19:55.
