data_PCOD8096464
_publ_section_title
;
Structure prediction by ZEFSAII (Michael W. Deem and Ramdas Pophale) SiO2 
 PCOD8096464
Probable space group: C 2/M
;
_chemical_formula_sum "Si O2"
_cell_formula_units_Z 56
_cell_length_a 9.832084
_cell_length_b 21.152928
_cell_length_c 14.660507
_cell_angle_alpha 90.000000
_cell_angle_beta 108.564992
_cell_angle_gamma 90.000000
_cell_volume 2890.390374
_symmetry_space_group_name_H-M "C 2/M"
_symmetry_group_IT_number 12
_symmetry_cell_setting 'monoclinic'
loop_
_space_group_symop_operation_xyz
x,y,z
-x,y,-z
-x,-y,-z
x,-y,z
1/2+x,1/2+y,z
1/2-x,1/2+y,-z
1/2-x,1/2-y,-z
1/2+x,1/2-y,z
loop_
_atom_site_type_symbol
_atom_site_label
_atom_site_fract_x
_atom_site_fract_y
_atom_site_fract_z
Si Si1 0.367175 0.073257 0.219564
Si Si2 0.587092 0.260753 0.932721
Si Si3 0.957242 0.074741 0.595138
Si Si4 0.427729 0.571786 0.899186
Si Si5 0.551441 0.126344 0.109588
Si Si6 0.636311 0.075009 0.581165
Si Si7 0.110977 0.129588 0.797065
O O1 0.224095 0.106338 0.149060
O O2 0.498091 0.081525 0.179105
O O3 0.389328 0.103391 0.323501
O O4 0.337015 0.000000 0.229786
O O5 0.512610 0.195438 0.887822
O O6 0.569294 0.304804 0.839298
O O7 0.500000 0.289368 0.000000
O O8 0.750000 0.250000 0.000000
O O9 0.057143 0.119908 0.681163
O O10 0.000000 0.089149 0.500000
O O11 0.791160 0.095319 0.573967
O O12 0.980754 0.000000 0.622315
O O13 0.395794 0.500000 0.919228
O O14 0.530389 0.573663 0.833503
O O15 0.500000 0.607244 0.000000
O O16 0.720520 0.122840 0.155919
O O17 0.500000 0.100164 0.000000
O O18 0.500000 0.104774 0.500000
O O19 0.627251 0.000000 0.575666
#
# Coordination Sequence:
#
# PCOD8096464 Si02
#       7
#     8   8   8   8   8   8   8
#     4  10  21  36  55  84 121 157 197 241 298 369
#     4  11  23  42  62  88 118 157 210 256 306 362
#     4  10  22  39  62  94 126 158 201 251 307 367
#     4  10  20  33  53  83 118 157 194 235 297 367
#     4  11  24  39  56  89 122 156 206 249 303 366
#     4   9  18  35  57  84 116 154 198 240 291 356
#     4  12  22  37  63  86 119 159 204 255 302 364
#
# _framework density 19.374545000000001
#
# number of rings (size 3 to 8) (size 9 to 14) (size 15 to 20)
#    0.000    1.571    4.286    1.714    4.000    1.429 
#    0.000    0.000    0.000    1.714    0.000    0.000 
#    0.000    0.000    0.000    0.000    0.000    0.000 
#
# Total GULP energy -346931.747245 kJ/mol
# GULP energy per Si atom -12390.419544 kJ/mol
# Density = 1.933045 g / cm^3
# Si number density = 19.374545 Si / 1000 Ang^3
#
#
#
# Elastic Constant Matrix: (Units=GPa)
#
#
# Indices 1 2 3 4 5 6 
#
# 1 139.1078 1.6380 50.7017 0.0000 -1.3871 0.0000
# 2 1.6380 24.1241 13.3915 0.0000 0.0397 0.0000
# 3 50.7017 13.3915 137.3848 0.0000 -11.8366 0.0000
# 4 0.0000 0.0000 0.0000 24.1873 0.0000 -7.6664
# 5 -1.3871 0.0397 -11.8366 0.0000 41.3736 0.0000
# 6 0.0000 0.0000 0.0000 -7.6664 0.0000 19.4030
#
#
#
# Elastic Compliance Matrix: (Units=1/GPa)
#
#
# Indices 1 2 3 4 5 6 
#
# 1 0.008356 0.001244 -0.003261 0.000000 -0.000654 0.000000
# 2 0.001244 0.044077 -0.004876 0.000000 -0.001395 0.000000
# 3 -0.003261 -0.004876 0.009175 0.000000 0.002520 0.000000
# 4 0.000000 0.000000 0.000000 0.047263 0.000000 0.018674
# 5 -0.000654 -0.001395 0.002520 0.000000 0.024870 0.000000
# 6 0.000000 0.000000 0.000000 0.018674 0.000000 0.058917
#
#
# Mechanical properties :
#
#
# Convention : Reuss Voigt Hill
#
# Bulk Modulus (GPa) = 20.91104 48.00880 34.45992
# Shear Modulus (GPa) = 22.48354 32.65181 27.56768
#
# Velocity S-wave (km/s) = 3.41026 4.10969 3.77620
# Velocity P-wave (km/s) = 5.13059 6.88131 6.06941
#
# Compressibility (1/GPa) = 0.04782163
#
# Stress axis : x y z
#
# Youngs Moduli (GPa) = 119.67113 22.68776 108.99346
#
# Poissons Ratio (x) = -0.02823 0.35548
# Poissons Ratio (y) = -0.14889 0.53142
# Poissons Ratio (z) = 0.39031 0.11062
#
# Static dielectric constant tensor:
#      x y z
#    x 3.295210 0.000000 0.237110 
#    y 0.000000 3.238670 0.000000 
#    z 0.237110 0.000000 3.829860 
# 
# 
# High freq. dielectric constant tensor:
#      x y z
#    x 1.772720 0.000000 0.001420 
#    y 0.000000 1.713810 0.000000 
#    z 0.001420 0.000000 1.758620 
# 
# From -- ./inp_files/198499.got.cif
#   From: 2010.06.25/outbox.cif.g09.slc.cpg/sg12_100_cif.got.tgz:198499.got - 2010.06.28 00:19:55.
