data_PCOD8096662
_publ_section_title
;
Structure prediction by ZEFSAII (Michael W. Deem and Ramdas Pophale) SiO2 
 PCOD8096662
Probable space group: C 2/M
;
_chemical_formula_sum "Si O2"
_cell_formula_units_Z 56
_cell_length_a 25.279298
_cell_length_b 8.160498
_cell_length_c 15.520052
_cell_angle_alpha 90.000000
_cell_angle_beta 52.323693
_cell_angle_gamma 90.000000
_cell_volume 2534.036018
_symmetry_space_group_name_H-M "C 2/M"
_symmetry_group_IT_number 12
_symmetry_cell_setting 'monoclinic'
loop_
_space_group_symop_operation_xyz
x,y,z
-x,y,-z
-x,-y,-z
x,-y,z
1/2+x,1/2+y,z
1/2-x,1/2+y,-z
1/2-x,1/2-y,-z
1/2+x,1/2-y,z
loop_
_atom_site_type_symbol
_atom_site_label
_atom_site_fract_x
_atom_site_fract_y
_atom_site_fract_z
Si Si1 0.759400 0.185697 0.084222
Si Si2 0.327619 0.808111 0.604322
Si Si3 0.374495 0.312042 0.723537
Si Si4 0.888628 0.316661 0.021678
Si Si5 0.467846 0.195373 0.780103
Si Si6 0.321499 0.803834 0.251962
Si Si7 0.880577 0.305624 0.370695
O O1 0.687728 0.191890 0.199644
O O2 0.811102 0.312943 0.072998
O O3 0.787227 0.000000 0.060161
O O4 0.750000 0.250000 0.000000
O O5 0.382320 0.718349 0.612734
O O6 0.250076 0.771001 0.704300
O O7 0.342920 0.740566 0.493077
O O8 0.341550 0.000000 0.594805
O O9 0.357347 0.500000 0.760049
O O10 0.435746 0.260762 0.723285
O O11 0.916359 0.500000 0.000585
O O12 0.882162 0.244242 0.126036
O O13 0.932618 0.229428 0.902549
O O14 0.543440 0.258594 0.705672
O O15 0.460707 0.000000 0.787197
O O16 0.341427 0.736981 0.326368
O O17 0.316091 0.000000 0.254201
O O18 0.881398 0.500000 0.366227
#
# Coordination Sequence:
#
# PCOD8096662 Si02
#       7
#     8   8   8   8   8   8   8
#     4  12  22  34  56  86 122 156 193 238 296 354
#     4  11  22  38  61  88 116 154 201 250 302 352
#     4  12  24  38  58  87 120 154 197 247 301 356
#     4  10  20  33  57  89 121 153 193 237 291 348
#     4  10  21  39  60  85 120 161 198 237 292 360
#     4  10  20  37  61  90 120 151 195 250 298 350
#     4   9  21  40  61  85 117 158 204 246 291 354
#
# _framework density 22.099132999999998
#
# number of rings (size 3 to 8) (size 9 to 14) (size 15 to 20)
#    0.000    1.429    2.857    3.429    0.000    1.143 
#    0.000    8.571    0.000    0.000    0.000    3.000 
#    0.000    0.000    0.000    0.000    0.000    0.000 
#
# Total GULP energy -346900.094985 kJ/mol
# GULP energy per Si atom -12389.289107 kJ/mol
# Density = 2.204883 g / cm^3
# Si number density = 22.099133 Si / 1000 Ang^3
#
#
#
# Elastic Constant Matrix: (Units=GPa)
#
#
# Indices 1 2 3 4 5 6 
#
# 1 100.4067 9.6722 44.8043 0.0001 13.6332 0.0000
# 2 9.6722 51.4487 14.1710 0.0021 4.2712 -0.0012
# 3 44.8043 14.1710 123.4042 0.0002 22.7606 -0.0002
# 4 0.0001 0.0021 0.0002 18.2778 -0.0001 0.2124
# 5 13.6332 4.2712 22.7606 -0.0001 43.1287 0.0000
# 6 0.0000 -0.0012 -0.0002 0.2124 0.0000 21.8622
#
#
#
# Elastic Compliance Matrix: (Units=1/GPa)
#
#
# Indices 1 2 3 4 5 6 
#
# 1 0.012044 -0.001041 -0.003955 0.000000 -0.001617 0.000000
# 2 -0.001041 0.020190 -0.001809 -0.000002 -0.000716 0.000001
# 3 -0.003955 -0.001809 0.010506 0.000000 -0.004115 0.000000
# 4 0.000000 -0.000002 0.000000 0.054717 0.000000 -0.000532
# 5 -0.001617 -0.000716 -0.004115 0.000000 0.025940 0.000000
# 6 0.000000 0.000001 0.000000 -0.000532 0.000000 0.045746
#
#
# Mechanical properties :
#
#
# Convention : Reuss Voigt Hill
#
# Bulk Modulus (GPa) = 34.32703 45.83941 40.08322
# Shear Modulus (GPa) = 25.97897 30.42788 28.20343
#
# Velocity S-wave (km/s) = 3.43237 3.71466 3.57630
# Velocity P-wave (km/s) = 5.59242 6.25987 5.93553
#
# Compressibility (1/GPa) = 0.02913156
#
# Stress axis : x y z
#
# Youngs Moduli (GPa) = 83.02766 49.52926 95.18260
#
# Poissons Ratio (x) = 0.05154 0.37646
# Poissons Ratio (y) = 0.08640 0.17215
# Poissons Ratio (z) = 0.32839 0.08958
#
# Static dielectric constant tensor:
#      x y z
#    x 4.001450 0.000000 0.391590 
#    y 0.000000 4.847610 0.000000 
#    z 0.391590 0.000000 4.402870 
# 
# 
# High freq. dielectric constant tensor:
#      x y z
#    x 1.862430 0.000000 0.025810 
#    y 0.000000 1.836000 0.000000 
#    z 0.025810 0.000000 1.886320 
# 
# From -- ./inp_files/238299.got.cif
#   From: 2010.06.25/outbox.cif.g09.slc.cpg/sg12_120_cif.got.tgz:238299.got - 2010.06.28 00:19:55.
