data_PCOD8096102
_publ_section_title
;
Structure prediction by ZEFSAII (Michael W. Deem and Ramdas Pophale) SiO2 
 PCOD8096102
Probable space group: C 2/M
;
_chemical_formula_sum "Si O2"
_cell_formula_units_Z 64
_cell_length_a 19.606822
_cell_length_b 8.577779
_cell_length_c 20.016282
_cell_angle_alpha 90.000000
_cell_angle_beta 89.469358
_cell_angle_gamma 90.000000
_cell_volume 3366.253701
_symmetry_space_group_name_H-M "C 2/M"
_symmetry_group_IT_number 12
_symmetry_cell_setting 'monoclinic'
loop_
_space_group_symop_operation_xyz
x,y,z
-x,y,-z
-x,-y,-z
x,-y,z
1/2+x,1/2+y,z
1/2-x,1/2+y,-z
1/2-x,1/2-y,-z
1/2+x,1/2-y,z
loop_
_atom_site_type_symbol
_atom_site_label
_atom_site_fract_x
_atom_site_fract_y
_atom_site_fract_z
Si Si1 0.679833 0.319922 0.081906
Si Si2 0.573993 0.182897 0.680966
Si Si3 0.177174 0.180490 0.579804
Si Si4 0.167778 0.318909 0.440709
Si Si5 0.414365 0.181157 0.808744
Si Si6 0.565895 0.817902 0.829912
Si Si7 0.069968 0.818649 0.333320
Si Si8 0.335960 0.182907 0.057849
O O1 0.664061 0.500000 0.095041
O O2 0.646140 0.219307 0.140451
O O3 0.759860 0.282508 0.083825
O O4 0.648690 0.271381 0.011069
O O5 0.639390 0.218119 0.635857
O O6 0.588617 0.241949 0.756415
O O7 0.508428 0.273140 0.653183
O O8 0.557045 0.000000 0.681155
O O9 0.148499 0.221855 0.506903
O O10 0.256501 0.225907 0.584497
O O11 0.163837 0.000000 0.594581
O O12 0.163921 0.500000 0.459406
O O13 0.115275 0.279901 0.383462
O O14 0.486592 0.223502 0.842910
O O15 0.405651 0.279949 0.741615
O O16 0.412760 0.000000 0.788988
O O17 0.612512 0.743739 0.887692
O O18 0.579464 0.000000 0.833621
O O19 0.080634 0.000000 0.347434
O O20 0.347120 0.000000 0.044868
#
# Coordination Sequence:
#
# PCOD8096102 Si02
#       8
#     8   8   8   8   8   8   8   8
#     4  10  20  33  51  78 108 137 172 217 266 315
#     4  10  20  36  57  81 110 143 180 222 272 327
#     4  10  21  37  57  83 112 142 180 225 270 317
#     4  10  21  38  58  81 111 145 181 222 269 321
#     4  10  20  36  56  77 104 138 176 218 266 320
#     4   8  17  34  55  76  98 133 179 218 254 307
#     4  11  22  37  57  81 110 142 180 225 270 319
#     4   9  18  35  55  74 101 138 178 217 259 312
#
# _framework density 19.012232999999998
#
# number of rings (size 3 to 8) (size 9 to 14) (size 15 to 20)
#    0.000    2.250    0.000    3.750    0.000    4.000 
#    0.000   10.000    0.000    0.000    0.000    0.000 
#    0.000    0.000    0.000    0.000    0.000    0.000 
#
# Total GULP energy -396888.467579 kJ/mol
# GULP energy per Si atom -12402.764612 kJ/mol
# Density = 1.896896 g / cm^3
# Si number density = 19.012233 Si / 1000 Ang^3
#
#
#
# Elastic Constant Matrix: (Units=GPa)
#
#
# Indices 1 2 3 4 5 6 
#
# 1 25.6239 7.8946 10.7950 0.0000 3.7647 0.0000
# 2 7.8946 42.4075 7.0196 0.0000 -6.0421 0.0000
# 3 10.7950 7.0196 44.2971 0.0000 4.3893 0.0000
# 4 0.0000 0.0000 0.0000 31.8060 0.0000 -3.3818
# 5 3.7647 -6.0421 4.3893 0.0000 42.2330 0.0000
# 6 0.0000 0.0000 0.0000 -3.3818 0.0000 27.6067
#
#
#
# Elastic Compliance Matrix: (Units=1/GPa)
#
#
# Indices 1 2 3 4 5 6 
#
# 1 0.046019 -0.007575 -0.009599 0.000000 -0.004188 0.000000
# 2 -0.007575 0.026117 -0.002758 0.000000 0.004698 0.000000
# 3 -0.009599 -0.002758 0.025569 0.000000 -0.002196 0.000000
# 4 0.000000 0.000000 0.000000 0.031855 0.000000 0.003902
# 5 -0.004188 0.004698 -0.002196 0.000000 0.024952 0.000000
# 6 0.000000 0.000000 0.000000 0.003902 0.000000 0.036701
#
#
# Mechanical properties :
#
#
# Convention : Reuss Voigt Hill
#
# Bulk Modulus (GPa) = 17.28899 18.19410 17.74154
# Shear Modulus (GPa) = 19.97139 26.10377 23.03758
#
# Velocity S-wave (km/s) = 3.24458 3.70942 3.48476
# Velocity P-wave (km/s) = 4.81142 5.28553 5.05404
#
# Compressibility (1/GPa) = 0.05784028
#
# Stress axis : x y z
#
# Youngs Moduli (GPa) = 21.73004 38.28949 39.11008
#
# Poissons Ratio (x) = 0.29003 0.37543
# Poissons Ratio (y) = 0.16460 0.10788
# Poissons Ratio (z) = 0.20859 0.10561
#
# Static dielectric constant tensor:
#      x y z
#    x 3.468400 0.000000 0.091170 
#    y 0.000000 3.375820 0.000000 
#    z 0.091170 0.000000 3.519710 
# 
# 
# High freq. dielectric constant tensor:
#      x y z
#    x 1.736840 0.000000 0.000830 
#    y 0.000000 1.735990 0.000000 
#    z 0.000830 0.000000 1.742880 
# 
# From -- ./inp_files/314133.got.cif
#   From: 2010.06.25/outbox.cif.g09.slc.cpg/sg12_158_cif.got.tgz:314133.got - 2010.06.28 00:19:55.
