data_PCOD8096142
_publ_section_title
;
Structure prediction by ZEFSAII (Michael W. Deem and Ramdas Pophale) SiO2 
 PCOD8096142
Probable space group: C 2/M
;
_chemical_formula_sum "Si O2"
_cell_formula_units_Z 64
_cell_length_a 29.841874
_cell_length_b 9.213425
_cell_length_c 17.332056
_cell_angle_alpha 90.000000
_cell_angle_beta 137.815086
_cell_angle_gamma 90.000000
_cell_volume 3200.072351
_symmetry_space_group_name_H-M "C 2/M"
_symmetry_group_IT_number 12
_symmetry_cell_setting 'monoclinic'
loop_
_space_group_symop_operation_xyz
x,y,z
-x,y,-z
-x,-y,-z
x,-y,z
1/2+x,1/2+y,z
1/2-x,1/2+y,-z
1/2-x,1/2-y,-z
1/2+x,1/2-y,z
loop_
_atom_site_type_symbol
_atom_site_label
_atom_site_fract_x
_atom_site_fract_y
_atom_site_fract_z
Si Si1 0.558114 0.659081 0.520107
Si Si2 0.349038 0.834001 0.145910
Si Si3 0.297241 0.671279 0.774061
Si Si4 0.778902 0.167562 0.923333
Si Si5 0.531919 0.657912 0.733905
Si Si6 0.067339 0.172304 0.132059
Si Si7 0.439916 0.171100 0.715936
Si Si8 0.154368 0.330248 0.546930
O O1 0.500000 0.729763 0.500000
O O2 0.578994 0.500000 0.581251
O O3 0.530622 0.632522 0.399813
O O4 0.621328 0.761620 0.582886
O O5 0.298135 0.815476 0.151122
O O6 0.413109 0.738266 0.248817
O O7 0.369328 0.000000 0.158996
O O8 0.322800 0.770810 0.032145
O O9 0.299867 0.500000 0.777826
O O10 0.288506 0.727562 0.849888
O O11 0.367444 0.728893 0.830854
O O12 0.231992 0.722032 0.641666
O O13 0.801417 0.000000 0.961820
O O14 0.556801 0.500000 0.796801
O O15 0.510081 0.761269 0.776613
O O16 0.074878 0.253729 0.222249
O O17 0.068268 0.000000 0.147789
O O18 0.000000 0.216856 0.000000
O O19 0.380696 0.207357 0.579366
O O20 0.448681 0.000000 0.738318
O O21 0.149841 0.500000 0.557426
#
# Coordination Sequence:
#
# PCOD8096142 Si02
#       8
#     8   8   8   8   8   8   8   8
#     4   9  19  34  51  78 114 148 185 232 281 332
#     4  10  20  33  51  80 112 145 192 239 282 330
#     4   9  19  37  59  84 113 148 193 239 280 337
#     4   9  19  35  54  76 109 152 191 231 280 336
#     4  10  20  34  55  79 108 151 190 224 281 342
#     4  10  22  39  61  88 113 147 193 234 284 349
#     4  10  21  38  58  84 115 145 186 239 290 336
#     4   9  19  36  58  82 111 150 191 233 282 338
#
# _framework density 19.999548999999998
#
# number of rings (size 3 to 8) (size 9 to 14) (size 15 to 20)
#    0.000    2.500    0.000    1.125    3.500    2.500 
#    0.000    1.875    0.000    0.000    0.000    0.000 
#    0.000    0.000    0.000    0.000    0.000    0.000 
#
# Total GULP energy -396542.270566 kJ/mol
# GULP energy per Si atom -12391.945955 kJ/mol
# Density = 1.995403 g / cm^3
# Si number density = 19.999549 Si / 1000 Ang^3
#
#
#
# Elastic Constant Matrix: (Units=GPa)
#
#
# Indices 1 2 3 4 5 6 
#
# 1 143.0551 46.4837 52.0375 0.0000 6.4726 0.0000
# 2 46.4837 82.4992 32.0675 0.0000 5.7722 0.0000
# 3 52.0375 32.0675 73.9031 0.0000 12.6387 0.0000
# 4 0.0000 0.0000 0.0000 17.5350 0.0000 -2.5813
# 5 6.4726 5.7722 12.6387 0.0000 34.3935 0.0000
# 6 0.0000 0.0000 0.0000 -2.5813 0.0000 32.8510
#
#
#
# Elastic Compliance Matrix: (Units=1/GPa)
#
#
# Indices 1 2 3 4 5 6 
#
# 1 0.010216 -0.003564 -0.005784 0.000000 0.000801 0.000000
# 2 -0.003564 0.015824 -0.004287 0.000000 -0.000410 0.000000
# 3 -0.005784 -0.004287 0.020439 0.000000 -0.005703 0.000000
# 4 0.000000 0.000000 0.000000 0.057696 0.000000 0.004534
# 5 0.000801 -0.000410 -0.005703 0.000000 0.031089 0.000000
# 6 0.000000 0.000000 0.000000 0.004534 0.000000 0.030797
#
#
# Mechanical properties :
#
#
# Convention : Reuss Voigt Hill
#
# Bulk Modulus (GPa) = 52.05559 62.29273 57.17416
# Shear Modulus (GPa) = 25.03322 28.21384 26.62353
#
# Velocity S-wave (km/s) = 3.54176 3.76003 3.65253
# Velocity P-wave (km/s) = 6.54296 7.07567 6.81452
#
# Compressibility (1/GPa) = 0.01921023
#
# Stress axis : x y z
#
# Youngs Moduli (GPa) = 97.88442 63.19353 48.92527
#
# Poissons Ratio (x) = 0.22522 0.28298
# Poissons Ratio (y) = 0.34886 0.20973
# Poissons Ratio (z) = 0.56617 0.27090
#
# Static dielectric constant tensor:
#      x y z
#    x 3.784980 0.000000 0.207130 
#    y 0.000000 3.694710 0.000000 
#    z 0.207130 0.000000 3.643200 
# 
# 
# High freq. dielectric constant tensor:
#      x y z
#    x 1.780790 0.000000 0.005310 
#    y 0.000000 1.766790 0.000000 
#    z 0.005310 0.000000 1.774170 
# 
# From -- ./inp_files/295840.got.cif
#   From: 2010.06.25/outbox.cif.g09.slc.cpg/sg12_148_cif.got.tgz:295840.got - 2010.06.28 00:19:55.
