data_PCOD8096585
_publ_section_title
;
Structure prediction by ZEFSAII (Michael W. Deem and Ramdas Pophale) SiO2 
 PCOD8096585
Probable space group: C 2/M
;
_chemical_formula_sum "Si O2"
_cell_formula_units_Z 64
_cell_length_a 31.921618
_cell_length_b 9.408425
_cell_length_c 14.982579
_cell_angle_alpha 90.000000
_cell_angle_beta 132.821105
_cell_angle_gamma 90.000000
_cell_volume 3300.474673
_symmetry_space_group_name_H-M "C 2/M"
_symmetry_group_IT_number 12
_symmetry_cell_setting 'monoclinic'
loop_
_space_group_symop_operation_xyz
x,y,z
-x,y,-z
-x,-y,-z
x,-y,z
1/2+x,1/2+y,z
1/2-x,1/2+y,-z
1/2-x,1/2-y,-z
1/2+x,1/2-y,z
loop_
_atom_site_type_symbol
_atom_site_label
_atom_site_fract_x
_atom_site_fract_y
_atom_site_fract_z
Si Si1 0.006849 0.332252 0.773101
Si Si2 0.335617 0.662333 0.764416
Si Si3 0.191593 0.834610 0.916861
Si Si4 0.706734 0.165764 0.593696
Si Si5 0.844982 0.837434 0.331689
Si Si6 0.974290 0.836268 0.557720
Si Si7 0.615389 0.335084 0.973106
Si Si8 0.885830 0.666366 0.682742
O O1 0.016601 0.500000 0.779862
O O2 0.058878 0.260219 0.901008
O O3 0.004685 0.266220 0.671643
O O4 0.948965 0.294977 0.741521
O O5 0.349012 0.500000 0.759134
O O6 0.269742 0.699429 0.648341
O O7 0.376457 0.758800 0.763681
O O8 0.347183 0.691507 0.884931
O O9 0.157261 0.801923 0.776397
O O10 0.152309 0.783261 0.941869
O O11 0.206416 0.000000 0.948733
O O12 0.250000 0.750000 0.000000
O O13 0.699436 0.242257 0.678105
O O14 0.660638 0.223508 0.455750
O O15 0.697952 0.000000 0.599234
O O16 0.907449 0.803809 0.459299
O O17 0.828009 0.000000 0.323649
O O18 0.000000 0.797960 0.500000
O O19 0.987154 0.000000 0.601558
O O20 0.597860 0.500000 0.937255
O O21 0.877775 0.500000 0.685658
#
# Coordination Sequence:
#
# PCOD8096585 Si02
#       8
#     8   8   8   8   8   8   8   8
#     4  11  23  39  59  86 118 154 194 238 292 350
#     4  10  22  38  61  87 110 150 202 243 290 348
#     4  10  21  38  59  85 119 156 196 238 286 342
#     4  10  20  38  60  85 119 152 186 238 298 350
#     4  10  20  33  55  86 114 148 191 231 280 343
#     4  10  20  36  58  83 113 151 191 234 285 338
#     4  10  22  41  60  83 118 158 199 244 289 342
#     4  10  22  39  59  85 119 152 186 240 304 351
#
# _framework density 19.391151000000001
#
# number of rings (size 3 to 8) (size 9 to 14) (size 15 to 20)
#    0.000    1.875    1.250    2.250    0.000    7.250 
#    0.000    3.750    0.000    0.000    0.000    0.000 
#    0.000    0.000    0.000    0.000    0.000    0.000 
#
# Total GULP energy -396963.154758 kJ/mol
# GULP energy per Si atom -12405.098586 kJ/mol
# Density = 1.934702 g / cm^3
# Si number density = 19.391151 Si / 1000 Ang^3
#
#
#
# Elastic Constant Matrix: (Units=GPa)
#
#
# Indices 1 2 3 4 5 6 
#
# 1 120.4723 53.9172 41.0438 0.0000 -3.7807 0.0000
# 2 53.9172 60.0646 34.9095 0.0000 2.1014 0.0000
# 3 41.0438 34.9095 82.2725 0.0000 4.4970 0.0000
# 4 0.0000 0.0000 0.0000 33.2862 0.0000 -0.9441
# 5 -3.7807 2.1014 4.4970 0.0000 31.4682 0.0000
# 6 0.0000 0.0000 0.0000 -0.9441 0.0000 36.9831
#
#
#
# Elastic Compliance Matrix: (Units=1/GPa)
#
#
# Indices 1 2 3 4 5 6 
#
# 1 0.014424 -0.011647 -0.002410 0.000000 0.002855 0.000000
# 2 -0.011647 0.031504 -0.007424 0.000000 -0.002442 0.000000
# 3 -0.002410 -0.007424 0.016625 0.000000 -0.002170 0.000000
# 4 0.000000 0.000000 0.000000 0.030064 0.000000 0.000767
# 5 0.002855 -0.002442 -0.002170 0.000000 0.032594 0.000000
# 6 0.000000 0.000000 0.000000 0.000767 0.000000 0.027059
#
#
# Mechanical properties :
#
#
# Convention : Reuss Voigt Hill
#
# Bulk Modulus (GPa) = 51.04046 58.06114 54.55080
# Shear Modulus (GPa) = 24.78167 29.21009 26.99588
#
# Velocity S-wave (km/s) = 3.57878 3.88540 3.73523
# Velocity P-wave (km/s) = 6.59208 7.08064 6.84072
#
# Compressibility (1/GPa) = 0.01959230
#
# Stress axis : x y z
#
# Youngs Moduli (GPa) = 69.32980 31.74228 60.14866
#
# Poissons Ratio (x) = 0.36970 0.14495
# Poissons Ratio (y) = 0.80748 0.44652
# Poissons Ratio (z) = 0.16707 0.23564
#
# Static dielectric constant tensor:
#      x y z
#    x 3.535420 0.000000 0.085410 
#    y 0.000000 3.477290 0.000000 
#    z 0.085410 0.000000 3.671400 
# 
# 
# High freq. dielectric constant tensor:
#      x y z
#    x 1.760750 0.000000 0.001020 
#    y 0.000000 1.746920 0.000000 
#    z 0.001020 0.000000 1.761180 
# 
# From -- ./inp_files/249935.got.cif
#   From: 2010.06.25/outbox.cif.g09.slc.cpg/sg12_125_cif.got.tgz:249935.got - 2010.06.28 00:19:55.
