data_PCOD8096231
_publ_section_title
;
Structure prediction by ZEFSAII (Michael W. Deem and Ramdas Pophale) SiO2 
 PCOD8096231
Probable space group: C 2/M
;
_chemical_formula_sum "Si O2"
_cell_formula_units_Z 64
_cell_length_a 15.851239
_cell_length_b 9.022924
_cell_length_c 32.874221
_cell_angle_alpha 90.000000
_cell_angle_beta 136.848264
_cell_angle_gamma 90.000000
_cell_volume 3215.728829
_symmetry_space_group_name_H-M "C 2/M"
_symmetry_group_IT_number 12
_symmetry_cell_setting 'monoclinic'
loop_
_space_group_symop_operation_xyz
x,y,z
-x,y,-z
-x,-y,-z
x,-y,z
1/2+x,1/2+y,z
1/2-x,1/2+y,-z
1/2-x,1/2-y,-z
1/2+x,1/2-y,z
loop_
_atom_site_type_symbol
_atom_site_label
_atom_site_fract_x
_atom_site_fract_y
_atom_site_fract_z
Si Si1 0.491302 0.837024 0.260387
Si Si2 0.652880 0.824160 0.936323
Si Si3 0.624910 0.172095 0.141057
Si Si4 0.659618 0.176537 0.499258
Si Si5 0.408575 0.833360 0.376291
Si Si6 0.290300 0.162762 0.255931
Si Si7 0.288817 0.333466 0.625496
Si Si8 0.822759 0.175877 0.142861
O O1 0.373289 0.858614 0.246209
O O2 0.595624 0.770988 0.326317
O O3 0.450141 0.727694 0.209576
O O4 0.531887 0.000000 0.257936
O O5 0.519901 0.787356 0.910141
O O6 0.677711 0.756271 0.900630
O O7 0.672579 0.000000 0.940474
O O8 0.750000 0.750000 0.000000
O O9 0.673910 0.242928 0.200356
O O10 0.700218 0.221740 0.126513
O O11 0.647345 0.000000 0.154078
O O12 0.750000 0.250000 0.500000
O O13 0.524057 0.241446 0.440256
O O14 0.702115 0.228423 0.558873
O O15 0.662049 0.000000 0.497789
O O16 0.366902 0.755624 0.319292
O O17 0.289014 0.830830 0.361414
O O18 0.450739 0.000000 0.380456
O O19 0.244842 0.000000 0.255214
O O20 0.334755 0.500000 0.631576
O O21 0.827459 0.000000 0.138033
#
# Coordination Sequence:
#
# PCOD8096231 Si02
#       8
#     8   8   8   8   8   8   8   8
#     4  10  20  35  55  82 115 147 182 233 289 340
#     4  11  24  42  63  92 126 161 200 244 293 348
#     4   9  21  40  61  86 121 158 196 243 296 346
#     4  10  20  35  54  73 101 140 183 232 284 340
#     4   9  18  33  52  76 104 139 182 230 280 336
#     4   9  18  33  55  80 107 143 188 232 281 342
#     4  10  20  33  52  78 105 140 186 232 282 343
#     4  10  21  40  64  89 120 161 202 244 292 350
#
# _framework density 19.902176000000001
#
# number of rings (size 3 to 8) (size 9 to 14) (size 15 to 20)
#    0.000    2.250    0.000    2.250    1.750    5.500 
#    0.000    3.750    0.000    1.500    0.000    0.000 
#    0.000    0.000    0.000    0.000    0.000    0.000 
#
# Total GULP energy -396518.409149 kJ/mol
# GULP energy per Si atom -12391.200286 kJ/mol
# Density = 1.985688 g / cm^3
# Si number density = 19.902176 Si / 1000 Ang^3
#
#
#
# Elastic Constant Matrix: (Units=GPa)
#
#
# Indices 1 2 3 4 5 6 
#
# 1 69.3877 35.9709 42.6898 0.0000 -1.8500 0.0000
# 2 35.9709 71.9275 57.9660 0.0000 4.0780 0.0000
# 3 42.6898 57.9660 158.7235 0.0000 -2.9568 0.0000
# 4 0.0000 0.0000 0.0000 29.1641 0.0000 -1.3412
# 5 -1.8500 4.0780 -2.9568 0.0000 36.6140 0.0000
# 6 0.0000 0.0000 0.0000 -1.3412 0.0000 25.0755
#
#
#
# Elastic Compliance Matrix: (Units=1/GPa)
#
#
# Indices 1 2 3 4 5 6 
#
# 1 0.020222 -0.008298 -0.002376 0.000000 0.001754 0.000000
# 2 -0.008298 0.023393 -0.006377 0.000000 -0.003540 0.000000
# 3 -0.002376 -0.006377 0.009293 0.000000 0.001341 0.000000
# 4 0.000000 0.000000 0.000000 0.034373 0.000000 0.001838
# 5 0.001754 -0.003540 0.001341 0.000000 0.027903 0.000000
# 6 0.000000 0.000000 0.000000 0.001838 0.000000 0.039978
#
#
# Mechanical properties :
#
#
# Convention : Reuss Voigt Hill
#
# Bulk Modulus (GPa) = 53.17409 63.69914 58.43661
# Shear Modulus (GPa) = 25.57125 29.06486 27.31806
#
# Velocity S-wave (km/s) = 3.58837 3.82565 3.70890
# Velocity P-wave (km/s) = 6.62904 7.18260 6.91136
#
# Compressibility (1/GPa) = 0.01880615
#
# Stress axis : x y z
#
# Youngs Moduli (GPa) = 49.45159 42.74847 107.60567
#
# Poissons Ratio (x) = 0.35472 0.25565
# Poissons Ratio (y) = 0.41034 0.68623
# Poissons Ratio (z) = 0.11749 0.27262
#
# Static dielectric constant tensor:
#      x y z
#    x 3.612550 0.000000 0.082670 
#    y 0.000000 3.721380 0.000000 
#    z 0.082670 0.000000 -1.638920 
# 
# 
# High freq. dielectric constant tensor:
#      x y z
#    x 1.772320 0.000000 -0.002860 
#    y 0.000000 1.758250 0.000000 
#    z -0.002860 0.000000 1.789310 
# 
# From -- ./inp_files/375561.got.cif
#   From: 2010.06.25/outbox.cif.g09.slc.cpg/sg12_188_cif.got.tgz:375561.got - 2010.06.28 00:19:55.
