data_PCOD8096626
_publ_section_title
;
Structure prediction by ZEFSAII (Michael W. Deem and Ramdas Pophale) SiO2 
 PCOD8096626
Probable space group: C 2/M
;
_chemical_formula_sum "Si O2"
_cell_formula_units_Z 44
_cell_length_a 10.843032
_cell_length_b 26.922571
_cell_length_c 11.199419
_cell_angle_alpha 90.000000
_cell_angle_beta 138.679014
_cell_angle_gamma 90.000000
_cell_volume 2158.682628
_symmetry_space_group_name_H-M "C 2/M"
_symmetry_group_IT_number 12
_symmetry_cell_setting 'monoclinic'
loop_
_space_group_symop_operation_xyz
x,y,z
-x,y,-z
-x,-y,-z
x,-y,z
1/2+x,1/2+y,z
1/2-x,1/2+y,-z
1/2-x,1/2-y,-z
1/2+x,1/2-y,z
loop_
_atom_site_type_symbol
_atom_site_label
_atom_site_fract_x
_atom_site_fract_y
_atom_site_fract_z
Si Si1 0.092963 0.679390 0.194863
Si Si2 0.002323 0.054472 0.861264
Si Si3 0.781704 0.633425 0.349598
Si Si4 0.462527 0.284959 0.733845
Si Si5 0.500000 0.304003 0.500000
Si Si6 0.751370 0.856986 0.943360
O O1 0.085661 0.737095 0.224737
O O2 0.310954 0.662352 0.353723
O O3 0.972317 0.646499 0.200168
O O4 0.000000 0.670666 0.000000
O O5 0.810696 0.081049 0.678155
O O6 0.021379 0.000000 0.813421
O O7 0.000000 0.046406 0.000000
O O8 0.174889 0.090498 0.950805
O O9 0.714166 0.677273 0.388385
O O10 0.698950 0.647523 0.159688
O O11 0.000000 0.626610 0.500000
O O12 0.490032 0.270612 0.613655
O O13 0.651055 0.310659 0.918986
#
# Coordination Sequence:
#
# PCOD8096626 Si02
#       6
#     8   8   8   8   4   8
#     4  12  24  39  58  79 116 156 201 243 281 338
#     4   8  16  33  57  86 114 143 184 234 297 356
#     4  10  20  33  56  87 118 151 192 238 290 343
#     4  11  23  38  56  79 118 156 201 239 281 338
#     4  12  26  38  54  86 109 164 197 242 280 336
#     4  10  20  38  59  82 111 155 189 240 295 338
#
# _framework density 20.382802000000002
#
# number of rings (size 3 to 8) (size 9 to 14) (size 15 to 20)
#    0.000    1.636    1.818    4.909    3.818    0.364 
#    0.000    0.000    0.000    0.545    0.000   10.818 
#    0.000    0.000    0.000    0.000    0.000    0.000 
#
# Total GULP energy -272685.441201 kJ/mol
# GULP energy per Si atom -12394.792782 kJ/mol
# Density = 2.033641 g / cm^3
# Si number density = 20.382802 Si / 1000 Ang^3
#
#
#
# Elastic Constant Matrix: (Units=GPa)
#
#
# Indices 1 2 3 4 5 6 
#
# 1 80.3197 35.8863 29.1980 0.0000 25.0627 0.0000
# 2 35.8863 114.3333 18.2768 0.0000 19.6138 0.0000
# 3 29.1980 18.2768 83.5298 0.0000 27.6584 0.0000
# 4 0.0000 0.0000 0.0000 12.2233 0.0000 1.5411
# 5 25.0627 19.6138 27.6584 0.0000 59.9473 0.0000
# 6 0.0000 0.0000 0.0000 1.5411 0.0000 13.1750
#
#
#
# Elastic Compliance Matrix: (Units=1/GPa)
#
#
# Indices 1 2 3 4 5 6 
#
# 1 0.016833 -0.004005 -0.003672 0.000000 -0.004033 0.000000
# 2 -0.004005 0.010324 -0.000348 0.000000 -0.001543 0.000000
# 3 -0.003672 -0.000348 0.015091 0.000000 -0.005313 0.000000
# 4 0.000000 0.000000 0.000000 0.083035 0.000000 -0.009713
# 5 -0.004033 -0.001543 -0.005313 0.000000 0.021324 0.000000
# 6 0.000000 0.000000 0.000000 -0.009713 0.000000 0.077038
#
#
# Mechanical properties :
#
#
# Convention : Reuss Voigt Hill
#
# Bulk Modulus (GPa) = 38.17185 49.43386 43.80285
# Shear Modulus (GPa) = 20.12665 30.05724 25.09194
#
# Velocity S-wave (km/s) = 3.14575 3.84427 3.51242
# Velocity P-wave (km/s) = 5.65354 6.63400 6.16329
#
# Compressibility (1/GPa) = 0.02619732
#
# Stress axis : x y z
#
# Youngs Moduli (GPa) = 59.40777 96.86528 66.26455
#
# Poissons Ratio (x) = 0.38790 0.24335
# Poissons Ratio (y) = 0.23790 0.02307
# Poissons Ratio (z) = 0.21817 0.03373
#
# Static dielectric constant tensor:
#      x y z
#    x 3.886810 0.000000 0.151570 
#    y 0.000000 3.563970 0.000000 
#    z 0.151570 0.000000 3.881780 
# 
# 
# High freq. dielectric constant tensor:
#      x y z
#    x 1.797050 0.000000 0.014260 
#    y 0.000000 1.749520 0.000000 
#    z 0.014260 0.000000 1.806190 
# 
# From -- ./inp_files/136859.got.cif
#   From: 2010.06.25/outbox.cif.g09.slc.cpg/sg12_69_cif.got.tgz:136859.got - 2010.06.28 00:19:55.
