data_PCOD8096703
_publ_section_title
;
Structure prediction by ZEFSAII (Michael W. Deem and Ramdas Pophale) SiO2 
 PCOD8096703
Probable space group: C 2/M
;
_chemical_formula_sum "Si O2"
_cell_formula_units_Z 52
_cell_length_a 10.024824
_cell_length_b 25.771151
_cell_length_c 10.817444
_cell_angle_alpha 90.000000
_cell_angle_beta 101.758620
_cell_angle_gamma 90.000000
_cell_volume 2736.052937
_symmetry_space_group_name_H-M "C 2/M"
_symmetry_group_IT_number 12
_symmetry_cell_setting 'monoclinic'
loop_
_space_group_symop_operation_xyz
x,y,z
-x,y,-z
-x,-y,-z
x,-y,z
1/2+x,1/2+y,z
1/2-x,1/2+y,-z
1/2-x,1/2-y,-z
1/2+x,1/2-y,z
loop_
_atom_site_type_symbol
_atom_site_label
_atom_site_fract_x
_atom_site_fract_y
_atom_site_fract_z
Si Si1 0.740782 0.112341 0.377475
Si Si2 0.958630 0.665812 0.280108
Si Si3 0.108425 0.000000 0.339916
Si Si4 0.773324 0.894721 0.671464
Si Si5 0.396494 0.747373 0.086381
Si Si6 0.814953 0.000000 0.359421
Si Si7 0.012651 0.176992 0.684725
Si Si8 0.500000 0.761369 0.500000
O O1 0.614677 0.147061 0.308403
O O2 0.729598 0.107773 0.521393
O O3 0.732700 0.053820 0.318063
O O4 0.884516 0.140082 0.373034
O O5 0.856317 0.617196 0.266151
O O6 0.937010 0.696852 0.149890
O O7 0.914732 0.700900 0.392854
O O8 0.174292 0.048619 0.283147
O O9 0.139671 0.000000 0.490533
O O10 0.945504 0.000000 0.293793
O O11 0.894638 0.855455 0.726560
O O12 0.397672 0.704091 0.193065
O O13 0.500000 0.731013 0.000000
O O14 0.250000 0.750000 0.000000
O O15 0.932330 0.220417 0.584518
#
# Coordination Sequence:
#
# PCOD8096703 Si02
#       8
#     8   8   4   8   8   4   8   4
#     4  11  19  34  53  87 119 149 184 220 283 343
#     4  11  23  35  55  83 118 148 182 234 286 332
#     4   9  18  31  53  79 119 153 180 221 263 346
#     4  11  19  34  53  87 119 148 182 222 284 339
#     4  11  24  43  56  79 112 152 200 234 271 330
#     4   9  18  31  53  79 119 154 180 218 267 346
#     4  11  21  33  61  81 108 153 189 229 277 330
#     4  10  20  34  48  84 114 138 178 228 276 334
#
# _framework density 19.005479999999999
#
# number of rings (size 3 to 8) (size 9 to 14) (size 15 to 20)
#    0.000    1.385    4.615    1.846    0.000    5.538 
#    0.000    2.308    0.000    0.000    0.000   21.538 
#    0.000    0.000    0.000    0.000    0.000    0.000 
#
# Total GULP energy -322155.462771 kJ/mol
# GULP energy per Si atom -12390.594722 kJ/mol
# Density = 1.896222 g / cm^3
# Si number density = 19.005480 Si / 1000 Ang^3
#
#
#
# Elastic Constant Matrix: (Units=GPa)
#
#
# Indices 1 2 3 4 5 6 
#
# 1 85.1222 29.7476 2.0392 0.0000 10.3847 0.0000
# 2 29.7476 123.0091 21.3089 0.0000 7.4050 0.0000
# 3 2.0392 21.3089 49.8832 0.0000 10.8045 0.0000
# 4 0.0000 0.0000 0.0000 15.3882 0.0000 1.5796
# 5 10.3847 7.4050 10.8045 0.0000 28.7207 0.0000
# 6 0.0000 0.0000 0.0000 1.5796 0.0000 28.8652
#
#
#
# Elastic Compliance Matrix: (Units=1/GPa)
#
#
# Indices 1 2 3 4 5 6 
#
# 1 0.013427 -0.003288 0.001877 0.000000 -0.004713 0.000000
# 2 -0.003288 0.009607 -0.004018 0.000000 0.000224 0.000000
# 3 0.001877 -0.004018 0.023526 0.000000 -0.008493 0.000000
# 4 0.000000 0.000000 0.000000 0.065352 0.000000 -0.003576
# 5 -0.004713 0.000224 -0.008493 0.000000 0.039660 0.000000
# 6 0.000000 0.000000 0.000000 -0.003576 0.000000 0.034839
#
#
# Mechanical properties :
#
#
# Convention : Reuss Voigt Hill
#
# Bulk Modulus (GPa) = 28.01053 40.46731 34.23892
# Shear Modulus (GPa) = 23.90386 28.25608 26.07997
#
# Velocity S-wave (km/s) = 3.55030 3.86000 3.70839
# Velocity P-wave (km/s) = 5.61928 6.41910 6.03246
#
# Compressibility (1/GPa) = 0.03570087
#
# Stress axis : x y z
#
# Youngs Moduli (GPa) = 74.47642 104.08730 42.50610
#
# Poissons Ratio (x) = 0.34229 -0.07977
# Poissons Ratio (y) = 0.24491 0.17079
# Poissons Ratio (z) = -0.13977 0.41822
#
# Static dielectric constant tensor:
#      x y z
#    x 3.278390 0.000000 0.003490 
#    y 0.000000 3.892880 0.000000 
#    z 0.003490 0.000000 3.159720 
# 
# 
# High freq. dielectric constant tensor:
#      x y z
#    x 1.730350 0.000000 -0.000620 
#    y 0.000000 1.753230 0.000000 
#    z -0.000620 0.000000 1.695050 
# 
# From -- ./inp_files/123788.got.cif
#   From: 2010.06.25/outbox.cif.g09.slc.cpg/sg12_62_cif.got.tgz:123788.got - 2010.06.28 00:19:55.
