data_PCOD8096456
_publ_section_title
;
Structure prediction by ZEFSAII (Michael W. Deem and Ramdas Pophale) SiO2 
 PCOD8096456
Probable space group: C 2/M
;
_chemical_formula_sum "Si O2"
_cell_formula_units_Z 40
_cell_length_a 21.164381
_cell_length_b 9.472525
_cell_length_c 13.752063
_cell_angle_alpha 90.000000
_cell_angle_beta 47.803003
_cell_angle_gamma 90.000000
_cell_volume 2042.506707
_symmetry_space_group_name_H-M "C 2/M"
_symmetry_group_IT_number 12
_symmetry_cell_setting 'monoclinic'
loop_
_space_group_symop_operation_xyz
x,y,z
-x,y,-z
-x,-y,-z
x,-y,z
1/2+x,1/2+y,z
1/2-x,1/2+y,-z
1/2-x,1/2-y,-z
1/2+x,1/2-y,z
loop_
_atom_site_type_symbol
_atom_site_label
_atom_site_fract_x
_atom_site_fract_y
_atom_site_fract_z
Si Si1 0.836813 0.836138 0.916744
Si Si2 0.624418 0.837423 0.586231
Si Si3 0.513932 0.338159 0.375474
Si Si4 0.197564 0.158737 0.678527
Si Si5 0.580986 0.661599 0.972721
O O1 0.888631 0.819719 0.761872
O O2 0.814108 0.000000 0.959882
O O3 0.750000 0.750000 0.000000
O O4 0.895591 0.775608 0.945229
O O5 0.541893 0.759257 0.634741
O O6 0.701017 0.815951 0.429775
O O7 0.649487 0.772520 0.663374
O O8 0.601947 0.000000 0.625671
O O9 0.500000 0.286852 0.500000
O O10 0.484138 0.500000 0.395178
O O11 0.166523 0.178728 0.820598
O O12 0.176242 0.000000 0.662856
O O13 0.554626 0.500000 0.016961
O O14 0.500000 0.734446 0.000000
#
# Coordination Sequence:
#
# PCOD8096456 Si02
#       5
#     8   8   8   8   8
#     4  10  22  39  60  86 116 152 192 237 289 343
#     4  10  20  33  53  83 113 144 186 237 287 330
#     4  10  22  39  58  80 111 154 196 230 277 341
#     4   9  18  33  54  80 110 145 184 231 284 341
#     4   9  17  32  57  82 106 144 192 233 276 335
#
# _framework density 19.583779
#
# number of rings (size 3 to 8) (size 9 to 14) (size 15 to 20)
#    0.000    2.400    0.000    1.800    2.800    5.200 
#    0.000    1.000    0.000    2.400    0.000    0.000 
#    0.000    0.000    0.000    0.000    0.000    0.000 
#
# Total GULP energy -247934.469562 kJ/mol
# GULP energy per Si atom -12396.723478 kJ/mol
# Density = 1.953921 g / cm^3
# Si number density = 19.583779 Si / 1000 Ang^3
#
#
#
# Elastic Constant Matrix: (Units=GPa)
#
#
# Indices 1 2 3 4 5 6 
#
# 1 94.3486 27.1756 40.4500 0.0000 -8.9228 0.0000
# 2 27.1756 58.5033 24.5889 0.0000 -11.9754 0.0000
# 3 40.4500 24.5889 111.3611 0.0000 5.9410 0.0000
# 4 0.0000 0.0000 0.0000 20.7606 0.0000 -16.9967
# 5 -8.9228 -11.9754 5.9410 0.0000 25.5974 0.0000
# 6 0.0000 0.0000 0.0000 -16.9967 0.0000 -5.2294
#
#
#
# Elastic Compliance Matrix: (Units=1/GPa)
#
#
# Indices 1 2 3 4 5 6 
#
# 1 0.013995 -0.003771 -0.004472 0.000000 0.004152 0.000000
# 2 -0.003771 0.022713 -0.004194 0.000000 0.010285 0.000000
# 3 -0.004472 -0.004194 0.011865 0.000000 -0.006275 0.000000
# 4 0.000000 0.000000 0.000000 0.013157 0.000000 -0.042764
# 5 0.004152 0.010285 -0.006275 0.000000 0.046782 0.000000
# 6 0.000000 0.000000 0.000000 -0.042764 0.000000 -0.052234
#
#
# Mechanical properties :
#
#
# Convention : Reuss Voigt Hill
#
# Bulk Modulus (GPa) = 42.19753 49.84912 46.02332
# Shear Modulus (GPa) = 56.14658 19.69229 37.91943
#
# Velocity S-wave (km/s) = 5.36024 3.17447 4.40508
# Velocity P-wave (km/s) = 7.73974 6.24066 7.03027
#
# Compressibility (1/GPa) = 0.02369807
#
# Stress axis : x y z
#
# Youngs Moduli (GPa) = 71.45211 44.02804 84.28091
#
# Poissons Ratio (x) = 0.16605 0.37693
# Poissons Ratio (y) = 0.26947 0.35346
# Poissons Ratio (z) = 0.31956 0.18465
#
# Static dielectric constant tensor:
#      x y z
#    x 3.504540 0.000000 0.036510 
#    y 0.000000 3.382830 0.000000 
#    z 0.036510 0.000000 3.756180 
# 
# 
# High freq. dielectric constant tensor:
#      x y z
#    x 1.749380 0.000000 -0.001790 
#    y 0.000000 1.735910 0.000000 
#    z -0.001790 0.000000 1.778780 
# 
# From -- ./inp_files/229660.got.cif
#   From: 2010.06.25/outbox.cif.g09.slc.cpg/sg12_115_cif.got.tgz:229660.got - 2010.06.28 00:19:55.
