data_PCOD8096202
_publ_section_title
;
Structure prediction by ZEFSAII (Michael W. Deem and Ramdas Pophale) SiO2 
 PCOD8096202
Probable space group: C 2/M
;
_chemical_formula_sum "Si O2"
_cell_formula_units_Z 64
_cell_length_a 20.156416
_cell_length_b 9.898092
_cell_length_c 19.969947
_cell_angle_alpha 90.000000
_cell_angle_beta 57.946804
_cell_angle_gamma 90.000000
_cell_volume 3376.836050
_symmetry_space_group_name_H-M "C 2/M"
_symmetry_group_IT_number 12
_symmetry_cell_setting 'monoclinic'
loop_
_space_group_symop_operation_xyz
x,y,z
-x,y,-z
-x,-y,-z
x,-y,z
1/2+x,1/2+y,z
1/2-x,1/2+y,-z
1/2-x,1/2-y,-z
1/2+x,1/2-y,z
loop_
_atom_site_type_symbol
_atom_site_label
_atom_site_fract_x
_atom_site_fract_y
_atom_site_fract_z
Si Si1 0.465149 0.656228 0.837168
Si Si2 0.978454 0.846969 0.583039
Si Si3 0.694951 0.846789 0.853515
Si Si4 0.437712 0.846660 0.976479
Si Si5 0.861321 0.847720 0.225008
Si Si6 0.351808 0.349435 0.472883
Si Si7 0.250775 0.845715 0.596870
Si Si8 0.626904 0.339198 0.243962
O O1 0.442136 0.500000 0.863231
O O2 0.558410 0.671081 0.776699
O O3 0.421639 0.712909 0.794391
O O4 0.439318 0.744601 0.914115
O O5 0.910475 0.780243 0.666150
O O6 0.000000 0.774610 0.500000
O O7 0.055596 0.842451 0.587659
O O8 0.952546 0.000000 0.579575
O O9 0.651248 0.840566 0.948071
O O10 0.642038 0.757337 0.833117
O O11 0.783471 0.790077 0.811515
O O12 0.696562 0.000000 0.825106
O O13 0.457319 0.000000 0.942533
O O14 0.500000 0.802336 0.000000
O O15 0.787146 0.818097 0.311400
O O16 0.856879 0.000000 0.198671
O O17 0.325372 0.500000 0.507634
O O18 0.325757 0.250527 0.547324
O O19 0.313574 0.304860 0.423839
O O20 0.278012 0.000000 0.574509
O O21 0.620066 0.500000 0.249767
#
# Coordination Sequence:
#
# PCOD8096202 Si02
#       8
#     8   8   8   8   8   8   8   8
#     4  10  20  35  58  82 106 142 182 222 266 318
#     4   9  17  29  49  77 105 133 172 221 263 300
#     4  10  21  36  56  79 108 142 177 220 267 316
#     4  10  20  36  55  81 114 143 173 215 271 324
#     4  10  20  33  52  77 106 141 178 218 268 318
#     4   9  17  30  49  73  98 129 172 217 260 309
#     4   9  18  31  47  70 103 135 165 212 267 312
#     4   9  19  35  53  79 112 141 178 226 272 313
#
# _framework density 18.952652
#
# number of rings (size 3 to 8) (size 9 to 14) (size 15 to 20)
#    0.000    2.500    1.250    0.750    1.750    4.750 
#    0.000    0.625    0.000    3.375    0.000    0.000 
#    0.000    0.000    0.000    0.000    0.000    0.000 
#
# Total GULP energy -396647.008085 kJ/mol
# GULP energy per Si atom -12395.219003 kJ/mol
# Density = 1.890951 g / cm^3
# Si number density = 18.952652 Si / 1000 Ang^3
#
#
#
# Elastic Constant Matrix: (Units=GPa)
#
#
# Indices 1 2 3 4 5 6 
#
# 1 74.9931 14.7452 33.9390 0.0000 -3.4182 0.0000
# 2 14.7452 51.9992 34.6525 0.0000 0.8939 0.0002
# 3 33.9390 34.6525 109.6633 0.0000 -5.0781 -0.0001
# 4 0.0000 0.0000 0.0000 25.7306 0.0000 -1.8705
# 5 -3.4182 0.8939 -5.0781 0.0000 32.2347 0.0000
# 6 0.0000 0.0002 -0.0001 -1.8705 0.0000 16.1417
#
#
#
# Elastic Compliance Matrix: (Units=1/GPa)
#
#
# Indices 1 2 3 4 5 6 
#
# 1 0.015635 -0.001594 -0.004288 0.000000 0.001027 0.000000
# 2 -0.001594 0.024640 -0.007386 0.000000 -0.002016 0.000000
# 3 -0.004288 -0.007386 0.012862 0.000000 0.001776 0.000000
# 4 0.000000 0.000000 0.000000 0.039194 0.000000 0.004542
# 5 0.001027 -0.002016 0.001776 0.000000 0.031467 0.000000
# 6 0.000000 0.000000 0.000000 0.004542 0.000000 0.062478
#
#
# Mechanical properties :
#
#
# Convention : Reuss Voigt Hill
#
# Bulk Modulus (GPa) = 37.59151 44.81434 41.20293
# Shear Modulus (GPa) = 22.55522 25.04268 23.79895
#
# Velocity S-wave (km/s) = 3.45350 3.63895 3.54744
# Velocity P-wave (km/s) = 5.98161 6.43061 6.21017
#
# Compressibility (1/GPa) = 0.02660175
#
# Stress axis : x y z
#
# Youngs Moduli (GPa) = 63.95841 40.58483 77.74895
#
# Poissons Ratio (x) = 0.06469 0.33336
# Poissons Ratio (y) = 0.10195 0.57425
# Poissons Ratio (z) = 0.27423 0.29976
#
# Static dielectric constant tensor:
#      x y z
#    x 3.453910 0.000000 -0.154070 
#    y 0.000000 3.232210 0.000000 
#    z -0.154070 0.000000 3.559300 
# 
# 
# High freq. dielectric constant tensor:
#      x y z
#    x 1.733140 0.000000 -0.009810 
#    y 0.000000 1.701780 0.000000 
#    z -0.009810 0.000000 1.740260 
# 
# From -- ./inp_files/319884.got.cif
#   From: 2010.06.25/outbox.cif.g09.slc.cpg/sg12_160_cif.got.tgz:319884.got - 2010.06.28 00:19:55.
