data_PCOD8096580
_publ_section_title
;
Structure prediction by ZEFSAII (Michael W. Deem and Ramdas Pophale) SiO2 
 PCOD8096580
Probable space group: C 2/M
;
_chemical_formula_sum "Si O2"
_cell_formula_units_Z 48
_cell_length_a 9.530928
_cell_length_b 18.833192
_cell_length_c 18.825053
_cell_angle_alpha 90.000000
_cell_angle_beta 130.862236
_cell_angle_gamma 90.000000
_cell_volume 2555.528509
_symmetry_space_group_name_H-M "C 2/M"
_symmetry_group_IT_number 12
_symmetry_cell_setting 'monoclinic'
loop_
_space_group_symop_operation_xyz
x,y,z
-x,y,-z
-x,-y,-z
x,-y,z
1/2+x,1/2+y,z
1/2-x,1/2+y,-z
1/2-x,1/2-y,-z
1/2+x,1/2-y,z
loop_
_atom_site_type_symbol
_atom_site_label
_atom_site_fract_x
_atom_site_fract_y
_atom_site_fract_z
Si Si1 0.522139 0.584273 0.757586
Si Si2 0.644026 0.915701 0.229937
Si Si3 0.508580 0.317643 0.885629
Si Si4 0.283386 0.421525 0.423163
Si Si5 0.805351 0.320380 0.105706
Si Si6 0.702231 0.915362 0.546198
O O1 0.510682 0.500000 0.763437
O O2 0.718096 0.608177 0.787824
O O3 0.499444 0.617773 0.827635
O O4 0.356032 0.612848 0.652235
O O5 0.719266 0.882875 0.329528
O O6 0.435217 0.889431 0.149721
O O7 0.643675 0.000000 0.232553
O O8 0.311039 0.310486 0.860207
O O9 0.557909 0.246221 0.859517
O O10 0.669705 0.333057 0.995113
O O11 0.500000 0.429192 0.500000
O O12 0.191933 0.500000 0.392153
O O13 0.223871 0.380670 0.475069
O O14 0.500000 0.889710 0.500000
O O15 0.723562 0.000000 0.548708
#
# Coordination Sequence:
#
# PCOD8096580 Si02
#       6
#     8   8   8   8   8   8
#     4  10  20  34  54  84 116 145 179 223 270 315
#     4  10  20  33  55  85 114 145 181 222 269 316
#     4  10  22  40  60  79 105 140 182 226 271 331
#     4   9  15  28  48  73 108 146 180 214 256 313
#     4  10  22  40  60  80 103 141 183 223 275 329
#     4   9  17  28  46  75 110 146 180 216 261 312
#
# _framework density 18.782806999999998
#
# number of rings (size 3 to 8) (size 9 to 14) (size 15 to 20)
#    0.000    2.333    1.667    1.000    2.333    3.333 
#    0.000    3.333    0.000    2.000    0.000    0.000 
#    0.000    0.000    0.000    0.000    0.000    0.000 
#
# Total GULP energy -297476.590694 kJ/mol
# GULP energy per Si atom -12394.857946 kJ/mol
# Density = 1.874006 g / cm^3
# Si number density = 18.782807 Si / 1000 Ang^3
#
#
#
# Elastic Constant Matrix: (Units=GPa)
#
#
# Indices 1 2 3 4 5 6 
#
# 1 168.4678 38.1674 62.5246 0.0000 -12.3017 0.0000
# 2 38.1674 33.0494 32.1830 0.0000 -6.0450 0.0000
# 3 62.5246 32.1830 79.1125 0.0000 -13.8181 0.0000
# 4 0.0000 0.0000 0.0000 6.3835 0.0000 -3.0564
# 5 -12.3017 -6.0450 -13.8181 0.0000 39.7799 0.0000
# 6 0.0000 0.0000 0.0000 -3.0564 0.0000 27.3838
#
#
#
# Elastic Compliance Matrix: (Units=1/GPa)
#
#
# Indices 1 2 3 4 5 6 
#
# 1 0.009017 -0.005747 -0.004742 0.000000 0.000268 0.000000
# 2 -0.005747 0.053782 -0.017267 0.000000 0.000397 0.000000
# 3 -0.004742 -0.017267 0.024164 0.000000 0.004303 0.000000
# 4 0.000000 0.000000 0.000000 0.165499 0.000000 0.018472
# 5 0.000268 0.000397 0.004303 0.000000 0.026776 0.000000
# 6 0.000000 0.000000 0.000000 0.018472 0.000000 0.038580
#
#
# Mechanical properties :
#
#
# Convention : Reuss Voigt Hill
#
# Bulk Modulus (GPa) = 31.79549 60.70886 46.25218
# Shear Modulus (GPa) = 13.02715 24.55974 18.79345
#
# Velocity S-wave (km/s) = 2.63642 3.61995 3.16660
# Velocity P-wave (km/s) = 5.12175 7.06143 6.16831
#
# Compressibility (1/GPa) = 0.03145100
#
# Stress axis : x y z
#
# Youngs Moduli (GPa) = 110.89704 18.59354 41.38431
#
# Poissons Ratio (x) = 0.10686 0.19624
# Poissons Ratio (y) = 0.63735 0.71458
# Poissons Ratio (z) = 0.52586 0.32106
#
# Static dielectric constant tensor:
#      x y z
#    x 3.560530 0.000000 -0.096520 
#    y 0.000000 2.982530 0.000000 
#    z -0.096520 0.000000 3.519300 
# 
# 
# High freq. dielectric constant tensor:
#      x y z
#    x 1.747790 0.000000 -0.007430 
#    y 0.000000 1.677700 0.000000 
#    z -0.007430 0.000000 1.737790 
# 
# From -- ./inp_files/256706.got.cif
#   From: 2010.06.25/outbox.cif.g09.slc.cpg/sg12_129_cif.got.tgz:256706.got - 2010.06.28 00:19:55.
