data_PCOD8096010
_publ_section_title
;
Structure prediction by ZEFSAII (Michael W. Deem and Ramdas Pophale) SiO2 
 PCOD8096010
Probable space group: C 2/M
;
_chemical_formula_sum "Si O2"
_cell_formula_units_Z 64
_cell_length_a 22.146102
_cell_length_b 13.380705
_cell_length_c 12.869730
_cell_angle_alpha 90.000000
_cell_angle_beta 65.772353
_cell_angle_gamma 90.000000
_cell_volume 3477.791330
_symmetry_space_group_name_H-M "C 2/M"
_symmetry_group_IT_number 12
_symmetry_cell_setting 'monoclinic'
loop_
_space_group_symop_operation_xyz
x,y,z
-x,y,-z
-x,-y,-z
x,-y,z
1/2+x,1/2+y,z
1/2-x,1/2+y,-z
1/2-x,1/2-y,-z
1/2+x,1/2-y,z
loop_
_atom_site_type_symbol
_atom_site_label
_atom_site_fract_x
_atom_site_fract_y
_atom_site_fract_z
Si Si1 0.064150 0.612016 0.159249
Si Si2 0.457108 0.759825 0.130330
Si Si3 0.073295 0.769741 0.475780
Si Si4 0.652194 0.883739 0.903463
Si Si5 0.548371 0.614544 0.696523
Si Si6 0.776122 0.233644 0.867656
Si Si7 0.600195 0.389284 0.261530
Si Si8 0.352961 0.114911 0.697642
O O1 0.038893 0.500000 0.155829
O O2 0.087666 0.624752 0.260759
O O3 0.002325 0.683298 0.182681
O O4 0.125790 0.633985 0.039072
O O5 0.396265 0.830376 0.143581
O O6 0.430578 0.659818 0.206239
O O7 0.500000 0.729574 0.000000
O O8 0.080694 0.814762 0.585609
O O9 0.091416 0.861419 0.387873
O O10 0.123534 0.676388 0.421250
O O11 0.000000 0.731124 0.500000
O O12 0.725004 0.836185 0.841206
O O13 0.656268 0.000000 0.871694
O O14 0.573674 0.500000 0.668778
O O15 0.469014 0.618230 0.748918
O O16 0.847887 0.183183 0.830468
O O17 0.786517 0.336366 0.794778
O O18 0.750000 0.250000 0.000000
O O19 0.629357 0.500000 0.235180
O O20 0.338091 0.000000 0.678826
#
# Coordination Sequence:
#
# PCOD8096010 Si02
#       8
#     8   8   8   8   8   8   8   8
#     4   9  16  30  51  75 105 141 175 215 263 309
#     4  10  20  33  53  75 108 140 178 221 262 310
#     4   9  17  31  53  78 107 135 173 217 270 322
#     4  10  20  33  51  75 104 142 183 215 251 306
#     4  10  20  35  55  78 107 139 173 217 270 326
#     4  11  20  31  52  75 110 145 179 217 257 311
#     4   9  18  31  52  80 106 136 174 219 267 316
#     4  10  20  33  51  80 114 142 172 217 272 321
#
# _framework density 18.402484000000001
#
# number of rings (size 3 to 8) (size 9 to 14) (size 15 to 20)
#    0.000    2.250    1.250    3.375    1.750    4.000 
#    0.000    1.875    0.000    3.000    0.000    1.750 
#    0.000    0.000    0.000    0.000    0.000    0.000 
#
# Total GULP energy -396744.775415 kJ/mol
# GULP energy per Si atom -12398.274232 kJ/mol
# Density = 1.836060 g / cm^3
# Si number density = 18.402484 Si / 1000 Ang^3
#
#
#
# Elastic Constant Matrix: (Units=GPa)
#
#
# Indices 1 2 3 4 5 6 
#
# 1 45.8114 33.1055 25.3783 0.0000 -4.2853 0.0000
# 2 33.1055 143.8900 58.8370 0.0000 -4.2138 0.0000
# 3 25.3783 58.8370 93.2101 0.0000 -6.4363 0.0000
# 4 0.0000 0.0000 0.0000 28.8855 0.0000 -1.5800
# 5 -4.2853 -4.2138 -6.4363 0.0000 23.5720 0.0000
# 6 0.0000 0.0000 0.0000 -1.5800 0.0000 25.8259
#
#
#
# Elastic Compliance Matrix: (Units=1/GPa)
#
#
# Indices 1 2 3 4 5 6 
#
# 1 0.027859 -0.004455 -0.004565 0.000000 0.003022 0.000000
# 2 -0.004455 0.010080 -0.005179 0.000000 -0.000422 0.000000
# 3 -0.004565 -0.005179 0.015410 0.000000 0.002452 0.000000
# 4 0.000000 0.000000 0.000000 0.034736 0.000000 0.002125
# 5 0.003022 -0.000422 0.002452 0.000000 0.043567 0.000000
# 6 0.000000 0.000000 0.000000 0.002125 0.000000 0.038851
#
#
# Mechanical properties :
#
#
# Convention : Reuss Voigt Hill
#
# Bulk Modulus (GPa) = 40.07662 57.50588 48.79125
# Shear Modulus (GPa) = 24.12937 26.69606 25.41272
#
# Velocity S-wave (km/s) = 3.62498 3.81291 3.72013
# Velocity P-wave (km/s) = 6.27262 7.12048 6.70995
#
# Compressibility (1/GPa) = 0.02495220
#
# Stress axis : x y z
#
# Youngs Moduli (GPa) = 35.89480 99.20574 64.89401
#
# Poissons Ratio (x) = 0.44194 0.29621
# Poissons Ratio (y) = 0.15990 0.33609
# Poissons Ratio (z) = 0.16384 0.51380
#
# Static dielectric constant tensor:
#      x y z
#    x 3.206210 0.000000 -0.187690 
#    y 0.000000 3.629100 0.000000 
#    z -0.187690 0.000000 3.319290 
# 
# 
# High freq. dielectric constant tensor:
#      x y z
#    x 1.676700 0.000000 -0.009380 
#    y 0.000000 1.726770 0.000000 
#    z -0.009380 0.000000 1.702050 
# 
# From -- ./inp_files/167246.got.cif
#   From: 2010.06.25/outbox.cif.g09.slc.cpg/sg12_84_cif.got.tgz:167246.got - 2010.06.28 00:19:55.
