data_PCOD8096126
_publ_section_title
;
Structure prediction by ZEFSAII (Michael W. Deem and Ramdas Pophale) SiO2 
 PCOD8096126
Probable space group: C 2/M
;
_chemical_formula_sum "Si O2"
_cell_formula_units_Z 56
_cell_length_a 26.976652
_cell_length_b 9.165306
_cell_length_c 13.367931
_cell_angle_alpha 90.000000
_cell_angle_beta 63.176832
_cell_angle_gamma 90.000000
_cell_volume 2949.581799
_symmetry_space_group_name_H-M "C 2/M"
_symmetry_group_IT_number 12
_symmetry_cell_setting 'monoclinic'
loop_
_space_group_symop_operation_xyz
x,y,z
-x,y,-z
-x,-y,-z
x,-y,z
1/2+x,1/2+y,z
1/2-x,1/2+y,-z
1/2-x,1/2-y,-z
1/2+x,1/2-y,z
loop_
_atom_site_type_symbol
_atom_site_label
_atom_site_fract_x
_atom_site_fract_y
_atom_site_fract_z
Si Si1 0.581512 0.666977 0.884525
Si Si2 0.916821 0.170156 0.886657
Si Si3 0.699271 0.169267 0.310439
Si Si4 0.023819 0.672305 0.765465
Si Si5 0.693152 0.333385 0.668578
Si Si6 0.133295 0.667647 0.558132
Si Si7 0.699652 0.327039 0.102340
O O1 0.562043 0.500000 0.887281
O O2 0.539714 0.768589 0.860815
O O3 0.644196 0.689615 0.792343
O O4 0.579663 0.714019 0.000854
O O5 0.857079 0.218733 0.900548
O O6 0.965462 0.257220 0.784228
O O7 0.926385 0.000000 0.859868
O O8 0.751552 0.222723 0.327882
O O9 0.644587 0.191025 0.429781
O O10 0.694587 0.272510 0.219931
O O11 0.706070 0.000000 0.271217
O O12 0.016977 0.500000 0.775456
O O13 0.071386 0.722804 0.642977
O O14 0.700180 0.500000 0.629978
O O15 0.681124 0.246572 0.578139
O O16 0.138621 0.500000 0.583402
O O17 0.709231 0.500000 0.091497
O O18 0.750000 0.250000 0.000000
#
# Coordination Sequence:
#
# PCOD8096126 Si02
#       7
#     8   8   8   8   8   8   8
#     4   9  17  31  51  75 105 139 172 211 264 321
#     4  10  21  37  55  75 103 141 180 216 260 315
#     4  10  20  36  56  78 108 145 182 220 265 315
#     4  10  20  33  51  79 110 138 174 219 265 312
#     4   9  17  30  52  80 108 140 177 218 266 321
#     4   9  19  34  52  78 112 144 176 220 269 316
#     4  11  24  41  60  82 107 136 175 220 264 315
#
# _framework density 18.985741999999998
#
# number of rings (size 3 to 8) (size 9 to 14) (size 15 to 20)
#    0.000    2.286    0.000    2.571    0.000    7.429 
#    0.000    3.571    0.000    4.286    0.000    0.000 
#    0.000    0.000    0.000    0.000    0.000    0.000 
#
# Total GULP energy -347223.945879 kJ/mol
# GULP energy per Si atom -12400.855210 kJ/mol
# Density = 1.894253 g / cm^3
# Si number density = 18.985742 Si / 1000 Ang^3
#
#
#
# Elastic Constant Matrix: (Units=GPa)
#
#
# Indices 1 2 3 4 5 6 
#
# 1 132.6993 56.8472 61.6485 0.0000 -16.3777 0.0000
# 2 56.8472 66.3538 45.2513 0.0000 -2.0214 0.0000
# 3 61.6485 45.2513 108.6725 0.0000 -4.4122 0.0000
# 4 0.0000 0.0000 0.0000 30.0192 0.0000 1.1169
# 5 -16.3777 -2.0214 -4.4122 0.0000 15.8212 0.0000
# 6 0.0000 0.0000 0.0000 1.1169 0.0000 31.8735
#
#
#
# Elastic Compliance Matrix: (Units=1/GPa)
#
#
# Indices 1 2 3 4 5 6 
#
# 1 0.015343 -0.010016 -0.003986 0.000000 0.013492 0.000000
# 2 -0.010016 0.027587 -0.006153 0.000000 -0.008559 0.000000
# 3 -0.003986 -0.006153 0.013984 0.000000 -0.001012 0.000000
# 4 0.000000 0.000000 0.000000 0.033355 0.000000 -0.001169
# 5 0.013492 -0.008559 -0.001012 0.000000 0.075797 0.000000
# 6 0.000000 0.000000 0.000000 -0.001169 0.000000 0.031415
#
#
# Mechanical properties :
#
#
# Convention : Reuss Voigt Hill
#
# Bulk Modulus (GPa) = 60.22155 70.57994 65.40074
# Shear Modulus (GPa) = 20.54859 25.14135 22.84497
#
# Velocity S-wave (km/s) = 3.29343 3.64293 3.47258
# Velocity P-wave (km/s) = 6.80077 7.41286 7.11340
#
# Compressibility (1/GPa) = 0.01660535
#
# Stress axis : x y z
#
# Youngs Moduli (GPa) = 65.17464 36.24899 71.51078
#
# Poissons Ratio (x) = 0.36307 0.28502
# Poissons Ratio (y) = 0.65279 0.43999
# Poissons Ratio (z) = 0.25976 0.22303
#
# Static dielectric constant tensor:
#      x y z
#    x 3.601450 0.000000 -0.219940 
#    y 0.000000 3.413860 0.000000 
#    z -0.219940 0.000000 3.561650 
# 
# 
# High freq. dielectric constant tensor:
#      x y z
#    x 1.735080 0.000000 -0.021300 
#    y 0.000000 1.731930 0.000000 
#    z -0.021300 0.000000 1.739080 
# 
# From -- ./inp_files/180796.got.cif
#   From: 2010.06.25/outbox.cif.g09.slc.cpg/sg12_91_cif.got.tgz:180796.got - 2010.06.28 00:19:55.
