data_PCOD8096783
_publ_section_title
;
Structure prediction by ZEFSAII (Michael W. Deem and Ramdas Pophale) SiO2 
 PCOD8096783
Probable space group: C 2/M
;
_chemical_formula_sum "Si O2"
_cell_formula_units_Z 48
_cell_length_a 9.043204
_cell_length_b 19.480512
_cell_length_c 20.659477
_cell_angle_alpha 90.000000
_cell_angle_beta 131.040326
_cell_angle_gamma 90.000000
_cell_volume 2745.086164
_symmetry_space_group_name_H-M "C 2/M"
_symmetry_group_IT_number 12
_symmetry_cell_setting 'monoclinic'
loop_
_space_group_symop_operation_xyz
x,y,z
-x,y,-z
-x,-y,-z
x,-y,z
1/2+x,1/2+y,z
1/2-x,1/2+y,-z
1/2-x,1/2-y,-z
1/2+x,1/2-y,z
loop_
_atom_site_type_symbol
_atom_site_label
_atom_site_fract_x
_atom_site_fract_y
_atom_site_fract_z
Si Si1 0.192714 0.418445 0.906555
Si Si2 0.063447 0.077592 0.260020
Si Si3 0.794036 0.321766 0.411427
Si Si4 0.473048 0.418445 0.093445
Si Si5 0.059754 0.178235 0.588573
Si Si6 0.216612 0.577592 0.260020
O O1 0.182499 0.500000 0.905420
O O2 0.340845 0.393052 0.893897
O O3 0.979144 0.389201 0.827467
O O4 0.273713 0.392375 1.000000
O O5 0.233690 0.122781 0.340559
O O6 0.996745 0.110799 0.172533
O O7 0.873437 0.077968 0.248958
O O8 0.144807 0.000000 0.275114
O O9 0.825870 0.250000 0.383914
O O10 0.632020 0.314035 0.421347
O O11 0.000000 0.347167 0.500000
O O12 0.466238 0.500000 0.094580
O O13 0.212014 0.122781 0.659441
O O14 0.000000 0.152833 0.500000
O O15 0.180534 0.500000 0.275114
#
# Coordination Sequence:
#
# PCOD8096783 Si02
#       6
#     8   8   8   8   8   8
#     4   8  14  25  42  66  95 124 153 185 223 269
#     4   9  18  31  47  70  97 122 151 189 231 272
#     4  10  20  34  51  69  91 121 156 191 228 275
#     4   8  14  25  42  66  95 124 153 185 223 269
#     4  10  20  34  51  69  91 121 156 191 228 275
#     4   9  18  31  47  70  97 122 151 189 231 272
#
# _framework density 17.485789
#
# number of rings (size 3 to 8) (size 9 to 14) (size 15 to 20)
#    0.000    3.000    0.000    3.000    0.000    4.000 
#    0.000    3.333    0.000    1.000    0.000    0.000 
#    0.000    0.000    0.000    0.000    0.000    0.000 
#
# Total GULP energy -297428.660845 kJ/mol
# GULP energy per Si atom -12392.860869 kJ/mol
# Density = 1.744599 g / cm^3
# Si number density = 17.485789 Si / 1000 Ang^3
#
#
#
# Elastic Constant Matrix: (Units=GPa)
#
#
# Indices 1 2 3 4 5 6 
#
# 1 53.9052 31.3438 62.9066 -0.0001 0.0038 0.0000
# 2 31.3438 57.5733 77.9406 0.0001 0.0022 0.0000
# 3 62.9066 77.9406 190.3010 0.0000 0.0026 0.0000
# 4 -0.0001 0.0001 0.0000 3.5598 0.0001 -0.0006
# 5 0.0038 0.0022 0.0026 0.0001 36.5996 0.0000
# 6 0.0000 0.0000 0.0000 -0.0006 0.0000 18.3187
#
#
#
# Elastic Compliance Matrix: (Units=1/GPa)
#
#
# Indices 1 2 3 4 5 6 
#
# 1 0.031351 -0.006819 -0.007571 0.000001 -0.000002 0.000000
# 2 -0.006819 0.040467 -0.014320 -0.000001 -0.000001 0.000000
# 3 -0.007571 -0.014320 0.013622 0.000000 0.000001 0.000000
# 4 0.000001 -0.000001 0.000000 0.280917 -0.000001 0.000009
# 5 -0.000002 -0.000001 0.000001 -0.000001 0.027323 0.000000
# 6 0.000000 0.000000 0.000000 0.000009 0.000000 0.054589
#
#
# Mechanical properties :
#
#
# Convention : Reuss Voigt Hill
#
# Bulk Modulus (GPa) = 35.68706 71.79571 53.74139
# Shear Modulus (GPa) = 9.70820 20.33486 15.02153
#
# Velocity S-wave (km/s) = 2.35884 3.41388 2.93417
# Velocity P-wave (km/s) = 5.27942 7.52915 6.50232
#
# Compressibility (1/GPa) = 0.02802136
#
# Stress axis : x y z
#
# Youngs Moduli (GPa) = 31.89701 24.71144 73.40927
#
# Poissons Ratio (x) = 0.16851 0.55575
# Poissons Ratio (y) = 0.21751 1.05120
# Poissons Ratio (z) = 0.24148 0.35386
#
# Static dielectric constant tensor:
#      x y z
#    x 3.263050 0.000000 0.000020 
#    y 0.000000 3.018330 0.000000 
#    z 0.000020 0.000000 3.762980 
# 
# 
# High freq. dielectric constant tensor:
#      x y z
#    x 1.674410 0.000000 0.000000 
#    y 0.000000 1.631110 0.000000 
#    z 0.000000 0.000000 1.694470 
# 
# From -- ./inp_files/124767.got.cif
#   From: 2010.06.25/outbox.cif.g09.slc.cpg/sg12_63_cif.got.tgz:124767.got - 2010.06.28 00:19:55.
