data_PCOD8096903
_publ_section_title
;
Structure prediction by ZEFSAII (Michael W. Deem and Ramdas Pophale) SiO2 
 PCOD8096903
Probable space group: C 2/M
;
_chemical_formula_sum "Si O2"
_cell_formula_units_Z 64
_cell_length_a 33.418832
_cell_length_b 9.002886
_cell_length_c 25.405525
_cell_angle_alpha 90.000000
_cell_angle_beta 153.349843
_cell_angle_gamma 90.000000
_cell_volume 3428.498635
_symmetry_space_group_name_H-M "C 2/M"
_symmetry_group_IT_number 12
_symmetry_cell_setting 'monoclinic'
loop_
_space_group_symop_operation_xyz
x,y,z
-x,y,-z
-x,-y,-z
x,-y,z
1/2+x,1/2+y,z
1/2-x,1/2+y,-z
1/2-x,1/2-y,-z
1/2+x,1/2-y,z
loop_
_atom_site_type_symbol
_atom_site_label
_atom_site_fract_x
_atom_site_fract_y
_atom_site_fract_z
Si Si1 0.208821 0.173893 0.144280
Si Si2 0.782917 0.326226 0.486446
Si Si3 0.844612 0.333022 0.737576
Si Si4 0.284324 0.825980 0.960002
Si Si5 0.581719 0.674265 0.423915
Si Si6 0.382211 0.672166 0.164449
Si Si7 0.514558 0.664785 0.955521
Si Si8 0.290782 0.332766 0.333250
O O1 0.218370 0.250904 0.099601
O O2 0.284578 0.232170 0.273767
O O3 0.222692 0.000000 0.153384
O O4 0.113126 0.215569 0.055863
O O5 0.794388 0.500000 0.508671
O O6 0.750000 0.250000 0.500000
O O7 0.708471 0.291767 0.356029
O O8 0.876793 0.258606 0.577433
O O9 0.833533 0.500000 0.701236
O O10 0.947720 0.288379 0.854591
O O11 0.805033 0.328514 0.749972
O O12 0.191011 0.786598 0.878156
O O13 0.298789 0.000000 0.969871
O O14 0.365215 0.763189 0.090770
O O15 0.600380 0.500000 0.438066
O O16 0.477242 0.713422 0.301975
O O17 0.629722 0.725784 0.534737
O O18 0.377996 0.500000 0.143919
O O19 0.495305 0.500000 0.909384
O O20 0.500000 0.658200 0.000000
O O21 0.312952 0.500000 0.341172
#
# Coordination Sequence:
#
# PCOD8096903 Si02
#       8
#     8   8   8   8   8   8   8   8
#     4  11  22  35  54  79 112 150 187 229 279 331
#     4  11  22  36  54  77 109 145 182 225 272 320
#     4  10  20  34  53  76 104 141 184 226 273 322
#     4  10  21  37  59  86 113 143 180 228 280 332
#     4   9  19  37  60  84 109 143 184 225 275 334
#     4   9  19  39  64  85 110 143 181 225 280 338
#     4  10  20  34  51  75 107 145 187 226 269 322
#     4   9  18  33  53  78 108 141 179 223 268 324
#
# _framework density 18.667062999999999
#
# number of rings (size 3 to 8) (size 9 to 14) (size 15 to 20)
#    0.000    2.125    1.250    3.000    0.000    5.250 
#    0.000    1.875    0.000    3.750    0.000    0.000 
#    0.000    0.000    0.000    0.000    0.000    0.000 
#
# Total GULP energy -396742.784520 kJ/mol
# GULP energy per Si atom -12398.212016 kJ/mol
# Density = 1.862458 g / cm^3
# Si number density = 18.667063 Si / 1000 Ang^3
#
#
#
# Elastic Constant Matrix: (Units=GPa)
#
#
# Indices 1 2 3 4 5 6 
#
# 1 106.3167 53.6568 55.1797 0.0000 -15.4376 0.0000
# 2 53.6568 95.2440 52.6064 0.0000 -7.5519 0.0000
# 3 55.1797 52.6064 123.0295 0.0000 0.0869 0.0000
# 4 0.0000 0.0000 0.0000 31.4903 0.0000 -6.4117
# 5 -15.4376 -7.5519 0.0869 0.0000 23.4167 0.0000
# 6 0.0000 0.0000 0.0000 -6.4117 0.0000 23.0591
#
#
#
# Elastic Compliance Matrix: (Units=1/GPa)
#
#
# Indices 1 2 3 4 5 6 
#
# 1 0.016022 -0.005709 -0.004751 0.000000 0.008739 0.000000
# 2 -0.005709 0.016261 -0.004394 0.000000 0.001497 0.000000
# 3 -0.004751 -0.004394 0.012141 0.000000 -0.004594 0.000000
# 4 0.000000 0.000000 0.000000 0.033662 0.000000 0.009360
# 5 0.008739 0.001497 -0.004594 0.000000 0.048966 0.000000
# 6 0.000000 0.000000 0.000000 0.009360 0.000000 0.045969
#
#
# Mechanical properties :
#
#
# Convention : Reuss Voigt Hill
#
# Bulk Modulus (GPa) = 67.95066 71.94177 69.94621
# Shear Modulus (GPa) = 24.08094 26.46972 25.27533
#
# Velocity S-wave (km/s) = 3.59559 3.76971 3.68368
# Velocity P-wave (km/s) = 7.32926 7.58753 7.45951
#
# Compressibility (1/GPa) = 0.01471656
#
# Stress axis : x y z
#
# Youngs Moduli (GPa) = 62.41448 61.49683 82.36646
#
# Poissons Ratio (x) = 0.35109 0.39132
# Poissons Ratio (y) = 0.35633 0.36188
# Poissons Ratio (z) = 0.29653 0.27019
#
# Static dielectric constant tensor:
#      x y z
#    x 3.820370 0.000000 -0.166690 
#    y 0.000000 3.322960 0.000000 
#    z -0.166690 0.000000 3.662460 
# 
# 
# High freq. dielectric constant tensor:
#      x y z
#    x 1.709990 0.000000 -0.004840 
#    y 0.000000 1.729380 0.000000 
#    z -0.004840 0.000000 1.721930 
# 
# From -- ./inp_files/353429.got.cif
#   From: 2010.06.25/outbox.cif.g09.slc.cpg/sg12_177_cif.got.tgz:353429.got - 2010.06.28 00:19:55.
