data_PCOD8096181
_publ_section_title
;
Structure prediction by ZEFSAII (Michael W. Deem and Ramdas Pophale) SiO2 
 PCOD8096181
Probable space group: C 2/M
;
_chemical_formula_sum "Si O2"
_cell_formula_units_Z 64
_cell_length_a 19.535104
_cell_length_b 18.262122
_cell_length_c 8.997513
_cell_angle_alpha 90.000000
_cell_angle_beta 84.301355
_cell_angle_gamma 90.000000
_cell_volume 3194.021317
_symmetry_space_group_name_H-M "C 2/M"
_symmetry_group_IT_number 12
_symmetry_cell_setting 'monoclinic'
loop_
_space_group_symop_operation_xyz
x,y,z
-x,y,-z
-x,-y,-z
x,-y,z
1/2+x,1/2+y,z
1/2-x,1/2+y,-z
1/2-x,1/2-y,-z
1/2+x,1/2-y,z
loop_
_atom_site_type_symbol
_atom_site_label
_atom_site_fract_x
_atom_site_fract_y
_atom_site_fract_z
Si Si1 0.642262 0.083953 0.426753
Si Si2 0.213319 0.916322 0.501139
Si Si3 0.150101 0.914776 0.997729
Si Si4 0.614880 0.665524 0.715431
Si Si5 0.030318 0.174407 0.152855
Si Si6 0.034421 0.312991 0.328778
Si Si7 0.224419 0.415617 0.822470
Si Si8 0.107245 0.337002 0.733832
O O1 0.724777 0.092071 0.390527
O O2 0.598650 0.131753 0.319171
O O3 0.626150 0.110670 0.594332
O O4 0.619120 0.000000 0.412812
O O5 0.148113 0.867729 0.560357
O O6 0.237087 0.888702 0.334828
O O7 0.188875 0.000000 0.497625
O O8 0.088431 0.886992 0.117902
O O9 0.224606 0.902257 0.052708
O O10 0.136338 0.000000 0.967223
O O11 0.153889 0.868047 0.847935
O O12 0.534572 0.642597 0.740703
O O13 0.625538 0.752327 0.703916
O O14 0.062823 0.239422 0.245130
O O15 0.000000 0.202484 0.000000
O O16 0.000000 0.298897 0.500000
O O17 0.975267 0.344034 0.229719
O O18 0.203087 0.500000 0.812851
O O19 0.153878 0.368107 0.859853
#
# Coordination Sequence:
#
# PCOD8096181 Si02
#       8
#     8   8   8   8   8   8   8   8
#     4   9  18  32  53  81 108 136 170 207 251 303
#     4   9  18  33  51  73 104 136 167 209 257 302
#     4  10  21  36  54  75  99 134 177 214 255 308
#     4  10  20  33  52  77 101 129 172 215 256 304
#     4   9  20  36  52  72 101 135 168 211 263 307
#     4   9  18  32  53  79 104 132 170 213 252 296
#     4   9  19  34  50  71 102 136 168 206 254 304
#     4   9  18  31  49  76 105 131 166 206 252 300
#
# _framework density 20.037438000000002
#
# number of rings (size 3 to 8) (size 9 to 14) (size 15 to 20)
#    0.000    2.750    0.000    1.500    0.000   12.000 
#    0.000    2.500    0.000    3.000    0.000    2.625 
#    0.000    0.000    0.000    0.000    0.000    0.000 
#
# Total GULP energy -396538.362218 kJ/mol
# GULP energy per Si atom -12391.823819 kJ/mol
# Density = 1.999183 g / cm^3
# Si number density = 20.037438 Si / 1000 Ang^3
#
#
#
# Elastic Constant Matrix: (Units=GPa)
#
#
# Indices 1 2 3 4 5 6 
#
# 1 42.5338 12.1911 3.0478 0.0000 15.0485 0.0000
# 2 12.1911 57.2356 11.2365 0.0000 15.2112 0.0000
# 3 3.0478 11.2365 28.8514 0.0000 9.5296 0.0000
# 4 0.0000 0.0000 0.0000 26.9318 0.0000 15.5200
# 5 15.0485 15.2112 9.5296 0.0000 24.7706 0.0000
# 6 0.0000 0.0000 0.0000 15.5200 0.0000 20.3240
#
#
#
# Elastic Compliance Matrix: (Units=1/GPa)
#
#
# Indices 1 2 3 4 5 6 
#
# 1 0.030464 -0.002305 0.003809 0.000000 -0.018557 0.000000
# 2 -0.002305 0.021568 -0.004862 0.000000 -0.009974 0.000000
# 3 0.003809 -0.004862 0.041160 0.000000 -0.015163 0.000000
# 4 0.000000 0.000000 0.000000 0.066312 0.000000 -0.050638
# 5 -0.018557 -0.009974 -0.015163 0.000000 0.063603 0.000000
# 6 0.000000 0.000000 0.000000 -0.050638 0.000000 0.087872
#
#
# Mechanical properties :
#
#
# Convention : Reuss Voigt Hill
#
# Bulk Modulus (GPa) = 11.56387 20.17462 15.86924
# Shear Modulus (GPa) = 14.42922 21.21496 17.82209
#
# Velocity S-wave (km/s) = 2.68640 3.25740 2.98558
# Velocity P-wave (km/s) = 3.92505 4.92319 4.45218
#
# Compressibility (1/GPa) = 0.08647624
#
# Stress axis : x y z
#
# Youngs Moduli (GPa) = 32.82569 46.36557 24.29544
#
# Poissons Ratio (x) = 0.10686 -0.09254
# Poissons Ratio (y) = 0.07565 0.11812
# Poissons Ratio (z) = -0.12503 0.22543
#
# Static dielectric constant tensor:
#      x y z
#    x 4.000290 0.000000 0.189630 
#    y 0.000000 3.651750 0.000000 
#    z 0.189630 0.000000 3.449630 
# 
# 
# High freq. dielectric constant tensor:
#      x y z
#    x 1.787940 0.000000 0.013580 
#    y 0.000000 1.778080 0.000000 
#    z 0.013580 0.000000 1.753910 
# 
# From -- ./inp_files/87945.got.cif
#   From: 2010.06.25/outbox.cif.g09.slc.cpg/sg12_44_cif.got.tgz:87945.got - 2010.06.28 00:19:55.
