data_PCOD8096107
_publ_section_title
;
Structure prediction by ZEFSAII (Michael W. Deem and Ramdas Pophale) SiO2 
 PCOD8096107
Probable space group: C 2/M
;
_chemical_formula_sum "Si O2"
_cell_formula_units_Z 48
_cell_length_a 8.784196
_cell_length_b 30.813237
_cell_length_c 16.245279
_cell_angle_alpha 90.000000
_cell_angle_beta 144.201996
_cell_angle_gamma 90.000000
_cell_volume 2571.994181
_symmetry_space_group_name_H-M "C 2/M"
_symmetry_group_IT_number 12
_symmetry_cell_setting 'monoclinic'
loop_
_space_group_symop_operation_xyz
x,y,z
-x,y,-z
-x,-y,-z
x,-y,z
1/2+x,1/2+y,z
1/2-x,1/2+y,-z
1/2-x,1/2-y,-z
1/2+x,1/2-y,z
loop_
_atom_site_type_symbol
_atom_site_label
_atom_site_fract_x
_atom_site_fract_y
_atom_site_fract_z
Si Si1 0.422893 0.133514 0.166474
Si Si2 0.076527 0.133514 0.166474
Si Si3 0.348129 0.704306 0.351816
Si Si4 0.578147 0.452483 0.832875
Si Si5 0.792681 0.204306 0.648184
Si Si6 0.920478 0.547517 0.832875
O O1 0.317237 0.142376 0.211491
O O2 0.634429 0.168942 0.234460
O O3 0.553932 0.085663 0.222993
O O4 0.195215 0.136684 0.000000
O O5 0.068951 0.168942 0.234460
O O6 0.115047 0.085663 0.222993
O O7 0.500000 0.689304 0.500000
O O8 0.205001 0.750000 0.303334
O O9 0.551542 0.709476 0.367695
O O10 0.440566 0.500000 0.778967
O O11 0.667213 0.443773 0.778142
O O12 0.827933 0.452533 1.000000
O O13 0.500000 0.189304 0.500000
O O14 0.896335 0.500000 0.778967
#
# Coordination Sequence:
#
# PCOD8096107 Si02
#       6
#     8   8   8   8   8   8
#     4  10  20  33  51  78 109 138 172 213 255 299
#     4  10  20  33  51  78 109 138 172 213 255 299
#     4  11  22  38  58  77 101 133 171 211 255 309
#     4   8  14  26  45  70 101 136 172 209 251 299
#     4  11  22  38  58  77 101 133 171 211 255 309
#     4   8  14  26  45  70 101 136 172 209 251 299
#
# _framework density 18.662562000000001
#
# number of rings (size 3 to 8) (size 9 to 14) (size 15 to 20)
#    0.000    2.333    0.000    6.000    0.000    3.333 
#    0.000    3.333    0.000    1.000    0.000    0.000 
#    0.000    0.000    0.000    0.000    0.000    0.000 
#
# Total GULP energy -297545.447712 kJ/mol
# GULP energy per Si atom -12397.726988 kJ/mol
# Density = 1.862008 g / cm^3
# Si number density = 18.662562 Si / 1000 Ang^3
#
#
#
# Elastic Constant Matrix: (Units=GPa)
#
#
# Indices 1 2 3 4 5 6 
#
# 1 134.2783 60.6531 31.6858 0.0000 6.2669 0.0000
# 2 60.6531 135.3118 41.7621 0.0000 2.1323 0.0000
# 3 31.6858 41.7621 32.6472 0.0000 5.2044 0.0000
# 4 0.0000 0.0000 0.0000 -8.5501 0.0000 5.2370
# 5 6.2669 2.1323 5.2044 0.0000 23.6549 0.0000
# 6 0.0000 0.0000 0.0000 5.2370 0.0000 37.8502
#
#
#
# Elastic Compliance Matrix: (Units=1/GPa)
#
#
# Indices 1 2 3 4 5 6 
#
# 1 0.010169 -0.002556 -0.006432 0.000000 -0.001048 0.000000
# 2 -0.002556 0.012989 -0.014567 0.000000 0.002711 0.000000
# 3 -0.006432 -0.014567 0.057026 0.000000 -0.009529 0.000000
# 4 0.000000 0.000000 0.000000 -0.107821 0.000000 0.014918
# 5 -0.001048 0.002711 -0.009529 0.000000 0.044404 0.000000
# 6 0.000000 0.000000 0.000000 0.014918 0.000000 0.024356
#
#
# Mechanical properties :
#
#
# Convention : Reuss Voigt Hill
#
# Bulk Modulus (GPa) = 30.23573 63.38214 46.80894
# Shear Modulus (GPa) = 50.37327 21.80011 36.08669
#
# Velocity S-wave (km/s) = 5.20098 3.42148 4.40209
# Velocity P-wave (km/s) = 7.23211 7.04590 7.13961
#
# Compressibility (1/GPa) = 0.03307346
#
# Stress axis : x y z
#
# Youngs Moduli (GPa) = 98.34177 76.98554 17.53582
#
# Poissons Ratio (x) = 0.19681 0.11279
# Poissons Ratio (y) = 0.25140 0.25545
# Poissons Ratio (z) = 0.63252 1.12146
#
# Static dielectric constant tensor:
#      x y z
#    x 3.536000 0.000000 0.063280 
#    y 0.000000 3.794190 0.000000 
#    z 0.063280 0.000000 2.975400 
# 
# 
# High freq. dielectric constant tensor:
#      x y z
#    x 1.732380 0.000000 0.006320 
#    y 0.000000 1.741640 0.000000 
#    z 0.006320 0.000000 1.676420 
# 
# From -- ./inp_files/170833.got.cif
#   From: 2010.06.25/outbox.cif.g09.slc.cpg/sg12_86_cif.got.tgz:170833.got - 2010.06.28 00:19:55.
