data_PCOD8096457
_publ_section_title
;
Structure prediction by ZEFSAII (Michael W. Deem and Ramdas Pophale) SiO2 
 PCOD8096457
Probable space group: C 2/M
;
_chemical_formula_sum "Si O2"
_cell_formula_units_Z 56
_cell_length_a 24.988062
_cell_length_b 25.428617
_cell_length_c 15.364731
_cell_angle_alpha 90.000000
_cell_angle_beta 162.139901
_cell_angle_gamma 90.000000
_cell_volume 2994.231280
_symmetry_space_group_name_H-M "C 2/M"
_symmetry_group_IT_number 12
_symmetry_cell_setting 'monoclinic'
loop_
_space_group_symop_operation_xyz
x,y,z
-x,y,-z
-x,-y,-z
x,-y,z
1/2+x,1/2+y,z
1/2-x,1/2+y,-z
1/2-x,1/2-y,-z
1/2+x,1/2-y,z
loop_
_atom_site_type_symbol
_atom_site_label
_atom_site_fract_x
_atom_site_fract_y
_atom_site_fract_z
Si Si1 0.856353 0.556834 0.712853
Si Si2 0.077965 0.625862 0.343103
Si Si3 0.955137 0.125237 0.722254
Si Si4 0.353345 0.705180 0.707870
Si Si5 0.286841 0.203807 0.936413
Si Si6 0.987363 0.796105 0.337156
Si Si7 0.641873 0.561562 0.143056
O O1 0.780986 0.500000 0.557488
O O2 0.948297 0.595202 0.787046
O O3 0.717018 0.590274 0.550611
O O4 0.000000 0.537679 0.000000
O O5 0.216584 0.672652 0.552386
O O6 0.163089 0.582422 0.537753
O O7 0.893274 0.649656 0.087181
O O8 0.945537 0.171547 0.776963
O O9 0.994932 0.149861 0.689662
O O10 0.099496 0.085470 0.982906
O O11 0.250000 0.750000 0.500000
O O12 0.500000 0.728720 0.000000
O O13 0.171337 0.218089 0.671010
O O14 0.159926 0.192943 0.819991
O O15 0.424135 0.249954 0.173662
O O16 0.647141 0.500000 0.142545
O O17 0.500000 0.578807 0.000000
#
# Coordination Sequence:
#
# PCOD8096457 Si02
#       7
#     8   8   8   8   8   8   8
#     4  10  20  33  53  83 114 146 188 236 289 350
#     4  11  20  35  57  80 114 149 196 235 297 344
#     4  11  20  35  57  80 114 149 196 235 297 344
#     4  11  22  34  49  79 118 152 185 229 286 350
#     4  10  23  41  61  85 116 157 201 244 292 348
#     4  10  23  41  61  85 116 157 201 244 292 348
#     4  11  20  36  61  87 119 155 198 245 295 356
#
# _framework density 18.702629999999999
#
# number of rings (size 3 to 8) (size 9 to 14) (size 15 to 20)
#    0.000    1.429    4.286    2.571    2.000    5.714 
#    0.000    0.000    0.000    4.286    0.000   10.000 
#    0.000    0.000    0.000    0.000    0.000    0.000 
#
# Total GULP energy -346916.039183 kJ/mol
# GULP energy per Si atom -12389.858542 kJ/mol
# Density = 1.866006 g / cm^3
# Si number density = 18.702630 Si / 1000 Ang^3
#
#
#
# Elastic Constant Matrix: (Units=GPa)
#
#
# Indices 1 2 3 4 5 6 
#
# 1 52.6119 36.5393 36.9625 -0.0001 -0.8502 0.0001
# 2 36.5393 112.3058 57.7211 -0.0001 0.1893 0.0001
# 3 36.9625 57.7211 124.2617 -0.0011 -18.4378 0.0010
# 4 -0.0001 -0.0001 -0.0011 33.8939 -0.0002 -13.9384
# 5 -0.8502 0.1893 -18.4378 -0.0002 25.0409 0.0002
# 6 0.0001 0.0001 0.0010 -13.9384 0.0002 37.2188
#
#
#
# Elastic Compliance Matrix: (Units=1/GPa)
#
#
# Indices 1 2 3 4 5 6 
#
# 1 0.027100 -0.005796 -0.005867 0.000000 -0.003356 0.000000
# 2 -0.005796 0.013426 -0.005116 0.000000 -0.004065 0.000000
# 3 -0.005867 -0.005116 0.013635 0.000000 0.009879 0.000000
# 4 0.000000 0.000000 0.000000 0.034875 0.000000 0.013061
# 5 -0.003356 -0.004065 0.009879 0.000000 0.047125 0.000000
# 6 0.000000 0.000000 0.000000 0.013061 0.000000 0.031759
#
#
# Mechanical properties :
#
#
# Convention : Reuss Voigt Hill
#
# Bulk Modulus (GPa) = 48.53446 61.29167 54.91306
# Shear Modulus (GPa) = 23.99863 29.76116 26.87989
#
# Velocity S-wave (km/s) = 3.58602 3.99342 3.79519
# Velocity P-wave (km/s) = 6.56909 7.35568 6.97348
#
# Compressibility (1/GPa) = 0.02060392
#
# Stress axis : x y z
#
# Youngs Moduli (GPa) = 36.90042 74.48111 73.34247
#
# Poissons Ratio (x) = 0.43171 0.43027
# Poissons Ratio (y) = 0.21388 0.37520
# Poissons Ratio (z) = 0.21648 0.38102
#
# Static dielectric constant tensor:
#      x y z
#    x 3.253520 0.000000 -0.188550 
#    y 0.000000 3.858570 0.000000 
#    z -0.188550 0.000000 3.585430 
# 
# 
# High freq. dielectric constant tensor:
#      x y z
#    x 1.697000 0.000000 -0.022640 
#    y 0.000000 1.735230 0.000000 
#    z -0.022640 0.000000 1.736960 
# 
# From -- ./inp_files/242171.got.cif
#   From: 2010.06.25/outbox.cif.g09.slc.cpg/sg12_122_cif.got.tgz:242171.got - 2010.06.28 00:19:55.
