data_PCOD8096487
_publ_section_title
;
Structure prediction by ZEFSAII (Michael W. Deem and Ramdas Pophale) SiO2 
 PCOD8096487
Probable space group: C 2/M
;
_chemical_formula_sum "Si O2"
_cell_formula_units_Z 56
_cell_length_a 15.337186
_cell_length_b 9.412436
_cell_length_c 19.737030
_cell_angle_alpha 90.000000
_cell_angle_beta 91.396897
_cell_angle_gamma 90.000000
_cell_volume 2848.396447
_symmetry_space_group_name_H-M "C 2/M"
_symmetry_group_IT_number 12
_symmetry_cell_setting 'monoclinic'
loop_
_space_group_symop_operation_xyz
x,y,z
-x,y,-z
-x,-y,-z
x,-y,z
1/2+x,1/2+y,z
1/2-x,1/2+y,-z
1/2-x,1/2-y,-z
1/2+x,1/2-y,z
loop_
_atom_site_type_symbol
_atom_site_label
_atom_site_fract_x
_atom_site_fract_y
_atom_site_fract_z
Si Si1 0.577051 0.162179 0.195068
Si Si2 0.606315 0.838796 0.345024
Si Si3 0.753364 0.833141 0.569694
Si Si4 0.404006 0.836614 0.335541
Si Si5 0.093717 0.168044 0.793013
Si Si6 0.354061 0.845904 0.946141
Si Si7 0.652276 0.344954 0.937393
O O1 0.632040 0.170728 0.265794
O O2 0.504107 0.280691 0.198985
O O3 0.633127 0.207617 0.130658
O O4 0.540701 0.000000 0.187462
O O5 0.666966 0.728312 0.385118
O O6 0.504369 0.796578 0.355294
O O7 0.622385 0.000000 0.371806
O O8 0.750000 0.750000 0.500000
O O9 0.659386 0.807755 0.602617
O O10 0.770423 0.000000 0.558211
O O11 0.366748 0.743582 0.272529
O O12 0.400872 0.000000 0.312351
O O13 0.144243 0.219017 0.861669
O O14 0.099073 0.000000 0.781938
O O15 0.252393 0.857948 0.958665
O O16 0.398184 0.000000 0.955536
O O17 0.396225 0.746652 0.005190
O O18 0.607417 0.500000 0.937239
#
# Coordination Sequence:
#
# PCOD8096487 Si02
#       7
#     8   8   8   8   8   8   8
#     4   9  19  35  55  77 106 144 185 225 275 338
#     4   9  19  38  62  85 115 154 191 234 283 333
#     4  11  24  41  62  91 121 151 190 230 276 337
#     4   9  21  41  61  84 118 156 191 229 280 342
#     4  10  20  33  54  80 107 139 181 232 281 328
#     4   9  18  33  51  71  99 141 187 225 270 333
#     4   9  19  33  48  72 104 138 179 230 282 325
#
# _framework density 19.660184999999998
#
# number of rings (size 3 to 8) (size 9 to 14) (size 15 to 20)
#    0.000    2.571    0.000    1.714    2.000    6.286 
#    0.000    5.714    0.000    0.000    0.000    0.000 
#    0.000    0.000    0.000    0.000    0.000    0.000 
#
# Total GULP energy -346986.051446 kJ/mol
# GULP energy per Si atom -12392.358980 kJ/mol
# Density = 1.961544 g / cm^3
# Si number density = 19.660185 Si / 1000 Ang^3
#
#
#
# Elastic Constant Matrix: (Units=GPa)
#
#
# Indices 1 2 3 4 5 6 
#
# 1 53.9995 37.9657 40.2874 0.0000 -9.1510 0.0000
# 2 37.9657 98.5030 80.4266 0.0000 -1.8881 0.0000
# 3 40.2874 80.4266 148.7718 0.0000 -16.6413 0.0000
# 4 0.0000 0.0000 0.0000 39.6398 0.0000 2.6765
# 5 -9.1510 -1.8881 -16.6413 0.0000 25.5350 0.0000
# 6 0.0000 0.0000 0.0000 2.6765 0.0000 23.3710
#
#
#
# Elastic Compliance Matrix: (Units=1/GPa)
#
#
# Indices 1 2 3 4 5 6 
#
# 1 0.027522 -0.009148 -0.001596 0.000000 0.008147 0.000000
# 2 -0.009148 0.021948 -0.010326 0.000000 -0.008385 0.000000
# 3 -0.001596 -0.010326 0.013576 0.000000 0.007512 0.000000
# 4 0.000000 0.000000 0.000000 0.025424 0.000000 -0.002912
# 5 0.008147 -0.008385 0.007512 0.000000 0.046357 0.000000
# 6 0.000000 0.000000 0.000000 -0.002912 0.000000 0.043121
#
#
# Mechanical properties :
#
#
# Convention : Reuss Voigt Hill
#
# Bulk Modulus (GPa) = 47.83302 68.73707 58.28504
# Shear Modulus (GPa) = 22.02075 27.21546 24.61811
#
# Velocity S-wave (km/s) = 3.35037 3.72465 3.54246
# Velocity P-wave (km/s) = 6.27291 7.31682 6.81488
#
# Compressibility (1/GPa) = 0.02090606
#
# Stress axis : x y z
#
# Youngs Moduli (GPa) = 36.33451 45.56172 73.65724
#
# Poissons Ratio (x) = 0.41682 0.11756
# Poissons Ratio (y) = 0.33241 0.76057
# Poissons Ratio (z) = 0.05799 0.47046
#
# Static dielectric constant tensor:
#      x y z
#    x 3.353830 0.000000 -0.095410 
#    y 0.000000 3.860950 0.000000 
#    z -0.095410 0.000000 3.826840 
# 
# 
# High freq. dielectric constant tensor:
#      x y z
#    x 1.744860 0.000000 -0.005330 
#    y 0.000000 1.765870 0.000000 
#    z -0.005330 0.000000 1.774840 
# 
# From -- ./inp_files/309001.got.cif
#   From: 2010.06.25/outbox.cif.g09.slc.cpg/sg12_155_cif.got.tgz:309001.got - 2010.06.28 00:19:55.
