data_PCOD8096423
_publ_section_title
;
Structure prediction by ZEFSAII (Michael W. Deem and Ramdas Pophale) SiO2 
 PCOD8096423
Probable space group: C 2/M
;
_chemical_formula_sum "Si O2"
_cell_formula_units_Z 64
_cell_length_a 19.600042
_cell_length_b 13.105027
_cell_length_c 12.745333
_cell_angle_alpha 90.000000
_cell_angle_beta 97.117383
_cell_angle_gamma 90.000000
_cell_volume 3248.528237
_symmetry_space_group_name_H-M "C 2/M"
_symmetry_group_IT_number 12
_symmetry_cell_setting 'monoclinic'
loop_
_space_group_symop_operation_xyz
x,y,z
-x,y,-z
-x,-y,-z
x,-y,z
1/2+x,1/2+y,z
1/2-x,1/2+y,-z
1/2-x,1/2-y,-z
1/2+x,1/2-y,z
loop_
_atom_site_type_symbol
_atom_site_label
_atom_site_fract_x
_atom_site_fract_y
_atom_site_fract_z
Si Si1 0.301440 0.880850 0.006353
Si Si2 0.325664 0.674533 0.615982
Si Si3 0.575467 0.738718 0.996237
Si Si4 0.783999 0.612613 0.572420
Si Si5 0.022594 0.116710 0.395391
Si Si6 0.680041 0.379125 0.149202
Si Si7 0.776313 0.883502 0.210388
Si Si8 0.074983 0.879534 0.796630
O O1 0.243326 0.856272 0.082161
O O2 0.318853 0.000000 0.007624
O O3 0.373206 0.823595 0.042370
O O4 0.275523 0.837959 0.887318
O O5 0.269271 0.620286 0.532857
O O6 0.336887 0.792831 0.581282
O O7 0.396974 0.619188 0.611434
O O8 0.300287 0.662655 0.731368
O O9 0.611089 0.680984 0.101173
O O10 0.500000 0.789749 0.000000
O O11 0.557528 0.650423 0.910691
O O12 0.819536 0.500000 0.573786
O O13 0.746526 0.627205 0.675419
O O14 0.000000 0.170782 0.500000
O O15 0.980881 0.170016 0.292991
O O16 0.998798 0.000000 0.397034
O O17 0.664486 0.500000 0.150666
O O18 0.850816 0.831521 0.217735
O O19 0.784594 0.000000 0.176592
O O20 0.074099 0.000000 0.786878
#
# Coordination Sequence:
#
# PCOD8096423 Si02
#       8
#     8   8   8   8   8   8   8   8
#     4  10  22  40  60  82 113 156 200 242 285 339
#     4  11  22  35  58  87 114 151 190 234 291 348
#     4  12  24  35  54  85 118 155 192 235 288 351
#     4  10  21  36  56  84 114 145 190 243 284 328
#     4  10  20  36  56  80 115 151 185 231 291 353
#     4  11  22  38  60  86 120 152 188 241 299 354
#     4   9  17  34  58  82 106 142 190 236 282 331
#     4  10  20  33  53  81 111 144 183 230 288 350
#
# _framework density 19.701229999999999
#
# number of rings (size 3 to 8) (size 9 to 14) (size 15 to 20)
#    0.000    1.625    1.250    4.125    1.750    4.250 
#    0.000    0.000    0.000    2.625    0.000    0.000 
#    0.000    0.000    0.000    0.000    0.000    0.000 
#
# Total GULP energy -396592.577266 kJ/mol
# GULP energy per Si atom -12393.518040 kJ/mol
# Density = 1.965639 g / cm^3
# Si number density = 19.701230 Si / 1000 Ang^3
#
#
#
# Elastic Constant Matrix: (Units=GPa)
#
#
# Indices 1 2 3 4 5 6 
#
# 1 101.6235 20.1840 40.7064 0.0000 11.3094 0.0000
# 2 20.1840 79.9539 19.5178 0.0000 10.4695 0.0000
# 3 40.7064 19.5178 142.9690 0.0000 11.3480 0.0000
# 4 0.0000 0.0000 0.0000 13.2333 0.0000 11.4131
# 5 11.3094 10.4695 11.3480 0.0000 23.5787 0.0000
# 6 0.0000 0.0000 0.0000 11.4131 0.0000 7.1207
#
#
#
# Elastic Compliance Matrix: (Units=1/GPa)
#
#
# Indices 1 2 3 4 5 6 
#
# 1 0.011712 -0.001818 -0.002812 0.000000 -0.003457 0.000000
# 2 -0.001818 0.013836 -0.000991 0.000000 -0.004795 0.000000
# 3 -0.002812 -0.000991 0.008098 0.000000 -0.002109 0.000000
# 4 0.000000 0.000000 0.000000 -0.197646 0.000000 0.316787
# 5 -0.003457 -0.004795 -0.002109 0.000000 0.047213 0.000000
# 6 0.000000 0.000000 0.000000 0.316787 0.000000 -0.367310
#
#
# Mechanical properties :
#
#
# Convention : Reuss Voigt Hill
#
# Bulk Modulus (GPa) = 44.63291 53.92920 49.28106
# Shear Modulus (GPa) = -10.74374 25.06241 7.15934
#
# Velocity S-wave (km/s) = -2.33777 3.57055 1.90836
# Velocity P-wave (km/s) = 3.92647 6.66569 5.47031
#
# Compressibility (1/GPa) = 0.02240499
#
# Stress axis : x y z
#
# Youngs Moduli (GPa) = 85.37913 72.27655 123.48953
#
# Poissons Ratio (x) = 0.13137 0.34728
# Poissons Ratio (y) = 0.15518 0.12235
# Poissons Ratio (z) = 0.24011 0.07161
#
# Static dielectric constant tensor:
#      x y z
#    x 3.563860 0.000000 0.169920 
#    y 0.000000 3.647870 0.000000 
#    z 0.169920 0.000000 3.834520 
# 
# 
# High freq. dielectric constant tensor:
#      x y z
#    x 1.748320 0.000000 0.008320 
#    y 0.000000 1.756270 0.000000 
#    z 0.008320 0.000000 1.784230 
# 
# From -- ./inp_files/156626.got.cif
#   From: 2010.06.25/outbox.cif.g09.slc.cpg/sg12_79_cif.got.tgz:156626.got - 2010.06.28 00:19:55.
