data_PCOD8096301
_publ_section_title
;
Structure prediction by ZEFSAII (Michael W. Deem and Ramdas Pophale) SiO2 
 PCOD8096301
Probable space group: C 2/M
;
_chemical_formula_sum "Si O2"
_cell_formula_units_Z 48
_cell_length_a 27.515933
_cell_length_b 8.726011
_cell_length_c 11.760432
_cell_angle_alpha 90.000000
_cell_angle_beta 57.201506
_cell_angle_gamma 90.000000
_cell_volume 2373.573923
_symmetry_space_group_name_H-M "C 2/M"
_symmetry_group_IT_number 12
_symmetry_cell_setting 'monoclinic'
loop_
_space_group_symop_operation_xyz
x,y,z
-x,y,-z
-x,-y,-z
x,-y,z
1/2+x,1/2+y,z
1/2-x,1/2+y,-z
1/2-x,1/2-y,-z
1/2+x,1/2-y,z
loop_
_atom_site_type_symbol
_atom_site_label
_atom_site_fract_x
_atom_site_fract_y
_atom_site_fract_z
Si Si1 0.766411 0.819340 0.100577
Si Si2 0.160244 0.682199 0.380947
Si Si3 0.369696 0.820772 0.098988
Si Si4 0.890450 0.682396 0.320534
Si Si5 0.019684 0.679889 0.170240
Si Si6 0.444017 0.817683 0.635356
O O1 0.721987 0.761900 0.255110
O O2 0.829585 0.769693 0.061873
O O3 0.763495 0.000000 0.090338
O O4 0.750000 0.750000 0.000000
O O5 0.157244 0.500000 0.388167
O O6 0.146918 0.745616 0.525226
O O7 0.112569 0.749301 0.354504
O O8 0.358836 0.768567 0.243192
O O9 0.357340 0.000000 0.096303
O O10 0.437466 0.783379 0.988666
O O11 0.894632 0.500000 0.319973
O O12 0.955679 0.752655 0.238739
O O13 0.010485 0.500000 0.195756
O O14 0.052176 0.743835 0.240989
O O15 0.500000 0.755307 0.500000
O O16 0.441467 0.000000 0.634274
#
# Coordination Sequence:
#
# PCOD8096301 Si02
#       6
#     8   8   8   8   8   8
#     4  11  23  39  57  76 102 136 176 218 261 312
#     4   9  17  29  47  75 107 137 171 214 261 308
#     4  10  20  33  52  80 110 140 174 212 257 310
#     4   9  16  28  48  77 111 140 171 216 264 304
#     4   9  15  25  45  75 109 139 171 215 262 303
#     4   9  13  20  38  65  98 129 160 205 259 300
#
# _framework density 20.222670000000001
#
# number of rings (size 3 to 8) (size 9 to 14) (size 15 to 20)
#    0.000    2.500    1.667    2.000    0.000    5.333 
#    0.000    0.000    0.000    3.000    0.000    1.167 
#    0.000    0.000    0.000    0.000    0.000    0.000 
#
# Total GULP energy -297434.148832 kJ/mol
# GULP energy per Si atom -12393.089535 kJ/mol
# Density = 2.017664 g / cm^3
# Si number density = 20.222670 Si / 1000 Ang^3
#
#
#
# Elastic Constant Matrix: (Units=GPa)
#
#
# Indices 1 2 3 4 5 6 
#
# 1 103.4226 19.2105 52.9446 0.0000 8.5262 0.0000
# 2 19.2105 24.3690 24.8681 0.0000 -0.5043 0.0000
# 3 52.9446 24.8681 142.6970 0.0000 12.6994 0.0000
# 4 0.0000 0.0000 0.0000 12.4986 0.0000 1.3587
# 5 8.5262 -0.5043 12.6994 0.0000 38.5782 0.0000
# 6 0.0000 0.0000 0.0000 1.3587 0.0000 16.9235
#
#
#
# Elastic Compliance Matrix: (Units=1/GPa)
#
#
# Indices 1 2 3 4 5 6 
#
# 1 0.012807 -0.006624 -0.003438 0.000000 -0.001785 0.000000
# 2 -0.006624 0.053834 -0.007332 0.000000 0.004581 0.000000
# 3 -0.003438 -0.007332 0.009789 0.000000 -0.002558 0.000000
# 4 0.000000 0.000000 0.000000 0.080714 0.000000 -0.006480
# 5 -0.001785 0.004581 -0.002558 0.000000 0.027218 0.000000
# 6 0.000000 0.000000 0.000000 -0.006480 0.000000 0.059610
#
#
# Mechanical properties :
#
#
# Convention : Reuss Voigt Hill
#
# Bulk Modulus (GPa) = 24.01439 51.61503 37.81471
# Shear Modulus (GPa) = 17.08580 25.16440 21.12510
#
# Velocity S-wave (km/s) = 2.90984 3.53138 3.23557
# Velocity P-wave (km/s) = 4.81563 6.49664 5.71825
#
# Compressibility (1/GPa) = 0.04164170
#
# Stress axis : x y z
#
# Youngs Moduli (GPa) = 78.08316 18.57550 102.15497
#
# Poissons Ratio (x) = 0.12304 0.35126
# Poissons Ratio (y) = 0.51722 0.74899
# Poissons Ratio (z) = 0.26849 0.13619
#
# Static dielectric constant tensor:
#      x y z
#    x 3.735320 0.000000 0.064530 
#    y 0.000000 2.869210 0.000000 
#    z 0.064530 0.000000 4.055380 
# 
# 
# High freq. dielectric constant tensor:
#      x y z
#    x 1.795140 0.000000 0.005750 
#    y 0.000000 1.703770 0.000000 
#    z 0.005750 0.000000 1.809020 
# 
# From -- ./inp_files/164682.got.cif
#   From: 2010.06.25/outbox.cif.g09.slc.cpg/sg12_83_cif.got.tgz:164682.got - 2010.06.28 00:19:55.
