data_PCOD8096746
_publ_section_title
;
Structure prediction by ZEFSAII (Michael W. Deem and Ramdas Pophale) SiO2 
 PCOD8096746
Probable space group: C 2/M
;
_chemical_formula_sum "Si O2"
_cell_formula_units_Z 56
_cell_length_a 18.585356
_cell_length_b 25.819316
_cell_length_c 17.252530
_cell_angle_alpha 90.000000
_cell_angle_beta 158.157380
_cell_angle_gamma 90.000000
_cell_volume 3080.204262
_symmetry_space_group_name_H-M "C 2/M"
_symmetry_group_IT_number 12
_symmetry_cell_setting 'monoclinic'
loop_
_space_group_symop_operation_xyz
x,y,z
-x,y,-z
-x,-y,-z
x,-y,z
1/2+x,1/2+y,z
1/2-x,1/2+y,-z
1/2-x,1/2-y,-z
1/2+x,1/2-y,z
loop_
_atom_site_type_symbol
_atom_site_label
_atom_site_fract_x
_atom_site_fract_y
_atom_site_fract_z
Si Si1 0.090199 0.439913 0.172446
Si Si2 0.341919 0.222100 0.519194
Si Si3 0.667485 0.297093 0.800980
Si Si4 0.455202 0.712751 0.042940
Si Si5 0.509467 0.402650 0.423063
Si Si6 0.803421 0.342136 0.096622
Si Si7 0.733110 0.057369 0.026928
O O1 0.156904 0.500000 0.237547
O O2 0.262582 0.400420 0.366353
O O3 0.000000 0.424058 0.000000
O O4 0.940587 0.428606 0.090135
O O5 0.250000 0.250000 0.500000
O O6 0.484235 0.259507 0.613960
O O7 0.164943 0.206328 0.289367
O O8 0.468508 0.171496 0.669186
O O9 0.604799 0.348166 0.691464
O O10 0.711572 0.309075 0.934706
O O11 0.856798 0.270040 0.951977
O O12 0.500000 0.697906 0.000000
O O13 0.309854 0.671851 0.937854
O O14 0.500000 0.427304 0.500000
O O15 0.423559 0.439623 0.270803
O O16 0.772026 0.403009 0.049798
O O17 0.717887 0.000000 0.976193
#
# Coordination Sequence:
#
# PCOD8096746 Si02
#       7
#     8   8   8   8   8   8   8
#     4  10  20  34  50  71 104 151 200 238 280 323
#     4  11  19  36  61  76 112 156 181 229 286 332
#     4  10  22  35  50  83 113 150 196 224 265 339
#     4  11  23  38  58  85 115 147 188 236 284 338
#     4  11  22  33  50  78 118 158 192 231 278 322
#     4  10  21  38  57  83 109 147 195 227 282 343
#     4  10  22  38  57  81 111 149 197 245 283 337
#
# _framework density 18.180613000000001
#
# number of rings (size 3 to 8) (size 9 to 14) (size 15 to 20)
#    0.000    1.571    4.286    1.286    4.000    2.286 
#    0.000    0.000    0.000    0.429    0.000    1.000 
#    0.000    0.000    0.000    0.000    0.000    0.000 
#
# Total GULP energy -347082.311011 kJ/mol
# GULP energy per Si atom -12395.796822 kJ/mol
# Density = 1.813923 g / cm^3
# Si number density = 18.180613 Si / 1000 Ang^3
#
#
#
# Elastic Constant Matrix: (Units=GPa)
#
#
# Indices 1 2 3 4 5 6 
#
# 1 107.3949 38.3799 38.7790 0.0000 0.6295 0.0001
# 2 38.3799 92.1027 41.1356 0.0001 -0.1879 0.0001
# 3 38.7790 41.1356 140.0814 -0.0003 1.3210 0.0007
# 4 0.0000 0.0001 -0.0003 27.8045 -0.0001 -4.0753
# 5 0.6295 -0.1879 1.3210 -0.0001 23.3364 0.0003
# 6 0.0001 0.0001 0.0007 -4.0753 0.0003 23.0758
#
#
#
# Elastic Compliance Matrix: (Units=1/GPa)
#
#
# Indices 1 2 3 4 5 6 
#
# 1 0.011423 -0.003855 -0.002028 0.000000 -0.000224 0.000000
# 2 -0.003855 0.013799 -0.002989 0.000000 0.000384 0.000000
# 3 -0.002028 -0.002989 0.008582 0.000000 -0.000455 0.000000
# 4 0.000000 0.000000 0.000000 0.036921 0.000000 0.006520
# 5 -0.000224 0.000384 -0.000455 0.000000 0.042886 0.000000
# 6 0.000000 0.000000 0.000000 0.006520 0.000000 0.044487
#
#
# Mechanical properties :
#
#
# Convention : Reuss Voigt Hill
#
# Bulk Modulus (GPa) = 62.26212 64.01866 63.14039
# Shear Modulus (GPa) = 27.59456 29.59564 28.59510
#
# Velocity S-wave (km/s) = 3.90012 4.03906 3.97020
# Velocity P-wave (km/s) = 7.38932 7.55255 7.47138
#
# Compressibility (1/GPa) = 0.01606113
#
# Stress axis : x y z
#
# Youngs Moduli (GPa) = 87.54597 72.46737 116.52131
#
# Poissons Ratio (x) = 0.27933 0.23632
# Poissons Ratio (y) = 0.33745 0.34826
# Poissons Ratio (z) = 0.17755 0.21659
#
# Static dielectric constant tensor:
#      x y z
#    x 2.994200 0.000000 0.282390 
#    y 0.000000 3.220240 0.000000 
#    z 0.282390 0.000000 3.305340 
# 
# 
# High freq. dielectric constant tensor:
#      x y z
#    x 1.679950 0.000000 0.009680 
#    y 0.000000 1.681810 0.000000 
#    z 0.009680 0.000000 1.724810 
# 
# From -- ./inp_files/279563.got.cif
#   From: 2010.06.25/outbox.cif.g09.slc.cpg/sg12_140_cif.got.tgz:279563.got - 2010.06.28 00:19:55.
