data_PCOD8096065
_publ_section_title
;
Structure prediction by ZEFSAII (Michael W. Deem and Ramdas Pophale) SiO2 
 PCOD8096065
Probable space group: C 2/M
;
_chemical_formula_sum "Si O2"
_cell_formula_units_Z 36
_cell_length_a 12.974206
_cell_length_b 29.516360
_cell_length_c 5.015386
_cell_angle_alpha 90.000000
_cell_angle_beta 78.061927
_cell_angle_gamma 90.000000
_cell_volume 1879.108486
_symmetry_space_group_name_H-M "C 2/M"
_symmetry_group_IT_number 12
_symmetry_cell_setting 'monoclinic'
loop_
_space_group_symop_operation_xyz
x,y,z
-x,y,-z
-x,-y,-z
x,-y,z
1/2+x,1/2+y,z
1/2-x,1/2+y,-z
1/2-x,1/2-y,-z
1/2+x,1/2-y,z
loop_
_atom_site_type_symbol
_atom_site_label
_atom_site_fract_x
_atom_site_fract_y
_atom_site_fract_z
Si Si1 0.070385 0.324996 0.722039
Si Si2 0.425138 0.500000 0.793583
Si Si3 0.929973 0.222844 0.278466
Si Si4 0.793745 0.858366 0.495864
Si Si5 0.881390 0.095811 0.956736
O O1 0.108964 0.273743 0.767150
O O2 0.171488 0.356988 0.638773
O O3 0.000000 0.326678 0.500000
O O4 0.000000 0.344232 0.000000
O O5 0.500000 0.500000 0.500000
O O6 0.355573 0.545673 0.852051
O O7 0.500000 0.500000 0.000000
O O8 0.829313 0.190687 0.367716
O O9 0.000000 0.223454 0.500000
O O10 0.000000 0.203160 0.000000
O O11 0.862601 0.870438 0.719391
O O12 0.806027 0.894426 0.248881
O O13 0.000000 0.101130 0.000000
#
# Coordination Sequence:
#
# PCOD8096065 Si02
#       5
#     8   4   8   8   8
#     4  10  22  38  52  73 106 146 186 223 261 300
#     4  10  20  36  54  78 116 146 160 198 264 334
#     4  10  20  33  51  76 109 140 172 217 267 316
#     4  12  21  34  56  81 105 141 182 221 258 307
#     4  11  22  35  55  84 112 138 168 208 264 328
#
# _framework density 19.15802
#
# number of rings (size 3 to 8) (size 9 to 14) (size 15 to 20)
#    0.000    1.333    0.000    8.667    0.000    0.000 
#    0.000    8.889    0.000    0.000    0.000   15.556 
#    0.000    0.000    0.000    0.000    0.000    0.000 
#
# Total GULP energy -223216.814788 kJ/mol
# GULP energy per Si atom -12400.934155 kJ/mol
# Density = 1.911442 g / cm^3
# Si number density = 19.158020 Si / 1000 Ang^3
#
#
#
# Elastic Constant Matrix: (Units=GPa)
#
#
# Indices 1 2 3 4 5 6 
#
# 1 70.8114 43.1613 48.9435 0.0000 -16.0579 0.0000
# 2 43.1613 86.2343 50.1152 0.0000 -16.4365 0.0000
# 3 48.9435 50.1152 173.7053 0.0000 -13.1355 0.0000
# 4 0.0000 0.0000 0.0000 35.4866 0.0000 -2.1193
# 5 -16.0579 -16.4365 -13.1355 0.0000 38.5758 0.0000
# 6 0.0000 0.0000 0.0000 -2.1193 0.0000 16.7650
#
#
#
# Elastic Compliance Matrix: (Units=1/GPa)
#
#
# Indices 1 2 3 4 5 6 
#
# 1 0.022837 -0.008416 -0.003653 0.000000 0.004677 0.000000
# 2 -0.008416 0.017912 -0.002550 0.000000 0.003260 0.000000
# 3 -0.003653 -0.002550 0.007518 0.000000 -0.000047 0.000000
# 4 0.000000 0.000000 0.000000 0.028394 0.000000 0.003589
# 5 0.004677 0.003260 -0.000047 0.000000 0.029243 0.000000
# 6 0.000000 0.000000 0.000000 0.003589 0.000000 0.060102
#
#
# Mechanical properties :
#
#
# Convention : Reuss Voigt Hill
#
# Bulk Modulus (GPa) = 52.54934 68.35455 60.45194
# Shear Modulus (GPa) = 24.80324 30.73423 27.76873
#
# Velocity S-wave (km/s) = 3.60205 4.00965 3.81130
# Velocity P-wave (km/s) = 6.69243 7.56262 7.14079
#
# Compressibility (1/GPa) = 0.01902974
#
# Stress axis : x y z
#
# Youngs Moduli (GPa) = 43.78840 55.82880 133.01013
#
# Poissons Ratio (x) = 0.46985 0.48587
# Poissons Ratio (y) = 0.36852 0.33916
# Poissons Ratio (z) = 0.15996 0.14236
#
# Static dielectric constant tensor:
#      x y z
#    x 3.103050 0.000000 0.041690 
#    y 0.000000 6.643690 0.000000 
#    z 0.041690 0.000000 3.766090 
# 
# 
# High freq. dielectric constant tensor:
#      x y z
#    x 1.709750 0.000000 0.010390 
#    y 0.000000 1.730340 0.000000 
#    z 0.010390 0.000000 1.774470 
# 
# From -- ./inp_files/7515.got.cif
#   From: 2010.06.25/outbox.cif.g09.slc.cpg/sg12_4_cif.got.tgz:7515.got - 2010.06.28 00:19:55.
