data_PCOD8096498
_publ_section_title
;
Structure prediction by ZEFSAII (Michael W. Deem and Ramdas Pophale) SiO2 
 PCOD8096498
Probable space group: C 2/M
;
_chemical_formula_sum "Si O2"
_cell_formula_units_Z 64
_cell_length_a 20.179365
_cell_length_b 9.099520
_cell_length_c 19.614978
_cell_angle_alpha 90.000000
_cell_angle_beta 82.218215
_cell_angle_gamma 90.000000
_cell_volume 3568.583228
_symmetry_space_group_name_H-M "C 2/M"
_symmetry_group_IT_number 12
_symmetry_cell_setting 'monoclinic'
loop_
_space_group_symop_operation_xyz
x,y,z
-x,y,-z
-x,-y,-z
x,-y,z
1/2+x,1/2+y,z
1/2-x,1/2+y,-z
1/2-x,1/2-y,-z
1/2+x,1/2-y,z
loop_
_atom_site_type_symbol
_atom_site_label
_atom_site_fract_x
_atom_site_fract_y
_atom_site_fract_z
Si Si1 0.565008 0.169839 0.451786
Si Si2 0.048969 0.329069 0.184079
Si Si3 0.036971 0.828870 0.322730
Si Si4 0.396837 0.171663 0.190767
Si Si5 0.814629 0.671391 0.462754
Si Si6 0.171141 0.672222 0.075278
Si Si7 0.882363 0.172262 0.330454
Si Si8 0.303026 0.827640 0.080833
O O1 0.500000 0.230455 0.500000
O O2 0.575765 0.259790 0.381065
O O3 0.628161 0.197475 0.490095
O O4 0.555065 0.000000 0.433847
O O5 0.055853 0.500000 0.200651
O O6 0.066055 0.240778 0.249987
O O7 0.101300 0.279706 0.118964
O O8 0.974832 0.291858 0.167140
O O9 0.958460 0.793799 0.340926
O O10 0.052044 0.000000 0.318498
O O11 0.368078 0.265294 0.257390
O O12 0.356967 0.221796 0.129315
O O13 0.386690 0.000000 0.208444
O O14 0.800846 0.500000 0.452336
O O15 0.750000 0.750000 0.500000
O O16 0.833821 0.744689 0.388743
O O17 0.182949 0.500000 0.080514
O O18 0.232359 0.750262 0.105520
O O19 0.168450 0.721374 0.996701
O O20 0.866331 0.000000 0.333881
O O21 0.290430 0.000000 0.085476
#
# Coordination Sequence:
#
# PCOD8096498 Si02
#       8
#     8   8   8   8   8   8   8   8
#     4  10  20  36  59  82 104 137 178 217 260 314
#     4   9  18  33  53  76 105 138 174 217 263 310
#     4  10  20  33  54  82 109 137 174 221 265 309
#     4   9  18  33  54  78 103 136 176 218 262 310
#     4  11  23  39  58  80 109 141 175 219 267 316
#     4   9  18  33  53  77 105 139 173 212 261 311
#     4  10  20  35  55  79 108 141 176 217 265 316
#     4   9  18  33  53  77 105 137 175 214 258 312
#
# _framework density 17.934287999999999
#
# number of rings (size 3 to 8) (size 9 to 14) (size 15 to 20)
#    0.000    2.375    1.250    1.125    0.000    3.750 
#    2.250    2.500    0.000    0.000    0.000    7.000 
#    0.000    0.000    0.000    0.000    0.000    0.000 
#
# Total GULP energy -396904.103747 kJ/mol
# GULP energy per Si atom -12403.253242 kJ/mol
# Density = 1.789347 g / cm^3
# Si number density = 17.934288 Si / 1000 Ang^3
#
#
#
# Elastic Constant Matrix: (Units=GPa)
#
#
# Indices 1 2 3 4 5 6 
#
# 1 103.6425 52.7084 78.6693 0.0000 -6.5223 0.0000
# 2 52.7084 72.5443 62.8924 0.0000 -3.1796 0.0000
# 3 78.6693 62.8924 136.1905 0.0000 -3.0683 0.0000
# 4 0.0000 0.0000 0.0000 26.8144 0.0000 -1.2452
# 5 -6.5223 -3.1796 -3.0683 0.0000 31.8555 0.0000
# 6 0.0000 0.0000 0.0000 -1.2452 0.0000 29.2241
#
#
#
# Elastic Compliance Matrix: (Units=1/GPa)
#
#
# Indices 1 2 3 4 5 6 
#
# 1 0.019415 -0.007209 -0.007830 0.000000 0.002501 0.000000
# 2 -0.007209 0.025717 -0.007704 0.000000 0.000349 0.000000
# 3 -0.007830 -0.007704 0.015403 0.000000 -0.000888 0.000000
# 4 0.000000 0.000000 0.000000 0.037367 0.000000 0.001592
# 5 0.002501 0.000349 -0.000888 0.000000 0.031853 0.000000
# 6 0.000000 0.000000 0.000000 0.001592 0.000000 0.034286
#
#
# Mechanical properties :
#
#
# Convention : Reuss Voigt Hill
#
# Bulk Modulus (GPa) = 66.44503 77.87972 72.16238
# Shear Modulus (GPa) = 23.30538 25.45260 24.37899
#
# Velocity S-wave (km/s) = 3.60875 3.77133 3.69094
# Velocity P-wave (km/s) = 7.38199 7.90463 7.64778
#
# Compressibility (1/GPa) = 0.01505003
#
# Stress axis : x y z
#
# Youngs Moduli (GPa) = 51.50631 38.88538 64.92270
#
# Poissons Ratio (x) = 0.28032 0.50832
# Poissons Ratio (y) = 0.37130 0.50015
# Poissons Ratio (z) = 0.40327 0.29957
#
# Static dielectric constant tensor:
#      x y z
#    x 3.344830 0.000000 -0.055770 
#    y 0.000000 3.294000 0.000000 
#    z -0.055770 0.000000 3.404140 
# 
# 
# High freq. dielectric constant tensor:
#      x y z
#    x 1.684370 0.000000 0.000770 
#    y 0.000000 1.694750 0.000000 
#    z 0.000770 0.000000 1.699180 
# 
# From -- ./inp_files/319114.got.cif
#   From: 2010.06.25/outbox.cif.g09.slc.cpg/sg12_160_cif.got.tgz:319114.got - 2010.06.28 00:19:55.
