data_PCOD8096542
_publ_section_title
;
Structure prediction by ZEFSAII (Michael W. Deem and Ramdas Pophale) SiO2 
 PCOD8096542
Probable space group: C 2/M
;
_chemical_formula_sum "Si O2"
_cell_formula_units_Z 56
_cell_length_a 13.989657
_cell_length_b 9.940022
_cell_length_c 19.061525
_cell_angle_alpha 90.000000
_cell_angle_beta 92.203031
_cell_angle_gamma 90.000000
_cell_volume 2648.688846
_symmetry_space_group_name_H-M "C 2/M"
_symmetry_group_IT_number 12
_symmetry_cell_setting 'monoclinic'
loop_
_space_group_symop_operation_xyz
x,y,z
-x,y,-z
-x,-y,-z
x,-y,z
1/2+x,1/2+y,z
1/2-x,1/2+y,-z
1/2-x,1/2-y,-z
1/2+x,1/2-y,z
loop_
_atom_site_type_symbol
_atom_site_label
_atom_site_fract_x
_atom_site_fract_y
_atom_site_fract_z
Si Si1 0.537062 0.846907 0.427508
Si Si2 0.222611 0.351725 0.363219
Si Si3 0.556123 0.846770 0.153615
Si Si4 0.725056 0.852318 0.059725
Si Si5 0.074548 0.149252 0.668220
Si Si6 0.321811 0.348911 0.756347
Si Si7 0.644159 0.250587 0.820240
O O1 0.500000 0.786549 0.500000
O O2 0.653276 0.841923 0.429226
O O3 0.500395 0.760339 0.360103
O O4 0.499169 0.000000 0.417575
O O5 0.203279 0.500000 0.326654
O O6 0.335381 0.344383 0.383337
O O7 0.201951 0.222264 0.316410
O O8 0.617108 0.823034 0.084393
O O9 0.591208 0.737520 0.210387
O O10 0.442683 0.822020 0.140841
O O11 0.572865 0.000000 0.180573
O O12 0.803059 0.851486 0.124710
O O13 0.728256 0.000000 0.026024
O O14 0.750000 0.750000 0.000000
O O15 0.108755 0.174652 0.749005
O O16 0.028439 0.000000 0.663701
O O17 0.358892 0.500000 0.744745
O O18 0.226829 0.356082 0.801908
#
# Coordination Sequence:
#
# PCOD8096542 Si02
#       7
#     8   8   8   8   8   8   8
#     4  10  22  39  57  80 113 152 192 233 280 337
#     4   9  19  36  55  76 111 153 186 225 284 342
#     4  10  21  37  58  82 112 152 190 227 280 339
#     4  10  23  42  61  84 117 154 190 232 281 335
#     4  10  21  37  59  86 114 146 187 234 284 337
#     4  10  20  33  54  86 117 144 184 237 283 329
#     4  10  21  38  61  87 115 148 189 234 281 334
#
# _framework density 21.142536
#
# number of rings (size 3 to 8) (size 9 to 14) (size 15 to 20)
#    0.000    2.143    0.000    2.143    0.000   14.571 
#    0.000    2.143    0.000    0.000    0.000    0.000 
#    0.000    0.000    0.000    0.000    0.000    0.000 
#
# Total GULP energy -346904.080893 kJ/mol
# GULP energy per Si atom -12389.431460 kJ/mol
# Density = 2.109441 g / cm^3
# Si number density = 21.142536 Si / 1000 Ang^3
#
#
#
# Elastic Constant Matrix: (Units=GPa)
#
#
# Indices 1 2 3 4 5 6 
#
# 1 133.6625 24.9916 25.3878 0.0000 -27.7461 0.0000
# 2 24.9916 125.9928 22.2680 0.0000 -6.8965 0.0000
# 3 25.3878 22.2680 59.8379 0.0000 -7.4334 0.0000
# 4 0.0000 0.0000 0.0000 21.4950 0.0000 2.6721
# 5 -27.7461 -6.8965 -7.4334 0.0000 27.7411 0.0000
# 6 0.0000 0.0000 0.0000 2.6721 0.0000 18.6728
#
#
#
# Elastic Compliance Matrix: (Units=1/GPa)
#
#
# Indices 1 2 3 4 5 6 
#
# 1 0.010085 -0.001013 -0.002772 0.000000 0.009092 0.000000
# 2 -0.001013 0.008644 -0.002737 0.000000 0.000403 0.000000
# 3 -0.002772 -0.002737 0.019114 0.000000 0.001668 0.000000
# 4 0.000000 0.000000 0.000000 0.047365 0.000000 -0.006778
# 5 0.009092 0.000403 0.001668 0.000000 0.045688 0.000000
# 6 0.000000 0.000000 0.000000 -0.006778 0.000000 0.054524
#
#
# Mechanical properties :
#
#
# Convention : Reuss Voigt Hill
#
# Bulk Modulus (GPa) = 40.32564 51.64310 45.98437
# Shear Modulus (GPa) = 24.18619 30.03817 27.11218
#
# Velocity S-wave (km/s) = 3.38592 3.77337 3.58488
# Velocity P-wave (km/s) = 5.86520 6.59269 6.23956
#
# Compressibility (1/GPa) = 0.02479812
#
# Stress axis : x y z
#
# Youngs Moduli (GPa) = 99.15902 115.69248 52.31810
#
# Poissons Ratio (x) = 0.11717 0.14505
# Poissons Ratio (y) = 0.10042 0.14319
# Poissons Ratio (z) = 0.27491 0.31664
#
# Static dielectric constant tensor:
#      x y z
#    x 4.206710 0.000000 -0.366460 
#    y 0.000000 3.749070 0.000000 
#    z -0.366460 0.000000 3.446250 
# 
# 
# High freq. dielectric constant tensor:
#      x y z
#    x 1.845090 0.000000 -0.030260 
#    y 0.000000 1.831240 0.000000 
#    z -0.030260 0.000000 1.789240 
# 
# From -- ./inp_files/309074.got.cif
#   From: 2010.06.25/outbox.cif.g09.slc.cpg/sg12_155_cif.got.tgz:309074.got - 2010.06.28 00:19:55.
