data_PCOD8096686
_publ_section_title
;
Structure prediction by ZEFSAII (Michael W. Deem and Ramdas Pophale) SiO2 
 PCOD8096686
Probable space group: C 2/M
;
_chemical_formula_sum "Si O2"
_cell_formula_units_Z 56
_cell_length_a 15.192007
_cell_length_b 21.067474
_cell_length_c 18.743238
_cell_angle_alpha 90.000000
_cell_angle_beta 151.388352
_cell_angle_gamma 90.000000
_cell_volume 2872.699347
_symmetry_space_group_name_H-M "C 2/M"
_symmetry_group_IT_number 12
_symmetry_cell_setting 'monoclinic'
loop_
_space_group_symop_operation_xyz
x,y,z
-x,y,-z
-x,-y,-z
x,-y,z
1/2+x,1/2+y,z
1/2-x,1/2+y,-z
1/2-x,1/2-y,-z
1/2+x,1/2-y,z
loop_
_atom_site_type_symbol
_atom_site_label
_atom_site_fract_x
_atom_site_fract_y
_atom_site_fract_z
Si Si1 0.965782 0.792026 0.816576
Si Si2 0.708451 0.360203 0.788929
Si Si3 0.664561 0.160677 0.960322
Si Si4 0.372746 0.071648 0.778560
Si Si5 0.381849 0.232391 0.346960
Si Si6 0.843013 0.071602 0.511440
Si Si7 0.292021 0.816824 0.494058
O O1 0.824851 0.792928 0.783516
O O2 0.859418 0.823611 0.675281
O O3 0.030188 0.720009 0.848446
O O4 0.152371 0.833791 0.958984
O O5 0.859440 0.384101 0.839404
O O6 0.619013 0.295066 0.700549
O O7 0.555263 0.415279 0.679745
O O8 0.786557 0.344645 0.921609
O O9 0.549834 0.097348 0.859934
O O10 0.195131 0.076555 0.600833
O O11 0.410032 0.000000 0.829592
O O12 0.500000 0.251122 0.500000
O O13 0.499016 0.180208 0.387055
O O14 0.716632 0.122920 0.460831
O O15 0.796007 0.000000 0.503971
O O16 0.250000 0.750000 0.500000
#
# Coordination Sequence:
#
# PCOD8096686 Si02
#       7
#     8   8   8   8   8   8   8
#     4  10  21  37  54  83 116 150 189 245 293 343
#     4  12  21  36  57  88 116 157 191 236 292 356
#     4  11  22  36  56  81 122 154 191 232 290 356
#     4  11  24  38  55  83 121 160 193 233 291 359
#     4  10  20  33  60  86 115 145 192 245 292 344
#     4  11  23  39  60  85 117 156 202 246 291 348
#     4  11  19  36  61  88 112 150 200 247 297 345
#
# _framework density 19.493860999999999
#
# number of rings (size 3 to 8) (size 9 to 14) (size 15 to 20)
#    0.000    1.143    4.286    3.000    0.000    4.000 
#    0.000    0.000    0.000    4.714    0.000    2.000 
#    0.000    0.000    0.000    0.000    0.000    0.000 
#
# Total GULP energy -347015.311768 kJ/mol
# GULP energy per Si atom -12393.403992 kJ/mol
# Density = 1.944949 g / cm^3
# Si number density = 19.493861 Si / 1000 Ang^3
#
#
#
# Elastic Constant Matrix: (Units=GPa)
#
#
# Indices 1 2 3 4 5 6 
#
# 1 72.8760 31.4406 33.2444 -0.0350 24.0172 -0.0115
# 2 31.4406 88.9308 23.8797 -0.0378 3.5143 -0.0127
# 3 33.2444 23.8797 54.2275 -0.0925 19.7417 -0.0452
# 4 -0.0350 -0.0378 -0.0925 26.9635 -0.0237 1.5377
# 5 24.0172 3.5143 19.7417 -0.0237 42.0323 -0.0050
# 6 -0.0115 -0.0127 -0.0452 1.5377 -0.0050 28.3963
#
#
#
# Elastic Compliance Matrix: (Units=1/GPa)
#
#
# Indices 1 2 3 4 5 6 
#
# 1 0.022738 -0.005439 -0.008420 -0.000014 -0.008583 -0.000007
# 2 -0.005439 0.014180 -0.004354 0.000002 0.003967 -0.000002
# 3 -0.008420 -0.004354 0.028511 0.000072 -0.008216 0.000035
# 4 -0.000014 0.000002 0.000072 0.037202 -0.000005 -0.002014
# 5 -0.008583 0.003967 -0.008216 -0.000005 0.032223 -0.000009
# 6 -0.000007 -0.000002 0.000035 -0.002014 -0.000009 0.035325
#
#
# Mechanical properties :
#
#
# Convention : Reuss Voigt Hill
#
# Bulk Modulus (GPa) = 34.47885 43.68484 39.08184
# Shear Modulus (GPa) = 23.11892 27.97640 25.54766
#
# Velocity S-wave (km/s) = 3.44751 3.79243 3.62408
# Velocity P-wave (km/s) = 5.79418 6.45251 6.13219
#
# Compressibility (1/GPa) = 0.02900329
#
# Stress axis : x y z
#
# Youngs Moduli (GPa) = 43.97932 70.52214 35.07371
#
# Poissons Ratio (x) = 0.38355 0.29532
# Poissons Ratio (y) = 0.23919 0.15272
# Poissons Ratio (z) = 0.37030 0.30708
#
# Static dielectric constant tensor:
#      x y z
#    x 3.753700 -0.000020 0.218020 
#    y -0.000020 3.384150 -0.000020 
#    z 0.218020 -0.000020 3.805910 
# 
# 
# High freq. dielectric constant tensor:
#      x y z
#    x 1.748640 0.000000 0.011620 
#    y 0.000000 1.730240 0.000000 
#    z 0.011620 0.000000 1.774180 
# 
# From -- ./inp_files/64099.got.cif
#   From: 2010.06.25/outbox.cif.g09.slc.cpg/sg12_33_cif.got.tgz:64099.got - 2010.06.28 00:19:55.
