data_PCOD8096335
_publ_section_title
;
Structure prediction by ZEFSAII (Michael W. Deem and Ramdas Pophale) SiO2 
 PCOD8096335
Probable space group: C 2/M
;
_chemical_formula_sum "Si O2"
_cell_formula_units_Z 48
_cell_length_a 25.013001
_cell_length_b 7.686865
_cell_length_c 13.918618
_cell_angle_alpha 90.000000
_cell_angle_beta 73.145727
_cell_angle_gamma 90.000000
_cell_volume 2561.200972
_symmetry_space_group_name_H-M "C 2/M"
_symmetry_group_IT_number 12
_symmetry_cell_setting 'monoclinic'
loop_
_space_group_symop_operation_xyz
x,y,z
-x,y,-z
-x,-y,-z
x,-y,z
1/2+x,1/2+y,z
1/2-x,1/2+y,-z
1/2-x,1/2-y,-z
1/2+x,1/2-y,z
loop_
_atom_site_type_symbol
_atom_site_label
_atom_site_fract_x
_atom_site_fract_y
_atom_site_fract_z
Si Si1 0.258172 0.202892 0.105606
Si Si2 0.949694 0.803379 0.243076
Si Si3 0.359534 0.296872 0.756324
Si Si4 0.543763 0.000000 0.617233
Si Si5 0.566875 0.298627 0.097529
Si Si6 0.873974 0.302940 0.118533
Si Si7 0.418109 0.000000 0.615788
O O1 0.204919 0.259107 0.196470
O O2 0.314773 0.286730 0.119710
O O3 0.266525 0.000000 0.106932
O O4 0.250000 0.250000 0.000000
O O5 0.937403 0.674100 0.337170
O O6 0.899120 0.804952 0.193771
O O7 0.005526 0.736629 0.160830
O O8 0.957762 0.000000 0.278916
O O9 0.366231 0.500000 0.723588
O O10 0.389968 0.257690 0.840366
O O11 0.385239 0.175589 0.660771
O O12 0.477580 0.000000 0.636738
O O13 0.576861 0.000000 0.500765
O O14 0.566615 0.500000 0.069973
O O15 0.584761 0.194501 0.994115
O O16 0.866346 0.500000 0.158188
#
# Coordination Sequence:
#
# PCOD8096335 Si02
#       7
#     8   8   8   4   8   8   4
#     4  10  21  34  53  85 123 158 194 239 277 335
#     4  11  23  40  59  83 120 161 194 242 294 353
#     4  10  21  38  58  86 123 155 194 236 288 354
#     4  11  24  42  62  93 116 139 202 255 299 357
#     4  10  20  33  52  83 123 159 194 227 281 353
#     4  11  22  33  55  87 121 164 200 235 283 347
#     4  11  24  40  67  90 113 152 189 251 314 346
#
# _framework density 18.741209000000001
#
# number of rings (size 3 to 8) (size 9 to 14) (size 15 to 20)
#    0.000    1.500    4.167    1.000    3.500    3.333 
#    0.000    1.667    0.000    1.000    0.000    0.000 
#    0.000    0.000    0.000    0.000    0.000    0.000 
#
# Total GULP energy -297637.490049 kJ/mol
# GULP energy per Si atom -12401.562085 kJ/mol
# Density = 1.869855 g / cm^3
# Si number density = 18.741209 Si / 1000 Ang^3
#
#
#
# Elastic Constant Matrix: (Units=GPa)
#
#
# Indices 1 2 3 4 5 6 
#
# 1 106.2017 26.2714 54.3928 0.0000 8.2500 0.0000
# 2 26.2714 84.1044 54.6133 0.0000 -2.5010 0.0000
# 3 54.3928 54.6133 118.3622 0.0000 -1.1170 0.0000
# 4 0.0000 0.0000 0.0000 22.9435 0.0000 -0.6635
# 5 8.2500 -2.5010 -1.1170 0.0000 21.5586 0.0000
# 6 0.0000 0.0000 0.0000 -0.6635 0.0000 21.4889
#
#
#
# Elastic Compliance Matrix: (Units=1/GPa)
#
#
# Indices 1 2 3 4 5 6 
#
# 1 0.012891 -0.000435 -0.005773 0.000000 -0.005283 0.000000
# 2 -0.000435 0.017044 -0.007648 0.000000 0.001747 0.000000
# 3 -0.005773 -0.007648 0.014650 0.000000 0.002081 0.000000
# 4 0.000000 0.000000 0.000000 0.043624 0.000000 0.001347
# 5 -0.005283 0.001747 0.002081 0.000000 0.048717 0.000000
# 6 0.000000 0.000000 0.000000 0.001347 0.000000 0.046577
#
#
# Mechanical properties :
#
#
# Convention : Reuss Voigt Hill
#
# Bulk Modulus (GPa) = 59.26621 64.35815 61.81218
# Shear Modulus (GPa) = 23.05851 24.75758 23.90805
#
# Velocity S-wave (km/s) = 3.51146 3.63853 3.57556
# Velocity P-wave (km/s) = 6.93777 7.21574 7.07812
#
# Compressibility (1/GPa) = 0.01687302
#
# Stress axis : x y z
#
# Youngs Moduli (GPa) = 77.57504 58.67178 68.25925
#
# Poissons Ratio (x) = 0.02552 0.39406
# Poissons Ratio (y) = 0.03374 0.52204
# Poissons Ratio (z) = 0.44784 0.44871
#
# Static dielectric constant tensor:
#      x y z
#    x 3.786480 0.000000 -0.079330 
#    y 0.000000 3.451900 0.000000 
#    z -0.079330 0.000000 3.136060 
# 
# 
# High freq. dielectric constant tensor:
#      x y z
#    x 1.735080 0.000000 -0.002220 
#    y 0.000000 1.734590 0.000000 
#    z -0.002220 0.000000 1.692890 
# 
# From -- ./inp_files/172991.got.cif
#   From: 2010.06.25/outbox.cif.g09.slc.cpg/sg12_87_cif.got.tgz:172991.got - 2010.06.28 00:19:55.
