data_PCOD8096786
_publ_section_title
;
Structure prediction by ZEFSAII (Michael W. Deem and Ramdas Pophale) SiO2 
 PCOD8096786
Probable space group: C 2/M
;
_chemical_formula_sum "Si O2"
_cell_formula_units_Z 56
_cell_length_a 23.516493
_cell_length_b 9.071173
_cell_length_c 14.451207
_cell_angle_alpha 90.000000
_cell_angle_beta 90.745086
_cell_angle_gamma 90.000000
_cell_volume 3082.502270
_symmetry_space_group_name_H-M "C 2/M"
_symmetry_group_IT_number 12
_symmetry_cell_setting 'monoclinic'
loop_
_space_group_symop_operation_xyz
x,y,z
-x,y,-z
-x,-y,-z
x,-y,z
1/2+x,1/2+y,z
1/2-x,1/2+y,-z
1/2-x,1/2-y,-z
1/2+x,1/2-y,z
loop_
_atom_site_type_symbol
_atom_site_label
_atom_site_fract_x
_atom_site_fract_y
_atom_site_fract_z
Si Si1 0.595899 0.334437 0.477851
Si Si2 0.871966 0.669444 0.799052
Si Si3 0.808707 0.165647 0.645689
Si Si4 0.078888 0.325957 0.662332
Si Si5 0.763877 0.327304 0.905090
Si Si6 0.199031 0.668754 0.740307
Si Si7 0.031033 0.829903 0.284605
O O1 0.583284 0.500000 0.513206
O O2 0.663638 0.314704 0.455937
O O3 0.575939 0.222569 0.555499
O O4 0.560591 0.301519 0.384076
O O5 0.890520 0.500000 0.795783
O O6 0.834238 0.706727 0.709311
O O7 0.830995 0.702209 0.885848
O O8 0.929231 0.767471 0.797695
O O9 0.740381 0.179967 0.650372
O O10 0.826975 0.000000 0.681503
O O11 0.073070 0.500000 0.665630
O O12 0.137821 0.270467 0.708513
O O13 0.028609 0.254485 0.720386
O O14 0.751409 0.500000 0.911899
O O15 0.723082 0.263267 0.825069
O O16 0.750000 0.250000 0.000000
O O17 0.194544 0.500000 0.773809
O O18 0.019611 0.000000 0.265023
#
# Coordination Sequence:
#
# PCOD8096786 Si02
#       7
#     8   8   8   8   8   8   8
#     4   9  18  31  47  68  94 129 175 218 253 291
#     4   9  17  30  50  77 102 124 158 202 244 286
#     4   8  15  30  49  67  94 132 167 202 247 296
#     4  11  22  32  46  70 100 135 172 213 254 288
#     4  10  20  34  57  85 107 128 155 193 242 296
#     4   9  19  35  51  71 102 135 166 201 248 302
#     4  10  20  34  51  69  95 135 176 211 249 292
#
# _framework density 18.167058000000001
#
# number of rings (size 3 to 8) (size 9 to 14) (size 15 to 20)
#    0.000    2.571    0.000    3.000    0.000    8.000 
#    0.000    0.000    0.000    0.857    0.000    6.000 
#    0.000    0.000    0.000    0.000    0.000    0.000 
#
# Total GULP energy -347009.412007 kJ/mol
# GULP energy per Si atom -12393.193286 kJ/mol
# Density = 1.812571 g / cm^3
# Si number density = 18.167058 Si / 1000 Ang^3
#
#
#
# Elastic Constant Matrix: (Units=GPa)
#
#
# Indices 1 2 3 4 5 6 
#
# 1 137.1527 54.5672 33.9149 0.0000 -22.5848 0.0000
# 2 54.5672 87.3893 30.2863 0.0000 -15.5479 0.0000
# 3 33.9149 30.2863 42.5848 0.0000 -18.9911 0.0000
# 4 0.0000 0.0000 0.0000 25.3246 0.0000 -5.1850
# 5 -22.5848 -15.5479 -18.9911 0.0000 23.5998 0.0000
# 6 0.0000 0.0000 0.0000 -5.1850 0.0000 30.0201
#
#
#
# Elastic Compliance Matrix: (Units=1/GPa)
#
#
# Indices 1 2 3 4 5 6 
#
# 1 0.010724 -0.004815 -0.003048 0.000000 0.004638 0.000000
# 2 -0.004815 0.017412 -0.008560 0.000000 -0.000025 0.000000
# 3 -0.003048 -0.008560 0.043957 0.000000 0.026816 0.000000
# 4 0.000000 0.000000 0.000000 0.040935 0.000000 0.007070
# 5 0.004638 -0.000025 0.026816 0.000000 0.068375 0.000000
# 6 0.000000 0.000000 0.000000 0.007070 0.000000 0.034532
#
#
# Mechanical properties :
#
#
# Convention : Reuss Voigt Hill
#
# Bulk Modulus (GPa) = 25.47945 56.07374 40.77659
# Shear Modulus (GPa) = 19.09400 25.67945 22.38673
#
# Velocity S-wave (km/s) = 3.24547 3.76376 3.51418
# Velocity P-wave (km/s) = 5.30091 7.05836 6.24180
#
# Compressibility (1/GPa) = 0.03924732
#
# Stress axis : x y z
#
# Youngs Moduli (GPa) = 93.24675 57.43324 22.74963
#
# Poissons Ratio (x) = 0.27653 0.06935
# Poissons Ratio (y) = 0.44896 0.19473
# Poissons Ratio (z) = 0.28424 0.49160
#
# Static dielectric constant tensor:
#      x y z
#    x 3.676800 0.000000 -0.386020 
#    y 0.000000 3.390920 0.000000 
#    z -0.386020 0.000000 3.002300 
# 
# 
# High freq. dielectric constant tensor:
#      x y z
#    x 1.712240 0.000000 -0.033040 
#    y 0.000000 1.713290 0.000000 
#    z -0.033040 0.000000 1.655080 
# 
# From -- ./inp_files/231028.got.cif
#   From: 2010.06.25/outbox.cif.g09.slc.cpg/sg12_116_cif.got.tgz:231028.got - 2010.06.28 00:19:55.
