data_PCOD8096182
_publ_section_title
;
Structure prediction by ZEFSAII (Michael W. Deem and Ramdas Pophale) SiO2 
 PCOD8096182
Probable space group: C 2/M
;
_chemical_formula_sum "Si O2"
_cell_formula_units_Z 40
_cell_length_a 22.977605
_cell_length_b 8.983425
_cell_length_c 11.277452
_cell_angle_alpha 90.000000
_cell_angle_beta 106.571377
_cell_angle_gamma 90.000000
_cell_volume 2231.177033
_symmetry_space_group_name_H-M "C 2/M"
_symmetry_group_IT_number 12
_symmetry_cell_setting 'monoclinic'
loop_
_space_group_symop_operation_xyz
x,y,z
-x,y,-z
-x,-y,-z
x,-y,z
1/2+x,1/2+y,z
1/2-x,1/2+y,-z
1/2-x,1/2-y,-z
1/2+x,1/2-y,z
loop_
_atom_site_type_symbol
_atom_site_label
_atom_site_fract_x
_atom_site_fract_y
_atom_site_fract_z
Si Si1 0.325212 0.829280 0.929050
Si Si2 0.088954 0.324455 0.615374
Si Si3 0.294628 0.171622 0.183896
Si Si4 0.033524 0.324090 0.338989
Si Si5 0.941579 0.823976 0.892654
O O1 0.265516 0.767591 0.828307
O O2 0.382686 0.734786 0.924562
O O3 0.334424 0.000000 0.897227
O O4 0.318618 0.809912 0.065107
O O5 0.088248 0.500000 0.630985
O O6 0.153257 0.262206 0.699261
O O7 0.079649 0.282474 0.472539
O O8 0.033351 0.264529 0.663640
O O9 0.279601 0.000000 0.203320
O O10 0.033358 0.500000 0.314603
O O11 0.056635 0.239471 0.237994
O O12 0.938476 0.000000 0.884122
O O13 0.000000 0.768958 0.000000
#
# Coordination Sequence:
#
# PCOD8096182 Si02
#       5
#     8   8   8   8   8
#     4  10  20  33  52  77 101 130 169 206 243 293
#     4   8  15  30  54  79 101 130 165 203 247 294
#     4   9  17  32  53  76 103 132 163 203 250 294
#     4   9  17  32  54  78 102 129 167 206 242 294
#     4  11  23  36  50  72 103 134 163 202 252 297
#
# _framework density 17.927757
#
# number of rings (size 3 to 8) (size 9 to 14) (size 15 to 20)
#    0.000    2.600    0.000    3.600    0.000    4.000 
#    0.000    5.000    0.000    0.000    0.000    0.000 
#    0.000    0.000    0.000    0.000    0.000    0.000 
#
# Total GULP energy -247988.559673 kJ/mol
# GULP energy per Si atom -12399.427984 kJ/mol
# Density = 1.788695 g / cm^3
# Si number density = 17.927757 Si / 1000 Ang^3
#
#
#
# Elastic Constant Matrix: (Units=GPa)
#
#
# Indices 1 2 3 4 5 6 
#
# 1 108.9677 31.2672 52.7260 0.0000 24.1153 0.0000
# 2 31.2672 48.0837 33.6108 0.0000 3.9182 0.0000
# 3 52.7260 33.6108 83.6652 0.0000 26.0764 0.0000
# 4 0.0000 0.0000 0.0000 22.0158 0.0000 -1.1434
# 5 24.1153 3.9182 26.0764 0.0000 35.3240 0.0000
# 6 0.0000 0.0000 0.0000 -1.1434 0.0000 -162.9156
#
#
#
# Elastic Compliance Matrix: (Units=1/GPa)
#
#
# Indices 1 2 3 4 5 6 
#
# 1 0.014440 -0.005224 -0.005338 0.000000 -0.005338 0.000000
# 2 -0.005224 0.032193 -0.012520 0.000000 0.009238 0.000000
# 3 -0.005338 -0.012520 0.024389 0.000000 -0.012971 0.000000
# 4 0.000000 0.000000 0.000000 0.045405 0.000000 -0.000319
# 5 -0.005338 0.009238 -0.012971 0.000000 0.040504 0.000000
# 6 0.000000 0.000000 0.000000 -0.000319 0.000000 -0.006136
#
#
# Mechanical properties :
#
#
# Convention : Reuss Voigt Hill
#
# Bulk Modulus (GPa) = 40.22766 52.88053 46.55409
# Shear Modulus (GPa) = 24.36118 -12.90764 5.72677
#
# Velocity S-wave (km/s) = 3.69026 -2.68616 1.78922
# Velocity P-wave (km/s) = 6.37533 4.46541 5.50385
#
# Compressibility (1/GPa) = 0.02485852
#
# Stress axis : x y z
#
# Youngs Moduli (GPa) = 69.25134 31.06303 41.00254
#
# Poissons Ratio (x) = 0.16227 0.21887
# Poissons Ratio (y) = 0.36175 0.51335
# Poissons Ratio (z) = 0.36966 0.38890
#
# Static dielectric constant tensor:
#      x y z
#    x 3.473260 0.000000 0.342470 
#    y 0.000000 3.152800 0.000000 
#    z 0.342470 0.000000 3.465410 
# 
# 
# High freq. dielectric constant tensor:
#      x y z
#    x 1.696030 0.000000 0.012750 
#    y 0.000000 1.675870 0.000000 
#    z 0.012750 0.000000 1.693640 
# 
# From -- ./inp_files/151748.got.cif
#   From: 2010.06.25/outbox.cif.g09.slc.cpg/sg12_76_cif.got.tgz:151748.got - 2010.06.28 00:19:55.
