data_PCOD8096937
_publ_section_title
;
Structure prediction by ZEFSAII (Michael W. Deem and Ramdas Pophale) SiO2 
 PCOD8096937
Probable space group: C 2/M
;
_chemical_formula_sum "Si O2"
_cell_formula_units_Z 40
_cell_length_a 8.914487
_cell_length_b 19.523699
_cell_length_c 13.586187
_cell_angle_alpha 90.000000
_cell_angle_beta 109.151770
_cell_angle_gamma 90.000000
_cell_volume 2233.717744
_symmetry_space_group_name_H-M "C 2/M"
_symmetry_group_IT_number 12
_symmetry_cell_setting 'monoclinic'
loop_
_space_group_symop_operation_xyz
x,y,z
-x,y,-z
-x,-y,-z
x,-y,z
1/2+x,1/2+y,z
1/2-x,1/2+y,-z
1/2-x,1/2-y,-z
1/2+x,1/2-y,z
loop_
_atom_site_type_symbol
_atom_site_label
_atom_site_fract_x
_atom_site_fract_y
_atom_site_fract_z
Si Si1 0.572118 0.077867 0.792803
Si Si2 0.830898 0.918581 1.000000
Si Si3 0.517364 0.821958 0.391563
Si Si4 0.125800 0.178042 0.608437
Si Si5 0.279315 0.422133 0.207197
O O1 0.699848 0.109580 0.895889
O O2 0.571480 0.122265 0.693898
O O3 0.406036 0.081137 0.812073
O O4 0.615112 0.000000 0.772117
O O5 0.819070 0.000000 1.000000
O O6 0.803958 0.890420 0.104111
O O7 0.000000 0.891792 0.000000
O O8 0.500000 0.846872 0.500000
O O9 0.701753 0.814274 0.403506
O O10 0.428717 0.750000 0.357433
O O11 0.122418 0.122265 0.693898
O O12 0.000000 0.153128 0.500000
O O13 0.342995 0.500000 0.227883
#
# Coordination Sequence:
#
# PCOD8096937 Si02
#       5
#     8   8   8   8   8
#     4   9  18  33  52  73  98 129 163 198 239 288
#     4   9  17  29  48  75 102 127 157 197 244 287
#     4  10  20  34  52  72  97 130 164 199 242 289
#     4  10  20  34  52  72  97 130 164 199 242 289
#     4   9  18  33  52  73  98 129 163 198 239 288
#
# _framework density 17.907364000000001
#
# number of rings (size 3 to 8) (size 9 to 14) (size 15 to 20)
#    0.000    2.600    0.000    3.000    0.000    6.400 
#    0.000    1.000    0.000    0.000    0.000    0.000 
#    0.000    0.000    0.000    0.000    0.000    0.000 
#
# Total GULP energy -248000.716836 kJ/mol
# GULP energy per Si atom -12400.035842 kJ/mol
# Density = 1.786661 g / cm^3
# Si number density = 17.907364 Si / 1000 Ang^3
#
#
#
# Elastic Constant Matrix: (Units=GPa)
#
#
# Indices 1 2 3 4 5 6 
#
# 1 77.6154 41.5548 71.5213 0.0000 5.7409 0.0000
# 2 41.5548 77.3607 88.5466 0.0000 4.6270 0.0000
# 3 71.5213 88.5466 180.2245 0.0000 4.3624 0.0000
# 4 0.0000 0.0000 0.0000 8.4212 0.0000 -1.2920
# 5 5.7409 4.6270 4.3624 0.0000 32.0637 0.0000
# 6 0.0000 0.0000 0.0000 -1.2920 0.0000 21.5426
#
#
#
# Elastic Compliance Matrix: (Units=1/GPa)
#
#
# Indices 1 2 3 4 5 6 
#
# 1 0.020998 -0.003807 -0.006406 0.000000 -0.002339 0.000000
# 2 -0.003807 0.030396 -0.013377 0.000000 -0.001885 0.000000
# 3 -0.006406 -0.013377 0.014637 0.000000 0.001086 0.000000
# 4 0.000000 0.000000 0.000000 0.119851 0.000000 0.007188
# 5 -0.002339 -0.001885 0.001086 0.000000 0.031731 0.000000
# 6 0.000000 0.000000 0.000000 0.007188 0.000000 0.046851
#
#
# Mechanical properties :
#
#
# Convention : Reuss Voigt Hill
#
# Bulk Modulus (GPa) = 53.05027 82.04956 67.54992
# Shear Modulus (GPa) = 15.72679 21.31068 18.51873
#
# Velocity S-wave (km/s) = 2.96671 3.45345 3.21929
# Velocity P-wave (km/s) = 6.43617 7.86258 7.18486
#
# Compressibility (1/GPa) = 0.01885005
#
# Stress axis : x y z
#
# Youngs Moduli (GPa) = 47.62268 32.89895 68.32005
#
# Poissons Ratio (x) = 0.12526 0.43765
# Poissons Ratio (y) = 0.18132 0.91395
# Poissons Ratio (z) = 0.30506 0.44010
#
# Static dielectric constant tensor:
#      x y z
#    x 3.348570 0.000000 0.012260 
#    y 0.000000 3.168370 0.000000 
#    z 0.012260 0.000000 3.473060 
# 
# 
# High freq. dielectric constant tensor:
#      x y z
#    x 1.700330 0.000000 0.000520 
#    y 0.000000 1.666000 0.000000 
#    z 0.000520 0.000000 1.705580 
# 
# From -- ./inp_files/120050.got.cif
#   From: 2010.06.25/outbox.cif.g09.slc.cpg/sg12_61_cif.got.tgz:120050.got - 2010.06.28 00:19:55.
