data_PCOD8096670
_publ_section_title
;
Structure prediction by ZEFSAII (Michael W. Deem and Ramdas Pophale) SiO2 
 PCOD8096670
Probable space group: C 2/M
;
_chemical_formula_sum "Si O2"
_cell_formula_units_Z 52
_cell_length_a 20.125446
_cell_length_b 21.279067
_cell_length_c 7.855325
_cell_angle_alpha 90.000000
_cell_angle_beta 44.888546
_cell_angle_gamma 90.000000
_cell_volume 2374.109815
_symmetry_space_group_name_H-M "C 2/M"
_symmetry_group_IT_number 12
_symmetry_cell_setting 'monoclinic'
loop_
_space_group_symop_operation_xyz
x,y,z
-x,y,-z
-x,-y,-z
x,-y,z
1/2+x,1/2+y,z
1/2-x,1/2+y,-z
1/2-x,1/2-y,-z
1/2+x,1/2-y,z
loop_
_atom_site_type_symbol
_atom_site_label
_atom_site_fract_x
_atom_site_fract_y
_atom_site_fract_z
Si Si1 0.392805 0.932738 0.829327
Si Si2 0.705111 0.571618 0.321961
Si Si3 0.568911 0.930047 0.725562
Si Si4 0.646949 0.169349 0.370529
Si Si5 0.000000 0.762515 0.500000
Si Si6 0.345198 0.348890 0.919414
Si Si7 0.106381 0.926170 0.840807
O O1 0.501578 0.933033 0.682732
O O2 0.372212 0.875249 0.750790
O O3 0.369270 0.000000 0.782178
O O4 0.319804 0.926536 0.122337
O O5 0.668145 0.500000 0.362965
O O6 0.667230 0.613824 0.234866
O O7 0.667644 0.598727 0.569116
O O8 0.641984 0.873472 0.552897
O O9 0.614506 0.000000 0.673401
O O10 0.500000 0.909553 0.000000
O O11 0.568429 0.223776 0.504328
O O12 0.753781 0.193089 0.143236
O O13 0.934586 0.803375 0.742733
O O14 0.359687 0.397955 0.043699
O O15 0.117993 0.000000 0.839138
O O16 0.000000 0.905589 0.000000
#
# Coordination Sequence:
#
# PCOD8096670 Si02
#       7
#     8   8   8   8   4   8   8
#     4   9  17  33  58  87 119 153 187 240 308 373
#     4   9  19  36  61  94 126 153 194 249 309 379
#     4  10  20  33  57  93 128 156 188 242 313 381
#     4  11  22  40  63  86 117 164 209 250 306 367
#     4  12  24  44  62  82 120 164 218 272 294 346
#     4  11  24  40  67  90 121 166 211 257 311 365
#     4  10  21  38  63  95 128 160 197 250 315 377
#
# _framework density 21.902947000000001
#
# number of rings (size 3 to 8) (size 9 to 14) (size 15 to 20)
#    0.000    1.846    1.538    2.308    2.154    3.077 
#    0.000    5.385    0.000    6.462    0.000    0.000 
#    0.000    0.000    0.000    0.000    0.000    0.000 
#
# Total GULP energy -322160.129921 kJ/mol
# GULP energy per Si atom -12390.774228 kJ/mol
# Density = 2.185310 g / cm^3
# Si number density = 21.902947 Si / 1000 Ang^3
#
#
#
# Elastic Constant Matrix: (Units=GPa)
#
#
# Indices 1 2 3 4 5 6 
#
# 1 41.0106 14.5073 22.3579 0.0000 -9.3236 0.0000
# 2 14.5073 70.8545 50.5429 0.0000 -6.6870 0.0000
# 3 22.3579 50.5429 154.9011 0.0000 -14.4325 0.0000
# 4 0.0000 0.0000 0.0000 21.8790 0.0000 -8.0173
# 5 -9.3236 -6.6870 -14.4325 0.0000 42.1519 0.0000
# 6 0.0000 0.0000 0.0000 -8.0173 0.0000 20.3541
#
#
#
# Elastic Compliance Matrix: (Units=1/GPa)
#
#
# Indices 1 2 3 4 5 6 
#
# 1 0.028065 -0.003548 -0.002445 0.000000 0.004808 0.000000
# 2 -0.003548 0.018876 -0.005620 0.000000 0.000285 0.000000
# 3 -0.002445 -0.005620 0.008789 0.000000 0.001577 0.000000
# 4 0.000000 0.000000 0.000000 0.053416 0.000000 0.021040
# 5 0.004808 0.000285 0.001577 0.000000 0.025372 0.000000
# 6 0.000000 0.000000 0.000000 0.021040 0.000000 0.057418
#
#
# Mechanical properties :
#
#
# Convention : Reuss Voigt Hill
#
# Bulk Modulus (GPa) = 30.76636 49.06473 39.91555
# Shear Modulus (GPa) = 22.12404 28.83418 25.47911
#
# Velocity S-wave (km/s) = 3.18165 3.63223 3.41438
# Velocity P-wave (km/s) = 5.25113 6.32775 5.81441
#
# Compressibility (1/GPa) = 0.03250303
#
# Stress axis : x y z
#
# Youngs Moduli (GPa) = 35.63136 52.97712 113.77267
#
# Poissons Ratio (x) = 0.18798 0.27818
# Poissons Ratio (y) = 0.12643 0.63944
# Poissons Ratio (z) = 0.08712 0.29775
#
# Static dielectric constant tensor:
#      x y z
#    x 3.905960 0.000000 -0.330980 
#    y 0.000000 3.801570 0.000000 
#    z -0.330980 0.000000 4.643260 
# 
# 
# High freq. dielectric constant tensor:
#      x y z
#    x 1.840080 0.000000 -0.008660 
#    y 0.000000 1.835040 0.000000 
#    z -0.008660 0.000000 1.891300 
# 
# From -- ./inp_files/99021.got.cif
#   From: 2010.06.25/outbox.cif.g09.slc.cpg/sg12_50_cif.got.tgz:99021.got - 2010.06.28 00:19:55.
