data_PCOD8096189
_publ_section_title
;
Structure prediction by ZEFSAII (Michael W. Deem and Ramdas Pophale) SiO2 
 PCOD8096189
Probable space group: C 2/M
;
_chemical_formula_sum "Si O2"
_cell_formula_units_Z 56
_cell_length_a 24.567233
_cell_length_b 9.488238
_cell_length_c 16.243693
_cell_angle_alpha 90.000000
_cell_angle_beta 57.239980
_cell_angle_gamma 90.000000
_cell_volume 3184.152556
_symmetry_space_group_name_H-M "C 2/M"
_symmetry_group_IT_number 12
_symmetry_cell_setting 'monoclinic'
loop_
_space_group_symop_operation_xyz
x,y,z
-x,y,-z
-x,-y,-z
x,-y,z
1/2+x,1/2+y,z
1/2-x,1/2+y,-z
1/2-x,1/2-y,-z
1/2+x,1/2-y,z
loop_
_atom_site_type_symbol
_atom_site_label
_atom_site_fract_x
_atom_site_fract_y
_atom_site_fract_z
Si Si1 0.485456 0.663765 0.743528
Si Si2 0.234542 0.336328 0.890644
Si Si3 0.122827 0.159961 0.698495
Si Si4 0.346355 0.663253 0.922139
Si Si5 0.781765 0.664207 0.282773
Si Si6 0.342783 0.663190 0.513685
Si Si7 0.964666 0.660109 0.442925
O O1 0.485030 0.500000 0.716321
O O2 0.546522 0.693820 0.752869
O O3 0.420239 0.705136 0.844178
O O4 0.490113 0.759306 0.659012
O O5 0.217782 0.500000 0.913415
O O6 0.302988 0.299869 0.877557
O O7 0.239159 0.290798 0.791819
O O8 0.176562 0.251499 0.980660
O O9 0.152684 0.257265 0.744796
O O10 0.158799 0.189773 0.582646
O O11 0.133626 0.000000 0.717403
O O12 0.339822 0.500000 0.950428
O O13 0.796674 0.500000 0.275705
O O14 0.725177 0.708515 0.391668
O O15 0.359064 0.500000 0.519919
O O16 0.396955 0.760386 0.510404
O O17 0.952400 0.500000 0.422724
O O18 0.000000 0.661090 0.500000
#
# Coordination Sequence:
#
# PCOD8096189 Si02
#       7
#     8   8   8   8   8   8   8
#     4   9  19  35  56  76  97 134 177 209 249 306
#     4   9  19  34  52  78 105 128 165 213 257 308
#     4   9  18  33  50  75 104 132 171 214 253 300
#     4   9  18  35  57  77  99 130 168 211 259 305
#     4  10  20  33  52  77 103 135 175 212 252 303
#     4   9  19  34  52  73 100 138 179 210 246 299
#     4  10  21  33  46  74 110 136 166 208 253 303
#
# _framework density 17.587095999999999
#
# number of rings (size 3 to 8) (size 9 to 14) (size 15 to 20)
#    0.000    2.714    0.000    1.714    2.000    5.143 
#    0.000    0.714    0.000    4.286    0.000    0.000 
#    0.000    0.000    0.000    0.000    0.000    0.000 
#
# Total GULP energy -347239.073535 kJ/mol
# GULP energy per Si atom -12401.395483 kJ/mol
# Density = 1.754707 g / cm^3
# Si number density = 17.587096 Si / 1000 Ang^3
#
#
#
# Elastic Constant Matrix: (Units=GPa)
#
#
# Indices 1 2 3 4 5 6 
#
# 1 99.3201 47.3907 62.8295 0.0000 -9.7876 0.0001
# 2 47.3907 66.9918 38.8809 0.0000 -3.3351 0.0002
# 3 62.8295 38.8809 92.4225 0.0000 -13.8436 0.0000
# 4 0.0000 0.0000 0.0000 27.3414 0.0000 3.3173
# 5 -9.7876 -3.3351 -13.8436 0.0000 27.7112 0.0000
# 6 0.0001 0.0002 0.0000 3.3173 0.0000 29.4733
#
#
#
# Elastic Compliance Matrix: (Units=1/GPa)
#
#
# Indices 1 2 3 4 5 6 
#
# 1 0.020896 -0.008706 -0.010370 0.000000 0.001152 0.000000
# 2 -0.008706 0.023471 -0.004316 0.000000 -0.002406 0.000000
# 3 -0.010370 -0.004316 0.020600 0.000000 0.006109 0.000000
# 4 0.000000 0.000000 0.000000 0.037081 0.000000 -0.004174
# 5 0.001152 -0.002406 0.006109 0.000000 0.039256 0.000000
# 6 0.000000 0.000000 0.000000 -0.004174 0.000000 0.034399
#
#
# Mechanical properties :
#
#
# Convention : Reuss Voigt Hill
#
# Bulk Modulus (GPa) = 54.99630 61.88184 58.43907
# Shear Modulus (GPa) = 21.87711 24.21406 23.04559
#
# Velocity S-wave (km/s) = 3.53077 3.71456 3.62383
# Velocity P-wave (km/s) = 6.92535 7.32527 7.12812
#
# Compressibility (1/GPa) = 0.01818304
#
# Stress axis : x y z
#
# Youngs Moduli (GPa) = 47.85507 42.60556 48.54271
#
# Poissons Ratio (x) = 0.37093 0.50341
# Poissons Ratio (y) = 0.41664 0.20950
# Poissons Ratio (z) = 0.49628 0.18388
#
# Static dielectric constant tensor:
#      x y z
#    x 3.247360 0.000000 -0.113000 
#    y 0.000000 3.313940 0.000000 
#    z -0.113000 0.000000 3.215420 
# 
# 
# High freq. dielectric constant tensor:
#      x y z
#    x 1.679330 0.000000 -0.004440 
#    y 0.000000 1.680720 0.000000 
#    z -0.004440 0.000000 1.667250 
# 
# From -- ./inp_files/243596.got.cif
#   From: 2010.06.25/outbox.cif.g09.slc.cpg/sg12_122_cif.got.tgz:243596.got - 2010.06.28 00:19:55.
