data_PCOD8096150
_publ_section_title
;
Structure prediction by ZEFSAII (Michael W. Deem and Ramdas Pophale) SiO2 
 PCOD8096150
Probable space group: C 2/M
;
_chemical_formula_sum "Si O2"
_cell_formula_units_Z 48
_cell_length_a 24.459703
_cell_length_b 9.184628
_cell_length_c 11.379750
_cell_angle_alpha 90.000000
_cell_angle_beta 74.673348
_cell_angle_gamma 90.000000
_cell_volume 2465.575129
_symmetry_space_group_name_H-M "C 2/M"
_symmetry_group_IT_number 12
_symmetry_cell_setting 'monoclinic'
loop_
_space_group_symop_operation_xyz
x,y,z
-x,y,-z
-x,-y,-z
x,-y,z
1/2+x,1/2+y,z
1/2-x,1/2+y,-z
1/2-x,1/2-y,-z
1/2+x,1/2-y,z
loop_
_atom_site_type_symbol
_atom_site_label
_atom_site_fract_x
_atom_site_fract_y
_atom_site_fract_z
Si Si1 0.724595 0.328992 0.258984
Si Si2 0.347656 0.833326 0.231646
Si Si3 0.837146 0.331028 0.507713
Si Si4 0.622283 0.666417 0.167850
Si Si5 0.065030 0.173526 0.967331
Si Si6 0.436725 0.333486 0.559765
O O1 0.712382 0.500000 0.284679
O O2 0.790326 0.300291 0.188362
O O3 0.710343 0.253392 0.391010
O O4 0.682697 0.267854 0.179634
O O5 0.329052 0.800736 0.374978
O O6 0.399877 0.732209 0.164013
O O7 0.366907 0.000000 0.204907
O O8 0.832367 0.500000 0.541490
O O9 0.899089 0.273964 0.505012
O O10 0.632927 0.500000 0.129119
O O11 0.575441 0.684679 0.295324
O O12 0.596621 0.740084 0.064990
O O13 0.065551 0.000000 0.964195
O O14 0.000000 0.229457 0.000000
O O15 0.500000 0.283522 0.500000
O O16 0.425999 0.500000 0.525981
#
# Coordination Sequence:
#
# PCOD8096150 Si02
#       6
#     8   8   8   8   8   8
#     4   9  18  36  59  79 106 142 180 222 269 323
#     4  10  22  37  54  79 110 146 180 218 271 324
#     4  10  20  33  51  81 116 139 170 222 274 321
#     4   8  16  33  53  77 105 133 175 227 265 306
#     4  10  22  37  55  78 106 141 182 228 268 313
#     4   9  18  32  55  79 103 142 183 217 263 322
#
# _framework density 19.468074000000001
#
# number of rings (size 3 to 8) (size 9 to 14) (size 15 to 20)
#    0.000    2.667    0.000    2.000    2.333    3.333 
#    0.000    3.333    0.000    0.000    0.000    0.000 
#    0.000    0.000    0.000    0.000    0.000    0.000 
#
# Total GULP energy -297488.196242 kJ/mol
# GULP energy per Si atom -12395.341510 kJ/mol
# Density = 1.942376 g / cm^3
# Si number density = 19.468074 Si / 1000 Ang^3
#
#
#
# Elastic Constant Matrix: (Units=GPa)
#
#
# Indices 1 2 3 4 5 6 
#
# 1 127.3453 35.2139 49.0880 0.0000 -10.3764 0.0000
# 2 35.2139 43.2646 30.3954 0.0000 -0.6817 0.0000
# 3 49.0880 30.3954 57.0340 0.0000 6.1844 0.0000
# 4 0.0000 0.0000 0.0000 23.9918 0.0000 -1.2898
# 5 -10.3764 -0.6817 6.1844 0.0000 30.7920 0.0000
# 6 0.0000 0.0000 0.0000 -1.2898 0.0000 22.4419
#
#
#
# Elastic Compliance Matrix: (Units=1/GPa)
#
#
# Indices 1 2 3 4 5 6 
#
# 1 0.013319 -0.003503 -0.010300 0.000000 0.006479 0.000000
# 2 -0.003503 0.038599 -0.017911 0.000000 0.003271 0.000000
# 3 -0.010300 -0.017911 0.037172 0.000000 -0.011333 0.000000
# 4 0.000000 0.000000 0.000000 0.041810 0.000000 0.002403
# 5 0.006479 0.003271 -0.011333 0.000000 0.037008 0.000000
# 6 0.000000 0.000000 0.000000 0.002403 0.000000 0.044698
#
#
# Mechanical properties :
#
#
# Convention : Reuss Voigt Hill
#
# Bulk Modulus (GPa) = 38.96432 50.78206 44.87319
# Shear Modulus (GPa) = 17.56923 22.97491 20.27207
#
# Velocity S-wave (km/s) = 3.00736 3.43903 3.23042
# Velocity P-wave (km/s) = 5.66718 6.47385 6.08390
#
# Compressibility (1/GPa) = 0.02566451
#
# Stress axis : x y z
#
# Youngs Moduli (GPa) = 75.07817 25.90708 26.90181
#
# Poissons Ratio (x) = 0.09075 0.27708
# Poissons Ratio (y) = 0.26300 0.48183
# Poissons Ratio (z) = 0.77327 0.46402
#
# Static dielectric constant tensor:
#      x y z
#    x 3.866680 0.000000 0.190710 
#    y 0.000000 3.265820 0.000000 
#    z 0.190710 0.000000 3.456650 
# 
# 
# High freq. dielectric constant tensor:
#      x y z
#    x 1.773160 0.000000 0.003320 
#    y 0.000000 1.728660 0.000000 
#    z 0.003320 0.000000 1.747730 
# 
# From -- ./inp_files/172054.got.cif
#   From: 2010.06.25/outbox.cif.g09.slc.cpg/sg12_87_cif.got.tgz:172054.got - 2010.06.28 00:19:55.
