data_PCOD8096047
_publ_section_title
;
Structure prediction by ZEFSAII (Michael W. Deem and Ramdas Pophale) SiO2 
 PCOD8096047
Probable space group: C 2/M
;
_chemical_formula_sum "Si O2"
_cell_formula_units_Z 64
_cell_length_a 31.893134
_cell_length_b 9.627351
_cell_length_c 23.701764
_cell_angle_alpha 90.000000
_cell_angle_beta 150.771250
_cell_angle_gamma 90.000000
_cell_volume 3553.606009
_symmetry_space_group_name_H-M "C 2/M"
_symmetry_group_IT_number 12
_symmetry_cell_setting 'monoclinic'
loop_
_space_group_symop_operation_xyz
x,y,z
-x,y,-z
-x,-y,-z
x,-y,z
1/2+x,1/2+y,z
1/2-x,1/2+y,-z
1/2-x,1/2-y,-z
1/2+x,1/2-y,z
loop_
_atom_site_type_symbol
_atom_site_label
_atom_site_fract_x
_atom_site_fract_y
_atom_site_fract_z
Si Si1 0.219965 0.336087 0.178511
Si Si2 0.670327 0.346823 0.417157
Si Si3 0.881576 0.149918 0.768949
Si Si4 0.250987 0.838979 0.916502
Si Si5 0.575031 0.839975 0.391988
Si Si6 0.374608 0.840927 0.160792
Si Si7 0.528439 0.849006 0.970255
Si Si8 0.281475 0.161590 0.350328
O O1 0.232757 0.500000 0.203942
O O2 0.236890 0.293418 0.133902
O O3 0.282320 0.252128 0.294023
O O4 0.123631 0.286400 0.079655
O O5 0.693755 0.500000 0.470612
O O6 0.750000 0.250000 0.500000
O O7 0.631167 0.375132 0.311067
O O8 0.603624 0.266674 0.377948
O O9 0.796840 0.210536 0.700647
O O10 0.962179 0.249629 0.862928
O O11 0.904106 0.000000 0.823282
O O12 0.171404 0.753694 0.847167
O O13 0.226594 0.000000 0.891570
O O14 0.337635 0.807944 0.054503
O O15 0.475085 0.809481 0.283817
O O16 0.628722 0.810958 0.512132
O O17 0.590381 0.000000 0.390598
O O18 0.355034 0.000000 0.153267
O O19 0.527637 0.000000 0.938659
O O20 0.500000 0.868166 0.000000
O O21 0.272427 0.000000 0.323861
#
# Coordination Sequence:
#
# PCOD8096047 Si02
#       8
#     8   8   8   8   8   8   8   8
#     4  10  21  36  54  81 110 142 185 225 269 326
#     4  11  22  36  53  78 111 148 188 227 269 321
#     4  10  21  35  49  72 108 145 182 222 269 316
#     4   9  19  37  59  83 112 138 171 225 278 329
#     4  10  21  38  58  82 111 144 185 229 274 327
#     4   9  19  37  62  85 107 139 176 221 279 333
#     4  10  20  33  51  76 105 140 184 223 262 317
#     4  10  20  36  54  75 109 148 183 223 268 318
#
# _framework density 18.009875000000001
#
# number of rings (size 3 to 8) (size 9 to 14) (size 15 to 20)
#    0.000    2.125    2.500    0.375    1.750    3.250 
#    0.000    0.625    0.000    3.750    0.000    0.000 
#    0.000    0.000    0.000    0.000    0.000    0.000 
#
# Total GULP energy -396657.493044 kJ/mol
# GULP energy per Si atom -12395.546658 kJ/mol
# Density = 1.796888 g / cm^3
# Si number density = 18.009875 Si / 1000 Ang^3
#
#
#
# Elastic Constant Matrix: (Units=GPa)
#
#
# Indices 1 2 3 4 5 6 
#
# 1 118.3403 53.3576 56.2462 0.0000 -5.5456 0.0000
# 2 53.3576 88.5688 57.1456 0.0000 1.6123 0.0000
# 3 56.2462 57.1456 114.5462 0.0000 3.6003 0.0000
# 4 0.0000 0.0000 0.0000 30.1261 0.0000 -1.7823
# 5 -5.5456 1.6123 3.6003 0.0000 25.7259 0.0000
# 6 0.0000 0.0000 0.0000 -1.7823 0.0000 30.0777
#
#
#
# Elastic Compliance Matrix: (Units=1/GPa)
#
#
# Indices 1 2 3 4 5 6 
#
# 1 0.012817 -0.005387 -0.003720 0.000000 0.003621 0.000000
# 2 -0.005387 0.018915 -0.006747 0.000000 -0.001403 0.000000
# 3 -0.003720 -0.006747 0.013996 0.000000 -0.002338 0.000000
# 4 0.000000 0.000000 0.000000 0.033311 0.000000 0.001974
# 5 0.003621 -0.001403 -0.002338 0.000000 0.040067 0.000000
# 6 0.000000 0.000000 0.000000 0.001974 0.000000 0.033364
#
#
# Mechanical properties :
#
#
# Convention : Reuss Voigt Hill
#
# Bulk Modulus (GPa) = 71.32719 72.77268 72.04993
# Shear Modulus (GPa) = 26.47587 27.49965 26.98776
#
# Velocity S-wave (km/s) = 3.83832 3.91182 3.87524
# Velocity P-wave (km/s) = 7.70286 7.80371 7.75345
#
# Compressibility (1/GPa) = 0.01401990
#
# Stress axis : x y z
#
# Youngs Moduli (GPa) = 78.02192 52.86802 71.44872
#
# Poissons Ratio (x) = 0.28482 0.26577
# Poissons Ratio (y) = 0.42034 0.48206
# Poissons Ratio (z) = 0.29022 0.35670
#
# Static dielectric constant tensor:
#      x y z
#    x 3.076060 0.000000 -0.058170 
#    y 0.000000 3.798770 0.000000 
#    z -0.058170 0.000000 3.251980 
# 
# 
# High freq. dielectric constant tensor:
#      x y z
#    x 1.684200 0.000000 -0.004710 
#    y 0.000000 1.704270 0.000000 
#    z -0.004710 0.000000 1.693780 
# 
# From -- ./inp_files/250016.got.cif
#   From: 2010.06.25/outbox.cif.g09.slc.cpg/sg12_126_cif.got.tgz:250016.got - 2010.06.28 00:19:55.
