data_PCOD8096139
_publ_section_title
;
Structure prediction by ZEFSAII (Michael W. Deem and Ramdas Pophale) SiO2 
 PCOD8096139
Probable space group: C 2/M
;
_chemical_formula_sum "Si O2"
_cell_formula_units_Z 64
_cell_length_a 23.716340
_cell_length_b 8.952250
_cell_length_c 28.832869
_cell_angle_alpha 90.000000
_cell_angle_beta 149.215772
_cell_angle_gamma 90.000000
_cell_volume 3133.094094
_symmetry_space_group_name_H-M "C 2/M"
_symmetry_group_IT_number 12
_symmetry_cell_setting 'monoclinic'
loop_
_space_group_symop_operation_xyz
x,y,z
-x,y,-z
-x,-y,-z
x,-y,z
1/2+x,1/2+y,z
1/2-x,1/2+y,-z
1/2-x,1/2-y,-z
1/2+x,1/2-y,z
loop_
_atom_site_type_symbol
_atom_site_label
_atom_site_fract_x
_atom_site_fract_y
_atom_site_fract_z
Si Si1 0.694206 0.677570 0.005705
Si Si2 0.267987 0.173117 0.777796
Si Si3 0.460394 0.174222 0.848292
Si Si4 0.801165 0.175844 0.170127
Si Si5 0.065619 0.329427 0.590144
Si Si6 0.158806 0.674572 0.328121
Si Si7 0.636335 0.166207 0.490360
Si Si8 0.972985 0.325551 0.678001
O O1 0.703103 0.500000 0.007305
O O2 0.756136 0.730111 0.095420
O O3 0.750000 0.750000 0.000000
O O4 0.567992 0.725085 0.922108
O O5 0.391990 0.205222 0.847125
O O6 0.261991 0.224461 0.827232
O O7 0.180583 0.250537 0.682151
O O8 0.239211 0.000000 0.753942
O O9 0.381434 0.225031 0.750600
O O10 0.494266 0.000000 0.868229
O O11 0.927909 0.218028 0.266276
O O12 0.786857 0.000000 0.150184
O O13 0.094805 0.500000 0.598780
O O14 0.000000 0.257870 0.500000
O O15 0.988249 0.313983 0.580056
O O16 0.163349 0.500000 0.336025
O O17 0.282005 0.727725 0.424509
O O18 0.071936 0.734033 0.304642
O O19 0.627400 0.198352 0.429187
O O20 0.680109 0.000000 0.530776
O O21 0.010107 0.500000 0.705279
#
# Coordination Sequence:
#
# PCOD8096139 Si02
#       8
#     8   8   8   8   8   8   8   8
#     4  12  26  45  70  98 125 158 199 248 307 372
#     4  10  22  39  61  89 123 164 208 254 307 362
#     4  10  22  42  63  89 125 161 202 255 308 362
#     4  11  23  40  64  93 123 162 208 256 309 368
#     4  10  20  34  54  81 117 163 210 257 309 364
#     4  10  21  35  56  83 114 155 201 249 306 368
#     4  10  20  33  51  79 117 157 200 252 308 365
#     4  10  20  36  56  83 118 158 203 255 312 368
#
# _framework density 20.427091999999998
#
# number of rings (size 3 to 8) (size 9 to 14) (size 15 to 20)
#    0.000    1.625    1.250    3.375    0.000    4.750 
#    0.000    2.500    0.000    0.000    0.000    0.000 
#    0.000    0.000    0.000    0.000    0.000    0.000 
#
# Total GULP energy -396814.417701 kJ/mol
# GULP energy per Si atom -12400.450553 kJ/mol
# Density = 2.038060 g / cm^3
# Si number density = 20.427092 Si / 1000 Ang^3
#
#
#
# Elastic Constant Matrix: (Units=GPa)
#
#
# Indices 1 2 3 4 5 6 
#
# 1 112.3445 34.9303 47.2419 0.0001 -9.9244 0.0000
# 2 34.9303 60.0913 43.8824 0.0002 -3.5843 -0.0002
# 3 47.2419 43.8824 101.1167 -0.0005 0.3027 -0.0005
# 4 0.0001 0.0002 -0.0005 39.7328 -0.0002 3.3534
# 5 -9.9244 -3.5843 0.3027 -0.0002 31.6098 -0.0001
# 6 0.0000 -0.0002 -0.0005 3.3534 -0.0001 24.2120
#
#
#
# Elastic Compliance Matrix: (Units=1/GPa)
#
#
# Indices 1 2 3 4 5 6 
#
# 1 0.012085 -0.003942 -0.003946 0.000000 0.003385 0.000000
# 2 -0.003942 0.025910 -0.009408 0.000000 0.001791 0.000000
# 3 -0.003946 -0.009408 0.015823 0.000000 -0.002457 0.000000
# 4 0.000000 0.000000 0.000000 0.025466 0.000000 -0.003527
# 5 0.003385 0.001791 -0.002457 0.000000 0.032925 0.000000
# 6 0.000000 0.000000 0.000000 -0.003527 0.000000 0.041790
#
#
# Mechanical properties :
#
#
# Convention : Reuss Voigt Hill
#
# Bulk Modulus (GPa) = 52.00952 58.40685 55.20819
# Shear Modulus (GPa) = 25.64116 28.94411 27.29263
#
# Velocity S-wave (km/s) = 3.54680 3.76832 3.65924
# Velocity P-wave (km/s) = 6.50303 6.89845 6.70365
#
# Compressibility (1/GPa) = 0.01922725
#
# Stress axis : x y z
#
# Youngs Moduli (GPa) = 82.74766 38.59559 63.19807
#
# Poissons Ratio (x) = 0.15212 0.24936
# Poissons Ratio (y) = 0.32615 0.59457
# Poissons Ratio (z) = 0.32650 0.36311
#
# Static dielectric constant tensor:
#      x y z
#    x 4.132590 0.000000 -0.230620 
#    y 0.000000 3.600960 0.000000 
#    z -0.230620 0.000000 3.680870 
# 
# 
# High freq. dielectric constant tensor:
#      x y z
#    x 1.816880 0.000000 -0.006270 
#    y 0.000000 1.785130 0.000000 
#    z -0.006270 0.000000 1.796490 
# 
# From -- ./inp_files/382508.got.cif
#   From: 2010.06.25/outbox.cif.g09.slc.cpg/sg12_192_cif.got.tgz:382508.got - 2010.06.28 00:19:55.
