data_PCOD8096624
_publ_section_title
;
Structure prediction by ZEFSAII (Michael W. Deem and Ramdas Pophale) SiO2 
 PCOD8096624
Probable space group: C 2/M
;
_chemical_formula_sum "Si O2"
_cell_formula_units_Z 56
_cell_length_a 20.498496
_cell_length_b 8.851965
_cell_length_c 29.937138
_cell_angle_alpha 90.000000
_cell_angle_beta 33.240196
_cell_angle_gamma 90.000000
_cell_volume 2977.635137
_symmetry_space_group_name_H-M "C 2/M"
_symmetry_group_IT_number 12
_symmetry_cell_setting 'monoclinic'
loop_
_space_group_symop_operation_xyz
x,y,z
-x,y,-z
-x,-y,-z
x,-y,z
1/2+x,1/2+y,z
1/2-x,1/2+y,-z
1/2-x,1/2-y,-z
1/2+x,1/2-y,z
loop_
_atom_site_type_symbol
_atom_site_label
_atom_site_fract_x
_atom_site_fract_y
_atom_site_fract_z
Si Si1 0.415436 0.674746 0.165539
Si Si2 0.575426 0.324701 0.584390
Si Si3 0.162093 0.676222 0.273394
Si Si4 0.041930 0.175733 0.756042
Si Si5 0.929255 0.678026 0.997222
Si Si6 0.314649 0.822133 0.842343
Si Si7 0.693991 0.824904 0.599765
O O1 0.438031 0.500000 0.140481
O O2 0.279156 0.718403 0.234057
O O3 0.442764 0.711190 0.200910
O O4 0.501435 0.777186 0.086971
O O5 0.575585 0.500000 0.597933
O O6 0.445550 0.270940 0.642874
O O7 0.609631 0.226322 0.607686
O O8 0.668133 0.294694 0.491131
O O9 0.131506 0.500000 0.294035
O O10 0.180093 0.728964 0.212110
O O11 0.161584 0.230317 0.662396
O O12 0.930813 0.268277 0.801531
O O13 0.021384 0.000000 0.758643
O O14 0.915207 0.500000 0.007590
O O15 0.799259 0.749372 0.069091
O O16 0.000000 0.740048 0.000000
O O17 0.303353 0.000000 0.853120
O O18 0.668112 0.000000 0.623528
#
# Coordination Sequence:
#
# PCOD8096624 Si02
#       7
#     8   8   8   8   8   8   8
#     4  10  23  42  61  83 115 155 193 233 287 344
#     4  10  20  33  56  87 116 148 192 241 283 330
#     4  10  20  36  59  86 114 149 194 236 283 342
#     4  11  23  39  60  86 117 152 192 238 285 339
#     4  11  23  38  60  90 118 147 190 241 287 334
#     4  11  22  37  62  87 115 153 190 235 286 341
#     4  10  20  35  55  83 118 154 189 232 288 342
#
# _framework density 18.806871999999998
#
# number of rings (size 3 to 8) (size 9 to 14) (size 15 to 20)
#    0.000    1.571    2.857    2.143    0.000    5.143 
#    0.000    0.714    0.000    4.286    0.000    0.000 
#    0.000    0.000    0.000    0.000    0.000    0.000 
#
# Total GULP energy -347353.316274 kJ/mol
# GULP energy per Si atom -12405.475581 kJ/mol
# Density = 1.876407 g / cm^3
# Si number density = 18.806872 Si / 1000 Ang^3
#
#
#
# Elastic Constant Matrix: (Units=GPa)
#
#
# Indices 1 2 3 4 5 6 
#
# 1 88.5132 29.5800 36.9033 0.0072 1.0103 -0.0258
# 2 29.5800 57.0403 45.1508 0.0120 2.4522 0.0030
# 3 36.9033 45.1508 117.6060 0.0006 -2.4423 0.0005
# 4 0.0072 0.0120 0.0006 37.9896 0.0016 -1.6287
# 5 1.0103 2.4522 -2.4423 0.0016 28.3792 0.0031
# 6 -0.0258 0.0030 0.0005 -1.6287 0.0031 26.2343
#
#
#
# Elastic Compliance Matrix: (Units=1/GPa)
#
#
# Indices 1 2 3 4 5 6 
#
# 1 0.014096 -0.005452 -0.002335 0.000000 -0.000232 0.000015
# 2 -0.005452 0.027553 -0.008929 -0.000008 -0.002955 -0.000008
# 3 -0.002335 -0.008929 0.012704 0.000003 0.001948 -0.000002
# 4 0.000000 -0.000008 0.000003 0.026393 -0.000001 0.001639
# 5 -0.000232 -0.002955 0.001948 -0.000001 0.035668 -0.000004
# 6 0.000015 -0.000008 -0.000002 0.001639 -0.000004 0.038220
#
#
# Mechanical properties :
#
#
# Convention : Reuss Voigt Hill
#
# Bulk Modulus (GPa) = 47.79588 54.04752 50.92170
# Shear Modulus (GPa) = 25.63585 28.62232 27.12909
#
# Velocity S-wave (km/s) = 3.69604 3.90540 3.80216
# Velocity P-wave (km/s) = 6.60935 7.00976 6.81250
#
# Compressibility (1/GPa) = 0.02092231
#
# Stress axis : x y z
#
# Youngs Moduli (GPa) = 70.94348 36.29328 78.71509
#
# Poissons Ratio (x) = 0.19785 0.18380
# Poissons Ratio (y) = 0.38675 0.70284
# Poissons Ratio (z) = 0.16565 0.32406
#
# Static dielectric constant tensor:
#      x y z
#    x 3.297000 0.000000 -0.048540 
#    y 0.000000 3.460940 0.000000 
#    z -0.048540 0.000000 3.649910 
# 
# 
# High freq. dielectric constant tensor:
#      x y z
#    x 1.710960 0.000000 -0.008140 
#    y 0.000000 1.739030 0.000000 
#    z -0.008140 0.000000 1.744500 
# 
# From -- ./inp_files/363133.got.cif
#   From: 2010.06.25/outbox.cif.g09.slc.cpg/sg12_182_cif.got.tgz:363133.got - 2010.06.28 00:19:55.
