data_PCOD8096537
_publ_section_title
;
Structure prediction by ZEFSAII (Michael W. Deem and Ramdas Pophale) SiO2 
 PCOD8096537
Probable space group: C 2/M
;
_chemical_formula_sum "Si O2"
_cell_formula_units_Z 64
_cell_length_a 28.660357
_cell_length_b 9.320048
_cell_length_c 13.993739
_cell_angle_alpha 90.000000
_cell_angle_beta 120.692742
_cell_angle_gamma 90.000000
_cell_volume 3214.326716
_symmetry_space_group_name_H-M "C 2/M"
_symmetry_group_IT_number 12
_symmetry_cell_setting 'monoclinic'
loop_
_space_group_symop_operation_xyz
x,y,z
-x,y,-z
-x,-y,-z
x,-y,z
1/2+x,1/2+y,z
1/2-x,1/2+y,-z
1/2-x,1/2-y,-z
1/2+x,1/2-y,z
loop_
_atom_site_type_symbol
_atom_site_label
_atom_site_fract_x
_atom_site_fract_y
_atom_site_fract_z
Si Si1 0.597725 0.338669 0.260807
Si Si2 0.801404 0.829924 0.512981
Si Si3 0.661929 0.335780 0.657532
Si Si4 0.942748 0.662979 0.470509
Si Si5 0.597407 0.833050 0.879365
Si Si6 0.300545 0.332221 0.097228
Si Si7 0.980820 0.658000 0.715191
Si Si8 0.558928 0.336915 0.020094
O O1 0.592126 0.500000 0.291000
O O2 0.648964 0.271768 0.369997
O O3 0.540628 0.266281 0.228103
O O4 0.603306 0.327550 0.152378
O O5 0.750000 0.750000 0.500000
O O6 0.809476 0.784091 0.410426
O O7 0.793062 0.000000 0.514440
O O8 0.644166 0.500000 0.627487
O O9 0.607677 0.248341 0.624184
O O10 0.701638 0.314219 0.789762
O O11 0.938939 0.500000 0.427753
O O12 0.941549 0.670213 0.583486
O O13 0.000000 0.732980 0.500000
O O14 0.645055 0.736660 0.887587
O O15 0.544307 0.813595 0.755846
O O16 0.615618 0.000000 0.905241
O O17 0.579272 0.777064 0.964209
O O18 0.298545 0.500000 0.066825
O O19 0.250000 0.250000 0.000000
O O20 0.976552 0.500000 0.755898
O O21 0.557883 0.500000 0.977770
O O22 0.500000 0.296105 0.000000
#
# Coordination Sequence:
#
# PCOD8096537 Si02
#       8
#     8   8   8   8   8   8   8   8
#     4  10  20  36  58  83 116 156 197 246 301 356
#     4  10  22  40  61  87 119 154 197 245 295 355
#     4  10  22  41  64  90 119 153 199 249 299 356
#     4  10  20  34  55  86 123 159 197 242 295 357
#     4  11  23  39  61  90 125 164 206 253 304 362
#     4  11  25  45  67  90 119 158 205 256 308 360
#     4  10  20  33  54  85 120 157 197 242 297 358
#     4  10  20  35  58  88 122 162 205 251 305 364
#
# _framework density 19.910858999999999
#
# number of rings (size 3 to 8) (size 9 to 14) (size 15 to 20)
#    0.000    1.750    2.500    1.500    0.000    5.500 
#    0.000    2.500    0.000    0.000    0.000    0.000 
#    0.000    0.000    0.000    0.000    0.000    0.000 
#
# Total GULP energy -396735.126916 kJ/mol
# GULP energy per Si atom -12397.972716 kJ/mol
# Density = 1.986554 g / cm^3
# Si number density = 19.910859 Si / 1000 Ang^3
#
#
#
# Elastic Constant Matrix: (Units=GPa)
#
#
# Indices 1 2 3 4 5 6 
#
# 1 102.1222 48.3650 37.2162 0.0000 8.4669 0.0000
# 2 48.3650 86.0867 41.9230 0.0000 8.5840 0.0000
# 3 37.2162 41.9230 106.8579 0.0000 9.7207 0.0000
# 4 0.0000 0.0000 0.0000 27.1360 0.0000 2.6020
# 5 8.4669 8.5840 9.7207 0.0000 27.9881 0.0000
# 6 0.0000 0.0000 0.0000 2.6020 0.0000 39.1902
#
#
#
# Elastic Compliance Matrix: (Units=1/GPa)
#
#
# Indices 1 2 3 4 5 6 
#
# 1 0.013792 -0.006589 -0.002089 0.000000 -0.001426 0.000000
# 2 -0.006589 0.017683 -0.004472 0.000000 -0.001877 0.000000
# 3 -0.002089 -0.004472 0.012038 0.000000 -0.002178 0.000000
# 4 0.000000 0.000000 0.000000 0.037088 0.000000 -0.002462
# 5 -0.001426 -0.001877 -0.002178 0.000000 0.037493 0.000000
# 6 0.000000 0.000000 0.000000 -0.002462 0.000000 0.025680
#
#
# Mechanical properties :
#
#
# Convention : Reuss Voigt Hill
#
# Bulk Modulus (GPa) = 58.09294 61.11945 59.60620
# Shear Modulus (GPa) = 28.43949 30.03369 29.23659
#
# Velocity S-wave (km/s) = 3.78344 3.88804 3.83609
# Velocity P-wave (km/s) = 6.95167 7.13575 7.04431
#
# Compressibility (1/GPa) = 0.01721380
#
# Stress axis : x y z
#
# Youngs Moduli (GPa) = 72.50405 56.55110 83.06916
#
# Poissons Ratio (x) = 0.37264 0.17350
# Poissons Ratio (y) = 0.47776 0.37147
# Poissons Ratio (z) = 0.15143 0.25289
#
# Static dielectric constant tensor:
#      x y z
#    x 3.430650 0.000000 0.001820 
#    y 0.000000 3.592360 0.000000 
#    z 0.001820 0.000000 3.911410 
# 
# 
# High freq. dielectric constant tensor:
#      x y z
#    x 1.762810 0.000000 -0.002550 
#    y 0.000000 1.772800 0.000000 
#    z -0.002550 0.000000 1.790240 
# 
# From -- ./inp_files/249215.got.cif
#   From: 2010.06.25/outbox.cif.g09.slc.cpg/sg12_125_cif.got.tgz:249215.got - 2010.06.28 00:19:55.
