data_PCOD8096885
_publ_section_title
;
Structure prediction by ZEFSAII (Michael W. Deem and Ramdas Pophale) SiO2 
 PCOD8096885
Probable space group: C 2/M
;
_chemical_formula_sum "Si O2"
_cell_formula_units_Z 56
_cell_length_a 29.272655
_cell_length_b 9.351911
_cell_length_c 10.131721
_cell_angle_alpha 90.000000
_cell_angle_beta 114.763284
_cell_angle_gamma 90.000000
_cell_volume 2518.567477
_symmetry_space_group_name_H-M "C 2/M"
_symmetry_group_IT_number 12
_symmetry_cell_setting 'monoclinic'
loop_
_space_group_symop_operation_xyz
x,y,z
-x,y,-z
-x,-y,-z
x,-y,z
1/2+x,1/2+y,z
1/2-x,1/2+y,-z
1/2-x,1/2-y,-z
1/2+x,1/2-y,z
loop_
_atom_site_type_symbol
_atom_site_label
_atom_site_fract_x
_atom_site_fract_y
_atom_site_fract_z
Si Si1 0.836816 0.841445 0.209918
Si Si2 0.205367 0.657902 0.501069
Si Si3 0.862787 0.161515 0.955250
Si Si4 0.996243 0.166380 0.648516
Si Si5 0.249404 0.841435 0.163573
Si Si6 0.118073 0.835606 0.465287
Si Si7 0.542016 0.168845 0.942311
O O1 0.871814 0.836888 0.123885
O O2 0.784211 0.758436 0.111455
O O3 0.870938 0.785386 0.371066
O O4 0.819058 0.000000 0.224557
O O5 0.203448 0.500000 0.433816
O O6 0.250000 0.750000 0.500000
O O7 0.214502 0.645913 0.667212
O O8 0.152368 0.738769 0.409730
O O9 0.904943 0.264241 0.942307
O O10 0.869259 0.000000 0.906499
O O11 0.805648 0.219086 0.860198
O O12 0.939973 0.190849 0.633644
O O13 0.000000 0.215230 0.500000
O O14 0.029930 0.262798 0.785155
O O15 0.012399 0.000000 0.679994
O O16 0.240790 0.000000 0.090237
O O17 0.132752 0.000000 0.458523
O O18 0.548099 0.000000 0.932032
O O19 0.500000 0.207418 0.000000
#
# Coordination Sequence:
#
# PCOD8096885 Si02
#       7
#     8   8   8   8   8   8   8
#     4   9  17  31  54  84 115 143 175 220 276 341
#     4  10  20  34  51  74 106 142 182 226 273 331
#     4  10  20  36  58  81 108 147 191 233 282 341
#     4  10  21  40  67  94 118 150 197 248 297 355
#     4   9  19  33  51  79 111 141 178 223 273 336
#     4   9  18  33  54  81 111 142 178 225 282 340
#     4  11  26  44  59  83 120 158 201 251 300 352
#
# _framework density 22.234860999999999
#
# number of rings (size 3 to 8) (size 9 to 14) (size 15 to 20)
#    0.000    2.286    0.000    2.143    0.000    7.143 
#    0.000    7.143    0.000    0.000    0.000    0.000 
#    0.000    0.000    0.000    0.000    0.000    0.000 
#
# Total GULP energy -347041.285062 kJ/mol
# GULP energy per Si atom -12394.331609 kJ/mol
# Density = 2.218425 g / cm^3
# Si number density = 22.234861 Si / 1000 Ang^3
#
#
#
# Elastic Constant Matrix: (Units=GPa)
#
#
# Indices 1 2 3 4 5 6 
#
# 1 126.8862 69.1118 2.5137 0.0000 15.9585 0.0000
# 2 69.1118 109.2191 10.7278 0.0000 12.8198 0.0000
# 3 2.5137 10.7278 33.9205 0.0000 12.9745 0.0000
# 4 0.0000 0.0000 0.0000 21.9130 0.0000 4.8597
# 5 15.9585 12.8198 12.9745 0.0000 30.5875 0.0000
# 6 0.0000 0.0000 0.0000 4.8597 0.0000 38.1393
#
#
#
# Elastic Compliance Matrix: (Units=1/GPa)
#
#
# Indices 1 2 3 4 5 6 
#
# 1 0.012647 -0.007772 0.003341 0.000000 -0.004758 0.000000
# 2 -0.007772 0.014498 -0.003863 0.000000 -0.000383 0.000000
# 3 0.003341 -0.003863 0.036410 0.000000 -0.015568 0.000000
# 4 0.000000 0.000000 0.000000 0.046962 0.000000 -0.005984
# 5 -0.004758 -0.000383 -0.015568 0.000000 0.041939 0.000000
# 6 0.000000 0.000000 0.000000 -0.005984 0.000000 0.026982
#
#
# Mechanical properties :
#
#
# Convention : Reuss Voigt Hill
#
# Bulk Modulus (GPa) = 21.29209 48.30361 34.79785
# Shear Modulus (GPa) = 23.62030 30.63946 27.12988
#
# Velocity S-wave (km/s) = 3.26284 3.71616 3.49686
# Velocity P-wave (km/s) = 4.87767 6.33913 5.65580
#
# Compressibility (1/GPa) = 0.04696581
#
# Stress axis : x y z
#
# Youngs Moduli (GPa) = 79.07247 68.97301 27.46531
#
# Poissons Ratio (x) = 0.53608 -0.09175
# Poissons Ratio (y) = 0.61457 0.10610
# Poissons Ratio (z) = -0.26416 0.26643
#
# Static dielectric constant tensor:
#      x y z
#    x 3.962830 0.000000 0.095860 
#    y 0.000000 4.127130 0.000000 
#    z 0.095860 0.000000 4.031930 
# 
# 
# High freq. dielectric constant tensor:
#      x y z
#    x 1.879020 0.000000 0.012370 
#    y 0.000000 1.857860 0.000000 
#    z 0.012370 0.000000 1.874760 
# 
# From -- ./inp_files/187263.got.cif
#   From: 2010.06.25/outbox.cif.g09.slc.cpg/sg12_94_cif.got.tgz:187263.got - 2010.06.28 00:19:55.
