data_PCOD8096176
_publ_section_title
;
Structure prediction by ZEFSAII (Michael W. Deem and Ramdas Pophale) SiO2 
 PCOD8096176
Probable space group: C 2/M
;
_chemical_formula_sum "Si O2"
_cell_formula_units_Z 56
_cell_length_a 14.617485
_cell_length_b 9.036244
_cell_length_c 24.322016
_cell_angle_alpha 90.000000
_cell_angle_beta 116.275478
_cell_angle_gamma 90.000000
_cell_volume 2880.684603
_symmetry_space_group_name_H-M "C 2/M"
_symmetry_group_IT_number 12
_symmetry_cell_setting 'monoclinic'
loop_
_space_group_symop_operation_xyz
x,y,z
-x,y,-z
-x,-y,-z
x,-y,z
1/2+x,1/2+y,z
1/2-x,1/2+y,-z
1/2-x,1/2-y,-z
1/2+x,1/2-y,z
loop_
_atom_site_type_symbol
_atom_site_label
_atom_site_fract_x
_atom_site_fract_y
_atom_site_fract_z
Si Si1 0.408070 0.170074 0.717363
Si Si2 0.134162 0.671723 0.818473
Si Si3 0.688035 0.673279 0.408887
Si Si4 0.889831 0.173846 0.492518
Si Si5 0.718605 0.337022 0.937873
Si Si6 0.930494 0.338395 0.936401
Si Si7 0.684563 0.176286 0.193083
O O1 0.524373 0.197816 0.763596
O O2 0.381137 0.273919 0.659557
O O3 0.337976 0.216434 0.750164
O O4 0.388747 0.000000 0.695927
O O5 0.160203 0.500000 0.833293
O O6 0.136999 0.746610 0.879769
O O7 0.212079 0.742410 0.795877
O O8 0.706555 0.500000 0.409969
O O9 0.798865 0.749481 0.434504
O O10 0.625772 0.715086 0.447602
O O11 0.000000 0.231566 0.500000
O O12 0.880831 0.000000 0.479664
O O13 0.674871 0.500000 0.941516
O O14 0.816888 0.355988 0.927102
O O15 0.750000 0.250000 0.000000
O O16 0.983618 0.500000 0.943469
O O17 0.912504 0.267561 0.871048
O O18 0.000000 0.247944 0.000000
O O19 0.696179 0.000000 0.187794
#
# Coordination Sequence:
#
# PCOD8096176 Si02
#       7
#     8   8   8   8   8   8   8
#     4  10  22  38  58  80 111 157 194 224 274 344
#     4  10  21  37  56  79 109 143 184 234 285 337
#     4  10  21  36  57  88 119 147 187 238 278 320
#     4   9  19  38  62  86 117 155 190 226 275 333
#     4  10  20  33  52  76 104 137 176 227 284 343
#     4   8  15  28  50  73  93 124 171 222 268 327
#     4   9  19  36  55  76 104 142 186 227 276 336
#
# _framework density 19.439824000000002
#
# number of rings (size 3 to 8) (size 9 to 14) (size 15 to 20)
#    0.000    2.571    0.000    2.143    2.000    3.714 
#    0.000    4.286    0.000    2.143    0.000    0.000 
#    0.000    0.000    0.000    0.000    0.000    0.000 
#
# Total GULP energy -347005.881634 kJ/mol
# GULP energy per Si atom -12393.067201 kJ/mol
# Density = 1.939558 g / cm^3
# Si number density = 19.439824 Si / 1000 Ang^3
#
#
#
# Elastic Constant Matrix: (Units=GPa)
#
#
# Indices 1 2 3 4 5 6 
#
# 1 94.4786 39.5695 41.2006 0.0000 2.9267 0.0000
# 2 39.5695 75.6431 47.1142 0.0000 -1.1725 0.0000
# 3 41.2006 47.1142 124.9178 0.0000 -4.5468 0.0000
# 4 0.0000 0.0000 0.0000 34.4556 0.0000 1.4003
# 5 2.9267 -1.1725 -4.5468 0.0000 21.3815 0.0000
# 6 0.0000 0.0000 0.0000 1.4003 0.0000 26.2154
#
#
#
# Elastic Compliance Matrix: (Units=1/GPa)
#
#
# Indices 1 2 3 4 5 6 
#
# 1 0.014269 -0.005898 -0.002585 0.000000 -0.002826 0.000000
# 2 -0.005898 0.019721 -0.005466 0.000000 0.000726 0.000000
# 3 -0.002585 -0.005466 0.011007 0.000000 0.002395 0.000000
# 4 0.000000 0.000000 0.000000 0.029086 0.000000 -0.001554
# 5 -0.002826 0.000726 0.002395 0.000000 0.047705 0.000000
# 6 0.000000 0.000000 0.000000 -0.001554 0.000000 0.038229
#
#
# Mechanical properties :
#
#
# Convention : Reuss Voigt Hill
#
# Bulk Modulus (GPa) = 58.48369 61.20088 59.84229
# Shear Modulus (GPa) = 25.82439 27.55419 26.68929
#
# Velocity S-wave (km/s) = 3.64871 3.76893 3.70931
# Velocity P-wave (km/s) = 6.92103 7.10566 7.01395
#
# Compressibility (1/GPa) = 0.01709878
#
# Stress axis : x y z
#
# Youngs Moduli (GPa) = 70.07985 50.70631 90.85512
#
# Poissons Ratio (x) = 0.29909 0.23482
# Poissons Ratio (y) = 0.41336 0.49664
# Poissons Ratio (z) = 0.18113 0.27717
#
# Static dielectric constant tensor:
#      x y z
#    x 3.591620 0.000000 -0.134250 
#    y 0.000000 3.493410 0.000000 
#    z -0.134250 0.000000 3.723370 
# 
# 
# High freq. dielectric constant tensor:
#      x y z
#    x 1.750790 0.000000 -0.001240 
#    y 0.000000 1.741510 0.000000 
#    z -0.001240 0.000000 1.766130 
# 
# From -- ./inp_files/339046.got.cif
#   From: 2010.06.25/outbox.cif.g09.slc.cpg/sg12_170_cif.got.tgz:339046.got - 2010.06.28 00:19:55.
