data_PCOD8096508
_publ_section_title
;
Structure prediction by ZEFSAII (Michael W. Deem and Ramdas Pophale) SiO2 
 PCOD8096508
Probable space group: C 2/M
;
_chemical_formula_sum "Si O2"
_cell_formula_units_Z 64
_cell_length_a 15.328947
_cell_length_b 9.250434
_cell_length_c 33.028056
_cell_angle_alpha 90.000000
_cell_angle_beta 133.787859
_cell_angle_gamma 90.000000
_cell_volume 3380.949026
_symmetry_space_group_name_H-M "C 2/M"
_symmetry_group_IT_number 12
_symmetry_cell_setting 'monoclinic'
loop_
_space_group_symop_operation_xyz
x,y,z
-x,y,-z
-x,-y,-z
x,-y,z
1/2+x,1/2+y,z
1/2-x,1/2+y,-z
1/2-x,1/2-y,-z
1/2+x,1/2-y,z
loop_
_atom_site_type_symbol
_atom_site_label
_atom_site_fract_x
_atom_site_fract_y
_atom_site_fract_z
Si Si1 0.101717 0.828565 0.062557
Si Si2 0.973152 0.166064 0.374336
Si Si3 0.129483 0.671227 0.867527
Si Si4 0.764636 0.663659 0.746315
Si Si5 0.436814 0.327827 0.858182
Si Si6 0.082598 0.671694 0.563359
Si Si7 0.852670 0.166441 0.638255
Si Si8 0.460754 0.838112 0.742135
O O1 0.232207 0.775891 0.088471
O O2 0.074740 0.775855 0.099248
O O3 0.099916 0.000000 0.061090
O O4 0.000000 0.763831 0.000000
O O5 0.870318 0.210776 0.308865
O O6 0.972107 0.265825 0.413121
O O7 0.101280 0.188574 0.392935
O O8 0.953919 0.000000 0.381506
O O9 0.114404 0.500000 0.870847
O O10 0.058633 0.756797 0.879704
O O11 0.074247 0.711042 0.805918
O O12 0.770060 0.500000 0.765288
O O13 0.817456 0.772358 0.796704
O O14 0.839770 0.674926 0.729318
O O15 0.444626 0.500000 0.856405
O O16 0.080882 0.500000 0.566007
O O17 0.218061 0.731510 0.599181
O O18 0.000000 0.726258 0.500000
O O19 0.948371 0.238612 0.699158
O O20 0.850604 0.000000 0.649658
O O21 0.480970 0.000000 0.732858
#
# Coordination Sequence:
#
# PCOD8096508 Si02
#       8
#     8   8   8   8   8   8   8   8
#     4   9  19  36  56  78 108 148 189 224 267 327
#     4  10  21  37  56  81 109 142 182 222 269 325
#     4   9  19  36  55  77 109 147 179 221 277 326
#     4   9  18  34  54  77 111 145 173 216 276 330
#     4  10  20  33  54  83 108 137 183 229 267 319
#     4  10  22  40  58  79 112 148 182 225 272 317
#     4  10  21  35  54  81 110 141 178 223 271 315
#     4   9  17  31  53  78 107 140 177 217 265 327
#
# _framework density 18.929597000000001
#
# number of rings (size 3 to 8) (size 9 to 14) (size 15 to 20)
#    0.000    2.500    1.250    1.125    1.750    4.250 
#    0.000    1.250    0.000    2.625    0.000    0.000 
#    0.000    0.000    0.000    0.000    0.000    0.000 
#
# Total GULP energy -396790.698090 kJ/mol
# GULP energy per Si atom -12399.709315 kJ/mol
# Density = 1.888651 g / cm^3
# Si number density = 18.929597 Si / 1000 Ang^3
#
#
#
# Elastic Constant Matrix: (Units=GPa)
#
#
# Indices 1 2 3 4 5 6 
#
# 1 85.8511 31.4972 54.2412 0.0000 -10.5763 0.0000
# 2 31.4972 46.2650 36.5945 0.0000 -8.0779 0.0000
# 3 54.2412 36.5945 111.0905 0.0000 -8.1970 0.0000
# 4 0.0000 0.0000 0.0000 24.4127 0.0000 -3.2155
# 5 -10.5763 -8.0779 -8.1970 0.0000 25.1175 0.0000
# 6 0.0000 0.0000 0.0000 -3.2155 0.0000 24.9565
#
#
#
# Elastic Compliance Matrix: (Units=1/GPa)
#
#
# Indices 1 2 3 4 5 6 
#
# 1 0.018830 -0.006948 -0.006645 0.000000 0.003526 0.000000
# 2 -0.006948 0.032838 -0.007031 0.000000 0.005341 0.000000
# 3 -0.006645 -0.007031 0.014539 0.000000 -0.000314 0.000000
# 4 0.000000 0.000000 0.000000 0.041669 0.000000 0.005369
# 5 0.003526 0.005341 -0.000314 0.000000 0.042912 0.000000
# 6 0.000000 0.000000 0.000000 0.005369 0.000000 0.040761
#
#
# Mechanical properties :
#
#
# Convention : Reuss Voigt Hill
#
# Bulk Modulus (GPa) = 40.06424 54.20805 47.13615
# Shear Modulus (GPa) = 20.73673 22.95560 21.84617
#
# Velocity S-wave (km/s) = 3.31337 3.48614 3.40085
# Velocity P-wave (km/s) = 5.98738 6.70097 6.35420
#
# Compressibility (1/GPa) = 0.02495991
#
# Stress axis : x y z
#
# Youngs Moduli (GPa) = 53.10746 30.45207 68.78005
#
# Poissons Ratio (x) = 0.21157 0.45705
# Poissons Ratio (y) = 0.36897 0.48360
# Poissons Ratio (z) = 0.35290 0.21411
#
# Static dielectric constant tensor:
#      x y z
#    x 3.500280 0.000000 0.148230 
#    y 0.000000 3.242350 0.000000 
#    z 0.148230 0.000000 3.509310 
# 
# 
# High freq. dielectric constant tensor:
#      x y z
#    x 1.741760 0.000000 0.005530 
#    y 0.000000 1.714370 0.000000 
#    z 0.005530 0.000000 1.731020 
# 
# From -- ./inp_files/375635.got.cif
#   From: 2010.06.25/outbox.cif.g09.slc.cpg/sg12_188_cif.got.tgz:375635.got - 2010.06.28 00:19:55.
