data_PCOD8096605
_publ_section_title
;
Structure prediction by ZEFSAII (Michael W. Deem and Ramdas Pophale) SiO2 
 PCOD8096605
Probable space group: C 2/M
;
_chemical_formula_sum "Si O2"
_cell_formula_units_Z 56
_cell_length_a 13.528816
_cell_length_b 24.169483
_cell_length_c 9.647192
_cell_angle_alpha 90.000000
_cell_angle_beta 63.377005
_cell_angle_gamma 90.000000
_cell_volume 2820.026474
_symmetry_space_group_name_H-M "C 2/M"
_symmetry_group_IT_number 12
_symmetry_cell_setting 'monoclinic'
loop_
_space_group_symop_operation_xyz
x,y,z
-x,y,-z
-x,-y,-z
x,-y,z
1/2+x,1/2+y,z
1/2-x,1/2+y,-z
1/2-x,1/2-y,-z
1/2+x,1/2-y,z
loop_
_atom_site_type_symbol
_atom_site_label
_atom_site_fract_x
_atom_site_fract_y
_atom_site_fract_z
Si Si1 0.208006 0.060441 0.528077
Si Si2 0.093541 0.745903 0.682314
Si Si3 0.354470 0.794473 0.817572
Si Si4 0.396715 0.383059 0.649787
Si Si5 0.999195 0.062381 0.156382
Si Si6 0.723760 0.829866 0.404512
Si Si7 0.795911 0.304461 0.144171
O O1 0.143645 0.066094 0.422161
O O2 0.289239 0.112507 0.502880
O O3 0.125255 0.062349 0.709958
O O4 0.267930 0.000000 0.488747
O O5 0.147044 0.807464 0.675725
O O6 0.152794 0.719714 0.512797
O O7 0.108514 0.704951 0.803788
O O8 0.962202 0.745571 0.737888
O O9 0.335169 0.839572 0.707857
O O10 0.249221 0.755592 0.865370
O O11 0.347719 0.827980 0.968105
O O12 0.500000 0.355535 0.500000
O O13 0.424779 0.402470 0.787192
O O14 0.297519 0.340500 0.723984
O O15 0.046743 0.000000 0.120440
O O16 0.000000 0.088181 0.000000
#
# Coordination Sequence:
#
# PCOD8096605 Si02
#       7
#     8   8   8   8   8   8   8
#     4  10  20  36  55  81 114 148 189 237 280 333
#     4  10  20  37  57  79 116 147 185 228 282 333
#     4  10  22  35  54  80 118 145 180 236 279 336
#     4  10  20  33  56  79 111 150 185 229 278 336
#     4   9  19  33  51  80 112 144 183 228 285 338
#     4  10  21  35  57  88 109 147 194 224 279 345
#     4  10  21  36  52  85 109 146 192 218 283 348
#
# _framework density 19.857970999999999
#
# number of rings (size 3 to 8) (size 9 to 14) (size 15 to 20)
#    0.000    2.143    1.429    1.286    6.000    1.714 
#    0.000    0.000    0.000    1.714    0.000    1.000 
#    0.000    0.000    0.000    0.000    0.000    0.000 
#
# Total GULP energy -346905.003150 kJ/mol
# GULP energy per Si atom -12389.464398 kJ/mol
# Density = 1.981277 g / cm^3
# Si number density = 19.857971 Si / 1000 Ang^3
#
#
#
# Elastic Constant Matrix: (Units=GPa)
#
#
# Indices 1 2 3 4 5 6 
#
# 1 65.6373 11.0542 18.7203 0.0000 13.2446 0.0000
# 2 11.0542 70.2553 13.0748 0.0000 6.1767 0.0000
# 3 18.7203 13.0748 102.9983 0.0000 27.4489 0.0000
# 4 0.0000 0.0000 0.0000 18.6612 0.0000 1.0135
# 5 13.2446 6.1767 27.4489 0.0000 34.8469 0.0000
# 6 0.0000 0.0000 0.0000 1.0135 0.0000 19.1343
#
#
#
# Elastic Compliance Matrix: (Units=1/GPa)
#
#
# Indices 1 2 3 4 5 6 
#
# 1 0.016992 -0.001957 -0.001533 0.000000 -0.004904 0.000000
# 2 -0.001957 0.014860 -0.001300 0.000000 -0.000866 0.000000
# 3 -0.001533 -0.001300 0.012576 0.000000 -0.009093 0.000000
# 4 0.000000 0.000000 0.000000 0.053742 0.000000 -0.002847
# 5 -0.004904 -0.000866 -0.009093 0.000000 0.037877 0.000000
# 6 0.000000 0.000000 0.000000 -0.002847 0.000000 0.052413
#
#
# Mechanical properties :
#
#
# Convention : Reuss Voigt Hill
#
# Bulk Modulus (GPa) = 28.69658 36.06550 32.38104
# Shear Modulus (GPa) = 23.84882 27.59792 25.72337
#
# Velocity S-wave (km/s) = 3.46926 3.73200 3.60303
# Velocity P-wave (km/s) = 5.52539 6.06396 5.80093
#
# Compressibility (1/GPa) = 0.03484736
#
# Stress axis : x y z
#
# Youngs Moduli (GPa) = 58.85274 67.29571 79.51809
#
# Poissons Ratio (x) = 0.13170 0.12190
# Poissons Ratio (y) = 0.11518 0.10336
# Poissons Ratio (z) = 0.09022 0.08747
#
# Static dielectric constant tensor:
#      x y z
#    x 3.458950 0.000000 0.390440 
#    y 0.000000 3.374690 0.000000 
#    z 0.390440 0.000000 4.092620 
# 
# 
# High freq. dielectric constant tensor:
#      x y z
#    x 1.751900 0.000000 0.029660 
#    y 0.000000 1.737730 0.000000 
#    z 0.029660 0.000000 1.788950 
# 
# From -- ./inp_files/65298.got.cif
#   From: 2010.06.25/outbox.cif.g09.slc.cpg/sg12_33_cif.got.tgz:65298.got - 2010.06.28 00:19:55.
