data_PCOD8096262
_publ_section_title
;
Structure prediction by ZEFSAII (Michael W. Deem and Ramdas Pophale) SiO2 
 PCOD8096262
Probable space group: C 2/M
;
_chemical_formula_sum "Si O2"
_cell_formula_units_Z 56
_cell_length_a 19.715358
_cell_length_b 9.006989
_cell_length_c 18.257560
_cell_angle_alpha 90.000000
_cell_angle_beta 104.618506
_cell_angle_gamma 90.000000
_cell_volume 3137.150332
_symmetry_space_group_name_H-M "C 2/M"
_symmetry_group_IT_number 12
_symmetry_cell_setting 'monoclinic'
loop_
_space_group_symop_operation_xyz
x,y,z
-x,y,-z
-x,-y,-z
x,-y,z
1/2+x,1/2+y,z
1/2-x,1/2+y,-z
1/2-x,1/2-y,-z
1/2+x,1/2-y,z
loop_
_atom_site_type_symbol
_atom_site_label
_atom_site_fract_x
_atom_site_fract_y
_atom_site_fract_z
Si Si1 0.389503 0.827385 0.278525
Si Si2 0.883286 0.175800 0.841686
Si Si3 0.752022 0.676537 0.730080
Si Si4 0.527240 0.171640 0.846470
Si Si5 0.064490 0.172431 0.566556
Si Si6 0.921937 0.163150 0.008548
Si Si7 0.717040 0.670062 0.559291
O O1 0.316452 0.741125 0.248570
O O2 0.435932 0.798433 0.220132
O O3 0.434008 0.767453 0.359114
O O4 0.372960 0.000000 0.285460
O O5 0.821292 0.257674 0.783752
O O6 0.956506 0.233260 0.829139
O O7 0.879484 0.000000 0.827524
O O8 0.875196 0.214250 0.926193
O O9 0.750553 0.500000 0.737896
O O10 0.750595 0.726032 0.644652
O O11 0.581469 0.221374 0.925375
O O12 0.508446 0.000000 0.853127
O O13 0.134037 0.199401 0.537871
O O14 0.000000 0.227637 0.500000
O O15 0.057285 0.000000 0.586670
O O16 0.897803 0.000000 0.029660
O O17 0.000000 0.151975 0.000000
O O18 0.735028 0.500000 0.553439
O O19 0.750000 0.750000 0.500000
#
# Coordination Sequence:
#
# PCOD8096262 Si02
#       7
#     8   8   8   8   8   8   8
#     4  10  21  36  53  76 106 138 173 212 256 306
#     4  10  20  34  54  79 105 135 173 214 256 305
#     4  10  21  37  55  76 104 137 173 212 257 308
#     4  10  20  33  52  79 107 135 172 215 255 302
#     4   9  19  36  55  75 100 132 172 213 253 301
#     4   8  16  31  50  74 103 134 170 212 256 302
#     4   9  19  34  52  75 101 130 165 206 251 301
#
# _framework density 17.850594999999998
#
# number of rings (size 3 to 8) (size 9 to 14) (size 15 to 20)
#    0.000    2.571    0.000    3.429    0.000    9.714 
#    0.000    3.571    0.000    0.000    0.000    0.000 
#    0.000    0.000    0.000    0.000    0.000    0.000 
#
# Total GULP energy -347159.873573 kJ/mol
# GULP energy per Si atom -12398.566913 kJ/mol
# Density = 1.780997 g / cm^3
# Si number density = 17.850595 Si / 1000 Ang^3
#
#
#
# Elastic Constant Matrix: (Units=GPa)
#
#
# Indices 1 2 3 4 5 6 
#
# 1 76.0457 45.3555 62.7677 0.0000 10.9766 0.0000
# 2 45.3555 86.6887 52.8983 0.0000 -2.1242 0.0000
# 3 62.7677 52.8983 108.9442 0.0000 10.1761 0.0000
# 4 0.0000 0.0000 0.0000 36.2086 0.0000 -0.5833
# 5 10.9766 -2.1242 10.1761 0.0000 30.4578 0.0000
# 6 0.0000 0.0000 0.0000 -0.5833 0.0000 29.2102
#
#
#
# Elastic Compliance Matrix: (Units=1/GPa)
#
#
# Indices 1 2 3 4 5 6 
#
# 1 0.028881 -0.007841 -0.012190 0.000000 -0.006883 0.000000
# 2 -0.007841 0.018989 -0.005254 0.000000 0.005906 0.000000
# 3 -0.012190 -0.005254 0.018969 0.000000 -0.002311 0.000000
# 4 0.000000 0.000000 0.000000 0.027627 0.000000 0.000552
# 5 -0.006883 0.005906 -0.002311 0.000000 0.036497 0.000000
# 6 0.000000 0.000000 0.000000 0.000552 0.000000 0.034246
#
#
# Mechanical properties :
#
#
# Convention : Reuss Voigt Hill
#
# Bulk Modulus (GPa) = 61.46490 65.96907 63.71699
# Shear Modulus (GPa) = 22.60385 26.55246 24.57815
#
# Velocity S-wave (km/s) = 3.56234 3.86097 3.71466
# Velocity P-wave (km/s) = 7.17134 7.54405 7.36005
#
# Compressibility (1/GPa) = 0.01626945
#
# Stress axis : x y z
#
# Youngs Moduli (GPa) = 34.62436 52.66262 52.71740
#
# Poissons Ratio (x) = 0.41293 0.64261
# Poissons Ratio (y) = 0.27149 0.27698
# Poissons Ratio (z) = 0.42206 0.27669
#
# Static dielectric constant tensor:
#      x y z
#    x 3.184990 0.000000 0.188500 
#    y 0.000000 3.405920 0.000000 
#    z 0.188500 0.000000 3.650660 
# 
# 
# High freq. dielectric constant tensor:
#      x y z
#    x 1.673140 0.000000 0.005440 
#    y 0.000000 1.699400 0.000000 
#    z 0.005440 0.000000 1.699250 
# 
# From -- ./inp_files/237849.got.cif
#   From: 2010.06.25/outbox.cif.g09.slc.cpg/sg12_119_cif.got.tgz:237849.got - 2010.06.28 00:19:55.
