data_PCOD8096293
_publ_section_title
;
Structure prediction by ZEFSAII (Michael W. Deem and Ramdas Pophale) SiO2 
 PCOD8096293
Probable space group: C 2/M
;
_chemical_formula_sum "Si O2"
_cell_formula_units_Z 56
_cell_length_a 20.194391
_cell_length_b 9.493692
_cell_length_c 28.348344
_cell_angle_alpha 90.000000
_cell_angle_beta 147.186479
_cell_angle_gamma 90.000000
_cell_volume 2945.221749
_symmetry_space_group_name_H-M "C 2/M"
_symmetry_group_IT_number 12
_symmetry_cell_setting 'monoclinic'
loop_
_space_group_symop_operation_xyz
x,y,z
-x,y,-z
-x,-y,-z
x,-y,z
1/2+x,1/2+y,z
1/2-x,1/2+y,-z
1/2-x,1/2-y,-z
1/2+x,1/2-y,z
loop_
_atom_site_type_symbol
_atom_site_label
_atom_site_fract_x
_atom_site_fract_y
_atom_site_fract_z
Si Si1 0.303542 0.339144 0.773228
Si Si2 0.244977 0.835378 0.925841
Si Si3 0.071820 0.162664 0.905855
Si Si4 0.140839 0.337411 0.588682
Si Si5 0.925207 0.160521 0.617426
Si Si6 0.203462 0.836849 0.794414
Si Si7 0.248812 0.336695 0.426696
O O1 0.305531 0.500000 0.791237
O O2 0.428090 0.301531 0.819869
O O3 0.188300 0.311526 0.670072
O O4 0.294718 0.246195 0.814917
O O5 0.126529 0.799661 0.887107
O O6 0.217699 0.784375 0.856573
O O7 0.275128 0.000000 0.945537
O O8 0.363201 0.753609 0.014966
O O9 0.096138 0.000000 0.932383
O O10 0.159231 0.500000 0.584507
O O11 0.221078 0.237896 0.603994
O O12 0.000000 0.292847 0.500000
O O13 0.872008 0.265791 0.624437
O O14 0.862417 0.186540 0.529632
O O15 0.066653 0.194505 0.695434
O O16 0.904561 0.000000 0.622522
O O17 0.236895 0.000000 0.810139
O O18 0.221386 0.500000 0.401114
#
# Coordination Sequence:
#
# PCOD8096293 Si02
#       7
#     8   8   8   8   8   8   8
#     4  10  22  37  56  81 112 148 185 227 273 328
#     4   9  19  36  59  83 107 140 181 226 275 328
#     4   9  19  37  58  81 108 142 182 223 273 330
#     4  10  21  36  55  78 107 149 190 224 272 326
#     4   9  19  35  54  76 108 146 182 222 274 330
#     4  10  21  36  57  82 109 146 183 225 277 326
#     4  10  20  33  52  80 107 141 185 232 277 318
#
# _framework density 19.013849
#
# number of rings (size 3 to 8) (size 9 to 14) (size 15 to 20)
#    0.000    2.429    0.000    1.286    2.000    3.714 
#    0.000    2.857    0.000    0.000    0.000    0.000 
#    0.000    0.000    0.000    0.000    0.000    0.000 
#
# Total GULP energy -347281.797737 kJ/mol
# GULP energy per Si atom -12402.921348 kJ/mol
# Density = 1.897057 g / cm^3
# Si number density = 19.013849 Si / 1000 Ang^3
#
#
#
# Elastic Constant Matrix: (Units=GPa)
#
#
# Indices 1 2 3 4 5 6 
#
# 1 113.3971 54.9312 41.3635 0.0000 -7.0240 0.0001
# 2 54.9312 69.6243 27.2662 0.0000 -3.4242 0.0004
# 3 41.3635 27.2662 85.9579 0.0001 3.3775 0.0000
# 4 0.0000 0.0000 0.0001 28.0127 0.0000 -1.4740
# 5 -7.0240 -3.4242 3.3775 0.0000 24.6073 0.0000
# 6 0.0001 0.0004 0.0000 -1.4740 0.0000 33.4972
#
#
#
# Elastic Compliance Matrix: (Units=1/GPa)
#
#
# Indices 1 2 3 4 5 6 
#
# 1 0.015738 -0.010524 -0.004378 0.000000 0.003629 0.000000
# 2 -0.010524 0.023663 -0.002466 0.000000 0.000627 0.000000
# 3 -0.004378 -0.002466 0.014664 0.000000 -0.003605 0.000000
# 4 0.000000 0.000000 0.000000 0.035781 0.000000 0.001574
# 5 0.003629 0.000627 -0.003605 0.000000 0.042256 0.000000
# 6 0.000000 0.000000 0.000000 0.001574 0.000000 0.029923
#
#
# Mechanical properties :
#
#
# Convention : Reuss Voigt Hill
#
# Bulk Modulus (GPa) = 51.73574 57.34456 54.54015
# Shear Modulus (GPa) = 24.60591 26.91801 25.76196
#
# Velocity S-wave (km/s) = 3.60127 3.76667 3.68490
# Velocity P-wave (km/s) = 6.67538 7.01013 6.84480
#
# Compressibility (1/GPa) = 0.01932900
#
# Stress axis : x y z
#
# Youngs Moduli (GPa) = 63.53998 42.26085 68.19362
#
# Poissons Ratio (x) = 0.44475 0.29853
# Poissons Ratio (y) = 0.66870 0.16818
# Poissons Ratio (z) = 0.27815 0.10423
#
# Static dielectric constant tensor:
#      x y z
#    x 3.398690 0.000000 0.016910 
#    y 0.000000 3.446150 0.000000 
#    z 0.016910 0.000000 3.433520 
# 
# 
# High freq. dielectric constant tensor:
#      x y z
#    x 1.738730 0.000000 0.001230 
#    y 0.000000 1.736040 0.000000 
#    z 0.001230 0.000000 1.735240 
# 
# From -- ./inp_files/380717.got.cif
#   From: 2010.06.25/outbox.cif.g09.slc.cpg/sg12_191_cif.got.tgz:380717.got - 2010.06.28 00:19:55.
