data_PCOD8096233
_publ_section_title
;
Structure prediction by ZEFSAII (Michael W. Deem and Ramdas Pophale) SiO2 
 PCOD8096233
Probable space group: C 2/M
;
_chemical_formula_sum "Si O2"
_cell_formula_units_Z 48
_cell_length_a 30.980977
_cell_length_b 9.074549
_cell_length_c 9.110324
_cell_angle_alpha 90.000000
_cell_angle_beta 88.474652
_cell_angle_gamma 90.000000
_cell_volume 2560.354264
_symmetry_space_group_name_H-M "C 2/M"
_symmetry_group_IT_number 12
_symmetry_cell_setting 'monoclinic'
loop_
_space_group_symop_operation_xyz
x,y,z
-x,y,-z
-x,-y,-z
x,-y,z
1/2+x,1/2+y,z
1/2-x,1/2+y,-z
1/2-x,1/2-y,-z
1/2+x,1/2-y,z
loop_
_atom_site_type_symbol
_atom_site_label
_atom_site_fract_x
_atom_site_fract_y
_atom_site_fract_z
Si Si1 0.587598 0.825633 0.662127
Si Si2 0.165867 0.173302 0.813073
Si Si3 0.081276 0.326262 0.326633
Si Si4 0.156232 0.832568 0.155050
Si Si5 0.251808 0.829566 0.153641
Si Si6 0.001889 0.675263 0.834508
O O1 0.628497 0.738904 0.717321
O O2 0.580494 0.777618 0.495283
O O3 0.545947 0.770868 0.755696
O O4 0.595099 0.000000 0.678282
O O5 0.210924 0.248685 0.755347
O O6 0.169687 0.000000 0.787003
O O7 0.157018 0.212742 0.983759
O O8 0.080860 0.500000 0.312729
O O9 0.124187 0.271820 0.244066
O O10 0.038834 0.260132 0.251436
O O11 0.203667 0.814835 0.225781
O O12 0.140149 0.000000 0.171406
O O13 0.264242 0.000000 0.131047
O O14 0.250000 0.750000 0.000000
O O15 0.000178 0.500000 0.833907
O O16 0.000000 0.737455 0.000000
#
# Coordination Sequence:
#
# PCOD8096233 Si02
#       6
#     8   8   8   8   8   8
#     4  10  20  34  52  76 107 139 172 213 260 310
#     4  10  20  34  53  78 105 136 177 220 262 308
#     4  10  20  33  52  78 106 138 174 211 256 312
#     4   9  19  34  52  76 105 135 170 214 259 306
#     4   9  17  31  52  78 106 136 173 217 263 307
#     4   9  17  31  53  79 104 133 171 214 259 307
#
# _framework density 18.747405000000001
#
# number of rings (size 3 to 8) (size 9 to 14) (size 15 to 20)
#    0.000    2.500    0.000    3.500    0.000    8.000 
#    0.000    1.667    0.000    5.000    0.000    0.000 
#    0.000    0.000    0.000    0.000    0.000    0.000 
#
# Total GULP energy -297546.273587 kJ/mol
# GULP energy per Si atom -12397.761399 kJ/mol
# Density = 1.870474 g / cm^3
# Si number density = 18.747405 Si / 1000 Ang^3
#
#
#
# Elastic Constant Matrix: (Units=GPa)
#
#
# Indices 1 2 3 4 5 6 
#
# 1 158.8111 48.9338 66.9191 0.0000 32.4056 0.0000
# 2 48.9338 51.7648 35.6012 0.0000 16.3167 0.0000
# 3 66.9191 35.6012 106.1007 0.0000 23.9212 0.0000
# 4 0.0000 0.0000 0.0000 22.0306 0.0000 0.9812
# 5 32.4056 16.3167 23.9212 0.0000 12.1368 0.0000
# 6 0.0000 0.0000 0.0000 0.9812 0.0000 30.2202
#
#
#
# Elastic Compliance Matrix: (Units=1/GPa)
#
#
# Indices 1 2 3 4 5 6 
#
# 1 0.014041 -0.002459 -0.000583 0.000000 -0.033035 0.000000
# 2 -0.002459 0.034183 -0.001868 0.000000 -0.035706 0.000000
# 3 -0.000583 -0.001868 0.017102 0.000000 -0.029640 0.000000
# 4 0.000000 0.000000 0.000000 0.045457 0.000000 -0.001476
# 5 -0.033035 -0.035706 -0.029640 0.000000 0.277022 0.000000
# 6 0.000000 0.000000 0.000000 -0.001476 0.000000 0.033138
#
#
# Mechanical properties :
#
#
# Convention : Reuss Voigt Hill
#
# Bulk Modulus (GPa) = 18.01633 68.84275 43.42954
# Shear Modulus (GPa) = 11.12928 23.89236 17.51082
#
# Velocity S-wave (km/s) = 2.43912 3.57380 3.05952
# Velocity P-wave (km/s) = 4.19086 7.33691 5.97468
#
# Compressibility (1/GPa) = 0.05550521
#
# Stress axis : x y z
#
# Youngs Moduli (GPa) = 71.22055 29.25424 58.47293
#
# Poissons Ratio (x) = 0.07195 0.03406
# Poissons Ratio (y) = 0.17517 0.10925
# Poissons Ratio (z) = 0.04149 0.05466
#
# Static dielectric constant tensor:
#      x y z
#    x 3.731210 0.000000 0.105830 
#    y 0.000000 3.307080 0.000000 
#    z 0.105830 0.000000 3.348600 
# 
# 
# High freq. dielectric constant tensor:
#      x y z
#    x 1.748620 0.000000 0.007120 
#    y 0.000000 1.709540 0.000000 
#    z 0.007120 0.000000 1.708160 
# 
# From -- ./inp_files/108559.got.cif
#   From: 2010.06.25/outbox.cif.g09.slc.cpg/sg12_55_cif.got.tgz:108559.got - 2010.06.28 00:19:55.
