data_PCOD8096566
_publ_section_title
;
Structure prediction by ZEFSAII (Michael W. Deem and Ramdas Pophale) SiO2 
 PCOD8096566
Probable space group: C 2/M
;
_chemical_formula_sum "Si O2"
_cell_formula_units_Z 64
_cell_length_a 26.020806
_cell_length_b 9.118295
_cell_length_c 15.396236
_cell_angle_alpha 90.000000
_cell_angle_beta 108.199824
_cell_angle_gamma 90.000000
_cell_volume 3470.245582
_symmetry_space_group_name_H-M "C 2/M"
_symmetry_group_IT_number 12
_symmetry_cell_setting 'monoclinic'
loop_
_space_group_symop_operation_xyz
x,y,z
-x,y,-z
-x,-y,-z
x,-y,z
1/2+x,1/2+y,z
1/2-x,1/2+y,-z
1/2-x,1/2-y,-z
1/2+x,1/2-y,z
loop_
_atom_site_type_symbol
_atom_site_label
_atom_site_fract_x
_atom_site_fract_y
_atom_site_fract_z
Si Si1 0.050705 0.670902 0.074975
Si Si2 0.076962 0.168176 0.610456
Si Si3 0.602313 0.174357 0.277282
Si Si4 0.040495 0.832233 0.395385
Si Si5 0.818782 0.673259 0.266529
Si Si6 0.702744 0.667053 0.255107
Si Si7 0.141627 0.841201 0.053055
Si Si8 0.293653 0.336135 0.077906
O O1 0.041084 0.500000 0.075963
O O2 0.063298 0.730835 0.178418
O O3 0.101031 0.706810 0.040666
O O4 0.000000 0.747050 0.000000
O O5 0.065147 0.187732 0.503205
O O6 0.126757 0.272926 0.658937
O O7 0.023101 0.212760 0.636584
O O8 0.092396 0.000000 0.639613
O O9 0.575370 0.229559 0.351162
O O10 0.663215 0.235268 0.294307
O O11 0.606895 0.000000 0.282246
O O12 0.046066 0.000000 0.367405
O O13 0.822012 0.500000 0.252731
O O14 0.766124 0.711662 0.298636
O O15 0.813992 0.750855 0.171892
O O16 0.693737 0.500000 0.280145
O O17 0.691509 0.687963 0.145741
O O18 0.115874 0.000000 0.065527
O O19 0.156174 0.848423 0.960433
O O20 0.273013 0.500000 0.092166
O O21 0.250000 0.250000 0.000000
#
# Coordination Sequence:
#
# PCOD8096566 Si02
#       8
#     8   8   8   8   8   8   8   8
#     4   9  19  34  49  71 106 141 174 219 270 315
#     4   9  20  39  61  85 109 142 182 225 278 337
#     4  10  20  33  55  84 107 138 186 228 272 328
#     4   9  19  39  63  82 109 144 181 224 280 340
#     4  11  22  36  55  83 115 147 185 230 282 334
#     4   9  18  35  53  73 107 146 182 219 268 325
#     4   9  18  33  50  70  99 137 182 221 257 311
#     4  11  21  34  52  77 109 145 186 227 269 322
#
# _framework density 18.442499000000002
#
# number of rings (size 3 to 8) (size 9 to 14) (size 15 to 20)
#    0.000    2.375    1.250    1.875    0.000    4.750 
#    0.000    4.375    0.000    0.000    0.000    0.000 
#    0.000    0.000    0.000    0.000    0.000    0.000 
#
# Total GULP energy -396568.755995 kJ/mol
# GULP energy per Si atom -12392.773625 kJ/mol
# Density = 1.840052 g / cm^3
# Si number density = 18.442499 Si / 1000 Ang^3
#
#
#
# Elastic Constant Matrix: (Units=GPa)
#
#
# Indices 1 2 3 4 5 6 
#
# 1 121.4089 53.5568 53.4865 0.0000 0.1420 0.0000
# 2 53.5568 79.4223 41.3156 0.0000 -0.5087 0.0000
# 3 53.4865 41.3156 61.2044 0.0000 2.3336 0.0000
# 4 0.0000 0.0000 0.0000 29.2519 0.0000 0.0892
# 5 0.1420 -0.5087 2.3336 0.0000 33.3466 0.0000
# 6 0.0000 0.0000 0.0000 0.0892 0.0000 34.0559
#
#
#
# Elastic Compliance Matrix: (Units=1/GPa)
#
#
# Indices 1 2 3 4 5 6 
#
# 1 0.014553 -0.004907 -0.009425 0.000000 0.000523 0.000000
# 2 -0.004907 0.021109 -0.010001 0.000000 0.001043 0.000000
# 3 -0.009425 -0.010001 0.031415 0.000000 -0.002311 0.000000
# 4 0.000000 0.000000 0.000000 0.034186 0.000000 -0.000090
# 5 0.000523 0.001043 -0.002311 0.000000 0.030163 0.000000
# 6 0.000000 0.000000 0.000000 -0.000090 0.000000 0.029364
#
#
# Mechanical properties :
#
#
# Convention : Reuss Voigt Hill
#
# Bulk Modulus (GPa) = 54.31832 62.08372 58.20102
# Shear Modulus (GPa) = 23.19180 26.90934 25.05057
#
# Velocity S-wave (km/s) = 3.55000 3.82395 3.68952
# Velocity P-wave (km/s) = 6.80588 7.29612 7.05526
#
# Compressibility (1/GPa) = 0.01840999
#
# Stress axis : x y z
#
# Youngs Moduli (GPa) = 68.71463 47.37278 31.83224
#
# Poissons Ratio (x) = 0.23246 0.30003
# Poissons Ratio (y) = 0.33719 0.31836
# Poissons Ratio (z) = 0.64765 0.47378
#
# Static dielectric constant tensor:
#      x y z
#    x 3.458130 0.000000 0.060710 
#    y 0.000000 3.490780 0.000000 
#    z 0.060710 0.000000 3.472930 
# 
# 
# High freq. dielectric constant tensor:
#      x y z
#    x 1.715580 0.000000 0.000160 
#    y 0.000000 1.717940 0.000000 
#    z 0.000160 0.000000 1.699580 
# 
# From -- ./inp_files/244136.got.cif
#   From: 2010.06.25/outbox.cif.g09.slc.cpg/sg12_123_cif.got.tgz:244136.got - 2010.06.28 00:19:55.
