data_PCOD8096553
_publ_section_title
;
Structure prediction by ZEFSAII (Michael W. Deem and Ramdas Pophale) SiO2 
 PCOD8096553
Probable space group: C 2/M
;
_chemical_formula_sum "Si O2"
_cell_formula_units_Z 48
_cell_length_a 9.909954
_cell_length_b 29.952554
_cell_length_c 19.626253
_cell_angle_alpha 90.000000
_cell_angle_beta 26.996316
_cell_angle_gamma 90.000000
_cell_volume 2644.446879
_symmetry_space_group_name_H-M "C 2/M"
_symmetry_group_IT_number 12
_symmetry_cell_setting 'monoclinic'
loop_
_space_group_symop_operation_xyz
x,y,z
-x,y,-z
-x,-y,-z
x,-y,z
1/2+x,1/2+y,z
1/2-x,1/2+y,-z
1/2-x,1/2-y,-z
1/2+x,1/2-y,z
loop_
_atom_site_type_symbol
_atom_site_label
_atom_site_fract_x
_atom_site_fract_y
_atom_site_fract_z
Si Si1 0.330474 0.125979 0.182484
Si Si2 0.459558 0.371754 0.830025
Si Si3 0.967629 0.450588 0.821297
Si Si4 0.664028 0.549824 0.822174
Si Si5 0.085635 0.703132 0.387122
Si Si6 0.022458 0.804324 0.414486
O O1 0.114456 0.119135 0.215561
O O2 0.307392 0.083032 0.242367
O O3 0.233358 0.168420 0.269622
O O4 0.665504 0.133625 0.007270
O O5 0.663677 0.413416 0.762456
O O6 0.633909 0.325652 0.763672
O O7 0.110648 0.500000 0.760115
O O8 0.910309 0.436899 0.768232
O O9 0.656889 0.450885 0.999613
O O10 0.732375 0.500000 0.762266
O O11 0.171798 0.755274 0.350665
O O12 0.000000 0.685333 0.500000
O O13 0.814139 0.696275 0.458822
O O14 0.000000 0.825329 0.500000
#
# Coordination Sequence:
#
# PCOD8096553 Si02
#       6
#     8   8   8   8   8   8
#     4  10  20  34  52  83 110 133 174 220 263 301
#     4  10  20  33  55  80 109 138 170 220 262 305
#     4   8  15  29  49  74 107 139 171 212 255 306
#     4   8  15  29  49  75 105 139 174 209 256 309
#     4  10  20  39  57  74 103 143 178 209 260 321
#     4  10  22  37  57  77 101 139 180 215 257 318
#
# _framework density 18.151243000000001
#
# number of rings (size 3 to 8) (size 9 to 14) (size 15 to 20)
#    0.000    2.667    1.667    1.000    2.333    1.333 
#    0.000    3.333    0.000    2.000    0.000    0.000 
#    0.000    0.000    0.000    0.000    0.000    0.000 
#
# Total GULP energy -297519.405874 kJ/mol
# GULP energy per Si atom -12396.641911 kJ/mol
# Density = 1.810993 g / cm^3
# Si number density = 18.151243 Si / 1000 Ang^3
#
#
#
# Elastic Constant Matrix: (Units=GPa)
#
#
# Indices 1 2 3 4 5 6 
#
# 1 130.3160 70.3347 36.6205 0.0001 10.3897 -0.0001
# 2 70.3347 122.5780 44.0605 -0.0006 3.0284 -0.0010
# 3 36.6205 44.0605 38.6998 0.0009 6.0138 0.0054
# 4 0.0001 -0.0006 0.0009 10.7104 -0.0003 -0.0160
# 5 10.3897 3.0284 6.0138 -0.0003 22.5111 -0.0015
# 6 -0.0001 -0.0010 0.0054 -0.0160 -0.0015 22.8113
#
#
#
# Elastic Compliance Matrix: (Units=1/GPa)
#
#
# Indices 1 2 3 4 5 6 
#
# 1 0.012117 -0.004978 -0.005251 0.000000 -0.003520 0.000001
# 2 -0.004978 0.015985 -0.014096 0.000002 0.003913 0.000004
# 3 -0.005251 -0.014096 0.048187 -0.000005 -0.008553 -0.000013
# 4 0.000000 0.000002 -0.000005 0.093367 0.000003 0.000065
# 5 -0.003520 0.003913 -0.008553 0.000003 0.047806 0.000005
# 6 0.000001 0.000004 -0.000013 0.000065 0.000005 0.043838
#
#
# Mechanical properties :
#
#
# Convention : Reuss Voigt Hill
#
# Bulk Modulus (GPa) = 36.18292 65.95835 51.07063
# Shear Modulus (GPa) = 15.66598 20.57842 18.12220
#
# Velocity S-wave (km/s) = 2.94101 3.37073 3.16317
# Velocity P-wave (km/s) = 5.61339 7.18096 6.44501
#
# Compressibility (1/GPa) = 0.02763735
#
# Stress axis : x y z
#
# Youngs Moduli (GPa) = 82.53094 62.55981 20.75242
#
# Poissons Ratio (x) = 0.31142 0.10897
# Poissons Ratio (y) = 0.41084 0.29253
# Poissons Ratio (z) = 0.43338 0.88187
#
# Static dielectric constant tensor:
#      x y z
#    x 3.636760 0.000000 0.039440 
#    y 0.000000 3.590800 0.000000 
#    z 0.039440 0.000000 2.908510 
# 
# 
# High freq. dielectric constant tensor:
#      x y z
#    x 1.718110 0.000000 0.001970 
#    y 0.000000 1.706850 0.000000 
#    z 0.001970 0.000000 1.661810 
# 
# From -- ./inp_files/80621.got.cif
#   From: 2010.06.25/outbox.cif.g09.slc.cpg/sg12_41_cif.got.tgz:80621.got - 2010.06.28 00:19:55.
