data_PCOD8096930
_publ_section_title
;
Structure prediction by ZEFSAII (Michael W. Deem and Ramdas Pophale) SiO2 
 PCOD8096930
Probable space group: C 2/M
;
_chemical_formula_sum "Si O2"
_cell_formula_units_Z 48
_cell_length_a 13.718159
_cell_length_b 23.528457
_cell_length_c 16.220734
_cell_angle_alpha 90.000000
_cell_angle_beta 32.197004
_cell_angle_gamma 90.000000
_cell_volume 2789.652473
_symmetry_space_group_name_H-M "C 2/M"
_symmetry_group_IT_number 12
_symmetry_cell_setting 'monoclinic'
loop_
_space_group_symop_operation_xyz
x,y,z
-x,y,-z
-x,-y,-z
x,-y,z
1/2+x,1/2+y,z
1/2-x,1/2+y,-z
1/2-x,1/2-y,-z
1/2+x,1/2-y,z
loop_
_atom_site_type_symbol
_atom_site_label
_atom_site_fract_x
_atom_site_fract_y
_atom_site_fract_z
Si Si1 0.030287 0.168782 0.680318
Si Si2 0.292600 0.224836 0.818720
Si Si3 0.428719 0.724838 0.181980
Si Si4 0.931978 0.564842 0.179794
Si Si5 0.708269 0.564840 0.179456
Si Si6 0.390056 0.168783 0.319933
O O1 0.866631 0.211094 0.773292
O O2 0.963336 0.104346 0.718619
O O3 0.093660 0.179339 0.728830
O O4 0.198137 0.180982 0.500194
O O5 0.230262 0.213090 0.770131
O O6 0.448420 0.179297 0.729882
O O7 0.126626 0.217445 0.000388
O O8 0.411202 0.788905 0.227794
O O9 0.922529 0.500000 0.217336
O O10 0.775200 0.576242 0.224494
O O11 0.899134 0.604347 0.282024
O O12 0.128748 0.578251 0.000204
O O13 0.642599 0.500000 0.216932
#
# Coordination Sequence:
#
# PCOD8096930 Si02
#       6
#     8   8   8   8   8   8
#     4  11  21  31  48  74 103 130 155 194 246 292
#     4  10  20  34  52  71  94 128 167 202 235 279
#     4  10  20  34  52  71  94 128 167 202 235 279
#     4   9  18  33  52  72  96 129 166 200 234 278
#     4   9  18  33  52  72  96 129 166 200 234 278
#     4  11  21  31  48  74 103 130 155 194 246 292
#
# _framework density 17.206444000000001
#
# number of rings (size 3 to 8) (size 9 to 14) (size 15 to 20)
#    0.000    2.000    0.000    8.000    0.000    8.000 
#    0.000    1.667    0.000    1.000    0.000    7.000 
#    0.000    0.000    0.000    0.000    0.000    0.000 
#
# Total GULP energy -297668.604643 kJ/mol
# GULP energy per Si atom -12402.858527 kJ/mol
# Density = 1.716728 g / cm^3
# Si number density = 17.206444 Si / 1000 Ang^3
#
#
#
# Elastic Constant Matrix: (Units=GPa)
#
#
# Indices 1 2 3 4 5 6 
#
# 1 106.8929 53.0832 34.1768 -0.0059 7.2623 0.0106
# 2 53.0832 96.2829 24.0319 0.0040 3.6709 -0.0035
# 3 34.1768 24.0319 46.3001 0.0314 0.7378 -0.0043
# 4 -0.0059 0.0040 0.0314 16.4374 0.0018 1.4847
# 5 7.2623 3.6709 0.7378 0.0018 8.9063 -0.0070
# 6 0.0106 -0.0035 -0.0043 1.4847 -0.0070 27.6569
#
#
#
# Elastic Compliance Matrix: (Units=1/GPa)
#
#
# Indices 1 2 3 4 5 6 
#
# 1 0.015744 -0.006264 -0.008218 0.000025 -0.009575 -0.000012
# 2 -0.006264 0.014600 -0.002944 0.000000 -0.000666 0.000004
# 3 -0.008218 -0.002944 0.029104 -0.000060 0.005503 0.000012
# 4 0.000025 0.000000 -0.000060 0.061133 -0.000031 -0.003282
# 5 -0.009575 -0.000666 0.005503 -0.000031 0.119907 0.000037
# 6 -0.000012 0.000004 0.000012 -0.003282 0.000037 0.036334
#
#
# Mechanical properties :
#
#
# Convention : Reuss Voigt Hill
#
# Bulk Modulus (GPa) = 40.65425 52.45108 46.55266
# Shear Modulus (GPa) = 15.63134 19.81239 17.72186
#
# Velocity S-wave (km/s) = 3.01733 3.39699 3.21277
# Velocity P-wave (km/s) = 5.98479 6.77758 6.39348
#
# Compressibility (1/GPa) = 0.02459767
#
# Stress axis : x y z
#
# Youngs Moduli (GPa) = 63.51750 68.49542 34.35918
#
# Poissons Ratio (x) = 0.42904 0.28235
# Poissons Ratio (y) = 0.39786 0.10114
# Poissons Ratio (z) = 0.52196 0.20162
#
# Static dielectric constant tensor:
#      x y z
#    x 3.216210 -0.000020 0.005870 
#    y -0.000020 3.079360 0.000050 
#    z 0.005870 0.000050 3.180990 
# 
# 
# High freq. dielectric constant tensor:
#      x y z
#    x 1.655980 0.000000 -0.001750 
#    y 0.000000 1.651960 0.000010 
#    z -0.001750 0.000010 1.671700 
# 
# From -- ./inp_files/90311.got.cif
#   From: 2010.06.25/outbox.cif.g09.slc.cpg/sg12_46_cif.got.tgz:90311.got - 2010.06.28 00:19:55.
