data_PCOD8096576
_publ_section_title
;
Structure prediction by ZEFSAII (Michael W. Deem and Ramdas Pophale) SiO2 
 PCOD8096576
Probable space group: C 2/M
;
_chemical_formula_sum "Si O2"
_cell_formula_units_Z 48
_cell_length_a 19.164735
_cell_length_b 9.511678
_cell_length_c 27.300825
_cell_angle_alpha 90.000000
_cell_angle_beta 28.415881
_cell_angle_gamma 90.000000
_cell_volume 2368.221055
_symmetry_space_group_name_H-M "C 2/M"
_symmetry_group_IT_number 12
_symmetry_cell_setting 'monoclinic'
loop_
_space_group_symop_operation_xyz
x,y,z
-x,y,-z
-x,-y,-z
x,-y,z
1/2+x,1/2+y,z
1/2-x,1/2+y,-z
1/2-x,1/2-y,-z
1/2+x,1/2-y,z
loop_
_atom_site_type_symbol
_atom_site_label
_atom_site_fract_x
_atom_site_fract_y
_atom_site_fract_z
Si Si1 0.332815 0.157797 0.091473
Si Si2 0.353043 0.653548 0.991744
Si Si3 0.946365 0.662902 0.479785
Si Si4 0.555957 0.340122 0.323181
Si Si5 0.603836 0.337010 0.677998
Si Si6 0.038743 0.655201 0.149613
O O1 0.286389 0.269945 0.080025
O O2 0.226602 0.178457 0.203356
O O3 0.313409 0.000000 0.082429
O O4 0.500000 0.189429 0.000000
O O5 0.420368 0.500000 0.963184
O O6 0.212614 0.630657 0.044334
O O7 0.481095 0.746623 0.886443
O O8 0.985865 0.500000 0.449684
O O9 0.775385 0.691174 0.577495
O O10 0.000000 0.717056 0.500000
O O11 0.033172 0.744026 0.384221
O O12 0.521511 0.500000 0.359503
O O13 0.450123 0.296782 0.343252
O O14 0.564051 0.500000 0.714005
O O15 0.524396 0.234628 0.764647
O O16 0.963918 0.500000 0.189843
#
# Coordination Sequence:
#
# PCOD8096576 Si02
#       6
#     8   8   8   8   8   8
#     4  10  21  37  57  83 117 153 190 235 286 339
#     4  10  20  34  53  80 114 152 191 232 280 334
#     4  10  23  41  60  85 117 150 187 237 296 351
#     4  10  21  38  61  86 113 150 194 240 286 340
#     4  10  20  37  61  87 115 150 194 241 289 343
#     4  10  20  33  55  84 113 147 188 236 284 333
#
# _framework density 20.268377999999998
#
# number of rings (size 3 to 8) (size 9 to 14) (size 15 to 20)
#    0.000    2.000    1.667    1.500    0.000    5.333 
#    0.000    3.333    0.000    0.000    0.000    0.000 
#    0.000    0.000    0.000    0.000    0.000    0.000 
#
# Total GULP energy -297496.236320 kJ/mol
# GULP energy per Si atom -12395.676513 kJ/mol
# Density = 2.022225 g / cm^3
# Si number density = 20.268378 Si / 1000 Ang^3
#
#
#
# Elastic Constant Matrix: (Units=GPa)
#
#
# Indices 1 2 3 4 5 6 
#
# 1 62.5165 20.7682 51.5983 -0.0033 -2.6432 -0.0002
# 2 20.7682 116.6004 56.8057 -0.0027 21.6674 -0.0001
# 3 51.5983 56.8057 105.4979 -0.0072 12.2917 -0.0010
# 4 -0.0033 -0.0027 -0.0072 37.8311 -0.0005 10.4635
# 5 -2.6432 21.6674 12.2917 -0.0005 37.7801 0.0000
# 6 -0.0002 -0.0001 -0.0010 10.4635 0.0000 23.5226
#
#
#
# Elastic Compliance Matrix: (Units=1/GPa)
#
#
# Indices 1 2 3 4 5 6 
#
# 1 0.028513 0.001226 -0.015338 0.000000 0.006282 0.000000
# 2 0.001226 0.012587 -0.006804 0.000000 -0.004919 0.000000
# 3 -0.015338 -0.006804 0.021115 0.000002 -0.004041 0.000000
# 4 0.000000 0.000000 0.000002 0.030142 0.000000 -0.013408
# 5 0.006282 -0.004919 -0.004041 0.000000 0.031044 0.000000
# 6 0.000000 0.000000 0.000000 -0.013408 0.000000 0.048476
#
#
# Mechanical properties :
#
#
# Convention : Reuss Voigt Hill
#
# Bulk Modulus (GPa) = 49.05839 60.32879 54.69359
# Shear Modulus (GPa) = 22.67546 30.18962 26.43254
#
# Velocity S-wave (km/s) = 3.34842 3.86358 3.61519
# Velocity P-wave (km/s) = 6.26148 7.05214 6.66854
#
# Compressibility (1/GPa) = 0.02038387
#
# Stress axis : x y z
#
# Youngs Moduli (GPa) = 35.07163 79.44819 47.35985
#
# Poissons Ratio (x) = -0.09744 0.72640
# Poissons Ratio (y) = -0.04301 0.32224
# Poissons Ratio (z) = 0.53792 0.54057
#
# Static dielectric constant tensor:
#      x y z
#    x 3.636670 0.000000 -0.066260 
#    y 0.000000 3.987960 0.000000 
#    z -0.066260 0.000000 3.541940 
# 
# 
# High freq. dielectric constant tensor:
#      x y z
#    x 1.774450 0.000000 0.006330 
#    y 0.000000 1.800150 0.000000 
#    z 0.006330 0.000000 1.787050 
# 
# From -- ./inp_files/319576.got.cif
#   From: 2010.06.25/outbox.cif.g09.slc.cpg/sg12_160_cif.got.tgz:319576.got - 2010.06.28 00:19:55.
