data_PCOD8096345
_publ_section_title
;
Structure prediction by ZEFSAII (Michael W. Deem and Ramdas Pophale) SiO2 
 PCOD8096345
Probable space group: C 2/M
;
_chemical_formula_sum "Si O2"
_cell_formula_units_Z 56
_cell_length_a 26.070796
_cell_length_b 20.085327
_cell_length_c 8.362690
_cell_angle_alpha 90.000000
_cell_angle_beta 131.204802
_cell_angle_gamma 90.000000
_cell_volume 3294.615378
_symmetry_space_group_name_H-M "C 2/M"
_symmetry_group_IT_number 12
_symmetry_cell_setting 'monoclinic'
loop_
_space_group_symop_operation_xyz
x,y,z
-x,y,-z
-x,-y,-z
x,-y,z
1/2+x,1/2+y,z
1/2-x,1/2+y,-z
1/2-x,1/2-y,-z
1/2+x,1/2-y,z
loop_
_atom_site_type_symbol
_atom_site_label
_atom_site_fract_x
_atom_site_fract_y
_atom_site_fract_z
Si Si1 0.572037 0.750884 0.211934
Si Si2 0.661831 0.423535 0.693428
Si Si3 0.106580 0.149753 0.014314
Si Si4 0.295223 0.573907 0.576682
Si Si5 0.778865 0.184936 0.970923
Si Si6 0.467451 0.659971 0.589965
Si Si7 0.789893 0.312056 0.501777
O O1 0.602685 0.696257 0.159034
O O2 0.566292 0.718797 0.376129
O O3 0.628314 0.808486 0.328722
O O4 0.500000 0.779325 0.000000
O O5 0.668790 0.500000 0.767109
O O6 0.667776 0.418054 0.516110
O O7 0.718434 0.377862 0.900402
O O8 0.585903 0.396459 0.574031
O O9 0.152697 0.088186 0.169136
O O10 0.144086 0.189773 0.945410
O O11 0.030485 0.125696 0.814870
O O12 0.266839 0.500000 0.541943
O O13 0.230627 0.622795 0.441470
O O14 0.750000 0.250000 0.000000
O O15 0.728734 0.174247 0.720313
O O16 0.500000 0.693988 0.500000
O O17 0.750000 0.250000 0.500000
#
# Coordination Sequence:
#
# PCOD8096345 Si02
#       7
#     8   8   8   8   8   8   8
#     4  10  20  35  56  81 109 137 184 227 275 321
#     4  11  23  37  51  77 114 150 184 225 270 327
#     4  10  20  33  53  77 104 147 180 229 259 327
#     4  10  21  36  55  77 106 142 187 230 270 325
#     4  11  21  32  53  79 105 141 184 229 274 314
#     4  11  20  34  51  75 112 150 180 220 269 322
#     4  11  19  35  59  79 105 140 183 231 277 323
#
# _framework density 16.997430999999999
#
# number of rings (size 3 to 8) (size 9 to 14) (size 15 to 20)
#    0.000    1.429    5.714    1.714    0.000    3.143 
#    0.000    1.429    0.000    0.429    0.000    0.000 
#    0.000    2.857    0.000    0.000    0.000    0.000 
#
# Total GULP energy -346939.852154 kJ/mol
# GULP energy per Si atom -12390.709006 kJ/mol
# Density = 1.695874 g / cm^3
# Si number density = 16.997431 Si / 1000 Ang^3
#
#
#
# Elastic Constant Matrix: (Units=GPa)
#
#
# Indices 1 2 3 4 5 6 
#
# 1 93.9753 52.6346 23.1303 0.0000 0.4842 0.0000
# 2 52.6346 101.7460 45.9379 0.0000 11.4041 0.0000
# 3 23.1303 45.9379 76.0138 0.0000 12.0271 0.0000
# 4 0.0000 0.0000 0.0000 24.6810 0.0000 0.7600
# 5 0.4842 11.4041 12.0271 0.0000 35.4968 0.0000
# 6 0.0000 0.0000 0.0000 0.7600 0.0000 21.5864
#
#
#
# Elastic Compliance Matrix: (Units=1/GPa)
#
#
# Indices 1 2 3 4 5 6 
#
# 1 0.015178 -0.008066 -0.000128 0.000000 0.002428 0.000000
# 2 -0.008066 0.017897 -0.007892 0.000000 -0.002966 0.000000
# 3 -0.000128 -0.007892 0.018557 0.000000 -0.003750 0.000000
# 4 0.000000 0.000000 0.000000 0.040561 0.000000 -0.001428
# 5 0.002428 -0.002966 -0.003750 0.000000 0.030362 0.000000
# 6 0.000000 0.000000 0.000000 -0.001428 0.000000 0.046376
#
#
# Mechanical properties :
#
#
# Convention : Reuss Voigt Hill
#
# Bulk Modulus (GPa) = 51.38807 57.23788 54.31298
# Shear Modulus (GPa) = 24.08609 26.35499 25.22054
#
# Velocity S-wave (km/s) = 3.76845 3.94195 3.85617
# Velocity P-wave (km/s) = 7.01665 7.38012 7.20068
#
# Compressibility (1/GPa) = 0.01945977
#
# Stress axis : x y z
#
# Youngs Moduli (GPa) = 65.88581 55.87641 53.88731
#
# Poissons Ratio (x) = 0.45070 0.00690
# Poissons Ratio (y) = 0.53143 0.42528
# Poissons Ratio (z) = 0.00843 0.44097
#
# Static dielectric constant tensor:
#      x y z
#    x 3.489570 0.000000 -0.052490 
#    y 0.000000 3.029710 0.000000 
#    z -0.052490 0.000000 3.480380 
# 
# 
# High freq. dielectric constant tensor:
#      x y z
#    x 1.665790 0.000000 -0.016130 
#    y 0.000000 1.614680 0.000000 
#    z -0.016130 0.000000 1.665190 
# 
# From -- ./inp_files/87287.got.cif
#   From: 2010.06.25/outbox.cif.g09.slc.cpg/sg12_44_cif.got.tgz:87287.got - 2010.06.28 00:19:55.
