data_PCOD8096947
_publ_section_title
;
Structure prediction by ZEFSAII (Michael W. Deem and Ramdas Pophale) SiO2 
 PCOD8096947
Probable space group: C 2/M
;
_chemical_formula_sum "Si O2"
_cell_formula_units_Z 56
_cell_length_a 19.702287
_cell_length_b 9.034414
_cell_length_c 23.058769
_cell_angle_alpha 90.000000
_cell_angle_beta 50.567745
_cell_angle_gamma 90.000000
_cell_volume 3170.162972
_symmetry_space_group_name_H-M "C 2/M"
_symmetry_group_IT_number 12
_symmetry_cell_setting 'monoclinic'
loop_
_space_group_symop_operation_xyz
x,y,z
-x,y,-z
-x,-y,-z
x,-y,z
1/2+x,1/2+y,z
1/2-x,1/2+y,-z
1/2-x,1/2-y,-z
1/2+x,1/2-y,z
loop_
_atom_site_type_symbol
_atom_site_label
_atom_site_fract_x
_atom_site_fract_y
_atom_site_fract_z
Si Si1 0.578723 0.666694 0.002610
Si Si2 0.995953 0.171472 0.438765
Si Si3 0.038453 0.328181 0.850289
Si Si4 0.341299 0.326976 0.438354
Si Si5 0.389271 0.675852 0.727968
Si Si6 0.309947 0.173386 0.145511
Si Si7 0.465175 0.825605 0.281649
O O1 0.606361 0.500000 0.002153
O O2 0.662646 0.748339 0.929382
O O3 0.500000 0.675611 0.000000
O O4 0.547187 0.743711 0.078966
O O5 0.070826 0.234067 0.354844
O O6 0.000000 0.249697 0.500000
O O7 0.900413 0.198243 0.463240
O O8 0.016507 0.000000 0.435931
O O9 0.020267 0.500000 0.870330
O O10 0.126867 0.278278 0.835890
O O11 0.051336 0.289312 0.776438
O O12 0.328249 0.500000 0.432381
O O13 0.250000 0.250000 0.500000
O O14 0.386076 0.251639 0.358731
O O15 0.403401 0.500000 0.727217
O O16 0.288078 0.723154 0.784913
O O17 0.441052 0.757088 0.751499
O O18 0.315239 0.000000 0.131360
O O19 0.464495 0.000000 0.294658
#
# Coordination Sequence:
#
# PCOD8096947 Si02
#       7
#     8   8   8   8   8   8   8
#     4   9  17  29  47  72 100 127 157 200 253 296
#     4   8  15  29  50  73  95 123 161 201 237 279
#     4   9  18  32  51  74  97 127 167 204 239 285
#     4  10  20  34  53  75 100 130 163 201 244 289
#     4   9  18  32  50  72  98 129 161 197 245 292
#     4   9  17  31  51  72  96 127 166 207 241 285
#     4  10  20  34  52  73 100 132 163 198 241 290
#
# _framework density 17.664708000000001
#
# number of rings (size 3 to 8) (size 9 to 14) (size 15 to 20)
#    0.000    2.857    0.000    2.143    0.000    4.571 
#    0.000    5.000    0.000   14.143    0.000    0.000 
#    0.000    0.000    0.000    0.000    0.000    0.000 
#
# Total GULP energy -347159.248161 kJ/mol
# GULP energy per Si atom -12398.544577 kJ/mol
# Density = 1.762450 g / cm^3
# Si number density = 17.664708 Si / 1000 Ang^3
#
#
#
# Elastic Constant Matrix: (Units=GPa)
#
#
# Indices 1 2 3 4 5 6 
#
# 1 86.5213 46.1401 79.4668 0.0000 -6.4509 0.0002
# 2 46.1401 72.6157 64.5339 0.0000 -0.7633 0.0006
# 3 79.4668 64.5339 139.4572 0.0000 -9.0511 -0.0001
# 4 0.0000 0.0000 0.0000 29.2066 0.0000 -2.0985
# 5 -6.4509 -0.7633 -9.0511 0.0000 30.5837 -0.0001
# 6 0.0002 0.0006 -0.0001 -2.0985 -0.0001 24.0663
#
#
#
# Elastic Compliance Matrix: (Units=1/GPa)
#
#
# Indices 1 2 3 4 5 6 
#
# 1 0.025611 -0.005752 -0.011818 0.000000 0.001761 0.000000
# 2 -0.005752 0.024898 -0.008445 0.000000 -0.003091 -0.000001
# 3 -0.011818 -0.008445 0.017982 0.000000 0.002618 0.000000
# 4 0.000000 0.000000 0.000000 0.034455 0.000000 0.003004
# 5 0.001761 -0.003091 0.002618 0.000000 0.033766 0.000000
# 6 0.000000 -0.000001 0.000000 0.003004 0.000000 0.041814
#
#
# Mechanical properties :
#
#
# Convention : Reuss Voigt Hill
#
# Bulk Modulus (GPa) = 60.74355 75.43064 68.08710
# Shear Modulus (GPa) = 21.18261 24.00154 22.59207
#
# Velocity S-wave (km/s) = 3.46663 3.69009 3.58010
# Velocity P-wave (km/s) = 7.10528 7.80703 7.46441
#
# Compressibility (1/GPa) = 0.01646265
#
# Stress axis : x y z
#
# Youngs Moduli (GPa) = 39.04608 40.16336 55.61004
#
# Poissons Ratio (x) = 0.23103 0.65718
# Poissons Ratio (y) = 0.22460 0.46960
# Poissons Ratio (z) = 0.46143 0.33916
#
# Static dielectric constant tensor:
#      x y z
#    x 3.208440 0.000000 0.041280 
#    y 0.000000 3.212780 0.000000 
#    z 0.041280 0.000000 3.477470 
# 
# 
# High freq. dielectric constant tensor:
#      x y z
#    x 1.665160 0.000000 -0.000960 
#    y 0.000000 1.673170 0.000000 
#    z -0.000960 0.000000 1.693350 
# 
# From -- ./inp_files/319652.got.cif
#   From: 2010.06.25/outbox.cif.g09.slc.cpg/sg12_160_cif.got.tgz:319652.got - 2010.06.28 00:19:55.
