data_PCOD8096804
_publ_section_title
;
Structure prediction by ZEFSAII (Michael W. Deem and Ramdas Pophale) SiO2 
 PCOD8096804
Probable space group: C 2/M
;
_chemical_formula_sum "Si O2"
_cell_formula_units_Z 64
_cell_length_a 24.018165
_cell_length_b 9.041654
_cell_length_c 25.180986
_cell_angle_alpha 90.000000
_cell_angle_beta 45.155415
_cell_angle_gamma 90.000000
_cell_volume 3877.218507
_symmetry_space_group_name_H-M "C 2/M"
_symmetry_group_IT_number 12
_symmetry_cell_setting 'monoclinic'
loop_
_space_group_symop_operation_xyz
x,y,z
-x,y,-z
-x,-y,-z
x,-y,z
1/2+x,1/2+y,z
1/2-x,1/2+y,-z
1/2-x,1/2-y,-z
1/2+x,1/2-y,z
loop_
_atom_site_type_symbol
_atom_site_label
_atom_site_fract_x
_atom_site_fract_y
_atom_site_fract_z
Si Si1 0.559679 0.169198 0.307578
Si Si2 0.309272 0.667019 0.732023
Si Si3 0.349904 0.670027 0.164170
Si Si4 0.941385 0.671182 0.809039
Si Si5 0.534207 0.332981 0.423077
Si Si6 0.722545 0.324455 0.072135
Si Si7 0.502196 0.674279 0.867140
Si Si8 0.356307 0.329856 0.038705
O O1 0.647231 0.244162 0.249356
O O2 0.520807 0.185766 0.275415
O O3 0.504905 0.244825 0.389919
O O4 0.571515 0.000000 0.315227
O O5 0.294525 0.500000 0.761549
O O6 0.227407 0.737712 0.770063
O O7 0.369964 0.670622 0.640877
O O8 0.329518 0.500000 0.188436
O O9 0.419092 0.724628 0.156010
O O10 0.380271 0.693002 0.083705
O O11 0.921989 0.500000 0.834996
O O12 0.864344 0.769758 0.858805
O O13 0.000460 0.736628 0.813016
O O14 0.500000 0.259946 0.500000
O O15 0.502155 0.500000 0.439823
O O16 0.723125 0.500000 0.066270
O O17 0.781243 0.273572 0.079176
O O18 0.750000 0.250000 0.000000
O O19 0.501680 0.500000 0.856168
O O20 0.428070 0.719912 0.953135
O O21 0.333798 0.500000 0.042291
#
# Coordination Sequence:
#
# PCOD8096804 Si02
#       8
#     8   8   8   8   8   8   8   8
#     4   9  18  31  49  74 102 130 159 193 237 286
#     4   9  18  31  49  74 101 130 161 193 240 289
#     4  10  20  34  51  71  96 127 167 210 250 292
#     4  11  22  35  49  69  98 129 163 205 248 292
#     4   8  16  31  50  76 108 134 157 188 232 288
#     4  12  23  34  50  70  94 124 162 206 255 302
#     4  10  21  35  51  68  91 130 173 211 251 292
#     4  10  20  35  52  70  93 125 165 210 256 299
#
# _framework density 16.506678999999998
#
# number of rings (size 3 to 8) (size 9 to 14) (size 15 to 20)
#    0.750    1.375    1.250    3.000    0.000    7.750 
#    0.000    0.000    0.000    2.250    0.000    0.875 
#    0.000    0.000    0.000    0.000    0.000    0.000 
#
# Total GULP energy -396605.386600 kJ/mol
# GULP energy per Si atom -12393.918331 kJ/mol
# Density = 1.646911 g / cm^3
# Si number density = 16.506679 Si / 1000 Ang^3
#
#
#
# Elastic Constant Matrix: (Units=GPa)
#
#
# Indices 1 2 3 4 5 6 
#
# 1 112.0294 49.4557 36.3130 -0.0001 16.4566 0.0007
# 2 49.4557 96.2090 33.2439 -0.0013 13.3645 0.0048
# 3 36.3130 33.2439 68.8893 0.0000 20.5681 0.0005
# 4 -0.0001 -0.0013 0.0000 22.5694 -0.0001 1.3089
# 5 16.4566 13.3645 20.5681 -0.0001 20.3023 -0.0002
# 6 0.0007 0.0048 0.0005 1.3089 -0.0002 27.3312
#
#
#
# Elastic Compliance Matrix: (Units=1/GPa)
#
#
# Indices 1 2 3 4 5 6 
#
# 1 0.012677 -0.004885 -0.003179 0.000000 -0.003840 0.000001
# 2 -0.004885 0.014488 -0.003944 0.000001 -0.001581 -0.000002
# 3 -0.003179 -0.003944 0.023727 0.000000 -0.018865 0.000000
# 4 0.000000 0.000001 0.000000 0.044431 0.000000 -0.002128
# 5 -0.003840 -0.001581 -0.018865 0.000000 0.072521 0.000001
# 6 0.000001 -0.000002 0.000000 -0.002128 0.000001 0.036690
#
#
# Mechanical properties :
#
#
# Convention : Reuss Voigt Hill
#
# Bulk Modulus (GPa) = 37.20672 57.23921 47.22297
# Shear Modulus (GPa) = 21.05184 24.58159 22.81672
#
# Velocity S-wave (km/s) = 3.57508 3.86319 3.72193
# Velocity P-wave (km/s) = 6.29531 7.39261 6.86592
#
# Compressibility (1/GPa) = 0.02687686
#
# Stress axis : x y z
#
# Youngs Moduli (GPa) = 78.88302 69.02449 42.14522
#
# Poissons Ratio (x) = 0.33717 0.13396
# Poissons Ratio (y) = 0.38533 0.16623
# Poissons Ratio (z) = 0.25074 0.27225
#
# Static dielectric constant tensor:
#      x y z
#    x 3.082300 0.000000 0.158000 
#    y 0.000000 3.181820 0.000000 
#    z 0.158000 0.000000 3.103440 
# 
# 
# High freq. dielectric constant tensor:
#      x y z
#    x 1.617980 0.000000 0.016960 
#    y 0.000000 1.643720 0.000000 
#    z 0.016960 0.000000 1.611460 
# 
# From -- ./inp_files/367041.got.cif
#   From: 2010.06.25/outbox.cif.g09.slc.cpg/sg12_184_cif.got.tgz:367041.got - 2010.06.28 00:19:55.
