data_PCOD8096412
_publ_section_title
;
Structure prediction by ZEFSAII (Michael W. Deem and Ramdas Pophale) SiO2 
 PCOD8096412
Probable space group: C 2/M
;
_chemical_formula_sum "Si O2"
_cell_formula_units_Z 64
_cell_length_a 14.836071
_cell_length_b 8.503713
_cell_length_c 27.425731
_cell_angle_alpha 90.000000
_cell_angle_beta 105.680640
_cell_angle_gamma 90.000000
_cell_volume 3331.303335
_symmetry_space_group_name_H-M "C 2/M"
_symmetry_group_IT_number 12
_symmetry_cell_setting 'monoclinic'
loop_
_space_group_symop_operation_xyz
x,y,z
-x,y,-z
-x,-y,-z
x,-y,z
1/2+x,1/2+y,z
1/2-x,1/2+y,-z
1/2-x,1/2-y,-z
1/2+x,1/2-y,z
loop_
_atom_site_type_symbol
_atom_site_label
_atom_site_fract_x
_atom_site_fract_y
_atom_site_fract_z
Si Si1 0.352493 0.312822 0.999453
Si Si2 0.953282 0.183308 0.626016
Si Si3 0.511333 0.683254 0.741959
Si Si4 0.035601 0.312220 0.073791
Si Si5 0.158220 0.813265 0.628390
Si Si6 0.099795 0.316346 0.187597
Si Si7 0.272110 0.817434 0.555518
Si Si8 0.713633 0.313063 0.739689
O O1 0.348413 0.500000 0.996948
O O2 0.384151 0.246305 0.951572
O O3 0.250000 0.250000 0.000000
O O4 0.432657 0.258735 0.049006
O O5 0.955373 0.221616 0.683992
O O6 0.877492 0.286260 0.587218
O O7 0.050228 0.235406 0.615443
O O8 0.932971 0.000000 0.614443
O O9 0.502888 0.500000 0.753256
O O10 0.474215 0.784843 0.780986
O O11 0.618621 0.736478 0.752498
O O12 0.028638 0.500000 0.069579
O O13 0.065436 0.247079 0.131166
O O14 0.203462 0.740563 0.586146
O O15 0.212998 0.747524 0.684046
O O16 0.166915 0.000000 0.629775
O O17 0.113017 0.500000 0.182541
O O18 0.199103 0.239681 0.218031
O O19 0.250000 0.750000 0.500000
O O20 0.253009 0.000000 0.549699
O O21 0.720560 0.500000 0.738526
#
# Coordination Sequence:
#
# PCOD8096412 Si02
#       8
#     8   8   8   8   8   8   8   8
#     4  11  22  39  62  83 106 144 188 234 284 333
#     4   9  18  35  55  75  99 132 174 217 255 302
#     4   9  18  32  53  78 105 137 175 215 256 304
#     4  10  21  37  55  83 117 148 187 231 271 321
#     4   8  16  32  54  73  96 134 174 205 246 308
#     4  10  20  33  53  80 113 145 174 214 260 306
#     4  11  22  35  52  75 100 130 167 212 264 319
#     4   8  15  31  52  75 101 135 175 208 245 304
#
# _framework density 19.2117
#
# number of rings (size 3 to 8) (size 9 to 14) (size 15 to 20)
#    0.000    2.500    0.000    4.875    0.000    4.000 
#    0.000    5.625    0.000    2.250    0.000    0.000 
#    0.000    0.000    0.000    0.000    0.000    0.000 
#
# Total GULP energy -396675.910384 kJ/mol
# GULP energy per Si atom -12396.122199 kJ/mol
# Density = 1.916797 g / cm^3
# Si number density = 19.211700 Si / 1000 Ang^3
#
#
#
# Elastic Constant Matrix: (Units=GPa)
#
#
# Indices 1 2 3 4 5 6 
#
# 1 140.0539 20.1633 86.4822 0.0000 -0.5640 0.0000
# 2 20.1633 43.6149 19.8515 0.0000 3.7676 0.0000
# 3 86.4822 19.8515 161.9075 0.0000 4.2649 0.0000
# 4 0.0000 0.0000 0.0000 26.2910 0.0000 -1.6615
# 5 -0.5640 3.7676 4.2649 0.0000 9.5803 0.0000
# 6 0.0000 0.0000 0.0000 -1.6615 0.0000 29.6620
#
#
#
# Elastic Compliance Matrix: (Units=1/GPa)
#
#
# Indices 1 2 3 4 5 6 
#
# 1 0.011082 -0.002913 -0.005676 0.000000 0.004325 0.000000
# 2 -0.002913 0.025723 -0.001343 0.000000 -0.009690 0.000000
# 3 -0.005676 -0.001343 0.009479 0.000000 -0.004026 0.000000
# 4 0.000000 0.000000 0.000000 0.038171 0.000000 0.002138
# 5 0.004325 -0.009690 -0.004026 0.000000 0.110239 0.000000
# 6 0.000000 0.000000 0.000000 0.002138 0.000000 0.033833
#
#
# Mechanical properties :
#
#
# Convention : Reuss Voigt Hill
#
# Bulk Modulus (GPa) = 37.85035 66.50783 52.17909
# Shear Modulus (GPa) = 19.44039 27.71194 23.57617
#
# Velocity S-wave (km/s) = 3.18449 3.80208 3.50691
# Velocity P-wave (km/s) = 5.76765 7.34629 6.60431
#
# Compressibility (1/GPa) = 0.02641984
#
# Stress axis : x y z
#
# Youngs Moduli (GPa) = 90.23753 38.87591 105.49791
#
# Poissons Ratio (x) = 0.11326 0.59881
# Poissons Ratio (y) = 0.26289 0.14163
# Poissons Ratio (z) = 0.51219 0.05219
#
# Static dielectric constant tensor:
#      x y z
#    x 3.643160 0.000000 -0.001610 
#    y 0.000000 3.217820 0.000000 
#    z -0.001610 0.000000 3.935260 
# 
# 
# High freq. dielectric constant tensor:
#      x y z
#    x 1.756610 0.000000 0.000310 
#    y 0.000000 1.722020 0.000000 
#    z 0.000310 0.000000 1.752140 
# 
# From -- ./inp_files/359915.got.cif
#   From: 2010.06.25/outbox.cif.g09.slc.cpg/sg12_180_cif.got.tgz:359915.got - 2010.06.28 00:19:55.
