data_PCOD8096846
_publ_section_title
;
Structure prediction by ZEFSAII (Michael W. Deem and Ramdas Pophale) SiO2 
 PCOD8096846
Probable space group: C 2/M
;
_chemical_formula_sum "Si O2"
_cell_formula_units_Z 48
_cell_length_a 27.703448
_cell_length_b 9.081190
_cell_length_c 11.242896
_cell_angle_alpha 90.000000
_cell_angle_beta 77.902343
_cell_angle_gamma 90.000000
_cell_volume 2765.675198
_symmetry_space_group_name_H-M "C 2/M"
_symmetry_group_IT_number 12
_symmetry_cell_setting 'monoclinic'
loop_
_space_group_symop_operation_xyz
x,y,z
-x,y,-z
-x,-y,-z
x,-y,z
1/2+x,1/2+y,z
1/2-x,1/2+y,-z
1/2-x,1/2-y,-z
1/2+x,1/2-y,z
loop_
_atom_site_type_symbol
_atom_site_label
_atom_site_fract_x
_atom_site_fract_y
_atom_site_fract_z
Si Si1 0.586399 0.327964 0.284619
Si Si2 0.104489 0.828030 0.544078
Si Si3 0.821548 0.169394 0.920434
Si Si4 0.778919 0.329983 0.159419
Si Si5 0.791338 0.174228 0.400100
Si Si6 0.009339 0.333650 0.634852
O O1 0.575099 0.500000 0.286862
O O2 0.605310 0.281157 0.405425
O O3 0.627953 0.282848 0.168759
O O4 0.536111 0.244828 0.274771
O O5 0.156005 0.779766 0.573992
O O6 0.060885 0.745886 0.637966
O O7 0.094631 0.000000 0.563591
O O8 0.777755 0.191768 0.848642
O O9 0.822960 0.000000 0.962547
O O10 0.814888 0.274944 0.036435
O O11 0.790578 0.500000 0.181574
O O12 0.788727 0.230542 0.267833
O O13 0.750000 0.250000 0.500000
O O14 0.783324 0.000000 0.407969
O O15 0.012564 0.500000 0.678990
O O16 0.000000 0.322989 0.500000
#
# Coordination Sequence:
#
# PCOD8096846 Si02
#       6
#     8   8   8   8   8   8
#     4   9  16  29  50  72  96 127 163 200 239 287
#     4   9  18  32  49  70  98 132 164 195 237 290
#     4   9  18  33  52  73  98 130 167 204 242 289
#     4  10  20  34  51  73 101 131 165 203 245 290
#     4  11  22  35  52  74 101 132 166 201 240 290
#     4   9  17  28  44  70 100 126 157 199 244 287
#
# _framework density 17.355618
#
# number of rings (size 3 to 8) (size 9 to 14) (size 15 to 20)
#    0.000    2.500    0.000    2.500    0.000    7.333 
#    0.000    3.333    0.000    1.000    0.000    7.000 
#    0.000    0.000    0.000    0.000    0.000    0.000 
#
# Total GULP energy -297644.470506 kJ/mol
# GULP energy per Si atom -12401.852938 kJ/mol
# Density = 1.731612 g / cm^3
# Si number density = 17.355618 Si / 1000 Ang^3
#
#
#
# Elastic Constant Matrix: (Units=GPa)
#
#
# Indices 1 2 3 4 5 6 
#
# 1 141.2346 67.6464 62.6351 0.0000 -25.5964 0.0000
# 2 67.6464 78.6776 41.5947 0.0000 -11.1119 0.0000
# 3 62.6351 41.5947 74.9594 0.0000 -14.0704 0.0000
# 4 0.0000 0.0000 0.0000 29.4273 0.0000 -3.8289
# 5 -25.5964 -11.1119 -14.0704 0.0000 30.2349 0.0000
# 6 0.0000 0.0000 0.0000 -3.8289 0.0000 30.7254
#
#
#
# Elastic Compliance Matrix: (Units=1/GPa)
#
#
# Indices 1 2 3 4 5 6 
#
# 1 0.015556 -0.008802 -0.006848 0.000000 0.006748 0.000000
# 2 -0.008802 0.023096 -0.005771 0.000000 -0.001649 0.000000
# 3 -0.006848 -0.005771 0.022767 0.000000 0.002677 0.000000
# 4 0.000000 0.000000 0.000000 0.034542 0.000000 0.004305
# 5 0.006748 -0.001649 0.002677 0.000000 0.039427 0.000000
# 6 0.000000 0.000000 0.000000 0.004305 0.000000 0.033083
#
#
# Mechanical properties :
#
#
# Convention : Reuss Voigt Hill
#
# Bulk Modulus (GPa) = 53.82528 70.95821 62.39175
# Shear Modulus (GPa) = 22.98824 26.27723 24.63274
#
# Velocity S-wave (km/s) = 3.64337 3.89530 3.77144
# Velocity P-wave (km/s) = 6.98423 7.82335 7.41566
#
# Compressibility (1/GPa) = 0.01857863
#
# Stress axis : x y z
#
# Youngs Moduli (GPa) = 64.28476 43.29844 43.92337
#
# Poissons Ratio (x) = 0.38109 0.30077
# Poissons Ratio (y) = 0.56581 0.25346
# Poissons Ratio (z) = 0.44020 0.24986
#
# Static dielectric constant tensor:
#      x y z
#    x 3.311600 0.000000 -0.138590 
#    y 0.000000 3.282750 0.000000 
#    z -0.138590 0.000000 3.086970 
# 
# 
# High freq. dielectric constant tensor:
#      x y z
#    x 1.671070 0.000000 -0.017970 
#    y 0.000000 1.676600 0.000000 
#    z -0.017970 0.000000 1.647200 
# 
# From -- ./inp_files/172402.got.cif
#   From: 2010.06.25/outbox.cif.g09.slc.cpg/sg12_87_cif.got.tgz:172402.got - 2010.06.28 00:19:55.
