data_PCOD8096884
_publ_section_title
;
Structure prediction by ZEFSAII (Michael W. Deem and Ramdas Pophale) SiO2 
 PCOD8096884
Probable space group: C 2/M
;
_chemical_formula_sum "Si O2"
_cell_formula_units_Z 64
_cell_length_a 14.494026
_cell_length_b 9.086980
_cell_length_c 26.205106
_cell_angle_alpha 90.000000
_cell_angle_beta 90.640799
_cell_angle_gamma 90.000000
_cell_volume 3451.178061
_symmetry_space_group_name_H-M "C 2/M"
_symmetry_group_IT_number 12
_symmetry_cell_setting 'monoclinic'
loop_
_space_group_symop_operation_xyz
x,y,z
-x,y,-z
-x,-y,-z
x,-y,z
1/2+x,1/2+y,z
1/2-x,1/2+y,-z
1/2-x,1/2-y,-z
1/2+x,1/2-y,z
loop_
_atom_site_type_symbol
_atom_site_label
_atom_site_fract_x
_atom_site_fract_y
_atom_site_fract_z
Si Si1 0.600181 0.173657 0.264640
Si Si2 0.101654 0.168255 0.631916
Si Si3 0.244395 0.672926 0.445956
Si Si4 0.604678 0.327105 0.993895
Si Si5 0.232262 0.172737 0.191419
Si Si6 0.390349 0.325859 0.631751
Si Si7 0.757564 0.671981 0.075632
Si Si8 0.889500 0.330078 0.268883
O O1 0.649741 0.233240 0.214663
O O2 0.640807 0.256843 0.314430
O O3 0.493537 0.216260 0.256405
O O4 0.615832 0.000000 0.271232
O O5 0.158388 0.202060 0.581247
O O6 0.146109 0.253166 0.679883
O O7 0.996515 0.214747 0.621508
O O8 0.108036 0.000000 0.647810
O O9 0.223903 0.500000 0.451946
O O10 0.250000 0.750000 0.500000
O O11 0.163467 0.748646 0.413965
O O12 0.603347 0.500000 0.983876
O O13 0.651899 0.252736 0.945227
O O14 0.500000 0.267778 0.000000
O O15 0.664912 0.285654 0.044092
O O16 0.242533 0.223379 0.133300
O O17 0.326687 0.214741 0.220747
O O18 0.209261 0.000000 0.195691
O O19 0.371455 0.500000 0.632175
O O20 0.778032 0.500000 0.072179
O O21 0.882162 0.500000 0.280942
#
# Coordination Sequence:
#
# PCOD8096884 Si02
#       8
#     8   8   8   8   8   8   8   8
#     4  10  20  34  52  77 105 134 169 208 250 301
#     4   9  20  37  56  76 102 135 171 209 252 304
#     4  11  23  38  55  79 107 136 172 215 261 310
#     4   9  18  34  54  74  99 133 173 217 263 309
#     4  10  20  34  51  74 106 140 170 208 257 306
#     4  10  20  37  58  78 102 136 173 211 255 304
#     4   9  19  34  51  74 103 134 172 214 257 308
#     4   9  19  34  52  74 102 134 168 205 249 302
#
# _framework density 18.544394
#
# number of rings (size 3 to 8) (size 9 to 14) (size 15 to 20)
#    0.000    2.375    0.000    1.875    0.000    6.750 
#    0.000    2.500    0.000    0.000    0.000    0.000 
#    0.000    0.000    0.000    0.000    0.000    0.000 
#
# Total GULP energy -396884.434864 kJ/mol
# GULP energy per Si atom -12402.638590 kJ/mol
# Density = 1.850219 g / cm^3
# Si number density = 18.544394 Si / 1000 Ang^3
#
#
#
# Elastic Constant Matrix: (Units=GPa)
#
#
# Indices 1 2 3 4 5 6 
#
# 1 95.5657 40.1657 51.2091 0.0000 -15.0081 0.0000
# 2 40.1657 66.2708 50.5388 0.0000 -10.0079 0.0000
# 3 51.2091 50.5388 138.2366 0.0000 -18.0720 0.0000
# 4 0.0000 0.0000 0.0000 33.5856 0.0000 -5.3833
# 5 -15.0081 -10.0079 -18.0720 0.0000 20.4615 0.0000
# 6 0.0000 0.0000 0.0000 -5.3833 0.0000 27.2839
#
#
#
# Elastic Compliance Matrix: (Units=1/GPa)
#
#
# Indices 1 2 3 4 5 6 
#
# 1 0.015529 -0.006548 -0.002587 0.000000 0.005903 0.000000
# 2 -0.006548 0.023967 -0.006141 0.000000 0.001496 0.000000
# 3 -0.002587 -0.006141 0.011076 0.000000 0.004881 0.000000
# 4 0.000000 0.000000 0.000000 0.030747 0.000000 0.006067
# 5 0.005903 0.001496 0.004881 0.000000 0.058245 0.000000
# 6 0.000000 0.000000 0.000000 0.006067 0.000000 0.037849
#
#
# Mechanical properties :
#
#
# Convention : Reuss Voigt Hill
#
# Bulk Modulus (GPa) = 49.94983 64.87783 57.41383
# Shear Modulus (GPa) = 23.29501 26.81016 25.05258
#
# Velocity S-wave (km/s) = 3.54810 3.80640 3.67952
# Velocity P-wave (km/s) = 6.61658 7.37423 7.00566
#
# Compressibility (1/GPa) = 0.02002009
#
# Stress axis : x y z
#
# Youngs Moduli (GPa) = 64.39424 41.72350 90.28742
#
# Poissons Ratio (x) = 0.27319 0.23360
# Poissons Ratio (y) = 0.42163 0.55448
# Poissons Ratio (z) = 0.16661 0.25624
#
# Static dielectric constant tensor:
#      x y z
#    x 3.524410 0.000000 -0.154620 
#    y 0.000000 3.408850 0.000000 
#    z -0.154620 0.000000 3.224470 
# 
# 
# High freq. dielectric constant tensor:
#      x y z
#    x 1.727330 0.000000 -0.001060 
#    y 0.000000 1.720450 0.000000 
#    z -0.001060 0.000000 1.717310 
# 
# From -- ./inp_files/338937.got.cif
#   From: 2010.06.25/outbox.cif.g09.slc.cpg/sg12_170_cif.got.tgz:338937.got - 2010.06.28 00:19:55.
