data_PCOD8096656
_publ_section_title
;
Structure prediction by ZEFSAII (Michael W. Deem and Ramdas Pophale) SiO2 
 PCOD8096656
Probable space group: C 2/M
;
_chemical_formula_sum "Si O2"
_cell_formula_units_Z 56
_cell_length_a 21.248019
_cell_length_b 9.274382
_cell_length_c 15.092776
_cell_angle_alpha 90.000000
_cell_angle_beta 92.656257
_cell_angle_gamma 90.000000
_cell_volume 2971.020668
_symmetry_space_group_name_H-M "C 2/M"
_symmetry_group_IT_number 12
_symmetry_cell_setting 'monoclinic'
loop_
_space_group_symop_operation_xyz
x,y,z
-x,y,-z
-x,-y,-z
x,-y,z
1/2+x,1/2+y,z
1/2-x,1/2+y,-z
1/2-x,1/2-y,-z
1/2+x,1/2-y,z
loop_
_atom_site_type_symbol
_atom_site_label
_atom_site_fract_x
_atom_site_fract_y
_atom_site_fract_z
Si Si1 0.810548 0.170713 0.964304
Si Si2 0.467430 0.828852 0.410041
Si Si3 0.443696 0.669292 0.061390
Si Si4 0.328217 0.831336 0.430815
Si Si5 0.712199 0.834225 0.378335
Si Si6 0.501496 0.831966 0.219337
Si Si7 0.856165 0.665649 0.804418
O O1 0.874699 0.211559 0.020451
O O2 0.798820 0.000000 0.963477
O O3 0.750000 0.250000 0.000000
O O4 0.818149 0.226976 0.864934
O O5 0.500000 0.761187 0.500000
O O6 0.395531 0.776430 0.402156
O O7 0.499647 0.775845 0.320930
O O8 0.471809 0.000000 0.417740
O O9 0.449208 0.500000 0.077597
O O10 0.451066 0.747725 0.156234
O O11 0.500000 0.721666 0.000000
O O12 0.321584 0.786724 0.533215
O O13 0.275963 0.754711 0.367269
O O14 0.320101 0.000000 0.416771
O O15 0.663933 0.801401 0.296971
O O16 0.731837 0.000000 0.382853
O O17 0.570028 0.801659 0.183664
O O18 0.483913 0.000000 0.215347
O O19 0.841387 0.500000 0.829480
#
# Coordination Sequence:
#
# PCOD8096656 Si02
#       7
#     8   8   8   8   8   8   8
#     4  11  24  41  61  84 113 147 184 230 285 342
#     4   9  17  31  52  79 111 142 177 225 277 324
#     4  10  21  40  61  81 111 149 186 228 287 347
#     4   9  17  31  51  75 104 141 184 226 270 324
#     4   9  18  32  51  74 105 144 182 223 274 329
#     4  10  20  33  57  88 111 142 190 237 275 325
#     4  10  20  35  55  81 111 143 184 229 280 335
#
# _framework density 18.848741
#
# number of rings (size 3 to 8) (size 9 to 14) (size 15 to 20)
#    0.000    2.286    1.429    1.286    0.000    6.571 
#    0.000    3.571    0.000    3.429    0.000    0.000 
#    0.000    0.000    0.000    0.000    0.000    0.000 
#
# Total GULP energy -347202.655502 kJ/mol
# GULP energy per Si atom -12400.094839 kJ/mol
# Density = 1.880584 g / cm^3
# Si number density = 18.848741 Si / 1000 Ang^3
#
#
#
# Elastic Constant Matrix: (Units=GPa)
#
#
# Indices 1 2 3 4 5 6 
#
# 1 108.0480 41.9352 39.9735 0.0000 -2.8331 0.0000
# 2 41.9352 47.3798 37.0515 0.0000 1.7406 0.0000
# 3 39.9735 37.0515 94.2105 0.0000 0.3504 0.0000
# 4 0.0000 0.0000 0.0000 27.6464 0.0000 3.4349
# 5 -2.8331 1.7406 0.3504 0.0000 32.8329 0.0000
# 6 0.0000 0.0000 0.0000 3.4349 0.0000 27.7555
#
#
#
# Elastic Compliance Matrix: (Units=1/GPa)
#
#
# Indices 1 2 3 4 5 6 
#
# 1 0.014371 -0.011574 -0.001553 0.000000 0.001870 0.000000
# 2 -0.011574 0.039874 -0.010760 0.000000 -0.002998 0.000000
# 3 -0.001553 -0.010760 0.015504 0.000000 0.000271 0.000000
# 4 0.000000 0.000000 0.000000 0.036736 0.000000 -0.004546
# 5 0.001870 -0.002998 0.000271 0.000000 0.030775 0.000000
# 6 0.000000 0.000000 0.000000 -0.004546 0.000000 0.036592
#
#
# Mechanical properties :
#
#
# Convention : Reuss Voigt Hill
#
# Bulk Modulus (GPa) = 45.50385 54.17319 49.83852
# Shear Modulus (GPa) = 21.83890 26.35881 24.09886
#
# Velocity S-wave (km/s) = 3.40757 3.74363 3.57955
# Velocity P-wave (km/s) = 6.29889 6.89128 6.60173
#
# Compressibility (1/GPa) = 0.02197616
#
# Stress axis : x y z
#
# Youngs Moduli (GPa) = 69.58689 25.07880 64.49914
#
# Poissons Ratio (x) = 0.29025 0.10014
# Poissons Ratio (y) = 0.80537 0.69402
# Poissons Ratio (z) = 0.10804 0.26985
#
# Static dielectric constant tensor:
#      x y z
#    x 3.576470 0.000000 0.006280 
#    y 0.000000 3.245160 0.000000 
#    z 0.006280 0.000000 3.483770 
# 
# 
# High freq. dielectric constant tensor:
#      x y z
#    x 1.737650 0.000000 0.003780 
#    y 0.000000 1.708030 0.000000 
#    z 0.003780 0.000000 1.735740 
# 
# From -- ./inp_files/231050.got.cif
#   From: 2010.06.25/outbox.cif.g09.slc.cpg/sg12_116_cif.got.tgz:231050.got - 2010.06.28 00:19:55.
