data_PCOD8096835
_publ_section_title
;
Structure prediction by ZEFSAII (Michael W. Deem and Ramdas Pophale) SiO2 
 PCOD8096835
Probable space group: C 2/M
;
_chemical_formula_sum "Si O2"
_cell_formula_units_Z 64
_cell_length_a 18.093171
_cell_length_b 9.176597
_cell_length_c 20.648811
_cell_angle_alpha 90.000000
_cell_angle_beta 89.118297
_cell_angle_gamma 90.000000
_cell_volume 3427.993359
_symmetry_space_group_name_H-M "C 2/M"
_symmetry_group_IT_number 12
_symmetry_cell_setting 'monoclinic'
loop_
_space_group_symop_operation_xyz
x,y,z
-x,y,-z
-x,-y,-z
x,-y,z
1/2+x,1/2+y,z
1/2-x,1/2+y,-z
1/2-x,1/2-y,-z
1/2+x,1/2-y,z
loop_
_atom_site_type_symbol
_atom_site_label
_atom_site_fract_x
_atom_site_fract_y
_atom_site_fract_z
Si Si1 0.662466 0.667468 0.121932
Si Si2 0.327006 0.670090 0.490687
Si Si3 0.829126 0.326862 0.117471
Si Si4 0.420258 0.827669 0.238732
Si Si5 0.083822 0.327722 0.009170
Si Si6 0.665033 0.668573 0.367478
Si Si7 0.832492 0.672302 0.367598
Si Si8 0.572092 0.332119 0.251225
O O1 0.661612 0.500000 0.099342
O O2 0.745438 0.731676 0.119591
O O3 0.632520 0.684766 0.194534
O O4 0.611831 0.758438 0.074710
O O5 0.315195 0.500000 0.476079
O O6 0.250000 0.750000 0.500000
O O7 0.368365 0.691152 0.559472
O O8 0.368839 0.746857 0.429866
O O9 0.829593 0.500000 0.120571
O O10 0.872948 0.266097 0.179152
O O11 0.868138 0.269600 0.051808
O O12 0.379541 0.780898 0.305030
O O13 0.500595 0.759006 0.234125
O O14 0.429015 0.000000 0.234149
O O15 0.089886 0.500000 0.015922
O O16 0.000000 0.277408 0.000000
O O17 0.671768 0.500000 0.349249
O O18 0.748460 0.731270 0.359859
O O19 0.608906 0.736999 0.315806
O O20 0.834211 0.500000 0.380153
O O21 0.548650 0.500000 0.261134
#
# Coordination Sequence:
#
# PCOD8096835 Si02
#       8
#     8   8   8   8   8   8   8   8
#     4  10  20  34  54  77  99 129 169 210 248 288
#     4   9  16  28  49  75 101 130 166 208 251 295
#     4   9  18  34  55  76  99 132 172 207 243 293
#     4  10  20  35  54  74  99 132 168 206 251 302
#     4  10  20  34  53  77 106 137 165 199 247 300
#     4   8  15  30  51  72  95 128 167 202 240 291
#     4   9  17  31  52  75  98 128 167 208 249 296
#     4  10  20  34  51  72  99 129 165 208 250 295
#
# _framework density 18.669815
#
# number of rings (size 3 to 8) (size 9 to 14) (size 15 to 20)
#    0.000    2.625    0.000    3.000    0.000    5.250 
#    0.000    5.000    0.000    8.250    0.000    0.000 
#    0.000    0.000    0.000    0.000    0.000    0.000 
#
# Total GULP energy -396711.534013 kJ/mol
# GULP energy per Si atom -12397.235438 kJ/mol
# Density = 1.862732 g / cm^3
# Si number density = 18.669815 Si / 1000 Ang^3
#
#
#
# Elastic Constant Matrix: (Units=GPa)
#
#
# Indices 1 2 3 4 5 6 
#
# 1 101.8095 20.6186 39.3138 0.0000 17.4693 0.0000
# 2 20.6186 31.6161 30.9438 0.0000 4.4087 0.0000
# 3 39.3138 30.9438 122.4223 0.0000 19.3007 0.0000
# 4 0.0000 0.0000 0.0000 28.5012 0.0000 -0.9053
# 5 17.4693 4.4087 19.3007 0.0000 26.4727 0.0000
# 6 0.0000 0.0000 0.0000 -0.9053 0.0000 22.7446
#
#
#
# Elastic Compliance Matrix: (Units=1/GPa)
#
#
# Indices 1 2 3 4 5 6 
#
# 1 0.012697 -0.005823 -0.001624 0.000000 -0.006225 0.000000
# 2 -0.005823 0.044713 -0.010015 0.000000 0.003698 0.000000
# 3 -0.001624 -0.010015 0.012191 0.000000 -0.006148 0.000000
# 4 0.000000 0.000000 0.000000 0.035131 0.000000 0.001398
# 5 -0.006225 0.003698 -0.006148 0.000000 0.045749 0.000000
# 6 0.000000 0.000000 0.000000 0.001398 0.000000 0.044022
#
#
# Mechanical properties :
#
#
# Convention : Reuss Voigt Hill
#
# Bulk Modulus (GPa) = 28.83751 48.62224 38.72988
# Shear Modulus (GPa) = 20.74820 26.54182 23.64501
#
# Velocity S-wave (km/s) = 3.33727 3.77456 3.56263
# Velocity P-wave (km/s) = 5.50721 6.71537 6.14107
#
# Compressibility (1/GPa) = 0.03467705
#
# Stress axis : x y z
#
# Youngs Moduli (GPa) = 78.76042 22.36493 82.02936
#
# Poissons Ratio (x) = 0.13022 0.13324
# Poissons Ratio (y) = 0.45858 0.82151
# Poissons Ratio (z) = 0.12793 0.22398
#
# Static dielectric constant tensor:
#      x y z
#    x 3.386570 0.000000 0.010940 
#    y 0.000000 3.181660 0.000000 
#    z 0.010940 0.000000 3.893660 
# 
# 
# High freq. dielectric constant tensor:
#      x y z
#    x 1.712900 0.000000 0.000520 
#    y 0.000000 1.691750 0.000000 
#    z 0.000520 0.000000 1.746920 
# 
# From -- ./inp_files/313984.got.cif
#   From: 2010.06.25/outbox.cif.g09.slc.cpg/sg12_157_cif.got.tgz:313984.got - 2010.06.28 00:19:55.
