data_PCOD8096769
_publ_section_title
;
Structure prediction by ZEFSAII (Michael W. Deem and Ramdas Pophale) SiO2 
 PCOD8096769
Probable space group: C 2/M
;
_chemical_formula_sum "Si O2"
_cell_formula_units_Z 56
_cell_length_a 30.685997
_cell_length_b 9.056718
_cell_length_c 11.873721
_cell_angle_alpha 90.000000
_cell_angle_beta 117.429857
_cell_angle_gamma 90.000000
_cell_volume 2928.890979
_symmetry_space_group_name_H-M "C 2/M"
_symmetry_group_IT_number 12
_symmetry_cell_setting 'monoclinic'
loop_
_space_group_symop_operation_xyz
x,y,z
-x,y,-z
-x,-y,-z
x,-y,z
1/2+x,1/2+y,z
1/2-x,1/2+y,-z
1/2-x,1/2-y,-z
1/2+x,1/2-y,z
loop_
_atom_site_type_symbol
_atom_site_label
_atom_site_fract_x
_atom_site_fract_y
_atom_site_fract_z
Si Si1 0.951596 0.673268 0.381248
Si Si2 0.088617 0.826184 0.299943
Si Si3 0.022267 0.169370 0.804640
Si Si4 0.892255 0.168797 0.932048
Si Si5 0.315881 0.171121 0.994717
Si Si6 0.136893 0.325660 0.562647
Si Si7 0.295572 0.671622 0.195144
O O1 0.954803 0.500000 0.367377
O O2 0.947117 0.745312 0.253832
O O3 0.905767 0.719835 0.401886
O O4 0.000000 0.734937 0.500000
O O5 0.107372 0.787903 0.197968
O O6 0.124605 0.739960 0.426271
O O7 0.032756 0.767293 0.246799
O O8 0.091355 0.000000 0.327247
O O9 0.019314 0.000000 0.764824
O O10 0.052303 0.189419 0.956078
O O11 0.854808 0.275893 0.949800
O O12 0.874995 0.000000 0.929131
O O13 0.262335 0.199335 0.879556
O O14 0.324796 0.000000 0.033015
O O15 0.322646 0.259343 0.118923
O O16 0.143868 0.500000 0.559894
O O17 0.186405 0.252323 0.669718
O O18 0.309081 0.500000 0.216336
#
# Coordination Sequence:
#
# PCOD8096769 Si02
#       7
#     8   8   8   8   8   8   8
#     4  10  20  34  50  74 111 145 175 219 273 325
#     4  10  21  37  55  77 111 151 190 229 271 323
#     4  10  20  34  55  81 108 144 189 230 270 321
#     4  10  21  37  57  81 110 147 188 231 275 323
#     4  10  21  38  60  87 114 141 178 226 277 329
#     4  11  22  36  56  82 113 148 186 227 276 328
#     4  10  21  38  61  86 113 143 178 223 277 333
#
# _framework density 19.119864
#
# number of rings (size 3 to 8) (size 9 to 14) (size 15 to 20)
#    0.000    1.857    1.429    2.571    0.000    8.286 
#    0.000    0.714    0.000    2.571    0.000    0.000 
#    0.000    0.000    0.000    0.000    0.000    0.000 
#
# Total GULP energy -347333.296297 kJ/mol
# GULP energy per Si atom -12404.760582 kJ/mol
# Density = 1.907635 g / cm^3
# Si number density = 19.119864 Si / 1000 Ang^3
#
#
#
# Elastic Constant Matrix: (Units=GPa)
#
#
# Indices 1 2 3 4 5 6 
#
# 1 60.6931 27.7085 34.4193 0.0000 -6.3278 0.0000
# 2 27.7085 63.8564 51.1428 0.0000 -1.9269 0.0000
# 3 34.4193 51.1428 140.5987 0.0000 -4.9481 0.0000
# 4 0.0000 0.0000 0.0000 25.6015 0.0000 -1.5226
# 5 -6.3278 -1.9269 -4.9481 0.0000 24.0290 0.0000
# 6 0.0000 0.0000 0.0000 -1.5226 0.0000 29.0019
#
#
#
# Elastic Compliance Matrix: (Units=1/GPa)
#
#
# Indices 1 2 3 4 5 6 
#
# 1 0.021697 -0.007269 -0.002505 0.000000 0.004615 0.000000
# 2 -0.007269 0.024534 -0.007195 0.000000 -0.001429 0.000000
# 3 -0.002505 -0.007195 0.010374 0.000000 0.000900 0.000000
# 4 0.000000 0.000000 0.000000 0.039183 0.000000 0.002057
# 5 0.004615 -0.001429 0.000900 0.000000 0.042902 0.000000
# 6 0.000000 0.000000 0.000000 0.002057 0.000000 0.034588
#
#
# Mechanical properties :
#
#
# Convention : Reuss Voigt Hill
#
# Bulk Modulus (GPa) = 44.11713 54.63215 49.37464
# Shear Modulus (GPa) = 23.28053 25.85164 24.56608
#
# Velocity S-wave (km/s) = 3.49321 3.68106 3.58836
# Velocity P-wave (km/s) = 6.27647 6.83392 6.56112
#
# Compressibility (1/GPa) = 0.02266693
#
# Stress axis : x y z
#
# Youngs Moduli (GPa) = 46.09008 40.76033 96.39066
#
# Poissons Ratio (x) = 0.29629 0.24145
# Poissons Ratio (y) = 0.33504 0.69352
# Poissons Ratio (z) = 0.11545 0.29326
#
# Static dielectric constant tensor:
#      x y z
#    x 3.345240 0.000000 0.092690 
#    y 0.000000 3.418090 0.000000 
#    z 0.092690 0.000000 3.587020 
# 
# 
# High freq. dielectric constant tensor:
#      x y z
#    x 1.730300 0.000000 0.006250 
#    y 0.000000 1.742220 0.000000 
#    z 0.006250 0.000000 1.753930 
# 
# From -- ./inp_files/180683.got.cif
#   From: 2010.06.25/outbox.cif.g09.slc.cpg/sg12_91_cif.got.tgz:180683.got - 2010.06.28 00:19:55.
