data_PCOD8096701
_publ_section_title
;
Structure prediction by ZEFSAII (Michael W. Deem and Ramdas Pophale) SiO2 
 PCOD8096701
Probable space group: C 2/M
;
_chemical_formula_sum "Si O2"
_cell_formula_units_Z 56
_cell_length_a 9.810214
_cell_length_b 27.985495
_cell_length_c 11.576505
_cell_angle_alpha 90.000000
_cell_angle_beta 116.352555
_cell_angle_gamma 90.000000
_cell_volume 2847.970910
_symmetry_space_group_name_H-M "C 2/M"
_symmetry_group_IT_number 12
_symmetry_cell_setting 'monoclinic'
loop_
_space_group_symop_operation_xyz
x,y,z
-x,y,-z
-x,-y,-z
x,-y,z
1/2+x,1/2+y,z
1/2-x,1/2+y,-z
1/2-x,1/2-y,-z
1/2+x,1/2-y,z
loop_
_atom_site_type_symbol
_atom_site_label
_atom_site_fract_x
_atom_site_fract_y
_atom_site_fract_z
Si Si1 0.147737 0.945558 0.977481
Si Si2 0.088302 0.130078 0.770221
Si Si3 0.182897 0.348067 0.325070
Si Si4 0.757670 0.350966 0.386585
Si Si5 0.172515 0.752773 0.590818
Si Si6 0.844331 0.203128 0.005416
Si Si7 0.847552 0.375467 0.185887
O O1 0.103006 0.919548 0.842831
O O2 0.190894 0.000000 0.966626
O O3 0.293941 0.921805 0.094388
O O4 0.000000 0.940903 0.000000
O O5 0.192917 0.120997 0.696749
O O6 0.134665 0.174850 0.867022
O O7 0.919801 0.140909 0.663668
O O8 0.173931 0.357486 0.459617
O O9 0.233595 0.293966 0.307342
O O10 0.018541 0.361862 0.213612
O O11 0.807487 0.299700 0.347532
O O12 0.827677 0.386747 0.316441
O O13 0.250000 0.750000 0.500000
O O14 0.000000 0.768387 0.500000
O O15 0.750000 0.250000 0.000000
O O16 0.758929 0.169209 0.883512
O O17 0.000000 0.217825 0.000000
#
# Coordination Sequence:
#
# PCOD8096701 Si02
#       7
#     8   8   8   8   8   8   8
#     4  10  21  44  72  90 107 148 206 257 308 377
#     4  11  22  39  61  89 119 154 204 246 305 357
#     4  11  24  34  57  91 127 164 197 242 292 355
#     4  11  20  38  59  83 128 166 208 245 278 346
#     4  10  20  34  48  77 118 174 212 222 261 331
#     4  11  25  39  55  80 116 161 201 252 299 342
#     4  11  22  39  61  89 118 154 203 245 302 354
#
# _framework density 19.663122000000001
#
# number of rings (size 3 to 8) (size 9 to 14) (size 15 to 20)
#    0.000    1.286    2.857    5.143    6.000    1.714 
#    0.000    1.429    0.000    5.143    0.000    0.000 
#    0.000    0.000    0.000    0.000    0.000    0.000 
#
# Total GULP energy -346995.514140 kJ/mol
# GULP energy per Si atom -12392.696934 kJ/mol
# Density = 1.961837 g / cm^3
# Si number density = 19.663122 Si / 1000 Ang^3
#
#
#
# Elastic Constant Matrix: (Units=GPa)
#
#
# Indices 1 2 3 4 5 6 
#
# 1 112.2059 27.8845 16.6830 0.0000 23.7725 0.0000
# 2 27.8845 116.1349 33.2405 0.0000 11.7778 0.0000
# 3 16.6830 33.2405 63.1640 0.0000 12.6563 0.0000
# 4 0.0000 0.0000 0.0000 17.0424 0.0000 7.6813
# 5 23.7725 11.7778 12.6563 0.0000 44.0726 0.0000
# 6 0.0000 0.0000 0.0000 7.6813 0.0000 10.5131
#
#
#
# Elastic Compliance Matrix: (Units=1/GPa)
#
#
# Indices 1 2 3 4 5 6 
#
# 1 0.010533 -0.001783 -0.000850 0.000000 -0.004961 0.000000
# 2 -0.001783 0.010505 -0.004974 0.000000 -0.000417 0.000000
# 3 -0.000850 -0.004974 0.019434 0.000000 -0.003793 0.000000
# 4 0.000000 0.000000 0.000000 0.087488 0.000000 -0.063922
# 5 -0.004961 -0.000417 -0.003793 0.000000 0.026566 0.000000
# 6 0.000000 0.000000 0.000000 -0.063922 0.000000 0.141823
#
#
# Mechanical properties :
#
#
# Convention : Reuss Voigt Hill
#
# Bulk Modulus (GPa) = 39.59014 49.68010 44.63512
# Shear Modulus (GPa) = 15.62599 28.57208 22.09904
#
# Velocity S-wave (km/s) = 2.82207 3.81606 3.35607
# Velocity P-wave (km/s) = 5.54948 6.68857 6.14547
#
# Compressibility (1/GPa) = 0.02525881
#
# Stress axis : x y z
#
# Youngs Moduli (GPa) = 94.94382 95.19648 51.45697
#
# Poissons Ratio (x) = 0.16970 0.04373
# Poissons Ratio (y) = 0.16925 0.25593
# Poissons Ratio (z) = 0.08068 0.47347
#
# Static dielectric constant tensor:
#      x y z
#    x 3.725190 0.000000 -0.047040 
#    y 0.000000 4.654290 0.000000 
#    z -0.047040 0.000000 3.718490 
# 
# 
# High freq. dielectric constant tensor:
#      x y z
#    x 1.783520 0.000000 -0.001160 
#    y 0.000000 1.724480 0.000000 
#    z -0.001160 0.000000 1.771580 
# 
# From -- ./inp_files/125817.got.cif
#   From: 2010.06.25/outbox.cif.g09.slc.cpg/sg12_63_cif.got.tgz:125817.got - 2010.06.28 00:19:55.
