data_PCOD8096943
_publ_section_title
;
Structure prediction by ZEFSAII (Michael W. Deem and Ramdas Pophale) SiO2 
 PCOD8096943
Probable space group: C 2/M
;
_chemical_formula_sum "Si O2"
_cell_formula_units_Z 56
_cell_length_a 22.630042
_cell_length_b 8.982323
_cell_length_c 14.805167
_cell_angle_alpha 90.000000
_cell_angle_beta 91.528213
_cell_angle_gamma 90.000000
_cell_volume 3008.381010
_symmetry_space_group_name_H-M "C 2/M"
_symmetry_group_IT_number 12
_symmetry_cell_setting 'monoclinic'
loop_
_space_group_symop_operation_xyz
x,y,z
-x,y,-z
-x,-y,-z
x,-y,z
1/2+x,1/2+y,z
1/2-x,1/2+y,-z
1/2-x,1/2-y,-z
1/2+x,1/2-y,z
loop_
_atom_site_type_symbol
_atom_site_label
_atom_site_fract_x
_atom_site_fract_y
_atom_site_fract_z
Si Si1 0.961744 0.833558 0.685757
Si Si2 0.579801 0.173953 0.660786
Si Si3 0.712708 0.828155 0.375017
Si Si4 0.229015 0.323914 0.090567
Si Si5 0.625414 0.670965 0.485360
Si Si6 0.316394 0.670123 0.256356
Si Si7 0.352949 0.672475 0.789579
O O1 0.918516 0.805866 0.599915
O O2 0.923690 0.816113 0.776708
O O3 0.014067 0.715187 0.689380
O O4 0.988590 0.000000 0.680382
O O5 0.594608 0.250180 0.567212
O O6 0.625781 0.226834 0.739421
O O7 0.584326 0.000000 0.648186
O O8 0.690401 0.738012 0.462558
O O9 0.781840 0.807237 0.351293
O O10 0.677777 0.770522 0.287382
O O11 0.697178 0.000000 0.389823
O O12 0.219836 0.500000 0.078891
O O13 0.277060 0.284303 0.169169
O O14 0.166865 0.245084 0.115843
O O15 0.250000 0.250000 0.000000
O O16 0.635793 0.500000 0.510221
O O17 0.336598 0.500000 0.247645
O O18 0.332637 0.500000 0.782145
#
# Coordination Sequence:
#
# PCOD8096943 Si02
#       7
#     8   8   8   8   8   8   8
#     4   9  19  35  53  72  99 138 178 213 253 302
#     4  12  24  33  48  73 101 137 177 220 261 295
#     4   9  17  31  51  74 100 131 170 216 260 302
#     4  10  20  35  59  87 110 133 162 203 252 303
#     4  10  20  34  52  72  98 136 178 219 261 304
#     4   9  20  37  53  72 103 139 169 201 252 314
#     4   9  17  31  53  79 105 135 168 204 251 304
#
# _framework density 18.614663
#
# number of rings (size 3 to 8) (size 9 to 14) (size 15 to 20)
#    0.000    2.286    0.000    5.143    0.000    9.143 
#    0.000    0.000    0.000    0.857    0.000    6.000 
#    0.000    0.000    0.000    0.000    0.000    0.000 
#
# Total GULP energy -347113.062292 kJ/mol
# GULP energy per Si atom -12396.895082 kJ/mol
# Density = 1.857230 g / cm^3
# Si number density = 18.614663 Si / 1000 Ang^3
#
#
#
# Elastic Constant Matrix: (Units=GPa)
#
#
# Indices 1 2 3 4 5 6 
#
# 1 72.8570 45.0181 21.1907 0.0000 -15.3621 0.0000
# 2 45.0181 120.6095 31.7024 0.0000 -9.4475 0.0000
# 3 21.1907 31.7024 75.5496 0.0000 -23.0941 0.0000
# 4 0.0000 0.0000 0.0000 29.8626 0.0000 -7.2998
# 5 -15.3621 -9.4475 -23.0941 0.0000 23.1371 0.0000
# 6 0.0000 0.0000 0.0000 -7.2998 0.0000 32.9261
#
#
#
# Elastic Compliance Matrix: (Units=1/GPa)
#
#
# Indices 1 2 3 4 5 6 
#
# 1 0.020100 -0.006792 0.000639 0.000000 0.011210 0.000000
# 2 -0.006792 0.011615 -0.004170 0.000000 -0.003929 0.000000
# 3 0.000639 -0.004170 0.020746 0.000000 0.019429 0.000000
# 4 0.000000 0.000000 0.000000 0.035406 0.000000 0.007849
# 5 0.011210 -0.003929 0.019429 0.000000 0.068452 0.000000
# 6 0.000000 0.000000 0.000000 0.007849 0.000000 0.032111
#
#
# Mechanical properties :
#
#
# Convention : Reuss Voigt Hill
#
# Bulk Modulus (GPa) = 31.43190 51.64873 41.54031
# Shear Modulus (GPa) = 22.76029 28.59215 25.67622
#
# Velocity S-wave (km/s) = 3.50052 3.92344 3.71800
# Velocity P-wave (km/s) = 5.76718 6.95205 6.38715
#
# Compressibility (1/GPa) = 0.03181482
#
# Stress axis : x y z
#
# Youngs Moduli (GPa) = 49.75032 86.09721 48.20242
#
# Poissons Ratio (x) = 0.58481 -0.03081
# Poissons Ratio (y) = 0.33793 0.20099
# Poissons Ratio (z) = -0.03180 0.35900
#
# Static dielectric constant tensor:
#      x y z
#    x 3.638510 0.000000 -0.400350 
#    y 0.000000 3.596930 0.000000 
#    z -0.400350 0.000000 3.375180 
# 
# 
# High freq. dielectric constant tensor:
#      x y z
#    x 1.718020 0.000000 -0.020670 
#    y 0.000000 1.733980 0.000000 
#    z -0.020670 0.000000 1.694660 
# 
# From -- ./inp_files/230907.got.cif
#   From: 2010.06.25/outbox.cif.g09.slc.cpg/sg12_116_cif.got.tgz:230907.got - 2010.06.28 00:19:55.
