data_PCOD8096785
_publ_section_title
;
Structure prediction by ZEFSAII (Michael W. Deem and Ramdas Pophale) SiO2 
 PCOD8096785
Probable space group: C 2/M
;
_chemical_formula_sum "Si O2"
_cell_formula_units_Z 48
_cell_length_a 18.775362
_cell_length_b 9.395535
_cell_length_c 24.086407
_cell_angle_alpha 90.000000
_cell_angle_beta 140.375163
_cell_angle_gamma 90.000000
_cell_volume 2709.803049
_symmetry_space_group_name_H-M "C 2/M"
_symmetry_group_IT_number 12
_symmetry_cell_setting 'monoclinic'
loop_
_space_group_symop_operation_xyz
x,y,z
-x,y,-z
-x,-y,-z
x,-y,z
1/2+x,1/2+y,z
1/2-x,1/2+y,-z
1/2-x,1/2-y,-z
1/2+x,1/2-y,z
loop_
_atom_site_type_symbol
_atom_site_label
_atom_site_fract_x
_atom_site_fract_y
_atom_site_fract_z
Si Si1 0.621093 0.663453 0.076872
Si Si2 0.718169 0.167127 0.426026
Si Si3 0.128325 0.833890 0.585332
Si Si4 0.218681 0.663111 0.927714
Si Si5 0.686607 0.830438 0.729210
Si Si6 0.966600 0.668120 0.264387
O O1 0.602237 0.500000 0.080999
O O2 0.679108 0.680119 0.052723
O O3 0.699482 0.725117 0.172974
O O4 0.500000 0.740906 0.000000
O O5 0.750000 0.250000 0.500000
O O6 0.804070 0.208063 0.429269
O O7 0.594120 0.216749 0.333624
O O8 0.720682 0.000000 0.440690
O O9 0.179387 0.744881 0.665986
O O10 0.000000 0.790701 0.500000
O O11 0.141117 0.000000 0.606693
O O12 0.200508 0.500000 0.934223
O O13 0.106795 0.727030 0.831269
O O14 0.250000 0.750000 0.000000
O O15 0.582928 0.780740 0.705997
O O16 0.685988 0.000000 0.720367
O O17 0.951921 0.500000 0.254154
#
# Coordination Sequence:
#
# PCOD8096785 Si02
#       6
#     8   8   8   8   8   8
#     4   8  15  29  48  69  94 123 153 188 230 270
#     4  10  20  34  51  69  92 123 155 188 228 274
#     4  10  21  34  47  68  98 125 147 183 239 284
#     4   9  17  30  48  69  94 123 154 189 228 271
#     4   9  17  31  52  72  89 118 160 195 221 263
#     4   8  16  32  50  67  91 124 157 188 227 271
#
# _framework density 17.713463999999998
#
# number of rings (size 3 to 8) (size 9 to 14) (size 15 to 20)
#    0.000    3.000    0.000    3.000    0.000    2.333 
#    0.000    4.167    0.000    1.000    0.000    0.000 
#    0.000    0.000    0.000    0.000    0.000    0.000 
#
# Total GULP energy -297486.187100 kJ/mol
# GULP energy per Si atom -12395.257796 kJ/mol
# Density = 1.767315 g / cm^3
# Si number density = 17.713464 Si / 1000 Ang^3
#
#
#
# Elastic Constant Matrix: (Units=GPa)
#
#
# Indices 1 2 3 4 5 6 
#
# 1 122.8136 36.6425 91.5315 0.0000 8.5342 0.0000
# 2 36.6425 37.5442 47.0593 0.0000 -9.4187 0.0000
# 3 91.5315 47.0593 151.2552 0.0000 -1.1144 0.0000
# 4 0.0000 0.0000 0.0000 28.7745 0.0000 -10.4799
# 5 8.5342 -9.4187 -1.1144 0.0000 40.5536 0.0000
# 6 0.0000 0.0000 0.0000 -10.4799 0.0000 18.6427
#
#
#
# Elastic Compliance Matrix: (Units=1/GPa)
#
#
# Indices 1 2 3 4 5 6 
#
# 1 0.016577 -0.008121 -0.007546 0.000000 -0.005582 0.000000
# 2 -0.008121 0.051887 -0.011130 0.000000 0.013454 0.000000
# 3 -0.007546 -0.011130 0.014636 0.000000 -0.000595 0.000000
# 4 0.000000 0.000000 0.000000 0.043700 0.000000 0.024566
# 5 -0.005582 0.013454 -0.000595 0.000000 0.028942 0.000000
# 6 0.000000 0.000000 0.000000 0.024566 0.000000 0.067450
#
#
# Mechanical properties :
#
#
# Convention : Reuss Voigt Hill
#
# Bulk Modulus (GPa) = 33.89072 73.56441 53.72757
# Shear Modulus (GPa) = 17.44457 26.68612 22.06535
#
# Velocity S-wave (km/s) = 3.14159 3.88563 3.53325
# Velocity P-wave (km/s) = 5.68627 7.85820 6.85875
#
# Compressibility (1/GPa) = 0.02950660
#
# Stress axis : x y z
#
# Youngs Moduli (GPa) = 60.32311 19.27269 68.32302
#
# Poissons Ratio (x) = 0.15651 0.51558
# Poissons Ratio (y) = 0.48988 0.76043
# Poissons Ratio (z) = 0.45521 0.21450
#
# Static dielectric constant tensor:
#      x y z
#    x 3.116030 0.000000 0.052350 
#    y 0.000000 2.912510 0.000000 
#    z 0.052350 0.000000 3.378920 
# 
# 
# High freq. dielectric constant tensor:
#      x y z
#    x 1.688140 0.000000 0.006650 
#    y 0.000000 1.643810 0.000000 
#    z 0.006650 0.000000 1.700850 
# 
# From -- ./inp_files/315429.got.cif
#   From: 2010.06.25/outbox.cif.g09.slc.cpg/sg12_158_cif.got.tgz:315429.got - 2010.06.28 00:19:55.
