data_PCOD8096506
_publ_section_title
;
Structure prediction by ZEFSAII (Michael W. Deem and Ramdas Pophale) SiO2 
 PCOD8096506
Probable space group: C 2/M
;
_chemical_formula_sum "Si O2"
_cell_formula_units_Z 64
_cell_length_a 30.202841
_cell_length_b 9.583561
_cell_length_c 11.718970
_cell_angle_alpha 90.000000
_cell_angle_beta 91.542425
_cell_angle_gamma 90.000000
_cell_volume 3390.835826
_symmetry_space_group_name_H-M "C 2/M"
_symmetry_group_IT_number 12
_symmetry_cell_setting 'monoclinic'
loop_
_space_group_symop_operation_xyz
x,y,z
-x,y,-z
-x,-y,-z
x,-y,z
1/2+x,1/2+y,z
1/2-x,1/2+y,-z
1/2-x,1/2-y,-z
1/2+x,1/2-y,z
loop_
_atom_site_type_symbol
_atom_site_label
_atom_site_fract_x
_atom_site_fract_y
_atom_site_fract_z
Si Si1 0.562209 0.834740 0.559767
Si Si2 0.539210 0.336628 0.089661
Si Si3 0.695767 0.660588 0.820619
Si Si4 0.974441 0.334302 0.680189
Si Si5 0.361396 0.661527 0.969583
Si Si6 0.155384 0.343858 0.631142
Si Si7 0.205401 0.338213 0.178084
Si Si8 0.783864 0.345536 0.566370
O O1 0.523192 0.789401 0.641786
O O2 0.556859 0.785257 0.427484
O O3 0.606659 0.775197 0.620756
O O4 0.564013 0.000000 0.553461
O O5 0.534996 0.500000 0.119557
O O6 0.536970 0.248875 0.205850
O O7 0.586391 0.303692 0.032686
O O8 0.500000 0.291540 0.000000
O O9 0.692353 0.500000 0.784565
O O10 0.688208 0.750346 0.707284
O O11 0.745516 0.691511 0.871352
O O12 0.657794 0.701474 0.907821
O O13 0.970787 0.500000 0.704413
O O14 0.352410 0.500000 0.942276
O O15 0.333692 0.750455 0.878874
O O16 0.154419 0.500000 0.684017
O O17 0.171099 0.350205 0.501850
O O18 0.192704 0.500000 0.163925
O O19 0.205605 0.287366 0.308398
O O20 0.762918 0.500000 0.576702
O O21 0.750000 0.250000 0.500000
#
# Coordination Sequence:
#
# PCOD8096506 Si02
#       8
#     8   8   8   8   8   8   8   8
#     4   8  17  34  56  84 113 141 176 227 279 324
#     4  10  23  41  57  79 114 149 182 226 278 328
#     4  10  21  38  57  80 112 147 188 232 275 322
#     4   9  18  36  61  83 108 142 182 226 276 328
#     4  10  23  40  58  80 108 148 190 227 275 330
#     4  10  20  33  54  82 113 147 182 222 273 329
#     4  10  21  37  58  84 112 142 183 235 277 321
#     4  10  20  34  53  80 113 146 178 218 270 323
#
# _framework density 18.874402
#
# number of rings (size 3 to 8) (size 9 to 14) (size 15 to 20)
#    0.000    2.375    1.250    1.125    3.500    2.250 
#    0.000    1.875    0.000    0.000    0.000    0.000 
#    0.000    0.000    0.000    0.000    0.000    0.000 
#
# Total GULP energy -396646.319582 kJ/mol
# GULP energy per Si atom -12395.197487 kJ/mol
# Density = 1.883144 g / cm^3
# Si number density = 18.874402 Si / 1000 Ang^3
#
#
#
# Elastic Constant Matrix: (Units=GPa)
#
#
# Indices 1 2 3 4 5 6 
#
# 1 117.8342 34.8566 45.5373 0.0000 6.4425 0.0000
# 2 34.8566 50.3885 41.0703 0.0000 4.4846 0.0000
# 3 45.5373 41.0703 100.9163 0.0000 -7.7568 0.0000
# 4 0.0000 0.0000 0.0000 32.0547 0.0000 1.2036
# 5 6.4425 4.4846 -7.7568 0.0000 29.7511 0.0000
# 6 0.0000 0.0000 0.0000 1.2036 0.0000 25.2752
#
#
#
# Elastic Compliance Matrix: (Units=1/GPa)
#
#
# Indices 1 2 3 4 5 6 
#
# 1 0.011370 -0.004925 -0.003325 0.000000 -0.002587 0.000000
# 2 -0.004925 0.033708 -0.012046 0.000000 -0.007155 0.000000
# 3 -0.003325 -0.012046 0.016844 0.000000 0.006927 0.000000
# 4 0.000000 0.000000 0.000000 0.031253 0.000000 -0.001488
# 5 -0.002587 -0.007155 0.006927 0.000000 0.037057 0.000000
# 6 0.000000 0.000000 0.000000 -0.001488 0.000000 0.039635
#
#
# Mechanical properties :
#
#
# Convention : Reuss Voigt Hill
#
# Bulk Modulus (GPa) = 46.88128 56.89638 51.88883
# Shear Modulus (GPa) = 22.98132 27.26118 25.12125
#
# Velocity S-wave (km/s) = 3.49319 3.80458 3.65220
# Velocity P-wave (km/s) = 6.41578 7.03633 6.73321
#
# Compressibility (1/GPa) = 0.02133047
#
# Stress axis : x y z
#
# Youngs Moduli (GPa) = 87.95336 29.66689 59.36691
#
# Poissons Ratio (x) = 0.14610 0.19740
# Poissons Ratio (y) = 0.43315 0.71513
# Poissons Ratio (z) = 0.29245 0.35736
#
# Static dielectric constant tensor:
#      x y z
#    x 3.926170 0.000000 -0.161630 
#    y 0.000000 3.265700 0.000000 
#    z -0.161630 0.000000 3.533440 
# 
# 
# High freq. dielectric constant tensor:
#      x y z
#    x 1.744160 0.000000 -0.007530 
#    y 0.000000 1.713390 0.000000 
#    z -0.007530 0.000000 1.733860 
# 
# From -- ./inp_files/187422.got.cif
#   From: 2010.06.25/outbox.cif.g09.slc.cpg/sg12_94_cif.got.tgz:187422.got - 2010.06.28 00:19:55.
