data_PCOD8096990
_publ_section_title
;
Structure prediction by ZEFSAII (Michael W. Deem and Ramdas Pophale) SiO2 
 PCOD8096990
Probable space group: C 2/M
;
_chemical_formula_sum "Si O2"
_cell_formula_units_Z 48
_cell_length_a 24.235372
_cell_length_b 15.430922
_cell_length_c 18.218662
_cell_angle_alpha 90.000000
_cell_angle_beta 19.394153
_cell_angle_gamma 90.000000
_cell_volume 2262.460388
_symmetry_space_group_name_H-M "C 2/M"
_symmetry_group_IT_number 12
_symmetry_cell_setting 'monoclinic'
loop_
_space_group_symop_operation_xyz
x,y,z
-x,y,-z
-x,-y,-z
x,-y,z
1/2+x,1/2+y,z
1/2-x,1/2+y,-z
1/2-x,1/2-y,-z
1/2+x,1/2-y,z
loop_
_atom_site_type_symbol
_atom_site_label
_atom_site_fract_x
_atom_site_fract_y
_atom_site_fract_z
Si Si1 0.989795 0.142695 0.933177
Si Si2 0.507357 0.154551 0.072361
Si Si3 0.332339 0.601965 0.748830
Si Si4 0.165367 0.399197 0.258399
Si Si5 0.304863 0.345355 0.454703
Si Si6 0.379249 0.603408 0.856935
O O1 0.027727 0.244100 0.890671
O O2 0.124529 0.103837 0.706020
O O3 0.805762 0.121965 0.140019
O O4 0.000000 0.098347 0.000000
O O5 0.358778 0.109207 0.305700
O O6 0.500000 0.112745 0.000000
O O7 0.680808 0.143587 0.895483
O O8 0.500000 0.635005 0.500000
O O9 0.314667 0.500000 0.764589
O O10 0.332218 0.631946 0.833655
O O11 0.130724 0.500000 0.294534
O O12 0.000000 0.353717 0.500000
O O13 0.225500 0.366399 0.102328
O O14 0.250000 0.250000 0.500000
O O15 0.453253 0.346185 0.328861
O O16 0.411221 0.500000 0.822510
#
# Coordination Sequence:
#
# PCOD8096990 Si02
#       6
#     8   8   8   8   8   8
#     4   9  19  34  50  72 101 130 162 202 248 294
#     4  10  20  34  52  74 101 132 168 208 248 296
#     4  10  21  35  51  74 102 132 168 208 251 298
#     4   9  18  33  52  74 100 129 162 201 245 293
#     4   9  18  34  52  73 100 131 167 206 249 295
#     4   9  18  34  53  73 102 135 165 204 252 297
#
# _framework density 21.215841000000001
#
# number of rings (size 3 to 8) (size 9 to 14) (size 15 to 20)
#    0.000    2.667    0.000    1.000    0.000    3.333 
#    0.000    7.500    0.000    0.000    0.000    0.000 
#    0.000    0.000    0.000    0.000    0.000    0.000 
#
# Total GULP energy -297361.713735 kJ/mol
# GULP energy per Si atom -12390.071406 kJ/mol
# Density = 2.116755 g / cm^3
# Si number density = 21.215841 Si / 1000 Ang^3
#
#
#
# Elastic Constant Matrix: (Units=GPa)
#
#
# Indices 1 2 3 4 5 6 
#
# 1 198.8756 8.0461 99.6048 -0.0013 22.4265 0.0010
# 2 8.0461 21.2208 3.8258 -0.0015 0.5350 0.0002
# 3 99.6048 3.8258 219.5793 -0.0046 19.0367 0.0039
# 4 -0.0013 -0.0015 -0.0046 14.9831 0.0015 -13.9104
# 5 22.4265 0.5350 19.0367 0.0015 34.5187 -0.0010
# 6 0.0010 0.0002 0.0039 -13.9104 -0.0010 17.4923
#
#
#
# Elastic Compliance Matrix: (Units=1/GPa)
#
#
# Indices 1 2 3 4 5 6 
#
# 1 0.006846 -0.002015 -0.002822 0.000000 -0.002860 0.000000
# 2 -0.002015 0.047868 0.000032 0.000016 0.000549 0.000013
# 3 -0.002822 0.000032 0.005960 0.000002 -0.001454 0.000000
# 4 0.000000 0.000016 0.000002 0.255023 -0.000006 0.202801
# 5 -0.002860 0.000549 -0.001454 -0.000006 0.031621 -0.000003
# 6 0.000000 0.000013 0.000000 0.202801 -0.000003 0.218441
#
#
# Mechanical properties :
#
#
# Convention : Reuss Voigt Hill
#
# Bulk Modulus (GPa) = 19.58333 73.62547 46.60440
# Shear Modulus (GPa) = 8.44040 35.27876 21.85958
#
# Velocity S-wave (km/s) = 1.99674 4.08223 3.21338
# Velocity P-wave (km/s) = 3.81661 7.54969 5.98182
#
# Compressibility (1/GPa) = 0.05106385
#
# Stress axis : x y z
#
# Youngs Moduli (GPa) = 146.07441 20.89090 167.78850
#
# Poissons Ratio (x) = 0.04209 0.47355
# Poissons Ratio (y) = 0.29430 -0.00542
# Poissons Ratio (z) = 0.41227 -0.00067
#
# Static dielectric constant tensor:
#      x y z
#    x 4.049160 0.000000 0.511740 
#    y 0.000000 3.445580 0.000020 
#    z 0.511740 0.000020 4.439670 
# 
# 
# High freq. dielectric constant tensor:
#      x y z
#    x 1.838280 0.000000 0.017780 
#    y 0.000000 1.795070 0.000000 
#    z 0.017780 0.000000 1.850510 
# 
# From -- ./inp_files/61733.got.cif
#   From: 2010.06.25/outbox.cif.g09.slc.cpg/sg12_31_cif.got.tgz:61733.got - 2010.06.28 00:19:55.
