data_PCOD8096133
_publ_section_title
;
Structure prediction by ZEFSAII (Michael W. Deem and Ramdas Pophale) SiO2 
 PCOD8096133
Probable space group: C 2/M
;
_chemical_formula_sum "Si O2"
_cell_formula_units_Z 56
_cell_length_a 21.308616
_cell_length_b 8.943406
_cell_length_c 18.306005
_cell_angle_alpha 90.000000
_cell_angle_beta 121.945475
_cell_angle_gamma 90.000000
_cell_volume 2960.262545
_symmetry_space_group_name_H-M "C 2/M"
_symmetry_group_IT_number 12
_symmetry_cell_setting 'monoclinic'
loop_
_space_group_symop_operation_xyz
x,y,z
-x,y,-z
-x,-y,-z
x,-y,z
1/2+x,1/2+y,z
1/2-x,1/2+y,-z
1/2-x,1/2-y,-z
1/2+x,1/2-y,z
loop_
_atom_site_type_symbol
_atom_site_label
_atom_site_fract_x
_atom_site_fract_y
_atom_site_fract_z
Si Si1 0.238093 0.324434 0.384363
Si Si2 0.080267 0.677607 0.027226
Si Si3 0.291802 0.177519 0.793209
Si Si4 0.141367 0.176077 0.772691
Si Si5 0.331085 0.821984 0.061325
Si Si6 0.361733 0.824927 0.542301
Si Si7 0.995090 0.824847 0.413175
O O1 0.254137 0.500000 0.392471
O O2 0.207638 0.263282 0.289082
O O3 0.316237 0.245735 0.447455
O O4 0.177331 0.279634 0.406317
O O5 0.076587 0.500000 0.028223
O O6 0.136378 0.742098 0.122422
O O7 0.111816 0.726733 0.967646
O O8 0.000000 0.744745 0.000000
O O9 0.219257 0.233748 0.790117
O O10 0.292521 0.000000 0.794493
O O11 0.128980 0.264765 0.840443
O O12 0.081683 0.216490 0.673495
O O13 0.140747 0.000000 0.789361
O O14 0.320724 0.000000 0.056348
O O15 0.250000 0.750000 0.000000
O O16 0.443104 0.758118 0.595892
O O17 0.365720 0.000000 0.533270
O O18 0.000000 0.767299 0.500000
O O19 0.010690 0.000000 0.420388
#
# Coordination Sequence:
#
# PCOD8096133 Si02
#       7
#     8   8   8   8   8   8   8
#     4   9  18  33  55  76 101 145 189 223 268 335
#     4   9  18  32  54  83 109 137 179 232 277 318
#     4   9  16  31  54  77 102 136 185 229 263 322
#     4  10  20  35  57  83 108 143 190 233 275 328
#     4  11  21  36  59  84 113 147 185 232 283 340
#     4  10  20  33  51  79 112 140 174 230 286 328
#     4  10  21  37  57  78 106 148 192 229 270 334
#
# _framework density 18.917242000000002
#
# number of rings (size 3 to 8) (size 9 to 14) (size 15 to 20)
#    0.000    2.286    1.429    1.714    0.000    4.857 
#    0.000    5.000    0.000    1.714    0.000    0.000 
#    0.000    0.000    0.000    0.000    0.000    0.000 
#
# Total GULP energy -347158.334262 kJ/mol
# GULP energy per Si atom -12398.511938 kJ/mol
# Density = 1.887419 g / cm^3
# Si number density = 18.917242 Si / 1000 Ang^3
#
#
#
# Elastic Constant Matrix: (Units=GPa)
#
#
# Indices 1 2 3 4 5 6 
#
# 1 142.3176 30.2664 77.2301 0.0000 9.4404 0.0000
# 2 30.2664 32.0702 29.8642 0.0000 0.1762 0.0000
# 3 77.2301 29.8642 168.3406 0.0000 -4.9663 0.0000
# 4 0.0000 0.0000 0.0000 25.9872 0.0000 0.2589
# 5 9.4404 0.1762 -4.9663 0.0000 32.6620 0.0000
# 6 0.0000 0.0000 0.0000 0.2589 0.0000 26.8111
#
#
#
# Elastic Compliance Matrix: (Units=1/GPa)
#
#
# Indices 1 2 3 4 5 6 
#
# 1 0.010768 -0.006518 -0.003892 0.000000 -0.003669 0.000000
# 2 -0.006518 0.041346 -0.004315 0.000000 0.001005 0.000000
# 3 -0.003892 -0.004315 0.008564 0.000000 0.002450 0.000000
# 4 0.000000 0.000000 0.000000 0.038484 0.000000 -0.000372
# 5 -0.003669 0.001005 0.002450 0.000000 0.032044 0.000000
# 6 0.000000 0.000000 0.000000 -0.000372 0.000000 0.037302
#
#
# Mechanical properties :
#
#
# Convention : Reuss Voigt Hill
#
# Bulk Modulus (GPa) = 32.02312 68.60555 50.31433
# Shear Modulus (GPa) = 23.99619 30.78325 27.38972
#
# Velocity S-wave (km/s) = 3.56544 4.03831 3.80922
# Velocity P-wave (km/s) = 5.82362 7.62160 6.78245
#
# Compressibility (1/GPa) = 0.03122744
#
# Stress axis : x y z
#
# Youngs Moduli (GPa) = 92.86647 24.18638 116.77223
#
# Poissons Ratio (x) = 0.15765 0.45448
# Poissons Ratio (y) = 0.60530 0.50386
# Poissons Ratio (z) = 0.36144 0.10436
#
# Static dielectric constant tensor:
#      x y z
#    x 3.623020 0.000000 -0.000560 
#    y 0.000000 3.139440 0.000000 
#    z -0.000560 0.000000 3.762170 
# 
# 
# High freq. dielectric constant tensor:
#      x y z
#    x 1.741070 0.000000 -0.003240 
#    y 0.000000 1.701070 0.000000 
#    z -0.003240 0.000000 1.746290 
# 
# From -- ./inp_files/281724.got.cif
#   From: 2010.06.25/outbox.cif.g09.slc.cpg/sg12_141_cif.got.tgz:281724.got - 2010.06.28 00:19:55.
