data_PCOD8096736
_publ_section_title
;
Structure prediction by ZEFSAII (Michael W. Deem and Ramdas Pophale) SiO2 
 PCOD8096736
Probable space group: C 2/M
;
_chemical_formula_sum "Si O2"
_cell_formula_units_Z 64
_cell_length_a 28.019656
_cell_length_b 9.260706
_cell_length_c 22.563146
_cell_angle_alpha 90.000000
_cell_angle_beta 37.598964
_cell_angle_gamma 90.000000
_cell_volume 3572.148671
_symmetry_space_group_name_H-M "C 2/M"
_symmetry_group_IT_number 12
_symmetry_cell_setting 'monoclinic'
loop_
_space_group_symop_operation_xyz
x,y,z
-x,y,-z
-x,-y,-z
x,-y,z
1/2+x,1/2+y,z
1/2-x,1/2+y,-z
1/2-x,1/2-y,-z
1/2+x,1/2-y,z
loop_
_atom_site_type_symbol
_atom_site_label
_atom_site_fract_x
_atom_site_fract_y
_atom_site_fract_z
Si Si1 0.666041 0.168016 0.796415
Si Si2 0.643937 0.167997 0.949586
Si Si3 0.522905 0.668164 0.609860
Si Si4 0.186668 0.829575 0.022191
Si Si5 0.989906 0.166510 0.774313
Si Si6 0.967130 0.333213 0.156917
Si Si7 0.427459 0.838398 0.615333
Si Si8 0.660862 0.666525 0.389259
O O1 0.667817 0.229781 0.861577
O O2 0.597762 0.236782 0.823146
O O3 0.749055 0.196204 0.682433
O O4 0.646814 0.000000 0.822191
O O5 0.666781 0.000000 0.936339
O O6 0.689617 0.262900 0.953260
O O7 0.551216 0.190798 0.045174
O O8 0.504458 0.500000 0.618991
O O9 0.525977 0.709799 0.675549
O O10 0.451282 0.755221 0.651433
O O11 0.605986 0.711459 0.498523
O O12 0.102158 0.797088 0.133941
O O13 0.204757 0.000000 0.001398
O O14 0.250000 0.750000 0.000000
O O15 0.038499 0.255766 0.774409
O O16 0.003431 0.000000 0.775589
O O17 0.948718 0.500000 0.186662
O O18 0.500000 0.838749 0.500000
O O19 0.356802 0.757119 0.652501
O O20 0.400997 0.000000 0.657952
O O21 0.646854 0.500000 0.386512
#
# Coordination Sequence:
#
# PCOD8096736 Si02
#       8
#     8   8   8   8   8   8   8   8
#     4   9  17  30  50  74  96 120 153 194 236 274
#     4   9  17  31  51  72  95 124 156 189 229 278
#     4   9  17  31  50  68  89 124 164 191 220 272
#     4  10  20  34  50  70  98 126 154 191 232 274
#     4   9  19  34  50  68  92 124 159 193 229 272
#     4   9  17  31  51  72  93 120 156 194 231 276
#     4   9  17  29  45  66  93 121 150 189 233 272
#     4   9  17  30  48  69  94 123 156 192 227 271
#
# _framework density 17.916388000000001
#
# number of rings (size 3 to 8) (size 9 to 14) (size 15 to 20)
#    0.000    2.875    0.000    1.125    0.000    5.000 
#    0.000    7.500    0.000    3.000    0.000    0.000 
#    0.000    0.000    0.000    0.000    0.000    0.000 
#
# Total GULP energy -396765.475550 kJ/mol
# GULP energy per Si atom -12398.921111 kJ/mol
# Density = 1.787561 g / cm^3
# Si number density = 17.916388 Si / 1000 Ang^3
#
#
#
# Elastic Constant Matrix: (Units=GPa)
#
#
# Indices 1 2 3 4 5 6 
#
# 1 152.8145 59.1621 61.9553 0.0104 10.2401 -0.0081
# 2 59.1621 66.7618 33.4122 0.0209 7.8337 -0.0160
# 3 61.9553 33.4122 82.9333 0.0118 17.0976 -0.0130
# 4 0.0104 0.0209 0.0118 18.1961 -0.0042 5.3986
# 5 10.2401 7.8337 17.0976 -0.0042 25.5820 0.0027
# 6 -0.0081 -0.0160 -0.0130 5.3986 0.0027 27.3490
#
#
#
# Elastic Compliance Matrix: (Units=1/GPa)
#
#
# Indices 1 2 3 4 5 6 
#
# 1 0.011885 -0.007656 -0.006143 0.000008 0.001693 -0.000006
# 2 -0.007656 0.023708 -0.003441 -0.000026 -0.001895 0.000015
# 3 -0.006143 -0.003441 0.020075 -0.000010 -0.009905 0.000009
# 4 0.000008 -0.000026 -0.000010 0.058376 0.000022 -0.011523
# 5 0.001693 -0.001895 -0.009905 0.000022 0.045612 -0.000014
# 6 -0.000006 0.000015 0.000009 -0.011523 -0.000014 0.038839
#
#
# Mechanical properties :
#
#
# Convention : Reuss Voigt Hill
#
# Bulk Modulus (GPa) = 47.19804 67.95209 57.57507
# Shear Modulus (GPa) = 20.82986 24.09075 22.46030
#
# Velocity S-wave (km/s) = 3.41341 3.67089 3.54449
# Velocity P-wave (km/s) = 6.47579 7.48177 6.99688
#
# Compressibility (1/GPa) = 0.02118732
#
# Stress axis : x y z
#
# Youngs Moduli (GPa) = 84.13751 42.17971 49.81210
#
# Poissons Ratio (x) = 0.32295 0.30601
# Poissons Ratio (y) = 0.64420 0.17140
# Poissons Ratio (z) = 0.51688 0.14514
#
# Static dielectric constant tensor:
#      x y z
#    x 3.345850 -0.000010 0.062670 
#    y -0.000010 3.265550 0.000010 
#    z 0.062670 0.000010 3.264300 
# 
# 
# High freq. dielectric constant tensor:
#      x y z
#    x 1.691660 0.000000 0.003690 
#    y 0.000000 1.677850 0.000000 
#    z 0.003690 0.000000 1.683710 
# 
# From -- ./inp_files/324142.got.cif
#   From: 2010.06.25/outbox.cif.g09.slc.cpg/sg12_163_cif.got.tgz:324142.got - 2010.06.28 00:19:55.
