data_PCOD8096484
_publ_section_title
;
Structure prediction by ZEFSAII (Michael W. Deem and Ramdas Pophale) SiO2 
 PCOD8096484
Probable space group: C 2/M
;
_chemical_formula_sum "Si O2"
_cell_formula_units_Z 48
_cell_length_a 29.292396
_cell_length_b 8.944430
_cell_length_c 19.003473
_cell_angle_alpha 90.000000
_cell_angle_beta 30.974684
_cell_angle_gamma 90.000000
_cell_volume 2562.479258
_symmetry_space_group_name_H-M "C 2/M"
_symmetry_group_IT_number 12
_symmetry_cell_setting 'monoclinic'
loop_
_space_group_symop_operation_xyz
x,y,z
-x,y,-z
-x,-y,-z
x,-y,z
1/2+x,1/2+y,z
1/2-x,1/2+y,-z
1/2-x,1/2-y,-z
1/2+x,1/2-y,z
loop_
_atom_site_type_symbol
_atom_site_label
_atom_site_fract_x
_atom_site_fract_y
_atom_site_fract_z
Si Si1 0.663193 0.823257 0.145954
Si Si2 0.992363 0.677724 0.898997
Si Si3 0.337226 0.325162 0.560963
Si Si4 0.502215 0.822601 0.728238
Si Si5 0.601809 0.326639 0.363678
Si Si6 0.139403 0.677633 0.810054
O O1 0.578305 0.765846 0.213923
O O2 0.653615 0.772475 0.238888
O O3 0.672563 0.000000 0.129333
O O4 0.750000 0.750000 0.000000
O O5 0.990326 0.500000 0.899954
O O6 0.987066 0.741480 0.826987
O O7 0.083840 0.731184 0.815296
O O8 0.908796 0.737083 0.055103
O O9 0.346499 0.500000 0.532383
O O10 0.405428 0.238640 0.422074
O O11 0.354723 0.291792 0.619246
O O12 0.239418 0.261220 0.672711
O O13 0.507339 0.000000 0.721549
O O14 0.500000 0.276146 0.500000
O O15 0.610579 0.500000 0.330897
O O16 0.142192 0.500000 0.810364
#
# Coordination Sequence:
#
# PCOD8096484 Si02
#       6
#     8   8   8   8   8   8
#     4  11  24  38  55  79 108 141 178 220 265 316
#     4   8  15  30  51  76 104 133 171 217 260 305
#     4  10  20  33  54  80 106 138 177 216 258 309
#     4  10  21  35  53  77 107 138 171 216 264 312
#     4  10  20  36  56  77 107 143 176 218 264 311
#     4   8  15  29  52  78 101 132 175 217 257 307
#
# _framework density 18.731857999999999
#
# number of rings (size 3 to 8) (size 9 to 14) (size 15 to 20)
#    0.000    2.500    1.667    1.500    2.333    2.333 
#    0.000    0.000    0.000    0.000    0.000    2.333 
#    0.000    0.000    0.000    0.000    0.000    0.000 
#
# Total GULP energy -297584.540959 kJ/mol
# GULP energy per Si atom -12399.355873 kJ/mol
# Density = 1.868922 g / cm^3
# Si number density = 18.731858 Si / 1000 Ang^3
#
#
#
# Elastic Constant Matrix: (Units=GPa)
#
#
# Indices 1 2 3 4 5 6 
#
# 1 84.6216 15.1877 53.2078 -0.0085 1.0533 -0.0017
# 2 15.1877 24.3430 26.2600 -0.0179 3.1602 0.0003
# 3 53.2078 26.2600 138.9251 -0.0231 -4.3430 -0.0017
# 4 -0.0085 -0.0179 -0.0231 32.4549 0.0076 -0.7272
# 5 1.0533 3.1602 -4.3430 0.0076 38.7965 0.0006
# 6 -0.0017 0.0003 -0.0017 -0.7272 0.0006 6.5974
#
#
#
# Elastic Compliance Matrix: (Units=1/GPa)
#
#
# Indices 1 2 3 4 5 6 
#
# 1 0.015921 -0.004071 -0.005350 -0.000002 -0.000700 0.000003
# 2 -0.004071 0.053758 -0.008766 0.000024 -0.005250 -0.000002
# 3 -0.005350 -0.008766 0.010969 0.000001 0.002087 0.000002
# 4 -0.000002 0.000024 0.000001 0.030888 -0.000008 0.003405
# 5 -0.000700 -0.005250 0.002087 -0.000008 0.026456 -0.000003
# 6 0.000003 -0.000002 0.000002 0.003405 -0.000003 0.151950
#
#
# Mechanical properties :
#
#
# Convention : Reuss Voigt Hill
#
# Bulk Modulus (GPa) = 22.58699 48.57786 35.58242
# Shear Modulus (GPa) = 14.65960 25.78537 20.22249
#
# Velocity S-wave (km/s) = 2.80054 3.71422 3.28926
# Velocity P-wave (km/s) = 4.74780 6.66209 5.78468
#
# Compressibility (1/GPa) = 0.04427328
#
# Stress axis : x y z
#
# Youngs Moduli (GPa) = 62.81201 18.60199 91.16268
#
# Poissons Ratio (x) = 0.07573 0.48771
# Poissons Ratio (y) = 0.25570 0.79917
# Poissons Ratio (z) = 0.33604 0.16307
#
# Static dielectric constant tensor:
#      x y z
#    x 3.695340 -0.000010 -0.090360 
#    y -0.000010 3.017960 0.000020 
#    z -0.090360 0.000020 3.548030 
# 
# 
# High freq. dielectric constant tensor:
#      x y z
#    x 1.738130 0.000000 -0.001230 
#    y 0.000000 1.684160 0.000000 
#    z -0.001230 0.000000 1.738310 
# 
# From -- ./inp_files/244717.got.cif
#   From: 2010.06.25/outbox.cif.g09.slc.cpg/sg12_123_cif.got.tgz:244717.got - 2010.06.28 00:19:55.
