data_PCOD8096214
_publ_section_title
;
Structure prediction by ZEFSAII (Michael W. Deem and Ramdas Pophale) SiO2 
 PCOD8096214
Probable space group: C 2/M
;
_chemical_formula_sum "Si O2"
_cell_formula_units_Z 56
_cell_length_a 22.298304
_cell_length_b 9.396301
_cell_length_c 16.342005
_cell_angle_alpha 90.000000
_cell_angle_beta 119.816736
_cell_angle_gamma 90.000000
_cell_volume 2970.734035
_symmetry_space_group_name_H-M "C 2/M"
_symmetry_group_IT_number 12
_symmetry_cell_setting 'monoclinic'
loop_
_space_group_symop_operation_xyz
x,y,z
-x,y,-z
-x,-y,-z
x,-y,z
1/2+x,1/2+y,z
1/2-x,1/2+y,-z
1/2-x,1/2-y,-z
1/2+x,1/2-y,z
loop_
_atom_site_type_symbol
_atom_site_label
_atom_site_fract_x
_atom_site_fract_y
_atom_site_fract_z
Si Si1 0.194611 0.164356 0.823308
Si Si2 0.341667 0.335317 0.752626
Si Si3 0.353769 0.833294 0.921206
Si Si4 0.684628 0.164437 0.657859
Si Si5 0.955536 0.163610 0.702217
Si Si6 0.945664 0.333638 0.531377
Si Si7 0.908284 0.165365 0.105191
O O1 0.274843 0.197506 0.893483
O O2 0.165804 0.250226 0.726643
O O3 0.152584 0.211783 0.874534
O O4 0.181631 0.000000 0.794446
O O5 0.351645 0.500000 0.785056
O O6 0.369498 0.237047 0.844468
O O7 0.261710 0.300374 0.678856
O O8 0.384355 0.299119 0.700178
O O9 0.370197 0.000000 0.927144
O O10 0.403341 0.760854 0.021066
O O11 0.631495 0.207376 0.550414
O O12 0.676017 0.000000 0.675164
O O13 0.962603 0.256080 0.626553
O O14 0.018230 0.199148 0.805129
O O15 0.957745 0.000000 0.676651
O O16 0.953175 0.500000 0.553323
O O17 0.000000 0.282926 0.500000
O O18 0.901223 0.000000 0.076129
#
# Coordination Sequence:
#
# PCOD8096214 Si02
#       7
#     8   8   8   8   8   8   8
#     4   9  18  32  51  77 105 131 166 211 254 300
#     4   9  19  37  55  73 101 135 172 210 249 296
#     4  10  20  33  52  78 103 131 170 211 253 302
#     4   9  18  33  54  76 101 136 170 204 252 304
#     4  10  22  37  54  76 101 134 175 212 246 295
#     4  10  21  36  54  79 108 134 163 204 256 307
#     4  10  20  34  51  73 103 137 170 208 256 301
#
# _framework density 18.850559000000001
#
# number of rings (size 3 to 8) (size 9 to 14) (size 15 to 20)
#    0.000    2.429    0.000    1.714    0.000    4.286 
#    0.000    2.857    0.000    0.000    0.000    0.000 
#    0.000    0.000    0.000    0.000    0.000    0.000 
#
# Total GULP energy -347304.201062 kJ/mol
# GULP energy per Si atom -12403.721467 kJ/mol
# Density = 1.880765 g / cm^3
# Si number density = 18.850559 Si / 1000 Ang^3
#
#
#
# Elastic Constant Matrix: (Units=GPa)
#
#
# Indices 1 2 3 4 5 6 
#
# 1 94.1247 42.1941 57.7905 0.0000 -6.5644 0.0000
# 2 42.1941 68.6703 52.3692 0.0000 -5.3451 0.0000
# 3 57.7905 52.3692 92.4404 0.0000 -1.6801 0.0000
# 4 0.0000 0.0000 0.0000 36.2030 0.0000 -6.1276
# 5 -6.5644 -5.3451 -1.6801 0.0000 20.5090 0.0000
# 6 0.0000 0.0000 0.0000 -6.1276 0.0000 22.7512
#
#
#
# Elastic Compliance Matrix: (Units=1/GPa)
#
#
# Indices 1 2 3 4 5 6 
#
# 1 0.018277 -0.003972 -0.009102 0.000000 0.004069 0.000000
# 2 -0.003972 0.027138 -0.012804 0.000000 0.004752 0.000000
# 3 -0.009102 -0.012804 0.023684 0.000000 -0.004310 0.000000
# 4 0.000000 0.000000 0.000000 0.028941 0.000000 0.007795
# 5 0.004069 0.004752 -0.004310 0.000000 0.050947 0.000000
# 6 0.000000 0.000000 0.000000 0.007795 0.000000 0.046053
#
#
# Mechanical properties :
#
#
# Convention : Reuss Voigt Hill
#
# Bulk Modulus (GPa) = 57.66552 62.21589 59.94070
# Shear Modulus (GPa) = 19.79593 22.75140 21.27367
#
# Velocity S-wave (km/s) = 3.24412 3.47787 3.36302
# Velocity P-wave (km/s) = 6.68504 7.01455 6.85177
#
# Compressibility (1/GPa) = 0.01734139
#
# Stress axis : x y z
#
# Youngs Moduli (GPa) = 54.71357 36.84892 42.22346
#
# Poissons Ratio (x) = 0.14637 0.38431
# Poissons Ratio (y) = 0.21734 0.54065
# Poissons Ratio (z) = 0.49799 0.47183
#
# Static dielectric constant tensor:
#      x y z
#    x 3.551300 0.000000 0.117250 
#    y 0.000000 3.399480 0.000000 
#    z 0.117250 0.000000 3.323540 
# 
# 
# High freq. dielectric constant tensor:
#      x y z
#    x 1.736790 0.000000 0.006140 
#    y 0.000000 1.727770 0.000000 
#    z 0.006140 0.000000 1.729120 
# 
# From -- ./inp_files/238969.got.cif
#   From: 2010.06.25/outbox.cif.g09.slc.cpg/sg12_120_cif.got.tgz:238969.got - 2010.06.28 00:19:55.
