data_PCOD8096725
_publ_section_title
;
Structure prediction by ZEFSAII (Michael W. Deem and Ramdas Pophale) SiO2 
 PCOD8096725
Probable space group: C 2/M
;
_chemical_formula_sum "Si O2"
_cell_formula_units_Z 48
_cell_length_a 24.698012
_cell_length_b 16.537192
_cell_length_c 18.215793
_cell_angle_alpha 90.000000
_cell_angle_beta 20.659254
_cell_angle_gamma 90.000000
_cell_volume 2624.896196
_symmetry_space_group_name_H-M "C 2/M"
_symmetry_group_IT_number 12
_symmetry_cell_setting 'monoclinic'
loop_
_space_group_symop_operation_xyz
x,y,z
-x,y,-z
-x,-y,-z
x,-y,z
1/2+x,1/2+y,z
1/2-x,1/2+y,-z
1/2-x,1/2-y,-z
1/2+x,1/2-y,z
loop_
_atom_site_type_symbol
_atom_site_label
_atom_site_fract_x
_atom_site_fract_y
_atom_site_fract_z
Si Si1 0.736284 0.325518 0.570019
Si Si2 0.035290 0.593386 0.621624
Si Si3 0.879922 0.092025 0.415992
Si Si4 0.668309 0.212072 0.776020
Si Si5 0.218589 0.093159 0.957858
Si Si6 0.159236 0.689115 0.330585
O O1 0.750000 0.250000 0.500000
O O2 0.902409 0.356899 0.387224
O O3 0.652794 0.395699 0.629755
O O4 0.643407 0.293975 0.759155
O O5 0.073191 0.500000 0.586090
O O6 0.119434 0.620346 0.440393
O O7 0.853421 0.609809 0.845655
O O8 0.777483 0.148255 0.597339
O O9 0.842823 0.000000 0.484049
O O10 0.059058 0.112670 0.201411
O O11 0.747080 0.236213 0.753007
O O12 0.500000 0.172917 0.000000
O O13 0.235560 0.149757 0.865492
O O14 0.223667 0.000000 0.925004
O O15 0.000000 0.723993 0.500000
#
# Coordination Sequence:
#
# PCOD8096725 Si02
#       6
#     8   8   8   8   8   8
#     4   9  18  32  48  71  97 124 160 199 238 282
#     4   9  16  28  49  75 102 129 156 191 239 293
#     4  10  20  34  51  71  97 128 163 202 242 284
#     4  10  20  34  50  69  96 128 164 203 240 284
#     4   9  17  30  50  76 102 126 155 195 242 291
#     4   9  17  31  50  74 100 127 158 193 240 292
#
# _framework density 18.286438
#
# number of rings (size 3 to 8) (size 9 to 14) (size 15 to 20)
#    0.000    2.667    0.000    2.000    0.000    2.333 
#    0.000   16.667    0.000    8.500    0.000    0.000 
#    0.000    0.000    0.000    0.000    0.000    0.000 
#
# Total GULP energy -297479.134965 kJ/mol
# GULP energy per Si atom -12394.963957 kJ/mol
# Density = 1.824482 g / cm^3
# Si number density = 18.286438 Si / 1000 Ang^3
#
#
#
# Elastic Constant Matrix: (Units=GPa)
#
#
# Indices 1 2 3 4 5 6 
#
# 1 96.7915 48.0067 45.2492 0.0014 -19.8182 -0.0008
# 2 48.0067 83.7599 56.5573 0.0017 -9.3540 -0.0004
# 3 45.2492 56.5573 131.2400 0.0017 -14.9717 -0.0009
# 4 0.0014 0.0017 0.0017 25.8099 -0.0007 -2.5945
# 5 -19.8182 -9.3540 -14.9717 -0.0007 22.0480 0.0003
# 6 -0.0008 -0.0004 -0.0009 -2.5945 0.0003 29.3353
#
#
#
# Elastic Compliance Matrix: (Units=1/GPa)
#
#
# Indices 1 2 3 4 5 6 
#
# 1 0.017008 -0.007618 -0.001307 0.000000 0.011168 0.000000
# 2 -0.007618 0.020369 -0.006446 -0.000001 -0.002583 0.000000
# 3 -0.001307 -0.006446 0.011276 0.000000 0.003747 0.000000
# 4 0.000000 -0.000001 0.000000 0.039092 0.000001 0.003457
# 5 0.011168 -0.002583 0.003747 0.000001 0.056843 0.000000
# 6 0.000000 0.000000 0.000000 0.003457 0.000000 0.034394
#
#
# Mechanical properties :
#
#
# Convention : Reuss Voigt Hill
#
# Bulk Modulus (GPa) = 55.83410 67.93530 61.88470
# Shear Modulus (GPa) = 23.18089 26.23716 24.70903
#
# Velocity S-wave (km/s) = 3.56428 3.79197 3.67988
# Velocity P-wave (km/s) = 6.89479 7.51022 7.20907
#
# Compressibility (1/GPa) = 0.01791020
#
# Stress axis : x y z
#
# Youngs Moduli (GPa) = 58.79736 49.09320 88.68676
#
# Poissons Ratio (x) = 0.37400 0.11590
# Poissons Ratio (y) = 0.44793 0.57169
# Poissons Ratio (z) = 0.07684 0.31646
#
# Static dielectric constant tensor:
#      x y z
#    x 3.678400 0.000000 -0.272280 
#    y 0.000000 3.245280 0.000000 
#    z -0.272280 0.000000 3.256730 
# 
# 
# High freq. dielectric constant tensor:
#      x y z
#    x 1.708520 0.000000 -0.019850 
#    y 0.000000 1.694250 0.000000 
#    z -0.019850 0.000000 1.699750 
# 
# From -- ./inp_files/61713.got.cif
#   From: 2010.06.25/outbox.cif.g09.slc.cpg/sg12_31_cif.got.tgz:61713.got - 2010.06.28 00:19:55.
