data_PCOD8096385
_publ_section_title
;
Structure prediction by ZEFSAII (Michael W. Deem and Ramdas Pophale) SiO2 
 PCOD8096385
Probable space group: C 2/M
;
_chemical_formula_sum "Si O2"
_cell_formula_units_Z 44
_cell_length_a 29.787337
_cell_length_b 12.604450
_cell_length_c 17.025453
_cell_angle_alpha 90.000000
_cell_angle_beta 161.113030
_cell_angle_gamma 90.000000
_cell_volume 2069.188133
_symmetry_space_group_name_H-M "C 2/M"
_symmetry_group_IT_number 12
_symmetry_cell_setting 'monoclinic'
loop_
_space_group_symop_operation_xyz
x,y,z
-x,y,-z
-x,-y,-z
x,-y,z
1/2+x,1/2+y,z
1/2-x,1/2+y,-z
1/2-x,1/2-y,-z
1/2+x,1/2-y,z
loop_
_atom_site_type_symbol
_atom_site_label
_atom_site_fract_x
_atom_site_fract_y
_atom_site_fract_z
Si Si1 0.500000 0.723024 0.000000
Si Si2 0.748500 0.378064 0.322667
Si Si3 0.538752 0.682389 0.650840
Si Si4 0.319941 0.120642 0.072593
Si Si5 0.527244 0.117970 0.179029
Si Si6 0.749700 0.186812 0.215452
O O1 0.620266 0.647692 0.167316
O O2 0.566088 0.797946 0.176559
O O3 0.741156 0.500000 0.284328
O O4 0.740834 0.307985 0.231272
O O5 0.890621 0.353266 0.605238
O O6 0.500000 0.646932 0.500000
O O7 0.686817 0.625136 0.911755
O O8 0.409638 0.645949 0.492830
O O9 0.555523 0.810890 0.684105
O O10 0.283776 0.181315 0.931910
O O11 0.368904 0.000000 0.139759
O O12 0.569210 0.000000 0.219897
O O13 0.361293 0.117617 0.920315
#
# Coordination Sequence:
#
# PCOD8096385 Si02
#       6
#     4   8   8   8   8   8
#     4  10  20  36  58  82 110 138 176 222 266 320
#     4  10  21  37  57  79 107 143 179 218 267 319
#     4   9  20  36  54  80 110 140 180 224 264 314
#     4  10  20  36  57  79 107 144 181 220 268 316
#     4  10  20  34  55  82 110 142 177 218 269 321
#     4  10  20  33  53  79 108 140 180 222 262 313
#
# _framework density 21.264379000000002
#
# number of rings (size 3 to 8) (size 9 to 14) (size 15 to 20)
#    0.000    2.182    0.000    2.727    0.000    6.545 
#    0.000    7.273    0.000   34.909    0.000    0.000 
#    0.000    0.000    0.000    0.000    0.000    0.000 
#
# Total GULP energy -272599.537752 kJ/mol
# GULP energy per Si atom -12390.888080 kJ/mol
# Density = 2.121598 g / cm^3
# Si number density = 21.264379 Si / 1000 Ang^3
#
#
#
# Elastic Constant Matrix: (Units=GPa)
#
#
# Indices 1 2 3 4 5 6 
#
# 1 50.2803 17.6363 4.2127 0.0000 15.6605 0.0000
# 2 17.6363 99.3125 8.3698 0.0000 -10.9239 0.0000
# 3 4.2127 8.3698 66.9095 0.0000 21.6634 0.0000
# 4 0.0000 0.0000 0.0000 18.7038 0.0000 -4.9136
# 5 15.6605 -10.9239 21.6634 0.0000 31.0030 0.0000
# 6 0.0000 0.0000 0.0000 -4.9136 0.0000 23.6422
#
#
#
# Elastic Compliance Matrix: (Units=1/GPa)
#
#
# Indices 1 2 3 4 5 6 
#
# 1 0.029019 -0.008090 0.006273 0.000000 -0.021892 0.000000
# 2 -0.008090 0.013303 -0.005164 0.000000 0.012382 0.000000
# 3 0.006273 -0.005164 0.021727 0.000000 -0.020170 0.000000
# 4 0.000000 0.000000 0.000000 0.056553 0.000000 0.011754
# 5 -0.021892 0.012382 -0.020170 0.000000 0.061770 0.000000
# 6 0.000000 0.000000 0.000000 0.011754 0.000000 0.044740
#
#
# Mechanical properties :
#
#
# Convention : Reuss Voigt Hill
#
# Bulk Modulus (GPa) = 19.96493 30.77111 25.36802
# Shear Modulus (GPa) = 19.39716 27.08869 23.24293
#
# Velocity S-wave (km/s) = 3.02353 3.57305 3.30971
# Velocity P-wave (km/s) = 4.64739 5.61465 5.15376
#
# Compressibility (1/GPa) = 0.05008782
#
# Stress axis : x y z
#
# Youngs Moduli (GPa) = 34.45982 75.17073 46.02573
#
# Poissons Ratio (x) = 0.60814 -0.28872
# Poissons Ratio (y) = 0.27878 0.23766
# Poissons Ratio (z) = -0.21617 0.38816
#
# Static dielectric constant tensor:
#      x y z
#    x 3.780060 0.000000 0.319060 
#    y 0.000000 3.638140 0.000000 
#    z 0.319060 0.000000 4.153940 
# 
# 
# High freq. dielectric constant tensor:
#      x y z
#    x 1.818580 0.000000 0.023020 
#    y 0.000000 1.821310 0.000000 
#    z 0.023020 0.000000 1.838320 
# 
# From -- ./inp_files/262230.got.cif
#   From: 2010.06.25/outbox.cif.g09.slc.cpg/sg12_132_cif.got.tgz:262230.got - 2010.06.28 00:19:55.
