data_PCOD8096558
_publ_section_title
;
Structure prediction by ZEFSAII (Michael W. Deem and Ramdas Pophale) SiO2 
 PCOD8096558
Probable space group: C 2/M
;
_chemical_formula_sum "Si O2"
_cell_formula_units_Z 64
_cell_length_a 19.736576
_cell_length_b 9.020195
_cell_length_c 24.162477
_cell_angle_alpha 90.000000
_cell_angle_beta 52.860493
_cell_angle_gamma 90.000000
_cell_volume 3429.090484
_symmetry_space_group_name_H-M "C 2/M"
_symmetry_group_IT_number 12
_symmetry_cell_setting 'monoclinic'
loop_
_space_group_symop_operation_xyz
x,y,z
-x,y,-z
-x,-y,-z
x,-y,z
1/2+x,1/2+y,z
1/2-x,1/2+y,-z
1/2-x,1/2-y,-z
1/2+x,1/2-y,z
loop_
_atom_site_type_symbol
_atom_site_label
_atom_site_fract_x
_atom_site_fract_y
_atom_site_fract_z
Si Si1 0.342143 0.824020 0.202656
Si Si2 0.906180 0.823747 0.563369
Si Si3 0.757561 0.824508 0.554892
Si Si4 0.919764 0.324471 0.784866
Si Si5 0.153334 0.175760 0.286061
Si Si6 0.161123 0.324076 0.059361
Si Si7 0.005079 0.676656 0.059813
Si Si8 0.108715 0.324450 0.704798
O O1 0.250204 0.774287 0.226966
O O2 0.419078 0.757822 0.128838
O O3 0.350304 0.759601 0.259993
O O4 0.348986 0.000000 0.199221
O O5 0.837562 0.766133 0.551940
O O6 0.881302 0.766483 0.637250
O O7 0.000000 0.764936 0.500000
O O8 0.904257 0.000000 0.564843
O O9 0.750000 0.750000 0.500000
O O10 0.669196 0.773624 0.625681
O O11 0.764539 0.000000 0.544818
O O12 0.917057 0.500000 0.779353
O O13 0.894899 0.250959 0.739943
O O14 0.863708 0.276484 0.865723
O O15 0.014276 0.261815 0.746518
O O16 0.142511 0.000000 0.288334
O O17 0.170930 0.500000 0.050186
O O18 0.088278 0.267668 0.052399
O O19 0.250000 0.250000 0.000000
O O20 0.005360 0.500000 0.060960
O O21 0.000000 0.737673 0.000000
O O22 0.104950 0.500000 0.710340
#
# Coordination Sequence:
#
# PCOD8096558 Si02
#       8
#     8   8   8   8   8   8   8   8
#     4   9  15  29  52  75  97 126 173 222 250 285
#     4   9  18  33  51  74 107 140 168 207 261 311
#     4  10  20  34  54  78 104 137 175 215 260 308
#     4  10  21  36  53  75 107 142 170 207 265 319
#     4  10  20  33  55  82 102 131 177 221 257 300
#     4  10  21  36  54  77 107 140 171 211 263 315
#     4   9  17  29  49  77 102 127 166 215 256 288
#     4   9  16  32  54  72  97 137 180 213 249 304
#
# _framework density 18.663841000000001
#
# number of rings (size 3 to 8) (size 9 to 14) (size 15 to 20)
#    0.000    2.500    2.500    0.000    3.500    0.500 
#    0.000    0.625    0.000    2.625    0.000    0.000 
#    0.000    0.000    0.000    0.000    0.000    0.000 
#
# Total GULP energy -396565.327639 kJ/mol
# GULP energy per Si atom -12392.666489 kJ/mol
# Density = 1.862136 g / cm^3
# Si number density = 18.663841 Si / 1000 Ang^3
#
#
#
# Elastic Constant Matrix: (Units=GPa)
#
#
# Indices 1 2 3 4 5 6 
#
# 1 100.5688 17.0547 53.9298 -0.0001 -1.8293 -0.0003
# 2 17.0547 13.2507 20.3381 -0.0003 0.0850 -0.0013
# 3 53.9298 20.3381 144.7152 0.0000 -3.1880 0.0000
# 4 -0.0001 -0.0003 0.0000 22.5792 0.0000 3.2492
# 5 -1.8293 0.0850 -3.1880 0.0000 45.8289 0.0000
# 6 -0.0003 -0.0013 0.0000 3.2492 0.0000 18.3888
#
#
#
# Elastic Compliance Matrix: (Units=1/GPa)
#
#
# Indices 1 2 3 4 5 6 
#
# 1 0.013927 -0.012716 -0.003395 0.000000 0.000343 -0.000001
# 2 -0.012716 0.107892 -0.010456 0.000000 -0.001435 0.000008
# 3 -0.003395 -0.010456 0.009657 0.000000 0.000556 -0.000001
# 4 0.000000 0.000000 0.000000 0.045444 0.000000 -0.008030
# 5 0.000343 -0.001435 0.000556 0.000000 0.021875 0.000000
# 6 -0.000001 0.000008 -0.000001 -0.008030 0.000000 0.055800
#
#
# Mechanical properties :
#
#
# Convention : Reuss Voigt Hill
#
# Bulk Modulus (GPa) = 12.76461 49.01999 30.89230
# Shear Modulus (GPa) = 14.97713 28.50685 21.74199
#
# Velocity S-wave (km/s) = 2.83586 3.91242 3.41680
# Velocity P-wave (km/s) = 4.19248 6.83601 5.67044
#
# Compressibility (1/GPa) = 0.07834162
#
# Stress axis : x y z
#
# Youngs Moduli (GPa) = 71.80403 9.26856 103.55011
#
# Poissons Ratio (x) = 0.11786 0.35159
# Poissons Ratio (y) = 0.91303 1.08272
# Poissons Ratio (z) = 0.24380 0.09691
#
# Static dielectric constant tensor:
#      x y z
#    x 3.757350 0.000000 -0.149150 
#    y 0.000000 2.820480 0.000000 
#    z -0.149150 0.000000 3.774260 
# 
# 
# High freq. dielectric constant tensor:
#      x y z
#    x 1.741420 0.000000 -0.002700 
#    y 0.000000 1.658650 0.000000 
#    z -0.002700 0.000000 1.743760 
# 
# From -- ./inp_files/315333.got.cif
#   From: 2010.06.25/outbox.cif.g09.slc.cpg/sg12_158_cif.got.tgz:315333.got - 2010.06.28 00:19:55.
