data_PCOD8096938
_publ_section_title
;
Structure prediction by ZEFSAII (Michael W. Deem and Ramdas Pophale) SiO2 
 PCOD8096938
Probable space group: C 2/M
;
_chemical_formula_sum "Si O2"
_cell_formula_units_Z 56
_cell_length_a 14.276941
_cell_length_b 9.490291
_cell_length_c 27.006376
_cell_angle_alpha 90.000000
_cell_angle_beta 122.309295
_cell_angle_gamma 90.000000
_cell_volume 3092.628229
_symmetry_space_group_name_H-M "C 2/M"
_symmetry_group_IT_number 12
_symmetry_cell_setting 'monoclinic'
loop_
_space_group_symop_operation_xyz
x,y,z
-x,y,-z
-x,-y,-z
x,-y,z
1/2+x,1/2+y,z
1/2-x,1/2+y,-z
1/2-x,1/2-y,-z
1/2+x,1/2-y,z
loop_
_atom_site_type_symbol
_atom_site_label
_atom_site_fract_x
_atom_site_fract_y
_atom_site_fract_z
Si Si1 0.092171 0.160893 0.945219
Si Si2 0.344927 0.339202 0.852630
Si Si3 0.029739 0.336416 0.661571
Si Si4 0.296972 0.162800 0.642924
Si Si5 0.414811 0.163088 0.434398
Si Si6 0.258023 0.837620 0.075470
Si Si7 0.756291 0.164544 0.259831
O O1 0.136106 0.249969 0.911416
O O2 0.961970 0.186335 0.912272
O O3 0.120390 0.000000 0.941445
O O4 0.149731 0.208099 0.012925
O O5 0.334651 0.500000 0.830218
O O6 0.256645 0.307439 0.870641
O O7 0.328461 0.231523 0.803153
O O8 0.053822 0.500000 0.680644
O O9 0.027299 0.309488 0.602080
O O10 0.125981 0.242319 0.712772
O O11 0.913287 0.287850 0.652255
O O12 0.198463 0.251298 0.590483
O O13 0.298369 0.189866 0.702074
O O14 0.274754 0.000000 0.624328
O O15 0.500000 0.216039 0.500000
O O16 0.384734 0.000000 0.433143
O O17 0.284111 0.000000 0.073471
O O18 0.773523 0.000000 0.253701
#
# Coordination Sequence:
#
# PCOD8096938 Si02
#       7
#     8   8   8   8   8   8   8
#     4   9  18  33  52  74  99 127 161 200 242 292
#     4  10  20  34  52  72  97 131 165 197 244 301
#     4   9  18  35  55  72  98 136 169 198 243 297
#     4   9  19  35  53  72  97 133 170 203 243 290
#     4   9  18  32  51  78 108 133 162 202 243 287
#     4   9  18  33  52  73  98 128 161 198 242 295
#     4  10  21  35  50  72  99 125 164 213 249 283
#
# _framework density 18.107576000000002
#
# number of rings (size 3 to 8) (size 9 to 14) (size 15 to 20)
#    0.000    2.714    0.000    0.857    0.000    6.000 
#    0.000    4.286    0.000    4.286    0.000    0.000 
#    0.000    0.000    0.000    0.000    0.000    0.000 
#
# Total GULP energy -347224.978507 kJ/mol
# GULP energy per Si atom -12400.892090 kJ/mol
# Density = 1.806636 g / cm^3
# Si number density = 18.107576 Si / 1000 Ang^3
#
#
#
# Elastic Constant Matrix: (Units=GPa)
#
#
# Indices 1 2 3 4 5 6 
#
# 1 102.2272 38.1809 19.1429 0.0000 -1.2166 0.0000
# 2 38.1809 63.3829 32.3033 0.0000 -0.9580 0.0000
# 3 19.1429 32.3033 66.6116 0.0000 -2.7836 0.0000
# 4 0.0000 0.0000 0.0000 31.1866 0.0000 3.4573
# 5 -1.2166 -0.9580 -2.7836 0.0000 14.3766 0.0000
# 6 0.0000 0.0000 0.0000 3.4573 0.0000 29.7058
#
#
#
# Elastic Compliance Matrix: (Units=1/GPa)
#
#
# Indices 1 2 3 4 5 6 
#
# 1 0.012627 -0.007652 0.000106 0.000000 0.000579 0.000000
# 2 -0.007652 0.025598 -0.010254 0.000000 -0.000927 0.000000
# 3 0.000106 -0.010254 0.020089 0.000000 0.003215 0.000000
# 4 0.000000 0.000000 0.000000 0.032484 0.000000 -0.003781
# 5 0.000579 -0.000927 0.003215 0.000000 0.070167 0.000000
# 6 0.000000 0.000000 0.000000 -0.003781 0.000000 0.034103
#
#
# Mechanical properties :
#
#
# Convention : Reuss Voigt Hill
#
# Bulk Modulus (GPa) = 44.02262 45.71954 44.87108
# Shear Modulus (GPa) = 20.98734 24.56011 22.77373
#
# Velocity S-wave (km/s) = 3.40816 3.68685 3.55024
# Velocity P-wave (km/s) = 6.31283 6.58996 6.45288
#
# Compressibility (1/GPa) = 0.02271560
#
# Stress axis : x y z
#
# Youngs Moduli (GPa) = 79.19558 39.06533 49.77909
#
# Poissons Ratio (x) = 0.29891 -0.00528
# Poissons Ratio (y) = 0.60598 0.51042
# Poissons Ratio (z) = -0.00840 0.40056
#
# Static dielectric constant tensor:
#      x y z
#    x 3.384760 0.000000 -0.067070 
#    y 0.000000 3.338410 0.000000 
#    z -0.067070 0.000000 3.292950 
# 
# 
# High freq. dielectric constant tensor:
#      x y z
#    x 1.699630 0.000000 -0.002280 
#    y 0.000000 1.698170 0.000000 
#    z -0.002280 0.000000 1.696830 
# 
# From -- ./inp_files/337841.got.cif
#   From: 2010.06.25/outbox.cif.g09.slc.cpg/sg12_169_cif.got.tgz:337841.got - 2010.06.28 00:19:55.
