data_PCOD8096741
_publ_section_title
;
Structure prediction by ZEFSAII (Michael W. Deem and Ramdas Pophale) SiO2 
 PCOD8096741
Probable space group: C 2/M
;
_chemical_formula_sum "Si O2"
_cell_formula_units_Z 56
_cell_length_a 18.953508
_cell_length_b 9.312434
_cell_length_c 20.793068
_cell_angle_alpha 90.000000
_cell_angle_beta 58.158578
_cell_angle_gamma 90.000000
_cell_volume 3117.745428
_symmetry_space_group_name_H-M "C 2/M"
_symmetry_group_IT_number 12
_symmetry_cell_setting 'monoclinic'
loop_
_space_group_symop_operation_xyz
x,y,z
-x,y,-z
-x,-y,-z
x,-y,z
1/2+x,1/2+y,z
1/2-x,1/2+y,-z
1/2-x,1/2-y,-z
1/2+x,1/2-y,z
loop_
_atom_site_type_symbol
_atom_site_label
_atom_site_fract_x
_atom_site_fract_y
_atom_site_fract_z
Si Si1 0.038941 0.334869 0.208976
Si Si2 0.141981 0.668237 0.740343
Si Si3 0.747988 0.329164 0.432890
Si Si4 0.412391 0.670821 0.563647
Si Si5 0.409987 0.343121 0.704440
Si Si6 0.723362 0.830239 0.076566
Si Si7 0.223754 0.659912 0.831668
O O1 0.036919 0.500000 0.228712
O O2 0.030659 0.251521 0.279884
O O3 0.124701 0.297083 0.131613
O O4 0.956252 0.294345 0.208358
O O5 0.160459 0.500000 0.733160
O O6 0.183640 0.724255 0.653290
O O7 0.182806 0.729623 0.786789
O O8 0.754874 0.500000 0.440525
O O9 0.750000 0.250000 0.500000
O O10 0.659523 0.277453 0.448566
O O11 0.500000 0.734449 0.500000
O O12 0.411577 0.500000 0.566454
O O13 0.398143 0.732992 0.641604
O O14 0.452511 0.500000 0.677334
O O15 0.320814 0.360462 0.777847
O O16 0.783075 0.769343 0.104876
O O17 0.739345 0.000000 0.063577
O O18 0.750000 0.750000 0.000000
O O19 0.185517 0.500000 0.865085
#
# Coordination Sequence:
#
# PCOD8096741 Si02
#       7
#     8   8   8   8   8   8   8
#     4   9  19  33  51  75 101 129 163 203 247 294
#     4   9  17  33  54  73 100 136 172 207 248 301
#     4  10  20  34  50  71 101 137 173 212 257 299
#     4   9  17  29  46  68  96 129 169 210 248 294
#     4   9  16  29  49  71  93 126 170 210 245 288
#     4  10  20  35  55  79 105 131 160 199 246 298
#     4   9  16  31  55  76  95 129 171 205 242 291
#
# _framework density 17.961696
#
# number of rings (size 3 to 8) (size 9 to 14) (size 15 to 20)
#    0.000    2.714    1.429    0.429    2.000    0.571 
#    0.000    2.857    0.000    5.143    0.000    0.000 
#    0.000    0.000    0.000    0.000    0.000    0.000 
#
# Total GULP energy -346874.026628 kJ/mol
# GULP energy per Si atom -12388.358094 kJ/mol
# Density = 1.792081 g / cm^3
# Si number density = 17.961696 Si / 1000 Ang^3
#
#
#
# Elastic Constant Matrix: (Units=GPa)
#
#
# Indices 1 2 3 4 5 6 
#
# 1 127.8563 43.5246 63.8048 0.0000 15.6747 -0.0001
# 2 43.5246 55.2498 47.7083 -0.0001 11.9699 -0.0004
# 3 63.8048 47.7083 112.0518 0.0000 26.5808 0.0000
# 4 0.0000 -0.0001 0.0000 23.3333 0.0000 8.3010
# 5 15.6747 11.9699 26.5808 0.0000 33.0182 0.0000
# 6 -0.0001 -0.0004 0.0000 8.3010 0.0000 22.8503
#
#
#
# Elastic Compliance Matrix: (Units=1/GPa)
#
#
# Indices 1 2 3 4 5 6 
#
# 1 0.011924 -0.005581 -0.004389 0.000000 -0.000104 0.000000
# 2 -0.005581 0.031248 -0.009972 0.000000 -0.000651 0.000001
# 3 -0.004389 -0.009972 0.017697 0.000000 -0.008548 0.000000
# 4 0.000000 0.000000 0.000000 0.049218 0.000000 -0.017880
# 5 -0.000104 -0.000651 -0.008548 0.000000 0.037453 0.000000
# 6 0.000000 0.000001 0.000000 -0.017880 0.000000 0.050258
#
#
# Mechanical properties :
#
#
# Convention : Reuss Voigt Hill
#
# Bulk Modulus (GPa) = 47.65252 67.24814 57.45033
# Shear Modulus (GPa) = 20.43491 25.18170 22.80830
#
# Velocity S-wave (km/s) = 3.37663 3.74835 3.56733
# Velocity P-wave (km/s) = 6.46451 7.50030 7.00158
#
# Compressibility (1/GPa) = 0.02098525
#
# Stress axis : x y z
#
# Youngs Moduli (GPa) = 83.86296 32.00160 56.50612
#
# Poissons Ratio (x) = 0.17861 0.24800
# Poissons Ratio (y) = 0.46806 0.56349
# Poissons Ratio (z) = 0.36806 0.31913
#
# Static dielectric constant tensor:
#      x y z
#    x 3.497060 0.000000 0.069720 
#    y 0.000000 3.267880 0.000000 
#    z 0.069720 0.000000 3.337510 
# 
# 
# High freq. dielectric constant tensor:
#      x y z
#    x 1.699410 0.000000 0.010630 
#    y 0.000000 1.661140 0.000000 
#    z 0.010630 0.000000 1.688980 
# 
# From -- ./inp_files/313679.got.cif
#   From: 2010.06.25/outbox.cif.g09.slc.cpg/sg12_157_cif.got.tgz:313679.got - 2010.06.28 00:19:55.
