data_PCOD8096086
_publ_section_title
;
Structure prediction by ZEFSAII (Michael W. Deem and Ramdas Pophale) SiO2 
 PCOD8096086
Probable space group: C 2/M
;
_chemical_formula_sum "Si O2"
_cell_formula_units_Z 64
_cell_length_a 27.778252
_cell_length_b 9.162068
_cell_length_c 15.900205
_cell_angle_alpha 90.000000
_cell_angle_beta 62.460105
_cell_angle_gamma 90.000000
_cell_volume 3588.165937
_symmetry_space_group_name_H-M "C 2/M"
_symmetry_group_IT_number 12
_symmetry_cell_setting 'monoclinic'
loop_
_space_group_symop_operation_xyz
x,y,z
-x,y,-z
-x,-y,-z
x,-y,z
1/2+x,1/2+y,z
1/2-x,1/2+y,-z
1/2-x,1/2-y,-z
1/2+x,1/2-y,z
loop_
_atom_site_type_symbol
_atom_site_label
_atom_site_fract_x
_atom_site_fract_y
_atom_site_fract_z
Si Si1 0.611977 0.830066 0.755942
Si Si2 0.737904 0.831450 0.264699
Si Si3 0.968453 0.831572 0.607696
Si Si4 0.632802 0.171406 0.243992
Si Si5 0.397727 0.670462 0.895620
Si Si6 0.268513 0.828882 0.401204
Si Si7 0.482821 0.334405 0.253982
Si Si8 0.143405 0.830473 0.891178
O O1 0.668236 0.793460 0.664028
O O2 0.563676 0.775006 0.736565
O O3 0.608851 0.753117 0.848850
O O4 0.604971 0.000000 0.777195
O O5 0.689278 0.789174 0.242452
O O6 0.733841 0.733568 0.351434
O O7 0.792942 0.797330 0.169691
O O8 0.735268 0.000000 0.294788
O O9 0.914894 0.734930 0.659740
O O10 0.000000 0.777693 0.500000
O O11 0.008187 0.809447 0.654412
O O12 0.950363 0.000000 0.615015
O O13 0.633722 0.242538 0.151260
O O14 0.624158 0.000000 0.241132
O O15 0.386032 0.500000 0.890207
O O16 0.461917 0.702075 0.840444
O O17 0.375234 0.726272 0.002746
O O18 0.250000 0.750000 0.500000
O O19 0.257057 0.000000 0.418244
O O20 0.464357 0.500000 0.250552
O O21 0.129807 0.000000 0.891844
#
# Coordination Sequence:
#
# PCOD8096086 Si02
#       8
#     8   8   8   8   8   8   8   8
#     4  10  21  35  51  75 104 131 165 209 254 301
#     4   9  19  35  53  76 105 135 169 207 249 300
#     4   9  19  36  55  75 100 132 173 213 247 296
#     4  10  20  33  51  77 107 135 165 207 257 302
#     4   9  19  35  54  76 101 133 174 211 244 294
#     4  10  21  36  54  76 102 133 169 209 252 300
#     4   9  18  33  52  74 101 133 169 208 249 296
#     4   9  18  35  56  74  99 136 172 207 248 295
#
# _framework density 17.836410999999998
#
# number of rings (size 3 to 8) (size 9 to 14) (size 15 to 20)
#    0.000    2.625    0.000    1.875    0.000    7.250 
#    0.000    5.000    0.000    0.000    0.000    0.000 
#    0.000    0.000    0.000    0.000    0.000    0.000 
#
# Total GULP energy -396905.339255 kJ/mol
# GULP energy per Si atom -12403.291852 kJ/mol
# Density = 1.779581 g / cm^3
# Si number density = 17.836411 Si / 1000 Ang^3
#
#
#
# Elastic Constant Matrix: (Units=GPa)
#
#
# Indices 1 2 3 4 5 6 
#
# 1 109.3931 53.6771 54.4194 0.0000 10.3668 0.0000
# 2 53.6771 78.1544 59.4301 0.0000 7.1507 0.0000
# 3 54.4194 59.4301 159.4165 0.0000 8.8489 0.0000
# 4 0.0000 0.0000 0.0000 28.0102 0.0000 3.0976
# 5 10.3668 7.1507 8.8489 0.0000 12.9415 0.0000
# 6 0.0000 0.0000 0.0000 3.0976 0.0000 32.6277
#
#
#
# Elastic Compliance Matrix: (Units=1/GPa)
#
#
# Indices 1 2 3 4 5 6 
#
# 1 0.014532 -0.008250 -0.001551 0.000000 -0.006022 0.000000
# 2 -0.008250 0.022930 -0.005608 0.000000 -0.002226 0.000000
# 3 -0.001551 -0.005608 0.008993 0.000000 -0.001808 0.000000
# 4 0.000000 0.000000 0.000000 0.036080 0.000000 -0.003425
# 5 -0.006022 -0.002226 -0.001808 0.000000 0.084561 0.000000
# 6 0.000000 0.000000 0.000000 -0.003425 0.000000 0.030974
#
#
# Mechanical properties :
#
#
# Convention : Reuss Voigt Hill
#
# Bulk Modulus (GPa) = 63.95348 75.77968 69.86658
# Shear Modulus (GPa) = 21.35831 26.67836 24.01833
#
# Velocity S-wave (km/s) = 3.46418 3.87166 3.67357
# Velocity P-wave (km/s) = 7.20654 7.90977 7.56633
#
# Compressibility (1/GPa) = 0.01563637
#
# Stress axis : x y z
#
# Youngs Moduli (GPa) = 68.81498 43.61118 111.19345
#
# Poissons Ratio (x) = 0.35981 0.17242
# Poissons Ratio (y) = 0.56775 0.62360
# Poissons Ratio (z) = 0.10671 0.24458
#
# Static dielectric constant tensor:
#      x y z
#    x 3.233170 0.000000 0.005880 
#    y 0.000000 3.300420 0.000000 
#    z 0.005880 0.000000 3.426880 
# 
# 
# High freq. dielectric constant tensor:
#      x y z
#    x 1.687620 0.000000 0.003240 
#    y 0.000000 1.691490 0.000000 
#    z 0.003240 0.000000 1.694890 
# 
# From -- ./inp_files/243730.got.cif
#   From: 2010.06.25/outbox.cif.g09.slc.cpg/sg12_122_cif.got.tgz:243730.got - 2010.06.28 00:19:55.
