data_PCOD8096449
_publ_section_title
;
Structure prediction by ZEFSAII (Michael W. Deem and Ramdas Pophale) SiO2 
 PCOD8096449
Probable space group: C 2/M
;
_chemical_formula_sum "Si O2"
_cell_formula_units_Z 56
_cell_length_a 24.797868
_cell_length_b 9.098804
_cell_length_c 14.638772
_cell_angle_alpha 90.000000
_cell_angle_beta 121.611835
_cell_angle_gamma 90.000000
_cell_volume 2812.862351
_symmetry_space_group_name_H-M "C 2/M"
_symmetry_group_IT_number 12
_symmetry_cell_setting 'monoclinic'
loop_
_space_group_symop_operation_xyz
x,y,z
-x,y,-z
-x,-y,-z
x,-y,z
1/2+x,1/2+y,z
1/2-x,1/2+y,-z
1/2-x,1/2-y,-z
1/2+x,1/2-y,z
loop_
_atom_site_type_symbol
_atom_site_label
_atom_site_fract_x
_atom_site_fract_y
_atom_site_fract_z
Si Si1 0.803809 0.671907 0.325507
Si Si2 0.254105 0.668044 0.909887
Si Si3 0.814537 0.667278 0.693674
Si Si4 0.634557 0.835705 0.066725
Si Si5 0.442997 0.827402 0.516684
Si Si6 0.020515 0.840485 0.915828
Si Si7 0.415628 0.328228 0.675960
O O1 0.789243 0.500000 0.327523
O O2 0.797971 0.713134 0.212581
O O3 0.753250 0.761075 0.341569
O O4 0.875237 0.714520 0.413569
O O5 0.248996 0.500000 0.930274
O O6 0.320849 0.705663 0.925919
O O7 0.250000 0.750000 0.000000
O O8 0.801335 0.500000 0.651392
O O9 0.863969 0.670741 0.822130
O O10 0.848010 0.752041 0.639216
O O11 0.654123 0.000000 0.051281
O O12 0.568567 0.796123 0.960164
O O13 0.500000 0.777933 0.500000
O O14 0.448570 0.739907 0.615972
O O15 0.448025 0.000000 0.541552
O O16 0.962542 0.795049 0.800729
O O17 0.048199 0.000000 0.906729
O O18 0.000000 0.865141 0.000000
O O19 0.403150 0.500000 0.649727
#
# Coordination Sequence:
#
# PCOD8096449 Si02
#       7
#     8   8   8   8   8   8   8
#     4   9  20  39  62  85 115 156 195 239 298 354
#     4  10  20  35  56  83 116 152 195 240 289 349
#     4  10  20  35  58  89 120 150 191 241 293 349
#     4  10  20  33  53  82 116 152 192 238 289 341
#     4  10  23  44  65  85 114 154 200 249 297 348
#     4  10  20  35  55  82 120 159 190 227 286 352
#     4  11  23  38  60  89 120 158 200 243 296 354
#
# _framework density 19.908546000000001
#
# number of rings (size 3 to 8) (size 9 to 14) (size 15 to 20)
#    0.000    2.000    1.429    1.714    0.000    5.714 
#    0.000    1.429    0.000    0.000    0.000    0.000 
#    0.000    0.000    0.000    0.000    0.000    0.000 
#
# Total GULP energy -347029.516932 kJ/mol
# GULP energy per Si atom -12393.911319 kJ/mol
# Density = 1.986323 g / cm^3
# Si number density = 19.908546 Si / 1000 Ang^3
#
#
#
# Elastic Constant Matrix: (Units=GPa)
#
#
# Indices 1 2 3 4 5 6 
#
# 1 117.2819 61.6935 61.4834 0.0000 -4.9849 0.0000
# 2 61.6935 80.3188 49.8797 0.0000 -2.1898 0.0000
# 3 61.4834 49.8797 96.5633 0.0000 -1.4840 0.0000
# 4 0.0000 0.0000 0.0000 3100.8503 0.0000 -662.8300
# 5 -4.9849 -2.1898 -1.4840 0.0000 34.9004 0.0000
# 6 0.0000 0.0000 0.0000 -662.8300 0.0000 177.5716
#
#
#
# Elastic Compliance Matrix: (Units=1/GPa)
#
#
# Indices 1 2 3 4 5 6 
#
# 1 0.016286 -0.008896 -0.005750 0.000000 0.001523 0.000000
# 2 -0.008896 0.023210 -0.006326 0.000000 -0.000083 0.000000
# 3 -0.005750 -0.006326 0.017278 0.000000 -0.000484 0.000000
# 4 0.000000 0.000000 0.000000 0.001596 0.000000 0.005956
# 5 0.001523 -0.000083 -0.000484 0.000000 0.028845 0.000000
# 6 0.000000 0.000000 0.000000 0.005956 0.000000 0.027865
#
#
# Mechanical properties :
#
#
# Convention : Reuss Voigt Hill
#
# Bulk Modulus (GPa) = 67.44183 71.14191 69.29187
# Shear Modulus (GPa) = 30.87049 670.73828 350.80438
#
# Velocity S-wave (km/s) = 3.94206 18.37501 13.28873
# Velocity P-wave (km/s) = 7.39386 22.04541 16.44186
#
# Compressibility (1/GPa) = 0.01482759
#
# Stress axis : x y z
#
# Youngs Moduli (GPa) = 61.40415 43.08486 57.87869
#
# Poissons Ratio (x) = 0.38330 0.33283
# Poissons Ratio (y) = 0.54627 0.36614
# Poissons Ratio (z) = 0.35310 0.27255
#
# Static dielectric constant tensor:
#      x y z
#    x 3.092570 0.000000 -0.072890 
#    y 0.000000 3.653770 0.000000 
#    z -0.072890 0.000000 3.361420 
# 
# 
# High freq. dielectric constant tensor:
#      x y z
#    x 1.761400 0.000000 0.001000 
#    y 0.000000 1.783960 0.000000 
#    z 0.001000 0.000000 1.776960 
# 
# From -- ./inp_files/239019.got.cif
#   From: 2010.06.25/outbox.cif.g09.slc.cpg/sg12_120_cif.got.tgz:239019.got - 2010.06.28 00:19:55.
