data_PCOD8096708
_publ_section_title
;
Structure prediction by ZEFSAII (Michael W. Deem and Ramdas Pophale) SiO2 
 PCOD8096708
Probable space group: C 2/M
;
_chemical_formula_sum "Si O2"
_cell_formula_units_Z 64
_cell_length_a 23.477539
_cell_length_b 9.146155
_cell_length_c 19.093048
_cell_angle_alpha 90.000000
_cell_angle_beta 108.192932
_cell_angle_gamma 90.000000
_cell_volume 3894.886722
_symmetry_space_group_name_H-M "C 2/M"
_symmetry_group_IT_number 12
_symmetry_cell_setting 'monoclinic'
loop_
_space_group_symop_operation_xyz
x,y,z
-x,y,-z
-x,-y,-z
x,-y,z
1/2+x,1/2+y,z
1/2-x,1/2+y,-z
1/2-x,1/2-y,-z
1/2+x,1/2-y,z
loop_
_atom_site_type_symbol
_atom_site_label
_atom_site_fract_x
_atom_site_fract_y
_atom_site_fract_z
Si Si1 0.314327 0.668779 0.366797
Si Si2 0.102792 0.670970 0.704535
Si Si3 0.135962 0.173314 0.464864
Si Si4 0.820169 0.330811 0.648684
Si Si5 0.448340 0.666378 0.192256
Si Si6 0.918520 0.834602 0.770114
Si Si7 0.504219 0.328077 0.078061
Si Si8 0.485154 0.168769 0.574099
O O1 0.331177 0.500000 0.363013
O O2 0.340505 0.758444 0.311988
O O3 0.342352 0.726193 0.450566
O O4 0.243399 0.694281 0.338873
O O5 0.113888 0.500000 0.711983
O O6 0.096230 0.731395 0.780878
O O7 0.042964 0.714255 0.640258
O O8 0.179811 0.241080 0.423574
O O9 0.069520 0.230423 0.422856
O O10 0.138060 0.000000 0.458631
O O11 0.830825 0.500000 0.634995
O O12 0.871285 0.278822 0.721638
O O13 0.425437 0.500000 0.190411
O O14 0.517607 0.677463 0.246462
O O15 0.449844 0.718083 0.110448
O O16 0.932287 0.795808 0.857783
O O17 0.893305 0.000000 0.752966
O O18 0.498376 0.500000 0.065493
O O19 0.500000 0.249777 0.000000
O O20 0.500000 0.201863 0.500000
O O21 0.467555 0.000000 0.579397
#
# Coordination Sequence:
#
# PCOD8096708 Si02
#       8
#     8   8   8   8   8   8   8   8
#     4  10  23  38  49  64  88 124 168 209 247 284
#     4  11  21  32  48  68  93 125 158 196 240 287
#     4  11  22  35  52  70  88 119 163 209 250 288
#     4  11  22  35  50  67  93 127 161 202 247 287
#     4   8  16  29  48  72 100 127 151 184 225 275
#     4   8  16  30  50  76 100 126 158 189 227 276
#     4   7  12  26  49  77 105 129 154 183 220 273
#     4  10  20  34  49  68  93 120 154 196 246 293
#
# _framework density 16.431799999999999
#
# number of rings (size 3 to 8) (size 9 to 14) (size 15 to 20)
#    0.750    1.750    1.250    2.250    0.000    5.250 
#    0.000    0.000    0.000    1.500    0.000    0.875 
#    0.000    0.000    0.000    0.000    0.000    0.000 
#
# Total GULP energy -396537.294013 kJ/mol
# GULP energy per Si atom -12391.790438 kJ/mol
# Density = 1.639440 g / cm^3
# Si number density = 16.431800 Si / 1000 Ang^3
#
#
#
# Elastic Constant Matrix: (Units=GPa)
#
#
# Indices 1 2 3 4 5 6 
#
# 1 72.6013 40.5409 37.3047 0.0000 -17.7221 0.0000
# 2 40.5409 62.9303 27.7155 0.0000 -11.9459 0.0000
# 3 37.3047 27.7155 90.7262 0.0000 -26.6842 0.0000
# 4 0.0000 0.0000 0.0000 12.5775 0.0000 -0.9802
# 5 -17.7221 -11.9459 -26.6842 0.0000 18.5698 0.0000
# 6 0.0000 0.0000 0.0000 -0.9802 0.0000 26.0005
#
#
#
# Elastic Compliance Matrix: (Units=1/GPa)
#
#
# Indices 1 2 3 4 5 6 
#
# 1 0.025293 -0.012740 -0.003151 0.000000 0.011416 0.000000
# 2 -0.012740 0.025242 -0.002204 0.000000 0.000912 0.000000
# 3 -0.003151 -0.002204 0.020247 0.000000 0.024669 0.000000
# 4 0.000000 0.000000 0.000000 0.079741 0.000000 0.003006
# 5 0.011416 0.000912 0.024669 0.000000 0.100781 0.000000
# 6 0.000000 0.000000 0.000000 0.003006 0.000000 0.038574
#
#
# Mechanical properties :
#
#
# Convention : Reuss Voigt Hill
#
# Bulk Modulus (GPa) = 28.90840 48.59778 38.75309
# Shear Modulus (GPa) = 14.81049 19.47601 17.14325
#
# Velocity S-wave (km/s) = 3.00547 3.44650 3.23352
# Velocity P-wave (km/s) = 5.44748 6.74370 6.12995
#
# Compressibility (1/GPa) = 0.03459202
#
# Stress axis : x y z
#
# Youngs Moduli (GPa) = 39.53601 39.61673 49.39106
#
# Poissons Ratio (x) = 0.50471 0.15561
# Poissons Ratio (y) = 0.50368 0.10888
# Poissons Ratio (z) = 0.12456 0.08733
#
# Static dielectric constant tensor:
#      x y z
#    x 2.922270 0.000000 -0.153940 
#    y 0.000000 2.951330 0.000000 
#    z -0.153940 0.000000 3.231820 
# 
# 
# High freq. dielectric constant tensor:
#      x y z
#    x 1.613900 0.000000 -0.016280 
#    y 0.000000 1.626100 0.000000 
#    z -0.016280 0.000000 1.615140 
# 
# From -- ./inp_files/323399.got.cif
#   From: 2010.06.25/outbox.cif.g09.slc.cpg/sg12_162_cif.got.tgz:323399.got - 2010.06.28 00:19:55.
