data_PCOD8096719
_publ_section_title
;
Structure prediction by ZEFSAII (Michael W. Deem and Ramdas Pophale) SiO2 
 PCOD8096719
Probable space group: C 2/M
;
_chemical_formula_sum "Si O2"
_cell_formula_units_Z 64
_cell_length_a 18.780003
_cell_length_b 19.577990
_cell_length_c 9.716713
_cell_angle_alpha 90.000000
_cell_angle_beta 99.401216
_cell_angle_gamma 90.000000
_cell_volume 3524.605103
_symmetry_space_group_name_H-M "C 2/M"
_symmetry_group_IT_number 12
_symmetry_cell_setting 'monoclinic'
loop_
_space_group_symop_operation_xyz
x,y,z
-x,y,-z
-x,-y,-z
x,-y,z
1/2+x,1/2+y,z
1/2-x,1/2+y,-z
1/2-x,1/2-y,-z
1/2+x,1/2-y,z
loop_
_atom_site_type_symbol
_atom_site_label
_atom_site_fract_x
_atom_site_fract_y
_atom_site_fract_z
Si Si1 0.305602 0.812732 0.386620
Si Si2 0.606791 0.575338 0.207392
Si Si3 0.170742 0.723106 0.305911
Si Si4 0.884649 0.189825 0.268874
Si Si5 0.915196 0.923642 0.486095
Si Si6 0.770142 0.422842 0.173766
Si Si7 0.471586 0.292453 0.848017
Si Si8 0.750612 0.676758 0.929897
O O1 0.222292 0.788501 0.346790
O O2 0.330717 0.820412 0.552970
O O3 0.357412 0.760461 0.324160
O O4 0.310868 0.886400 0.314315
O O5 0.571752 0.500000 0.175104
O O6 0.612019 0.592183 0.370151
O O7 0.685087 0.576783 0.167193
O O8 0.557224 0.632264 0.120609
O O9 0.090844 0.746810 0.239364
O O10 0.202182 0.676101 0.194327
O O11 0.876683 0.131367 0.379614
O O12 0.833611 0.163306 0.129426
O O13 0.965505 0.201456 0.243769
O O14 0.000000 0.914387 0.500000
O O15 0.892290 0.000000 0.432980
O O16 0.800349 0.500000 0.169749
O O17 0.784825 0.380720 0.038632
O O18 0.500000 0.259073 0.000000
O O19 0.750000 0.750000 0.000000
#
# Coordination Sequence:
#
# PCOD8096719 Si02
#       8
#     8   8   8   8   8   8   8   8
#     4  10  21  37  59  86 112 155 197 248 286 339
#     4  10  20  34  51  75 117 160 194 228 274 339
#     4  10  21  36  59  81 117 151 193 241 296 330
#     4  11  22  31  58  82 117 152 200 235 286 339
#     4  10  20  34  49  74 118 160 191 231 277 330
#     4  11  22  38  61  85 115 156 196 239 298 350
#     4  12  22  33  52  85 117 151 192 242 278 348
#     4  11  20  39  56  81 120 153 192 243 292 348
#
# _framework density 18.158062000000001
#
# number of rings (size 3 to 8) (size 9 to 14) (size 15 to 20)
#    0.000    1.375    5.000    2.250    3.500    0.750 
#    0.000    0.625    0.000    0.000    0.000    3.500 
#    0.000    0.000    0.000    0.000    0.000    0.000 
#
# Total GULP energy -396793.291153 kJ/mol
# GULP energy per Si atom -12399.790349 kJ/mol
# Density = 1.811673 g / cm^3
# Si number density = 18.158062 Si / 1000 Ang^3
#
#
#
# Elastic Constant Matrix: (Units=GPa)
#
#
# Indices 1 2 3 4 5 6 
#
# 1 69.9454 23.3535 26.9505 0.0000 8.7584 0.0000
# 2 23.3535 111.6691 52.7495 0.0000 9.2483 0.0000
# 3 26.9505 52.7495 123.9170 0.0000 8.6816 0.0000
# 4 0.0000 0.0000 0.0000 56.1674 0.0000 13.5792
# 5 8.7584 9.2483 8.6816 0.0000 28.6457 0.0000
# 6 0.0000 0.0000 0.0000 13.5792 0.0000 26.6900
#
#
#
# Elastic Compliance Matrix: (Units=1/GPa)
#
#
# Indices 1 2 3 4 5 6 
#
# 1 0.016355 -0.001953 -0.002472 0.000000 -0.003621 0.000000
# 2 -0.001953 0.011582 -0.004378 0.000000 -0.001815 0.000000
# 3 -0.002472 -0.004378 0.010543 0.000000 -0.001026 0.000000
# 4 0.000000 0.000000 0.000000 0.020301 0.000000 -0.010329
# 5 -0.003621 -0.001815 -0.001026 0.000000 0.036913 0.000000
# 6 0.000000 0.000000 0.000000 -0.010329 0.000000 0.042722
#
#
# Mechanical properties :
#
#
# Convention : Reuss Voigt Hill
#
# Bulk Modulus (GPa) = 47.90724 56.84873 52.37798
# Shear Modulus (GPa) = 30.67853 35.79917 33.23885
#
# Velocity S-wave (km/s) = 4.11484 4.44501 4.28311
# Velocity P-wave (km/s) = 7.00119 7.59736 7.30536
#
# Compressibility (1/GPa) = 0.02087367
#
# Stress axis : x y z
#
# Youngs Moduli (GPa) = 61.14439 86.34106 94.84736
#
# Poissons Ratio (x) = 0.16860 0.23447
# Poissons Ratio (y) = 0.11939 0.41528
# Poissons Ratio (z) = 0.15115 0.37804
#
# Static dielectric constant tensor:
#      x y z
#    x 3.219990 0.000000 -0.068380 
#    y 0.000000 3.369850 0.000000 
#    z -0.068380 0.000000 3.956370 
# 
# 
# High freq. dielectric constant tensor:
#      x y z
#    x 1.684130 0.000000 -0.006890 
#    y 0.000000 1.680950 0.000000 
#    z -0.006890 0.000000 1.719870 
# 
# From -- ./inp_files/77498.got.cif
#   From: 2010.06.25/outbox.cif.g09.slc.cpg/sg12_39_cif.got.tgz:77498.got - 2010.06.28 00:19:55.
