data_PCOD8096988
_publ_section_title
;
Structure prediction by ZEFSAII (Michael W. Deem and Ramdas Pophale) SiO2 
 PCOD8096988
Probable space group: C 2/M
;
_chemical_formula_sum "Si O2"
_cell_formula_units_Z 64
_cell_length_a 30.518621
_cell_length_b 9.140430
_cell_length_c 24.477634
_cell_angle_alpha 90.000000
_cell_angle_beta 31.542918
_cell_angle_gamma 90.000000
_cell_volume 3572.041434
_symmetry_space_group_name_H-M "C 2/M"
_symmetry_group_IT_number 12
_symmetry_cell_setting 'monoclinic'
loop_
_space_group_symop_operation_xyz
x,y,z
-x,y,-z
-x,-y,-z
x,-y,z
1/2+x,1/2+y,z
1/2-x,1/2+y,-z
1/2-x,1/2-y,-z
1/2+x,1/2-y,z
loop_
_atom_site_type_symbol
_atom_site_label
_atom_site_fract_x
_atom_site_fract_y
_atom_site_fract_z
Si Si1 0.996374 0.169541 0.740057
Si Si2 0.209279 0.829447 0.686613
Si Si3 0.369427 0.169776 0.020999
Si Si4 0.627844 0.669660 0.511233
Si Si5 0.247948 0.828350 0.768965
Si Si6 0.411308 0.330327 0.570486
Si Si7 0.830637 0.330049 0.937101
Si Si8 0.034332 0.830644 0.823708
O O1 0.912196 0.262205 0.821770
O O2 0.062990 0.228135 0.625250
O O3 0.036648 0.194464 0.756497
O O4 0.973997 0.000000 0.753761
O O5 0.284053 0.750747 0.575018
O O6 0.210900 0.790572 0.748881
O O7 0.121697 0.773767 0.755312
O O8 0.221230 0.000000 0.663622
O O9 0.309079 0.252045 0.126060
O O10 0.373264 0.000000 0.032238
O O11 0.334157 0.195773 0.998021
O O12 0.461908 0.236188 0.928755
O O13 0.645993 0.500000 0.501054
O O14 0.587844 0.701963 0.494819
O O15 0.341388 0.765355 0.675068
O O16 0.250124 0.000000 0.778101
O O17 0.500000 0.280631 0.500000
O O18 0.392914 0.500000 0.602463
O O19 0.826123 0.500000 0.926762
O O20 0.750000 0.250000 0.000000
O O21 0.018534 0.000000 0.855212
#
# Coordination Sequence:
#
# PCOD8096988 Si02
#       8
#     8   8   8   8   8   8   8   8
#     4   9  18  33  52  74 101 133 169 208 249 295
#     4   9  19  34  51  73 101 133 168 206 249 298
#     4  10  21  36  53  75 102 131 166 207 250 296
#     4   9  18  32  50  73 100 130 165 205 249 297
#     4  10  20  34  52  74 101 132 167 207 250 298
#     4   9  18  33  51  71  99 133 166 203 249 299
#     4  10  21  36  54  76 102 132 166 205 248 296
#     4   9  18  34  53  72  99 134 169 206 250 298
#
# _framework density 17.916924999999999
#
# number of rings (size 3 to 8) (size 9 to 14) (size 15 to 20)
#    0.000    2.625    0.000    1.125    0.000    5.250 
#    0.000    5.000    0.000    0.000    0.000    0.000 
#    0.000    0.000    0.000    0.000    0.000    0.000 
#
# Total GULP energy -396912.864022 kJ/mol
# GULP energy per Si atom -12403.527001 kJ/mol
# Density = 1.787614 g / cm^3
# Si number density = 17.916925 Si / 1000 Ang^3
#
#
#
# Elastic Constant Matrix: (Units=GPa)
#
#
# Indices 1 2 3 4 5 6 
#
# 1 90.2546 52.5465 80.1806 0.0048 -29.5566 -0.0016
# 2 52.5465 92.4097 88.3190 -0.0051 -10.2359 0.0087
# 3 80.1806 88.3190 189.2946 0.0126 -8.5097 -0.0053
# 4 0.0048 -0.0051 0.0126 38.6136 0.0019 -4.6955
# 5 -29.5566 -10.2359 -8.5097 0.0019 33.8873 -0.0033
# 6 -0.0016 0.0087 -0.0053 -4.6955 -0.0033 24.9870
#
#
#
# Elastic Compliance Matrix: (Units=1/GPa)
#
#
# Indices 1 2 3 4 5 6 
#
# 1 0.029346 -0.006032 -0.008645 -0.000002 0.021603 0.000005
# 2 -0.006032 0.021227 -0.007381 0.000005 -0.000703 -0.000009
# 3 -0.008645 -0.007381 0.012085 -0.000003 -0.006735 0.000003
# 4 -0.000002 0.000005 -0.000003 0.026503 -0.000002 0.004980
# 5 0.021603 -0.000703 -0.006735 -0.000002 0.046448 0.000006
# 6 0.000005 -0.000009 0.000003 0.004980 0.000006 0.040957
#
#
# Mechanical properties :
#
#
# Convention : Reuss Voigt Hill
#
# Bulk Modulus (GPa) = 53.92581 90.45013 72.18797
# Shear Modulus (GPa) = 22.03976 29.55843 25.79909
#
# Velocity S-wave (km/s) = 3.51110 4.06612 3.79876
# Velocity P-wave (km/s) = 6.82643 8.52274 7.72131
#
# Compressibility (1/GPa) = 0.01854399
#
# Stress axis : x y z
#
# Youngs Moduli (GPa) = 34.07634 47.10900 82.74485
#
# Poissons Ratio (x) = 0.28415 0.71531
# Poissons Ratio (y) = 0.20554 0.61071
# Poissons Ratio (z) = 0.29458 0.34770
#
# Static dielectric constant tensor:
#      x y z
#    x 3.343910 -0.000020 -0.057360 
#    y -0.000020 3.346840 0.000050 
#    z -0.057360 0.000050 3.426700 
# 
# 
# High freq. dielectric constant tensor:
#      x y z
#    x 1.690040 0.000000 -0.003990 
#    y 0.000000 1.694810 0.000000 
#    z -0.003990 0.000000 1.700610 
# 
# From -- ./inp_files/244115.got.cif
#   From: 2010.06.25/outbox.cif.g09.slc.cpg/sg12_123_cif.got.tgz:244115.got - 2010.06.28 00:19:55.
