data_PCOD8096177
_publ_section_title
;
Structure prediction by ZEFSAII (Michael W. Deem and Ramdas Pophale) SiO2 
 PCOD8096177
Probable space group: C 2/M
;
_chemical_formula_sum "Si O2"
_cell_formula_units_Z 64
_cell_length_a 29.774021
_cell_length_b 8.659807
_cell_length_c 15.116442
_cell_angle_alpha 90.000000
_cell_angle_beta 59.206089
_cell_angle_gamma 90.000000
_cell_volume 3348.078896
_symmetry_space_group_name_H-M "C 2/M"
_symmetry_group_IT_number 12
_symmetry_cell_setting 'monoclinic'
loop_
_space_group_symop_operation_xyz
x,y,z
-x,y,-z
-x,-y,-z
x,-y,z
1/2+x,1/2+y,z
1/2-x,1/2+y,-z
1/2-x,1/2-y,-z
1/2+x,1/2-y,z
loop_
_atom_site_type_symbol
_atom_site_label
_atom_site_fract_x
_atom_site_fract_y
_atom_site_fract_z
Si Si1 0.388619 0.320618 0.438614
Si Si2 0.970472 0.816444 0.946251
Si Si3 0.830118 0.820693 0.675782
Si Si4 0.001111 0.817067 0.273323
Si Si5 0.357443 0.683256 0.014231
Si Si6 0.301609 0.818399 0.404036
Si Si7 0.781066 0.818073 0.240135
Si Si8 0.114238 0.184042 0.205071
O O1 0.385238 0.500000 0.414741
O O2 0.371759 0.295220 0.556328
O O3 0.448075 0.256478 0.372624
O O4 0.352499 0.226601 0.408081
O O5 0.999847 0.762750 0.827709
O O6 0.970995 0.000000 0.952493
O O7 0.910871 0.756702 0.005271
O O8 0.000000 0.741278 0.000000
O O9 0.779436 0.722928 0.703770
O O10 0.855318 0.752878 0.740122
O O11 0.814517 0.000000 0.700676
O O12 0.054198 0.753221 0.266182
O O13 0.003128 0.000000 0.276977
O O14 0.357369 0.500000 0.012190
O O15 0.309264 0.744185 0.122133
O O16 0.355435 0.742313 0.914238
O O17 0.250000 0.750000 0.500000
O O18 0.308089 0.759051 0.297595
O O19 0.294816 0.000000 0.409763
O O20 0.787925 0.000000 0.243181
O O21 0.113059 0.000000 0.209087
#
# Coordination Sequence:
#
# PCOD8096177 Si02
#       8
#     8   8   8   8   8   8   8   8
#     4  10  20  33  52  81 110 140 177 216 265 320
#     4   8  13  22  39  66 100 133 170 218 266 306
#     4  10  20  33  52  76 108 144 179 223 271 316
#     4   8  15  27  46  74 107 138 174 219 264 312
#     4   8  16  29  46  73 106 138 175 220 268 310
#     4  12  24  39  57  77 106 143 176 215 265 316
#     4  11  22  35  54  79 107 139 179 223 265 318
#     4   8  15  31  51  75 108 142 178 226 270 306
#
# _framework density 19.115438999999999
#
# number of rings (size 3 to 8) (size 9 to 14) (size 15 to 20)
#    0.000    2.625    1.250    3.000    1.750    1.000 
#    0.000    2.500    0.000    1.500    0.000   10.500 
#    0.000    0.000    0.000    0.000    0.000    0.000 
#
# Total GULP energy -396654.497585 kJ/mol
# GULP energy per Si atom -12395.453050 kJ/mol
# Density = 1.907193 g / cm^3
# Si number density = 19.115439 Si / 1000 Ang^3
#
#
#
# Elastic Constant Matrix: (Units=GPa)
#
#
# Indices 1 2 3 4 5 6 
#
# 1 69.8611 19.0432 42.8453 0.0000 21.7331 0.0000
# 2 19.0432 47.6026 27.9489 0.0000 2.1301 0.0000
# 3 42.8453 27.9489 125.6407 0.0000 0.6293 0.0000
# 4 0.0000 0.0000 0.0000 13.1509 0.0000 1.4698
# 5 21.7331 2.1301 0.6293 0.0000 40.6559 0.0000
# 6 0.0000 0.0000 0.0000 1.4698 0.0000 17.9931
#
#
#
# Elastic Compliance Matrix: (Units=1/GPa)
#
#
# Indices 1 2 3 4 5 6 
#
# 1 0.023738 -0.004863 -0.006951 0.000000 -0.012327 0.000000
# 2 -0.004863 0.025217 -0.003958 0.000000 0.001340 0.000000
# 3 -0.006951 -0.003958 0.011191 0.000000 0.003750 0.000000
# 4 0.000000 0.000000 0.000000 0.076741 0.000000 -0.006269
# 5 -0.012327 0.001340 0.003750 0.000000 0.031058 0.000000
# 6 0.000000 0.000000 0.000000 -0.006269 0.000000 0.056089
#
#
# Mechanical properties :
#
#
# Convention : Reuss Voigt Hill
#
# Bulk Modulus (GPa) = 34.96383 46.97547 40.96965
# Shear Modulus (GPa) = 18.85995 24.57778 21.71887
#
# Velocity S-wave (km/s) = 3.14448 3.58963 3.37441
# Velocity P-wave (km/s) = 5.61376 6.46596 6.05487
#
# Compressibility (1/GPa) = 0.02860099
#
# Stress axis : x y z
#
# Youngs Moduli (GPa) = 42.12698 39.65652 89.35501
#
# Poissons Ratio (x) = 0.19286 0.62114
# Poissons Ratio (y) = 0.20488 0.35364
# Poissons Ratio (z) = 0.29284 0.15695
#
# Static dielectric constant tensor:
#      x y z
#    x 3.786100 0.000000 0.036020 
#    y 0.000000 2.976330 0.000000 
#    z 0.036020 0.000000 3.888670 
# 
# 
# High freq. dielectric constant tensor:
#      x y z
#    x 1.747780 0.000000 0.001410 
#    y 0.000000 1.687610 0.000000 
#    z 0.001410 0.000000 1.755570 
# 
# From -- ./inp_files/249014.got.cif
#   From: 2010.06.25/outbox.cif.g09.slc.cpg/sg12_125_cif.got.tgz:249014.got - 2010.06.28 00:19:55.
