data_PCOD8096355
_publ_section_title
;
Structure prediction by ZEFSAII (Michael W. Deem and Ramdas Pophale) SiO2 
 PCOD8096355
Probable space group: C 2/M
;
_chemical_formula_sum "Si O2"
_cell_formula_units_Z 56
_cell_length_a 19.218774
_cell_length_b 9.215775
_cell_length_c 20.133311
_cell_angle_alpha 90.000000
_cell_angle_beta 56.697202
_cell_angle_gamma 90.000000
_cell_volume 2980.334463
_symmetry_space_group_name_H-M "C 2/M"
_symmetry_group_IT_number 12
_symmetry_cell_setting 'monoclinic'
loop_
_space_group_symop_operation_xyz
x,y,z
-x,y,-z
-x,-y,-z
x,-y,z
1/2+x,1/2+y,z
1/2-x,1/2+y,-z
1/2-x,1/2-y,-z
1/2+x,1/2-y,z
loop_
_atom_site_type_symbol
_atom_site_label
_atom_site_fract_x
_atom_site_fract_y
_atom_site_fract_z
Si Si1 0.021108 0.666658 0.562989
Si Si2 0.212394 0.664600 0.685338
Si Si3 0.256447 0.666857 0.201066
Si Si4 0.439909 0.668753 0.086376
Si Si5 0.950753 0.172799 0.231219
Si Si6 0.817079 0.836304 0.504977
Si Si7 0.077439 0.335072 0.255799
O O1 0.050495 0.500000 0.544376
O O2 0.094555 0.763374 0.553279
O O3 0.000000 0.721785 0.500000
O O4 0.945336 0.687539 0.654420
O O5 0.181520 0.500000 0.712537
O O6 0.248435 0.729368 0.733665
O O7 0.290733 0.669339 0.595406
O O8 0.134806 0.757063 0.696532
O O9 0.255680 0.500000 0.226599
O O10 0.343304 0.698228 0.116956
O O11 0.176406 0.697013 0.196454
O O12 0.460036 0.500000 0.076785
O O13 0.459702 0.727181 0.150072
O O14 0.500000 0.744631 0.000000
O O15 0.029088 0.227099 0.232559
O O16 0.944538 0.000000 0.239998
O O17 0.750000 0.750000 0.500000
O O18 0.822319 0.000000 0.475492
O O19 0.056670 0.500000 0.245403
#
# Coordination Sequence:
#
# PCOD8096355 Si02
#       7
#     8   8   8   8   8   8   8
#     4  10  21  36  53  72  98 135 175 216 260 302
#     4  10  20  34  51  72  99 130 167 213 259 300
#     4   9  18  33  55  78  99 132 171 202 243 301
#     4   8  15  31  55  80 103 129 166 208 247 294
#     4  10  20  33  53  78 102 135 173 207 250 304
#     4  11  23  35  49  71  98 130 169 214 261 304
#     4  10  20  34  51  74 105 136 169 212 257 299
#
# _framework density 18.789836999999999
#
# number of rings (size 3 to 8) (size 9 to 14) (size 15 to 20)
#    0.000    2.286    0.000    3.857    0.000    8.286 
#    0.000    0.714    0.000   10.714    0.000    0.000 
#    0.000    0.000    0.000    0.000    0.000    0.000 
#
# Total GULP energy -347142.759136 kJ/mol
# GULP energy per Si atom -12397.955683 kJ/mol
# Density = 1.874707 g / cm^3
# Si number density = 18.789837 Si / 1000 Ang^3
#
#
#
# Elastic Constant Matrix: (Units=GPa)
#
#
# Indices 1 2 3 4 5 6 
#
# 1 111.9998 40.5765 27.2115 0.0000 -13.2636 0.0000
# 2 40.5765 83.4053 18.5126 -0.0001 -6.4277 0.0000
# 3 27.2115 18.5126 71.0713 0.0000 -12.3409 0.0000
# 4 0.0000 -0.0001 0.0000 16.4059 0.0000 0.4806
# 5 -13.2636 -6.4277 -12.3409 0.0000 23.9071 0.0000
# 6 0.0000 0.0000 0.0000 0.4806 0.0000 34.2153
#
#
#
# Elastic Compliance Matrix: (Units=1/GPa)
#
#
# Indices 1 2 3 4 5 6 
#
# 1 0.011774 -0.004858 -0.002565 0.000000 0.003902 0.000000
# 2 -0.004858 0.014807 -0.001948 0.000000 0.000280 0.000000
# 3 -0.002565 -0.001948 0.016721 0.000000 0.006684 0.000000
# 4 0.000000 0.000000 0.000000 0.060979 0.000000 -0.000856
# 5 0.003902 0.000280 0.006684 0.000000 0.047519 0.000000
# 6 0.000000 0.000000 0.000000 -0.000856 0.000000 0.029239
#
#
# Mechanical properties :
#
#
# Convention : Reuss Voigt Hill
#
# Bulk Modulus (GPa) = 40.71812 48.78640 44.75226
# Shear Modulus (GPa) = 24.04226 26.91738 25.47982
#
# Velocity S-wave (km/s) = 3.58094 3.78901 3.68644
# Velocity P-wave (km/s) = 6.23016 6.72032 6.47988
#
# Compressibility (1/GPa) = 0.02455909
#
# Stress axis : x y z
#
# Youngs Moduli (GPa) = 84.93400 67.53546 59.80638
#
# Poissons Ratio (x) = 0.32808 0.15340
# Poissons Ratio (y) = 0.41260 0.11652
# Poissons Ratio (z) = 0.21786 0.13158
#
# Static dielectric constant tensor:
#      x y z
#    x 3.976000 0.000000 -0.474430 
#    y 0.000000 3.414100 0.000000 
#    z -0.474430 0.000000 3.874430 
# 
# 
# High freq. dielectric constant tensor:
#      x y z
#    x 1.728500 0.000000 -0.009740 
#    y 0.000000 1.720660 0.000000 
#    z -0.009740 0.000000 1.715730 
# 
# From -- ./inp_files/313767.got.cif
#   From: 2010.06.25/outbox.cif.g09.slc.cpg/sg12_157_cif.got.tgz:313767.got - 2010.06.28 00:19:55.
