data_PCOD8096250
_publ_section_title
;
Structure prediction by ZEFSAII (Michael W. Deem and Ramdas Pophale) SiO2 
 PCOD8096250
Probable space group: C 2/M
;
_chemical_formula_sum "Si O2"
_cell_formula_units_Z 64
_cell_length_a 15.264064
_cell_length_b 9.215558
_cell_length_c 25.387851
_cell_angle_alpha 90.000000
_cell_angle_beta 72.076373
_cell_angle_gamma 90.000000
_cell_volume 3397.909050
_symmetry_space_group_name_H-M "C 2/M"
_symmetry_group_IT_number 12
_symmetry_cell_setting 'monoclinic'
loop_
_space_group_symop_operation_xyz
x,y,z
-x,y,-z
-x,-y,-z
x,-y,z
1/2+x,1/2+y,z
1/2-x,1/2+y,-z
1/2-x,1/2-y,-z
1/2+x,1/2-y,z
loop_
_atom_site_type_symbol
_atom_site_label
_atom_site_fract_x
_atom_site_fract_y
_atom_site_fract_z
Si Si1 0.802709 0.670789 0.826145
Si Si2 0.000323 0.672476 0.248788
Si Si3 0.122974 0.665173 0.823045
Si Si4 0.918988 0.340511 0.055946
Si Si5 0.243628 0.329499 0.445739
Si Si6 0.555950 0.333119 0.636903
Si Si7 0.242086 0.834741 0.947962
Si Si8 0.432328 0.669376 0.559680
O O1 0.786722 0.500000 0.821830
O O2 0.895995 0.726068 0.781718
O O3 0.717750 0.749852 0.814073
O O4 0.811630 0.706817 0.887399
O O5 0.997758 0.500000 0.250144
O O6 0.932806 0.732512 0.215627
O O7 0.967397 0.731998 0.310208
O O8 0.150533 0.500000 0.805589
O O9 0.055144 0.672093 0.886940
O O10 0.871299 0.500000 0.056399
O O11 0.857137 0.201761 0.056619
O O12 0.000000 0.327990 0.000000
O O13 0.226450 0.500000 0.458058
O O14 0.250000 0.250000 0.500000
O O15 0.339250 0.301671 0.398436
O O16 0.160893 0.263221 0.426226
O O17 0.543604 0.500000 0.655435
O O18 0.485420 0.292902 0.603430
O O19 0.251668 0.000000 0.961912
O O20 0.250000 0.750000 0.000000
O O21 0.500000 0.713529 0.500000
O O22 0.405980 0.500000 0.560743
#
# Coordination Sequence:
#
# PCOD8096250 Si02
#       8
#     8   8   8   8   8   8   8   8
#     4   9  20  38  58  79 110 148 187 236 288 337
#     4  10  22  39  60  83 111 152 197 236 276 338
#     4   9  19  36  57  81 110 145 190 235 282 341
#     4   9  18  32  54  79 106 142 181 227 285 343
#     4  11  22  38  61  90 122 157 194 236 286 339
#     4  10  23  41  59  85 121 155 191 235 285 339
#     4  10  20  33  52  78 110 142 180 230 285 342
#     4  10  20  39  62  86 121 159 191 235 290 337
#
# _framework density 18.835114000000001
#
# number of rings (size 3 to 8) (size 9 to 14) (size 15 to 20)
#    0.000    2.250    1.250    0.750    1.750    4.500 
#    0.000    5.000    0.000    0.000    0.000    0.000 
#    0.000    0.000    0.000    0.000    0.000    0.000 
#
# Total GULP energy -396603.875886 kJ/mol
# GULP energy per Si atom -12393.871121 kJ/mol
# Density = 1.879224 g / cm^3
# Si number density = 18.835114 Si / 1000 Ang^3
#
#
#
# Elastic Constant Matrix: (Units=GPa)
#
#
# Indices 1 2 3 4 5 6 
#
# 1 131.9114 51.0910 69.0624 0.0000 2.3946 0.0000
# 2 51.0910 56.0967 49.2428 0.0000 -2.9566 0.0000
# 3 69.0624 49.2428 135.7859 0.0000 3.0094 0.0000
# 4 0.0000 0.0000 0.0000 33.4685 0.0000 3.8687
# 5 2.3946 -2.9566 3.0094 0.0000 29.8567 0.0000
# 6 0.0000 0.0000 0.0000 3.8687 0.0000 27.6282
#
#
#
# Elastic Compliance Matrix: (Units=1/GPa)
#
#
# Indices 1 2 3 4 5 6 
#
# 1 0.012723 -0.008832 -0.003233 0.000000 -0.001569 0.000000
# 2 -0.008832 0.032664 -0.007458 0.000000 0.004695 0.000000
# 3 -0.003233 -0.007458 0.011750 0.000000 -0.001664 0.000000
# 4 0.000000 0.000000 0.000000 0.030370 0.000000 -0.004253
# 5 -0.001569 0.004695 -0.001664 0.000000 0.034252 0.000000
# 6 0.000000 0.000000 0.000000 -0.004253 0.000000 0.036790
#
#
# Mechanical properties :
#
#
# Convention : Reuss Voigt Hill
#
# Bulk Modulus (GPa) = 55.27445 73.62072 64.44758
# Shear Modulus (GPa) = 24.55475 28.48386 26.51931
#
# Velocity S-wave (km/s) = 3.61455 3.89302 3.75637
# Velocity P-wave (km/s) = 6.84326 7.70579 7.28730
#
# Compressibility (1/GPa) = 0.01809154
#
# Stress axis : x y z
#
# Youngs Moduli (GPa) = 78.59856 30.61455 85.10323
#
# Poissons Ratio (x) = 0.27039 0.27516
# Poissons Ratio (y) = 0.69418 0.63467
# Poissons Ratio (z) = 0.25413 0.22831
#
# Static dielectric constant tensor:
#      x y z
#    x 3.442320 0.000000 0.118360 
#    y 0.000000 3.464800 0.000000 
#    z 0.118360 0.000000 3.919680 
# 
# 
# High freq. dielectric constant tensor:
#      x y z
#    x 1.727970 0.000000 0.002620 
#    y 0.000000 1.728270 0.000000 
#    z 0.002620 0.000000 1.740500 
# 
# From -- ./inp_files/359803.got.cif
#   From: 2010.06.25/outbox.cif.g09.slc.cpg/sg12_180_cif.got.tgz:359803.got - 2010.06.28 00:19:55.
