data_PCOD8096318
_publ_section_title
;
Structure prediction by ZEFSAII (Michael W. Deem and Ramdas Pophale) SiO2 
 PCOD8096318
Probable space group: C 2/M
;
_chemical_formula_sum "Si O2"
_cell_formula_units_Z 64
_cell_length_a 26.781474
_cell_length_b 9.287577
_cell_length_c 12.641899
_cell_angle_alpha 90.000000
_cell_angle_beta 88.012028
_cell_angle_gamma 90.000000
_cell_volume 3142.590207
_symmetry_space_group_name_H-M "C 2/M"
_symmetry_group_IT_number 12
_symmetry_cell_setting 'monoclinic'
loop_
_space_group_symop_operation_xyz
x,y,z
-x,y,-z
-x,-y,-z
x,-y,z
1/2+x,1/2+y,z
1/2-x,1/2+y,-z
1/2-x,1/2-y,-z
1/2+x,1/2-y,z
loop_
_atom_site_type_symbol
_atom_site_label
_atom_site_fract_x
_atom_site_fract_y
_atom_site_fract_z
Si Si1 0.389012 0.158120 0.852721
Si Si2 0.823726 0.166265 0.995573
Si Si3 0.410462 0.663122 0.663298
Si Si4 0.522723 0.332160 0.691984
Si Si5 0.279570 0.829787 0.403449
Si Si6 0.378454 0.335328 0.432459
Si Si7 0.502864 0.158512 0.885426
Si Si8 0.263293 0.835254 0.163931
O O1 0.373039 0.246403 0.958319
O O2 0.377004 0.243438 0.745945
O O3 0.447804 0.141152 0.845481
O O4 0.363215 0.000000 0.853767
O O5 0.787350 0.189616 0.897774
O O6 0.836139 0.000000 0.014398
O O7 0.804087 0.230881 0.107414
O O8 0.409926 0.500000 0.705985
O O9 0.468762 0.711650 0.646848
O O10 0.380446 0.676680 0.557775
O O11 0.524964 0.500000 0.712989
O O12 0.567289 0.283945 0.611844
O O13 0.534053 0.255920 0.802899
O O14 0.250000 0.750000 0.500000
O O15 0.336025 0.770953 0.392839
O O16 0.255531 0.798446 0.289028
O O17 0.279445 0.000000 0.427738
O O18 0.366673 0.500000 0.398890
O O19 0.528304 0.000000 0.893380
O O20 0.500000 0.234171 0.000000
O O21 0.281502 0.000000 0.150373
#
# Coordination Sequence:
#
# PCOD8096318 Si02
#       8
#     8   8   8   8   8   8   8   8
#     4  10  20  33  52  81 113 144 185 231 278 332
#     4  10  20  36  61  87 109 141 185 233 288 340
#     4   9  18  34  56  81 113 150 189 232 279 334
#     4   9  18  34  56  82 110 143 185 232 279 330
#     4  11  25  43  61  84 116 154 195 236 285 344
#     4  10  21  37  58  84 113 148 188 232 285 338
#     4   9  19  35  52  73 107 149 183 218 271 331
#     4   9  21  41  60  80 110 145 184 233 285 337
#
# _framework density 20.365366000000002
#
# number of rings (size 3 to 8) (size 9 to 14) (size 15 to 20)
#    0.000    2.375    0.000    1.500    1.750    5.750 
#    0.000    3.750    0.000    3.750    0.000    0.000 
#    0.000    0.000    0.000    0.000    0.000    0.000 
#
# Total GULP energy -396660.662345 kJ/mol
# GULP energy per Si atom -12395.645698 kJ/mol
# Density = 2.031901 g / cm^3
# Si number density = 20.365366 Si / 1000 Ang^3
#
#
#
# Elastic Constant Matrix: (Units=GPa)
#
#
# Indices 1 2 3 4 5 6 
#
# 1 37.0546 30.0519 12.8376 0.0000 -10.4524 0.0000
# 2 30.0519 100.7823 49.2968 0.0000 -16.7232 0.0000
# 3 12.8376 49.2968 113.9590 0.0000 -9.3598 0.0000
# 4 0.0000 0.0000 0.0000 35.4836 0.0000 -4.3289
# 5 -10.4524 -16.7232 -9.3598 0.0000 31.6475 0.0000
# 6 0.0000 0.0000 0.0000 -4.3289 0.0000 27.0262
#
#
#
# Elastic Compliance Matrix: (Units=1/GPa)
#
#
# Indices 1 2 3 4 5 6 
#
# 1 0.037023 -0.010291 0.000860 0.000000 0.007044 0.000000
# 2 -0.010291 0.016328 -0.005611 0.000000 0.003570 0.000000
# 3 0.000860 -0.005611 0.011156 0.000000 0.000619 0.000000
# 4 0.000000 0.000000 0.000000 0.028744 0.000000 0.004604
# 5 0.007044 0.003570 0.000619 0.000000 0.035994 0.000000
# 6 0.000000 0.000000 0.000000 0.004604 0.000000 0.037739
#
#
# Mechanical properties :
#
#
# Convention : Reuss Voigt Hill
#
# Bulk Modulus (GPa) = 29.05107 48.46316 38.75712
# Shear Modulus (GPa) = 23.97607 29.47211 26.72409
#
# Velocity S-wave (km/s) = 3.43490 3.80829 3.62640
# Velocity P-wave (km/s) = 5.47971 6.57160 6.05034
#
# Compressibility (1/GPa) = 0.03442214
#
# Stress axis : x y z
#
# Youngs Moduli (GPa) = 27.01043 61.24496 89.63692
#
# Poissons Ratio (x) = 0.63030 -0.07707
# Poissons Ratio (y) = 0.27798 0.50292
# Poissons Ratio (z) = -0.02322 0.34362
#
# Static dielectric constant tensor:
#      x y z
#    x 3.547480 0.000000 -0.072080 
#    y 0.000000 3.934880 0.000000 
#    z -0.072080 0.000000 3.720420 
# 
# 
# High freq. dielectric constant tensor:
#      x y z
#    x 1.779550 0.000000 -0.009810 
#    y 0.000000 1.793910 0.000000 
#    z -0.009810 0.000000 1.799980 
# 
# From -- ./inp_files/187575.got.cif
#   From: 2010.06.25/outbox.cif.g09.slc.cpg/sg12_94_cif.got.tgz:187575.got - 2010.06.28 00:19:55.
