data_PCOD8096825
_publ_section_title
;
Structure prediction by ZEFSAII (Michael W. Deem and Ramdas Pophale) SiO2 
 PCOD8096825
Probable space group: C 2/M
;
_chemical_formula_sum "Si O2"
_cell_formula_units_Z 64
_cell_length_a 28.676382
_cell_length_b 9.276617
_cell_length_c 17.036679
_cell_angle_alpha 90.000000
_cell_angle_beta 51.793907
_cell_angle_gamma 90.000000
_cell_volume 3561.279368
_symmetry_space_group_name_H-M "C 2/M"
_symmetry_group_IT_number 12
_symmetry_cell_setting 'monoclinic'
loop_
_space_group_symop_operation_xyz
x,y,z
-x,y,-z
-x,-y,-z
x,-y,z
1/2+x,1/2+y,z
1/2-x,1/2+y,-z
1/2-x,1/2-y,-z
1/2+x,1/2-y,z
loop_
_atom_site_type_symbol
_atom_site_label
_atom_site_fract_x
_atom_site_fract_y
_atom_site_fract_z
Si Si1 0.718223 0.167359 0.463551
Si Si2 0.802740 0.333391 0.282715
Si Si3 0.889300 0.333539 0.326206
Si Si4 0.869990 0.831595 0.915026
Si Si5 0.454429 0.831476 0.613027
Si Si6 0.841831 0.165816 0.766840
Si Si7 0.983884 0.670107 0.759592
Si Si8 0.292379 0.835070 0.117613
O O1 0.750000 0.250000 0.500000
O O2 0.741444 0.243767 0.360002
O O3 0.647991 0.186573 0.553788
O O4 0.736075 0.000000 0.443799
O O5 0.789746 0.500000 0.317281
O O6 0.854812 0.270458 0.285515
O O7 0.821938 0.315910 0.172532
O O8 0.899620 0.500000 0.298293
O O9 0.954183 0.265144 0.271585
O O10 0.843504 0.797577 0.857338
O O11 0.932526 0.751059 0.860728
O O12 0.879555 0.000000 0.919589
O O13 0.823769 0.772581 0.026006
O O14 0.500000 0.772805 0.500000
O O15 0.390473 0.757109 0.668570
O O16 0.481095 0.793403 0.670273
O O17 0.443779 0.000000 0.612895
O O18 0.776779 0.206334 0.803639
O O19 0.857076 0.000000 0.735776
O O20 0.976970 0.500000 0.780900
O O21 0.299162 0.000000 0.080792
#
# Coordination Sequence:
#
# PCOD8096825 Si02
#       8
#     8   8   8   8   8   8   8   8
#     4   9  16  28  47  70  97 128 161 196 235 279
#     4   9  18  32  48  70  99 126 159 201 239 281
#     4   8  15  29  49  70  92 124 163 195 225 273
#     4  10  20  34  51  72  96 120 155 202 245 288
#     4   9  18  31  48  73 102 128 157 195 234 276
#     4   9  19  34  51  72  97 126 159 194 237 291
#     4   9  17  32  52  69  91 127 164 194 231 281
#     4  10  20  34  52  72  95 125 159 197 244 293
#
# _framework density 17.971070000000001
#
# number of rings (size 3 to 8) (size 9 to 14) (size 15 to 20)
#    0.000    2.875    0.000    1.875    0.000    2.750 
#    0.000    5.000    0.000    3.750    0.000    0.000 
#    0.000    0.000    0.000    0.000    0.000    0.000 
#
# Total GULP energy -396660.205408 kJ/mol
# GULP energy per Si atom -12395.631419 kJ/mol
# Density = 1.793017 g / cm^3
# Si number density = 17.971070 Si / 1000 Ang^3
#
#
#
# Elastic Constant Matrix: (Units=GPa)
#
#
# Indices 1 2 3 4 5 6 
#
# 1 81.7394 26.9898 42.3187 0.0000 -15.6968 0.0000
# 2 26.9898 63.0154 47.1519 0.0001 -5.1060 -0.0001
# 3 42.3187 47.1519 109.4551 0.0000 -7.4803 0.0000
# 4 0.0000 0.0001 0.0000 34.3068 0.0000 -3.1053
# 5 -15.6968 -5.1060 -7.4803 0.0000 23.5916 0.0000
# 6 0.0000 -0.0001 0.0000 -3.1053 0.0000 16.5931
#
#
#
# Elastic Compliance Matrix: (Units=1/GPa)
#
#
# Indices 1 2 3 4 5 6 
#
# 1 0.017582 -0.003188 -0.004776 0.000000 0.009494 0.000000
# 2 -0.003188 0.024080 -0.009128 0.000000 0.000197 0.000000
# 3 -0.004776 -0.009128 0.014885 0.000000 -0.000433 0.000000
# 4 0.000000 0.000000 0.000000 0.029651 0.000000 0.005549
# 5 0.009494 0.000197 -0.000433 0.000000 0.048610 0.000000
# 6 0.000000 0.000000 0.000000 0.005549 0.000000 0.061305
#
#
# Mechanical properties :
#
#
# Convention : Reuss Voigt Hill
#
# Bulk Modulus (GPa) = 44.71188 54.12563 49.41875
# Shear Modulus (GPa) = 21.03044 24.08159 22.55602
#
# Velocity S-wave (km/s) = 3.42459 3.66460 3.54662
# Velocity P-wave (km/s) = 6.36954 6.93465 6.65809
#
# Compressibility (1/GPa) = 0.02236542
#
# Stress axis : x y z
#
# Youngs Moduli (GPa) = 56.87520 41.52797 67.18159
#
# Poissons Ratio (x) = 0.13238 0.32084
# Poissons Ratio (y) = 0.18131 0.61320
# Poissons Ratio (z) = 0.27162 0.37905
#
# Static dielectric constant tensor:
#      x y z
#    x 3.424590 0.000000 -0.071870 
#    y 0.000000 3.318400 0.000000 
#    z -0.071870 0.000000 3.506390 
# 
# 
# High freq. dielectric constant tensor:
#      x y z
#    x 1.684080 0.000000 -0.005530 
#    y 0.000000 1.682190 0.000000 
#    z -0.005530 0.000000 1.693530 
# 
# From -- ./inp_files/295507.got.cif
#   From: 2010.06.25/outbox.cif.g09.slc.cpg/sg12_148_cif.got.tgz:295507.got - 2010.06.28 00:19:55.
