data_PCOD8096128
_publ_section_title
;
Structure prediction by ZEFSAII (Michael W. Deem and Ramdas Pophale) SiO2 
 PCOD8096128
Probable space group: C 2/M
;
_chemical_formula_sum "Si O2"
_cell_formula_units_Z 64
_cell_length_a 31.806445
_cell_length_b 9.401752
_cell_length_c 24.095746
_cell_angle_alpha 90.000000
_cell_angle_beta 27.739997
_cell_angle_gamma 90.000000
_cell_volume 3353.873442
_symmetry_space_group_name_H-M "C 2/M"
_symmetry_group_IT_number 12
_symmetry_cell_setting 'monoclinic'
loop_
_space_group_symop_operation_xyz
x,y,z
-x,y,-z
-x,-y,-z
x,-y,z
1/2+x,1/2+y,z
1/2-x,1/2+y,-z
1/2-x,1/2-y,-z
1/2+x,1/2-y,z
loop_
_atom_site_type_symbol
_atom_site_label
_atom_site_fract_x
_atom_site_fract_y
_atom_site_fract_z
Si Si1 0.186068 0.836455 0.149057
Si Si2 0.329567 0.163361 0.514056
Si Si3 0.029070 0.660206 0.737976
Si Si4 0.902255 0.165986 0.633572
Si Si5 0.783292 0.337301 0.690629
Si Si6 0.906208 0.835863 0.136901
Si Si7 0.641706 0.665497 0.075991
Si Si8 0.838732 0.664282 0.316290
O O1 0.114339 0.802763 0.281709
O O2 0.139983 0.803509 0.143857
O O3 0.218003 0.000000 0.114473
O O4 0.273672 0.737815 0.053320
O O5 0.428499 0.187539 0.372572
O O6 0.333268 0.202571 0.574664
O O7 0.258338 0.261752 0.565171
O O8 0.297603 0.000000 0.544105
O O9 0.990329 0.500000 0.787412
O O10 0.109832 0.684386 0.686316
O O11 0.949103 0.769617 0.843515
O O12 0.822096 0.239588 0.693517
O O13 0.000000 0.226066 0.500000
O O14 0.896880 0.000000 0.626520
O O15 0.801952 0.500000 0.685201
O O16 0.676143 0.308030 0.809619
O O17 0.898185 0.737296 0.199546
O O18 0.905141 0.000000 0.157199
O O19 0.000000 0.792600 0.000000
O O20 0.645177 0.500000 0.057865
O O21 0.824456 0.500000 0.317841
#
# Coordination Sequence:
#
# PCOD8096128 Si02
#       8
#     8   8   8   8   8   8   8   8
#     4   9  20  40  58  77 111 145 178 225 278 329
#     4   9  19  36  55  75 109 149 180 216 267 324
#     4  10  21  35  53  80 112 143 177 221 272 322
#     4  10  22  38  58  82 111 147 183 226 282 334
#     4   9  19  35  54  81 110 140 183 226 270 324
#     4   9  19  37  58  77 106 147 183 222 271 327
#     4  10  21  36  58  84 106 141 187 227 271 326
#     4  10  20  33  51  79 110 140 178 224 269 317
#
# _framework density 19.082414
#
# number of rings (size 3 to 8) (size 9 to 14) (size 15 to 20)
#    0.000    2.500    0.000    1.875    1.750    6.000 
#    0.000    2.500    0.000    0.000    0.000    0.000 
#    0.000    0.000    0.000    0.000    0.000    0.000 
#
# Total GULP energy -396838.200995 kJ/mol
# GULP energy per Si atom -12401.193781 kJ/mol
# Density = 1.903898 g / cm^3
# Si number density = 19.082414 Si / 1000 Ang^3
#
#
#
# Elastic Constant Matrix: (Units=GPa)
#
#
# Indices 1 2 3 4 5 6 
#
# 1 53.3081 28.9497 24.0089 -0.0012 2.6082 0.0003
# 2 28.9497 78.7320 39.4401 -0.0134 -1.6304 0.0012
# 3 24.0089 39.4401 100.5701 -0.0148 4.2262 -0.0023
# 4 -0.0012 -0.0134 -0.0148 26.8457 -0.0015 -2.9682
# 5 2.6082 -1.6304 4.2262 -0.0015 21.8184 0.0027
# 6 0.0003 0.0012 -0.0023 -2.9682 0.0027 33.0970
#
#
#
# Elastic Compliance Matrix: (Units=1/GPa)
#
#
# Indices 1 2 3 4 5 6 
#
# 1 0.024256 -0.007643 -0.002669 -0.000004 -0.002954 0.000000
# 2 -0.007643 0.018341 -0.005509 0.000006 0.003351 -0.000001
# 3 -0.002669 -0.005509 0.012849 0.000004 -0.002581 0.000002
# 4 -0.000004 0.000006 0.000004 0.037623 0.000002 0.003374
# 5 -0.002954 0.003351 -0.002581 0.000002 0.046936 -0.000004
# 6 0.000000 -0.000001 0.000002 0.003374 -0.000004 0.030517
#
#
# Mechanical properties :
#
#
# Convention : Reuss Voigt Hill
#
# Bulk Modulus (GPa) = 42.00943 46.37861 44.19402
# Shear Modulus (GPa) = 23.79831 25.69967 24.74899
#
# Velocity S-wave (km/s) = 3.53531 3.67382 3.60523
# Velocity P-wave (km/s) = 6.22311 6.50792 6.36711
#
# Compressibility (1/GPa) = 0.02380418
#
# Stress axis : x y z
#
# Youngs Moduli (GPa) = 41.22663 54.52380 77.82498
#
# Poissons Ratio (x) = 0.41673 0.20773
# Poissons Ratio (y) = 0.31510 0.42872
# Poissons Ratio (z) = 0.11004 0.30036
#
# Static dielectric constant tensor:
#      x y z
#    x 3.308730 -0.000010 0.117610 
#    y -0.000010 3.487480 0.000030 
#    z 0.117610 0.000030 3.572900 
# 
# 
# High freq. dielectric constant tensor:
#      x y z
#    x 1.730520 0.000000 0.003970 
#    y 0.000000 1.742300 0.000000 
#    z 0.003970 0.000000 1.745060 
# 
# From -- ./inp_files/353340.got.cif
#   From: 2010.06.25/outbox.cif.g09.slc.cpg/sg12_177_cif.got.tgz:353340.got - 2010.06.28 00:19:55.
