data_PCOD8096828
_publ_section_title
;
Structure prediction by ZEFSAII (Michael W. Deem and Ramdas Pophale) SiO2 
 PCOD8096828
Probable space group: C 2/M
;
_chemical_formula_sum "Si O2"
_cell_formula_units_Z 64
_cell_length_a 12.195374
_cell_length_b 13.281114
_cell_length_c 22.068132
_cell_angle_alpha 90.000000
_cell_angle_beta 84.513789
_cell_angle_gamma 90.000000
_cell_volume 3557.961384
_symmetry_space_group_name_H-M "C 2/M"
_symmetry_group_IT_number 12
_symmetry_cell_setting 'monoclinic'
loop_
_space_group_symop_operation_xyz
x,y,z
-x,y,-z
-x,-y,-z
x,-y,z
1/2+x,1/2+y,z
1/2-x,1/2+y,-z
1/2-x,1/2-y,-z
1/2+x,1/2-y,z
loop_
_atom_site_type_symbol
_atom_site_label
_atom_site_fract_x
_atom_site_fract_y
_atom_site_fract_z
Si Si1 0.850436 0.117984 0.054003
Si Si2 0.810634 0.715957 0.662378
Si Si3 0.354444 0.114243 0.338831
Si Si4 0.814026 0.290016 0.852472
Si Si5 0.468669 0.115698 0.566986
Si Si6 0.912899 0.881645 0.917353
Si Si7 0.010052 0.276198 0.246054
Si Si8 0.838227 0.880933 0.238198
O O1 0.731549 0.153878 0.085531
O O2 0.957044 0.150997 0.089201
O O3 0.850400 0.000000 0.054242
O O4 0.863423 0.154122 0.984444
O O5 0.752835 0.818982 0.646148
O O6 0.861854 0.671499 0.598541
O O7 0.902279 0.743402 0.706275
O O8 0.724784 0.634058 0.694571
O O9 0.429722 0.129340 0.393338
O O10 0.417394 0.146674 0.273932
O O11 0.316491 0.000000 0.333044
O O12 0.840975 0.174451 0.869474
O O13 0.929597 0.327133 0.815902
O O14 0.720029 0.308305 0.807780
O O15 0.500000 0.162239 0.500000
O O16 0.435444 0.000000 0.561214
O O17 0.899111 0.000000 0.906742
O O18 0.960964 0.164681 0.235093
O O19 0.840208 0.000000 0.220210
#
# Coordination Sequence:
#
# PCOD8096828 Si02
#       8
#     8   8   8   8   8   8   8   8
#     4   9  18  33  53  74  94 124 161 196 237 286
#     4   9  18  33  52  74  98 129 165 203 246 286
#     4   9  18  33  50  70 100 132 163 200 243 289
#     4  11  19  29  50  76  96 121 158 199 240 283
#     4   9  17  30  50  75 102 134 169 203 240 284
#     4   9  19  35  52  71  98 127 158 196 238 286
#     4   9  20  33  47  71  98 125 159 198 243 290
#     4  10  20  34  51  72  97 126 161 200 240 289
#
# _framework density 17.987829000000001
#
# number of rings (size 3 to 8) (size 9 to 14) (size 15 to 20)
#    0.000    2.625    0.000    2.625    0.000    6.000 
#    0.000    5.000    0.000    6.375    0.000   11.375 
#    0.000    0.000    0.000    0.000    0.000    0.000 
#
# Total GULP energy -396451.741734 kJ/mol
# GULP energy per Si atom -12389.116929 kJ/mol
# Density = 1.794689 g / cm^3
# Si number density = 17.987829 Si / 1000 Ang^3
#
#
#
# Elastic Constant Matrix: (Units=GPa)
#
#
# Indices 1 2 3 4 5 6 
#
# 1 78.5433 40.1074 41.1315 0.0000 -22.1763 0.0000
# 2 40.1074 66.5899 38.6469 0.0000 0.5533 0.0000
# 3 41.1315 38.6469 91.2713 0.0000 -22.5708 0.0000
# 4 0.0000 0.0000 0.0000 23.8856 0.0000 3.5825
# 5 -22.1763 0.5533 -22.5708 0.0000 24.0996 0.0000
# 6 0.0000 0.0000 0.0000 3.5825 0.0000 28.3445
#
#
#
# Elastic Compliance Matrix: (Units=1/GPa)
#
#
# Indices 1 2 3 4 5 6 
#
# 1 0.030218 -0.019768 0.002266 0.000000 0.030382 0.000000
# 2 -0.019768 0.035300 -0.013974 0.000000 -0.032088 0.000000
# 3 0.002266 -0.013974 0.021404 0.000000 0.022452 0.000000
# 4 0.000000 0.000000 0.000000 0.042675 0.000000 -0.005394
# 5 0.030382 -0.032088 0.022452 0.000000 0.091216 0.000000
# 6 0.000000 0.000000 0.000000 -0.005394 0.000000 0.035962
#
#
# Mechanical properties :
#
#
# Convention : Reuss Voigt Hill
#
# Bulk Modulus (GPa) = 41.71732 52.90845 47.31289
# Shear Modulus (GPa) = 15.25706 23.03387 19.14546
#
# Velocity S-wave (km/s) = 2.91553 3.58232 3.26599
# Velocity P-wave (km/s) = 5.88014 6.82554 6.37040
#
# Compressibility (1/GPa) = 0.02397086
#
# Stress axis : x y z
#
# Youngs Moduli (GPa) = 33.09330 28.32858 46.71916
#
# Poissons Ratio (x) = 0.55999 -0.10586
# Poissons Ratio (y) = 0.65418 0.65285
# Poissons Ratio (z) = -0.07498 0.39586
#
# Static dielectric constant tensor:
#      x y z
#    x 3.635190 0.000000 -0.436060 
#    y 0.000000 3.137820 0.000000 
#    z -0.436060 0.000000 3.752890 
# 
# 
# High freq. dielectric constant tensor:
#      x y z
#    x 1.689780 0.000000 -0.017670 
#    y 0.000000 1.674800 0.000000 
#    z -0.017670 0.000000 1.703820 
# 
# From -- ./inp_files/335185.got.cif
#   From: 2010.06.25/outbox.cif.g09.slc.cpg/sg12_168_cif.got.tgz:335185.got - 2010.06.28 00:19:55.
