data_PCOD8096723
_publ_section_title
;
Structure prediction by ZEFSAII (Michael W. Deem and Ramdas Pophale) SiO2 
 PCOD8096723
Probable space group: C 2/M
;
_chemical_formula_sum "Si O2"
_cell_formula_units_Z 64
_cell_length_a 28.411228
_cell_length_b 8.837990
_cell_length_c 15.698023
_cell_angle_alpha 90.000000
_cell_angle_beta 90.872167
_cell_angle_gamma 90.000000
_cell_volume 3941.287846
_symmetry_space_group_name_H-M "C 2/M"
_symmetry_group_IT_number 12
_symmetry_cell_setting 'monoclinic'
loop_
_space_group_symop_operation_xyz
x,y,z
-x,y,-z
-x,-y,-z
x,-y,z
1/2+x,1/2+y,z
1/2-x,1/2+y,-z
1/2-x,1/2-y,-z
1/2+x,1/2-y,z
loop_
_atom_site_type_symbol
_atom_site_label
_atom_site_fract_x
_atom_site_fract_y
_atom_site_fract_z
Si Si1 0.612980 0.822799 0.169888
Si Si2 0.696017 0.824807 0.906847
Si Si3 0.047736 0.819276 0.687207
Si Si4 0.106927 0.178845 0.847215
Si Si5 0.697567 0.323781 0.087590
Si Si6 0.444306 0.665204 0.494287
Si Si7 0.059054 0.818918 0.321112
Si Si8 0.946004 0.323263 0.997495
O O1 0.662000 0.735158 0.157950
O O2 0.593562 0.765681 0.258697
O O3 0.575852 0.782715 0.094703
O O4 0.623238 0.000000 0.174283
O O5 0.660605 0.736890 0.843440
O O6 0.749336 0.793984 0.878108
O O7 0.682929 0.000000 0.904268
O O8 0.687672 0.769299 0.002294
O O9 0.079625 0.755227 0.764369
O O10 0.066913 0.751288 0.596491
O O11 0.994138 0.769216 0.703323
O O12 0.049783 0.000000 0.681193
O O13 0.106394 0.000000 0.845910
O O14 0.082370 0.233437 0.932368
O O15 0.689530 0.500000 0.067714
O O16 0.500000 0.645051 0.500000
O O17 0.420422 0.500000 0.491332
O O18 0.427805 0.742264 0.582702
O O19 0.064806 0.000000 0.314794
O O20 0.942011 0.500000 0.018046
O O21 0.000000 0.268869 0.000000
#
# Coordination Sequence:
#
# PCOD8096723 Si02
#       8
#     8   8   8   8   8   8   8   8
#     4  11  21  31  45  66  95 127 153 188 232 273
#     4  10  20  34  50  68  91 117 148 191 239 280
#     4   8  15  27  44  70  97 121 156 196 229 264
#     4  11  20  29  46  70  94 123 156 192 227 269
#     4  10  20  34  52  69  86 114 154 196 233 274
#     4   7  11  23  44  67  90 118 153 194 234 265
#     4   9  16  28  48  69  92 124 160 195 226 267
#     4  10  21  34  44  58  89 131 164 188 222 268
#
# _framework density 16.238347000000001
#
# number of rings (size 3 to 8) (size 9 to 14) (size 15 to 20)
#    0.000    2.500    1.250    3.750    0.000    2.250 
#    0.000    0.625    0.000    4.875    0.000    0.875 
#    0.000    0.000    0.000    0.000    0.000    0.000 
#
# Total GULP energy -396608.135586 kJ/mol
# GULP energy per Si atom -12394.004237 kJ/mol
# Density = 1.620139 g / cm^3
# Si number density = 16.238347 Si / 1000 Ang^3
#
#
#
# Elastic Constant Matrix: (Units=GPa)
#
#
# Indices 1 2 3 4 5 6 
#
# 1 92.1257 21.4326 40.6571 0.0000 -7.9804 0.0000
# 2 21.4326 33.6855 18.2046 0.0000 -1.9176 0.0000
# 3 40.6571 18.2046 93.6080 0.0000 -16.4366 0.0000
# 4 0.0000 0.0000 0.0000 11.5585 0.0000 -0.6307
# 5 -7.9804 -1.9176 -16.4366 0.0000 16.4726 0.0000
# 6 0.0000 0.0000 0.0000 -0.6307 0.0000 23.1398
#
#
#
# Elastic Compliance Matrix: (Units=1/GPa)
#
#
# Indices 1 2 3 4 5 6 
#
# 1 0.014652 -0.006639 -0.004804 0.000000 0.001532 0.000000
# 2 -0.006639 0.036314 -0.004851 0.000000 -0.003830 0.000000
# 3 -0.004804 -0.004851 0.016010 0.000000 0.013083 0.000000
# 4 0.000000 0.000000 0.000000 0.086646 0.000000 0.002362
# 5 0.001532 -0.003830 0.013083 0.000000 0.074058 0.000000
# 6 0.000000 0.000000 0.000000 0.002362 0.000000 0.043280
#
#
# Mechanical properties :
#
#
# Convention : Reuss Voigt Hill
#
# Bulk Modulus (GPa) = 29.07963 42.22310 35.65137
# Shear Modulus (GPa) = 15.87249 19.50915 17.69082
#
# Velocity S-wave (km/s) = 3.12984 3.46992 3.30426
# Velocity P-wave (km/s) = 5.56849 6.48940 6.04650
#
# Compressibility (1/GPa) = 0.03438834
#
# Stress axis : x y z
#
# Youngs Moduli (GPa) = 68.25007 27.53735 62.46132
#
# Poissons Ratio (x) = 0.18283 0.30004
# Poissons Ratio (y) = 0.45313 0.30301
# Poissons Ratio (z) = 0.32785 0.13359
#
# Static dielectric constant tensor:
#      x y z
#    x 3.097520 0.000000 0.082970 
#    y 0.000000 2.887420 0.000000 
#    z 0.082970 0.000000 3.323920 
# 
# 
# High freq. dielectric constant tensor:
#      x y z
#    x 1.608960 0.000000 -0.002700 
#    y 0.000000 1.609290 0.000000 
#    z -0.002700 0.000000 1.617750 
# 
# From -- ./inp_files/248454.got.cif
#   From: 2010.06.25/outbox.cif.g09.slc.cpg/sg12_125_cif.got.tgz:248454.got - 2010.06.28 00:19:55.
