data_PCOD8096074
_publ_section_title
;
Structure prediction by ZEFSAII (Michael W. Deem and Ramdas Pophale) SiO2 
 PCOD8096074
Probable space group: C 2/M
;
_chemical_formula_sum "Si O2"
_cell_formula_units_Z 64
_cell_length_a 14.104652
_cell_length_b 9.260474
_cell_length_c 25.874005
_cell_angle_alpha 90.000000
_cell_angle_beta 91.770303
_cell_angle_gamma 90.000000
_cell_volume 3377.939870
_symmetry_space_group_name_H-M "C 2/M"
_symmetry_group_IT_number 12
_symmetry_cell_setting 'monoclinic'
loop_
_space_group_symop_operation_xyz
x,y,z
-x,y,-z
-x,-y,-z
x,-y,z
1/2+x,1/2+y,z
1/2-x,1/2+y,-z
1/2-x,1/2-y,-z
1/2+x,1/2-y,z
loop_
_atom_site_type_symbol
_atom_site_label
_atom_site_fract_x
_atom_site_fract_y
_atom_site_fract_z
Si Si1 0.898893 0.667005 0.876174
Si Si2 0.756990 0.333989 0.315885
Si Si3 0.887039 0.666522 0.141340
Si Si4 0.613267 0.840661 0.503187
Si Si5 0.266418 0.331746 0.947381
Si Si6 0.245202 0.167178 0.787850
Si Si7 0.072299 0.666265 0.612150
Si Si8 0.881231 0.830429 0.594784
O O1 0.894512 0.500000 0.893590
O O2 0.858668 0.765007 0.921500
O O3 0.838866 0.692967 0.823398
O O4 0.006018 0.717185 0.867516
O O5 0.738456 0.500000 0.300314
O O6 0.733429 0.234438 0.267175
O O7 0.865608 0.310859 0.335436
O O8 0.690417 0.285323 0.361625
O O9 0.883522 0.500000 0.158285
O O10 0.826543 0.693673 0.088791
O O11 0.846084 0.758618 0.187896
O O12 0.500000 0.836343 0.500000
O O13 0.638807 0.798371 0.562912
O O14 0.655107 0.731757 0.461105
O O15 0.652068 0.000000 0.490461
O O16 0.285081 0.500000 0.958121
O O17 0.250000 0.250000 0.000000
O O18 0.221319 0.000000 0.780959
O O19 0.037444 0.500000 0.607013
O O20 0.982647 0.769667 0.613615
O O21 0.889061 0.000000 0.587968
#
# Coordination Sequence:
#
# PCOD8096074 Si02
#       8
#     8   8   8   8   8   8   8   8
#     4   9  19  37  58  79 105 140 181 219 258 309
#     4  10  22  38  53  72 103 138 169 206 259 318
#     4   9  19  37  59  79 104 144 184 214 257 314
#     4   8  15  30  51  72  97 131 167 201 245 307
#     4  10  20  34  54  82 116 149 180 218 260 302
#     4  10  21  36  55  79 104 130 170 224 267 302
#     4   9  19  36  54  71  97 136 172 201 246 312
#     4  10  20  33  51  77 104 129 163 211 260 303
#
# _framework density 18.946458
#
# number of rings (size 3 to 8) (size 9 to 14) (size 15 to 20)
#    0.000    2.625    0.000    1.875    0.000    7.250 
#    0.000    6.250    0.000    0.000    0.000    0.000 
#    0.000    0.000    0.000    0.000    0.000    0.000 
#
# Total GULP energy -396814.303279 kJ/mol
# GULP energy per Si atom -12400.446977 kJ/mol
# Density = 1.890334 g / cm^3
# Si number density = 18.946458 Si / 1000 Ang^3
#
#
#
# Elastic Constant Matrix: (Units=GPa)
#
#
# Indices 1 2 3 4 5 6 
#
# 1 87.3053 43.2014 37.0541 0.0000 -15.9613 0.0000
# 2 43.2014 99.5682 65.9631 0.0000 -15.1412 0.0000
# 3 37.0541 65.9631 111.2993 0.0000 -12.8034 0.0000
# 4 0.0000 0.0000 0.0000 40.3223 0.0000 -5.7165
# 5 -15.9613 -15.1412 -12.8034 0.0000 19.0440 0.0000
# 6 0.0000 0.0000 0.0000 -5.7165 0.0000 24.9280
#
#
#
# Elastic Compliance Matrix: (Units=1/GPa)
#
#
# Indices 1 2 3 4 5 6 
#
# 1 0.015978 -0.004526 -0.001637 0.000000 0.008692 0.000000
# 2 -0.004526 0.018756 -0.009029 0.000000 0.005049 0.000000
# 3 -0.001637 -0.009029 0.015062 0.000000 0.001576 0.000000
# 4 0.000000 0.000000 0.000000 0.025634 0.000000 0.005878
# 5 0.008692 0.005049 0.001576 0.000000 0.064869 0.000000
# 6 0.000000 0.000000 0.000000 0.005878 0.000000 0.041464
#
#
# Mechanical properties :
#
#
# Convention : Reuss Voigt Hill
#
# Bulk Modulus (GPa) = 51.51290 65.62333 58.56812
# Shear Modulus (GPa) = 22.87114 26.98914 24.93014
#
# Velocity S-wave (km/s) = 3.47817 3.77834 3.63136
# Velocity P-wave (km/s) = 6.58619 7.33116 6.96864
#
# Compressibility (1/GPa) = 0.01941261
#
# Stress axis : x y z
#
# Youngs Moduli (GPa) = 62.58761 53.31517 66.39264
#
# Poissons Ratio (x) = 0.24132 0.10867
# Poissons Ratio (y) = 0.28329 0.59943
# Poissons Ratio (z) = 0.10245 0.48136
#
# Static dielectric constant tensor:
#      x y z
#    x 3.419270 0.000000 0.055320 
#    y 0.000000 3.470040 0.000000 
#    z 0.055320 0.000000 3.577830 
# 
# 
# High freq. dielectric constant tensor:
#      x y z
#    x 1.732020 0.000000 0.001160 
#    y 0.000000 1.736540 0.000000 
#    z 0.001160 0.000000 1.737350 
# 
# From -- ./inp_files/338816.got.cif
#   From: 2010.06.25/outbox.cif.g09.slc.cpg/sg12_170_cif.got.tgz:338816.got - 2010.06.28 00:19:55.
