data_PCOD8096842
_publ_section_title
;
Structure prediction by ZEFSAII (Michael W. Deem and Ramdas Pophale) SiO2 
 PCOD8096842
Probable space group: C 2/M
;
_chemical_formula_sum "Si O2"
_cell_formula_units_Z 64
_cell_length_a 22.666669
_cell_length_b 9.099418
_cell_length_c 23.076190
_cell_angle_alpha 90.000000
_cell_angle_beta 50.255849
_cell_angle_gamma 90.000000
_cell_volume 3659.647858
_symmetry_space_group_name_H-M "C 2/M"
_symmetry_group_IT_number 12
_symmetry_cell_setting 'monoclinic'
loop_
_space_group_symop_operation_xyz
x,y,z
-x,y,-z
-x,-y,-z
x,-y,z
1/2+x,1/2+y,z
1/2-x,1/2+y,-z
1/2-x,1/2-y,-z
1/2+x,1/2-y,z
loop_
_atom_site_type_symbol
_atom_site_label
_atom_site_fract_x
_atom_site_fract_y
_atom_site_fract_z
Si Si1 0.433868 0.673576 0.271202
Si Si2 0.774909 0.823083 0.925116
Si Si3 0.193818 0.339420 0.864061
Si Si4 0.860540 0.163893 0.704316
Si Si5 0.301825 0.163695 0.641643
Si Si6 0.417274 0.824603 0.776655
Si Si7 0.727883 0.672013 0.572510
Si Si8 0.136000 0.161077 0.802580
O O1 0.454667 0.500000 0.261248
O O2 0.499769 0.778159 0.253214
O O3 0.359584 0.708066 0.356584
O O4 0.418136 0.723607 0.214510
O O5 0.710474 0.776492 0.917972
O O6 0.856210 0.755532 0.856165
O O7 0.782315 0.000000 0.924782
O O8 0.750000 0.750000 0.000000
O O9 0.157593 0.500000 0.892634
O O10 0.274267 0.346026 0.780696
O O11 0.131866 0.249606 0.865521
O O12 0.860686 0.231148 0.639232
O O13 0.909508 0.269162 0.715431
O O14 0.896837 0.000000 0.679969
O O15 0.285153 0.226690 0.587771
O O16 0.222165 0.154480 0.725603
O O17 0.337495 0.000000 0.615995
O O18 0.406687 0.000000 0.785782
O O19 0.739033 0.500000 0.557536
O O20 0.750000 0.750000 0.500000
O O21 0.106635 0.000000 0.837183
#
# Coordination Sequence:
#
# PCOD8096842 Si02
#       8
#     8   8   8   8   8   8   8   8
#     4   9  18  33  49  69  98 130 161 197 239 285
#     4  10  20  34  51  73 100 130 161 197 239 285
#     4   8  15  26  42  66  94 119 149 190 234 275
#     4   9  16  27  44  67  93 122 155 196 240 282
#     4   8  14  26  43  66  93 121 155 196 237 281
#     4  11  21  32  49  73  98 128 162 198 240 286
#     4   9  18  31  49  72 100 131 162 198 242 289
#     4   8  14  25  44  66  89 119 155 192 233 277
#
# _framework density 17.488021
#
# number of rings (size 3 to 8) (size 9 to 14) (size 15 to 20)
#    0.000    3.000    0.000    4.125    0.000    5.000 
#    0.000    2.500    0.000    1.500    0.000   10.500 
#    0.000    0.000    0.000    0.000    0.000    0.000 
#
# Total GULP energy -396534.223965 kJ/mol
# GULP energy per Si atom -12391.694499 kJ/mol
# Density = 1.744822 g / cm^3
# Si number density = 17.488021 Si / 1000 Ang^3
#
#
#
# Elastic Constant Matrix: (Units=GPa)
#
#
# Indices 1 2 3 4 5 6 
#
# 1 137.1927 69.1137 56.3526 -0.0001 29.6221 0.0009
# 2 69.1137 102.4841 41.7011 0.0000 15.4789 0.0016
# 3 56.3526 41.7011 64.0148 0.0000 26.7271 0.0001
# 4 -0.0001 0.0000 0.0000 24.0300 0.0000 6.0324
# 5 29.6221 15.4789 26.7271 0.0000 28.9681 0.0000
# 6 0.0009 0.0016 0.0001 6.0324 0.0000 34.0835
#
#
#
# Elastic Compliance Matrix: (Units=1/GPa)
#
#
# Indices 1 2 3 4 5 6 
#
# 1 0.014096 -0.006205 -0.006071 0.000000 -0.005497 0.000000
# 2 -0.006205 0.016046 -0.006603 0.000000 0.003864 -0.000001
# 3 -0.006071 -0.006603 0.034487 0.000000 -0.022083 0.000000
# 4 0.000000 0.000000 0.000000 0.043550 0.000000 -0.007708
# 5 -0.005497 0.003864 -0.022083 0.000000 0.058451 0.000000
# 6 0.000000 -0.000001 0.000000 -0.007708 0.000000 0.030704
#
#
# Mechanical properties :
#
#
# Convention : Reuss Voigt Hill
#
# Bulk Modulus (GPa) = 37.21779 70.89182 54.05480
# Shear Modulus (GPa) = 20.48766 26.51793 23.50279
#
# Velocity S-wave (km/s) = 3.42647 3.89826 3.66995
# Velocity P-wave (km/s) = 6.08131 7.80303 6.99534
#
# Compressibility (1/GPa) = 0.02686887
#
# Stress axis : x y z
#
# Youngs Moduli (GPa) = 70.94376 62.32207 28.99611
#
# Poissons Ratio (x) = 0.38673 0.17604
# Poissons Ratio (y) = 0.44023 0.19147
# Poissons Ratio (z) = 0.43072 0.41153
#
# Static dielectric constant tensor:
#      x y z
#    x 3.509440 0.000000 0.414670 
#    y 0.000000 3.455400 0.000000 
#    z 0.414670 0.000000 2.950580 
# 
# 
# High freq. dielectric constant tensor:
#      x y z
#    x 1.683330 0.000000 0.030480 
#    y 0.000000 1.677770 0.000000 
#    z 0.030480 0.000000 1.624460 
# 
# From -- ./inp_files/346035.got.cif
#   From: 2010.06.25/outbox.cif.g09.slc.cpg/sg12_174_cif.got.tgz:346035.got - 2010.06.28 00:19:55.
