data_PCOD8096639
_publ_section_title
;
Structure prediction by ZEFSAII (Michael W. Deem and Ramdas Pophale) SiO2 
 PCOD8096639
Probable space group: C 2/M
;
_chemical_formula_sum "Si O2"
_cell_formula_units_Z 56
_cell_length_a 28.266372
_cell_length_b 14.741135
_cell_length_c 8.861682
_cell_angle_alpha 90.000000
_cell_angle_beta 51.584755
_cell_angle_gamma 90.000000
_cell_volume 2893.155412
_symmetry_space_group_name_H-M "C 2/M"
_symmetry_group_IT_number 12
_symmetry_cell_setting 'monoclinic'
loop_
_space_group_symop_operation_xyz
x,y,z
-x,y,-z
-x,-y,-z
x,-y,z
1/2+x,1/2+y,z
1/2-x,1/2+y,-z
1/2-x,1/2-y,-z
1/2+x,1/2-y,z
loop_
_atom_site_type_symbol
_atom_site_label
_atom_site_fract_x
_atom_site_fract_y
_atom_site_fract_z
Si Si1 0.844951 0.604230 0.332335
Si Si2 0.356570 0.243250 0.075295
Si Si3 0.728442 0.844987 0.982628
Si Si4 0.846848 0.100268 0.612516
Si Si5 0.622135 0.899794 0.392334
Si Si6 0.068890 0.229231 0.361552
Si Si7 0.296559 0.606218 0.388767
O O1 0.855753 0.500000 0.258853
O O2 0.881983 0.676748 0.156389
O O3 0.870409 0.621136 0.447357
O O4 0.774151 0.629256 0.464119
O O5 0.309394 0.175157 0.091604
O O6 0.326299 0.334850 0.197414
O O7 0.407579 0.276248 0.856882
O O8 0.785579 0.906884 0.831205
O O9 0.750000 0.750000 0.000000
O O10 0.688422 0.894732 0.186950
O O11 0.893768 0.166774 0.598209
O O12 0.829744 0.134295 0.478785
O O13 0.875661 0.000000 0.549457
O O14 0.574929 0.831581 0.409675
O O15 0.595614 0.000000 0.419467
O O16 0.000000 0.197407 0.500000
O O17 0.306360 0.500000 0.333177
#
# Coordination Sequence:
#
# PCOD8096639 Si02
#       7
#     8   8   8   8   8   8   8
#     4  10  20  33  56  92 126 149 175 221 295 371
#     4  11  21  34  61  83 119 153 185 242 286 348
#     4  11  19  33  55  92 120 154 184 227 296 355
#     4  11  22  38  60  84 120 155 191 239 290 349
#     4  10  21  37  60  87 121 154 188 237 291 353
#     4  11  26  44  59  80 110 157 215 252 283 323
#     4  10  21  34  55  92 126 152 177 222 295 367
#
# _framework density 19.356030000000001
#
# number of rings (size 3 to 8) (size 9 to 14) (size 15 to 20)
#    0.000    1.429    4.286    2.571    0.000    3.429 
#    0.000    2.857    0.000    3.429    0.000    0.000 
#    0.000    0.000    0.000    0.000    0.000    0.000 
#
# Total GULP energy -347158.607618 kJ/mol
# GULP energy per Si atom -12398.521701 kJ/mol
# Density = 1.931197 g / cm^3
# Si number density = 19.356030 Si / 1000 Ang^3
#
#
#
# Elastic Constant Matrix: (Units=GPa)
#
#
# Indices 1 2 3 4 5 6 
#
# 1 43.2110 5.7912 23.3538 0.0000 -7.1200 0.0000
# 2 5.7912 62.3967 23.7560 0.0000 8.9269 0.0000
# 3 23.3538 23.7560 72.5795 0.0000 4.9747 0.0000
# 4 0.0000 0.0000 0.0000 14.4443 0.0000 7.3977
# 5 -7.1200 8.9269 4.9747 0.0000 28.6506 0.0000
# 6 0.0000 0.0000 0.0000 7.3977 0.0000 17.7626
#
#
#
# Elastic Compliance Matrix: (Units=1/GPa)
#
#
# Indices 1 2 3 4 5 6 
#
# 1 0.030296 -0.000227 -0.010318 0.000000 0.009391 0.000000
# 2 -0.000227 0.018963 -0.005794 0.000000 -0.004959 0.000000
# 3 -0.010318 -0.005794 0.019276 0.000000 -0.004106 0.000000
# 4 0.000000 0.000000 0.000000 0.088002 0.000000 -0.036651
# 5 0.009391 -0.004959 -0.004106 0.000000 0.039495 0.000000
# 6 0.000000 0.000000 0.000000 -0.036651 0.000000 0.071562
#
#
# Mechanical properties :
#
#
# Convention : Reuss Voigt Hill
#
# Bulk Modulus (GPa) = 27.88812 31.55435 29.72124
# Shear Modulus (GPa) = 16.01413 20.52392 18.26903
#
# Velocity S-wave (km/s) = 2.87948 3.25981 3.07553
# Velocity P-wave (km/s) = 5.04921 5.52322 5.29153
#
# Compressibility (1/GPa) = 0.03585756
#
# Stress axis : x y z
#
# Youngs Moduli (GPa) = 33.00713 52.73470 51.87880
#
# Poissons Ratio (x) = 0.01198 0.53527
# Poissons Ratio (y) = 0.00750 0.30057
# Poissons Ratio (z) = 0.34056 0.30553
#
# Static dielectric constant tensor:
#      x y z
#    x 3.182570 0.000000 0.356950 
#    y 0.000000 3.350490 0.000000 
#    z 0.356950 0.000000 3.444770 
# 
# 
# High freq. dielectric constant tensor:
#      x y z
#    x 1.731830 0.000000 0.034720 
#    y 0.000000 1.767460 0.000000 
#    z 0.034720 0.000000 1.740660 
# 
# From -- ./inp_files/86380.got.cif
#   From: 2010.06.25/outbox.cif.g09.slc.cpg/sg12_44_cif.got.tgz:86380.got - 2010.06.28 00:19:55.
