data_PCOD8096395
_publ_section_title
;
Structure prediction by ZEFSAII (Michael W. Deem and Ramdas Pophale) SiO2 
 PCOD8096395
Probable space group: C 2/M
;
_chemical_formula_sum "Si O2"
_cell_formula_units_Z 64
_cell_length_a 20.489851
_cell_length_b 9.300753
_cell_length_c 17.992292
_cell_angle_alpha 90.000000
_cell_angle_beta 74.988418
_cell_angle_gamma 90.000000
_cell_volume 3311.796534
_symmetry_space_group_name_H-M "C 2/M"
_symmetry_group_IT_number 12
_symmetry_cell_setting 'monoclinic'
loop_
_space_group_symop_operation_xyz
x,y,z
-x,y,-z
-x,-y,-z
x,-y,z
1/2+x,1/2+y,z
1/2-x,1/2+y,-z
1/2-x,1/2-y,-z
1/2+x,1/2-y,z
loop_
_atom_site_type_symbol
_atom_site_label
_atom_site_fract_x
_atom_site_fract_y
_atom_site_fract_z
Si Si1 0.470266 0.157708 0.190559
Si Si2 0.183500 0.167720 0.001238
Si Si3 0.855185 0.165525 0.688384
Si Si4 0.385160 0.161015 0.361625
Si Si5 0.365827 0.666381 0.144342
Si Si6 0.498034 0.335612 0.412857
Si Si7 0.901824 0.836508 0.832379
Si Si8 0.224231 0.169214 0.686346
O O1 0.418368 0.144827 0.272304
O O2 0.435521 0.249001 0.135828
O O3 0.535713 0.234986 0.202783
O O4 0.489070 0.000000 0.154301
O O5 0.129418 0.209138 0.079884
O O6 0.199461 0.000000 0.997536
O O7 0.250000 0.250000 0.000000
O O8 0.159959 0.219778 0.927596
O O9 0.929817 0.216074 0.640727
O O10 0.849467 0.183236 0.779597
O O11 0.799355 0.264756 0.665735
O O12 0.842405 0.000000 0.668605
O O13 0.436280 0.238764 0.402666
O O14 0.317233 0.255294 0.368717
O O15 0.367545 0.000000 0.397030
O O16 0.385076 0.500000 0.137349
O O17 0.310155 0.698904 0.223637
O O18 0.500000 0.320626 0.500000
O O19 0.484579 0.500000 0.391698
O O20 0.927934 0.000000 0.826943
O O21 0.228649 0.000000 0.668047
#
# Coordination Sequence:
#
# PCOD8096395 Si02
#       8
#     8   8   8   8   8   8   8   8
#     4  10  20  33  53  80 105 137 181 228 272 318
#     4  10  21  35  51  73 102 140 182 224 275 328
#     4  10  20  35  56  83 113 143 181 228 274 325
#     4  10  20  36  58  84 114 146 184 228 274 326
#     4   9  19  35  52  73 106 144 181 223 273 325
#     4  10  21  38  61  87 115 147 181 220 272 333
#     4  10  20  34  54  77 105 143 182 223 274 329
#     4  10  20  34  57  83 110 148 189 229 273 324
#
# _framework density 19.324859
#
# number of rings (size 3 to 8) (size 9 to 14) (size 15 to 20)
#    0.000    2.125    1.250    1.875    0.000    4.250 
#    0.000    3.125    0.000    0.000    0.000    0.000 
#    0.000    0.000    0.000    0.000    0.000    0.000 
#
# Total GULP energy -396786.522734 kJ/mol
# GULP energy per Si atom -12399.578835 kJ/mol
# Density = 1.928087 g / cm^3
# Si number density = 19.324859 Si / 1000 Ang^3
#
#
#
# Elastic Constant Matrix: (Units=GPa)
#
#
# Indices 1 2 3 4 5 6 
#
# 1 118.3291 69.8069 28.8797 0.0000 26.2796 0.0000
# 2 69.8069 102.4736 27.5217 0.0000 16.3209 0.0000
# 3 28.8797 27.5217 63.8143 0.0000 12.5399 0.0000
# 4 0.0000 0.0000 0.0000 20.0987 0.0000 7.2396
# 5 26.2796 16.3209 12.5399 0.0000 23.6180 0.0000
# 6 0.0000 0.0000 0.0000 7.2396 0.0000 41.8614
#
#
#
# Elastic Compliance Matrix: (Units=1/GPa)
#
#
# Indices 1 2 3 4 5 6 
#
# 1 0.016807 -0.009241 -0.001341 0.000000 -0.011603 0.000000
# 2 -0.009241 0.016849 -0.003145 0.000000 0.000309 0.000000
# 3 -0.001341 -0.003145 0.018884 0.000000 -0.006361 0.000000
# 4 0.000000 0.000000 0.000000 0.053060 0.000000 -0.009176
# 5 -0.011603 0.000309 -0.006361 0.000000 0.058415 0.000000
# 6 0.000000 0.000000 0.000000 -0.009176 0.000000 0.025475
#
#
# Mechanical properties :
#
#
# Convention : Reuss Voigt Hill
#
# Bulk Modulus (GPa) = 39.86298 59.67040 49.76669
# Shear Modulus (GPa) = 22.19209 27.67621 24.93415
#
# Velocity S-wave (km/s) = 3.39244 3.78849 3.59592
# Velocity P-wave (km/s) = 6.00145 7.07682 6.56121
#
# Compressibility (1/GPa) = 0.02508593
#
# Stress axis : x y z
#
# Youngs Moduli (GPa) = 59.49998 59.34959 52.95597
#
# Poissons Ratio (x) = 0.54845 0.07099
# Poissons Ratio (y) = 0.54984 0.16656
# Poissons Ratio (z) = 0.07976 0.18667
#
# Static dielectric constant tensor:
#      x y z
#    x 3.421660 0.000000 0.048030 
#    y 0.000000 3.703350 0.000000 
#    z 0.048030 0.000000 4.010460 
# 
# 
# High freq. dielectric constant tensor:
#      x y z
#    x 1.749870 0.000000 0.013470 
#    y 0.000000 1.754440 0.000000 
#    z 0.013470 0.000000 1.739170 
# 
# From -- ./inp_files/281343.got.cif
#   From: 2010.06.25/outbox.cif.g09.slc.cpg/sg12_141_cif.got.tgz:281343.got - 2010.06.28 00:19:55.
