data_PCOD8096244
_publ_section_title
;
Structure prediction by ZEFSAII (Michael W. Deem and Ramdas Pophale) SiO2 
 PCOD8096244
Probable space group: C 2/M
;
_chemical_formula_sum "Si O2"
_cell_formula_units_Z 64
_cell_length_a 19.322746
_cell_length_b 9.077930
_cell_length_c 19.449051
_cell_angle_alpha 90.000000
_cell_angle_beta 87.519004
_cell_angle_gamma 90.000000
_cell_volume 3408.370566
_symmetry_space_group_name_H-M "C 2/M"
_symmetry_group_IT_number 12
_symmetry_cell_setting 'monoclinic'
loop_
_space_group_symop_operation_xyz
x,y,z
-x,y,-z
-x,-y,-z
x,-y,z
1/2+x,1/2+y,z
1/2-x,1/2+y,-z
1/2-x,1/2-y,-z
1/2+x,1/2-y,z
loop_
_atom_site_type_symbol
_atom_site_label
_atom_site_fract_x
_atom_site_fract_y
_atom_site_fract_z
Si Si1 0.355562 0.827859 0.831024
Si Si2 0.059030 0.828918 0.944369
Si Si3 0.158713 0.171075 0.551789
Si Si4 0.383767 0.326739 0.304075
Si Si5 0.822324 0.328177 0.987932
Si Si6 0.995491 0.171606 0.800875
Si Si7 0.796691 0.829427 0.588283
Si Si8 0.243006 0.173395 0.265047
O O1 0.354085 0.793202 0.911934
O O2 0.425770 0.764111 0.796000
O O3 0.289068 0.750675 0.800019
O O4 0.351553 0.000000 0.815593
O O5 0.034360 0.789450 0.869466
O O6 0.078164 0.000000 0.951635
O O7 0.126818 0.733591 0.956105
O O8 0.000000 0.781503 0.000000
O O9 0.104281 0.213881 0.614693
O O10 0.141943 0.209701 0.471139
O O11 0.230189 0.242822 0.568221
O O12 0.171499 0.000000 0.557155
O O13 0.369234 0.500000 0.293149
O O14 0.454233 0.280710 0.263287
O O15 0.319151 0.237824 0.275777
O O16 0.811654 0.500000 0.000238
O O17 0.750000 0.250000 0.000000
O O18 0.975507 0.000000 0.798819
O O19 0.810020 0.793113 0.668111
O O20 0.777971 0.000000 0.583617
O O21 0.249954 0.000000 0.250800
#
# Coordination Sequence:
#
# PCOD8096244 Si02
#       8
#     8   8   8   8   8   8   8   8
#     4  11  24  40  56  76 105 140 177 217 260 311
#     4  10  20  37  60  82 106 138 174 213 258 309
#     4   8  13  24  44  70 102 135 168 209 257 305
#     4   9  18  32  52  80 110 139 173 216 263 311
#     4  11  25  41  59  82 108 137 173 217 262 310
#     4  10  21  37  57  79 106 140 176 214 259 313
#     4   8  14  25  43  70 101 134 171 211 255 304
#     4  10  20  33  52  78 108 140 177 219 262 311
#
# _framework density 18.777301000000001
#
# number of rings (size 3 to 8) (size 9 to 14) (size 15 to 20)
#    0.000    2.375    1.250    1.125    1.750    3.250 
#    0.000    0.000    0.000    0.750    0.000    5.250 
#    0.000    0.000    0.000    0.000    0.000    0.000 
#
# Total GULP energy -396451.870766 kJ/mol
# GULP energy per Si atom -12389.120961 kJ/mol
# Density = 1.873456 g / cm^3
# Si number density = 18.777301 Si / 1000 Ang^3
#
#
#
# Elastic Constant Matrix: (Units=GPa)
#
#
# Indices 1 2 3 4 5 6 
#
# 1 80.0770 22.8400 9.3280 0.0000 -21.3629 0.0000
# 2 22.8400 69.6337 21.4893 0.0000 6.3838 0.0000
# 3 9.3280 21.4893 48.2870 0.0000 -21.1696 0.0000
# 4 0.0000 0.0000 0.0000 18.9685 0.0000 1.5470
# 5 -21.3629 6.3838 -21.1696 0.0000 37.9152 0.0000
# 6 0.0000 0.0000 0.0000 1.5470 0.0000 30.1404
#
#
#
# Elastic Compliance Matrix: (Units=1/GPa)
#
#
# Indices 1 2 3 4 5 6 
#
# 1 0.019105 -0.010501 0.008577 0.000000 0.017322 0.000000
# 2 -0.010501 0.025248 -0.018094 0.000000 -0.020271 0.000000
# 3 0.008577 -0.018094 0.040465 0.000000 0.030472 0.000000
# 4 0.000000 0.000000 0.000000 0.052941 0.000000 -0.002717
# 5 0.017322 -0.020271 0.030472 0.000000 0.056561 0.000000
# 6 0.000000 0.000000 0.000000 -0.002717 0.000000 0.033318
#
#
# Mechanical properties :
#
#
# Convention : Reuss Voigt Hill
#
# Bulk Modulus (GPa) = 22.33164 33.92360 28.12762
# Shear Modulus (GPa) = 17.69275 27.02750 22.36013
#
# Velocity S-wave (km/s) = 3.07293 3.79802 3.45455
# Velocity P-wave (km/s) = 4.95068 6.11055 5.56093
#
# Compressibility (1/GPa) = 0.04477952
#
# Stress axis : x y z
#
# Youngs Moduli (GPa) = 52.34178 39.60753 24.71292
#
# Poissons Ratio (x) = 0.41593 -0.21196
# Poissons Ratio (y) = 0.54966 0.44717
# Poissons Ratio (z) = -0.44892 0.71667
#
# Static dielectric constant tensor:
#      x y z
#    x 3.151060 0.000000 -0.257950 
#    y 0.000000 3.321170 0.000000 
#    z -0.257950 0.000000 4.256100 
# 
# 
# High freq. dielectric constant tensor:
#      x y z
#    x 1.693180 0.000000 -0.018660 
#    y 0.000000 1.729540 0.000000 
#    z -0.018660 0.000000 1.750430 
# 
# From -- ./inp_files/313989.got.cif
#   From: 2010.06.25/outbox.cif.g09.slc.cpg/sg12_157_cif.got.tgz:313989.got - 2010.06.28 00:19:55.
