data_PCOD8096205
_publ_section_title
;
Structure prediction by ZEFSAII (Michael W. Deem and Ramdas Pophale) SiO2 
 PCOD8096205
Probable space group: C 2/M
;
_chemical_formula_sum "Si O2"
_cell_formula_units_Z 48
_cell_length_a 14.053127
_cell_length_b 9.411256
_cell_length_c 29.412222
_cell_angle_alpha 90.000000
_cell_angle_beta 134.794156
_cell_angle_gamma 90.000000
_cell_volume 2760.502049
_symmetry_space_group_name_H-M "C 2/M"
_symmetry_group_IT_number 12
_symmetry_cell_setting 'monoclinic'
loop_
_space_group_symop_operation_xyz
x,y,z
-x,y,-z
-x,-y,-z
x,-y,z
1/2+x,1/2+y,z
1/2-x,1/2+y,-z
1/2-x,1/2-y,-z
1/2+x,1/2-y,z
loop_
_atom_site_type_symbol
_atom_site_label
_atom_site_fract_x
_atom_site_fract_y
_atom_site_fract_z
Si Si1 0.595385 0.664424 0.829342
Si Si2 0.386621 0.165210 0.597675
Si Si3 0.095109 0.336057 0.169831
Si Si4 0.874942 0.664201 0.488233
Si Si5 0.406501 0.660994 0.276477
Si Si6 0.894825 0.330643 0.928189
O O1 0.584385 0.500000 0.838692
O O2 0.490314 0.749080 0.823451
O O3 0.560254 0.688559 0.764917
O O4 0.745335 0.722077 0.890288
O O5 0.252159 0.242709 0.569360
O O6 0.411632 0.191622 0.552891
O O7 0.513355 0.227830 0.666342
O O8 0.372667 0.000000 0.604649
O O9 0.054675 0.500000 0.160406
O O10 0.250474 0.313708 0.233680
O O11 0.064511 0.279115 0.108582
O O12 0.839381 0.500000 0.467234
O O13 0.000000 0.713771 0.500000
O O14 0.446601 0.500000 0.303279
O O15 0.894120 0.500000 0.928069
O O16 0.000000 0.267643 0.000000
#
# Coordination Sequence:
#
# PCOD8096205 Si02
#       6
#     8   8   8   8   8   8
#     4   9  18  32  50  71  95 127 164 199 240 290
#     4  10  20  33  52  77  99 123 161 204 239 275
#     4   9  18  32  50  72  97 127 163 202 242 284
#     4   9  19  36  54  72  99 132 160 190 236 292
#     4   9  19  35  50  66  96 134 163 191 238 296
#     4   8  15  30  50  70  96 131 165 195 237 296
#
# _framework density 17.388141000000001
#
# number of rings (size 3 to 8) (size 9 to 14) (size 15 to 20)
#    0.000    3.000    0.000    2.500    0.000    4.333 
#    0.000    7.500    0.000    1.000    0.000    0.000 
#    0.000    0.000    0.000    0.000    0.000    0.000 
#
# Total GULP energy -297588.733564 kJ/mol
# GULP energy per Si atom -12399.530565 kJ/mol
# Density = 1.734856 g / cm^3
# Si number density = 17.388141 Si / 1000 Ang^3
#
#
#
# Elastic Constant Matrix: (Units=GPa)
#
#
# Indices 1 2 3 4 5 6 
#
# 1 141.3356 57.4176 41.1852 0.0000 5.8705 0.0000
# 2 57.4176 72.1718 49.7407 0.0000 3.4324 0.0000
# 3 41.1852 49.7407 104.0154 0.0000 4.3898 0.0000
# 4 0.0000 0.0000 0.0000 24.5546 0.0000 0.9661
# 5 5.8705 3.4324 4.3898 0.0000 10.4998 0.0000
# 6 0.0000 0.0000 0.0000 0.9661 0.0000 31.3833
#
#
#
# Elastic Compliance Matrix: (Units=1/GPa)
#
#
# Indices 1 2 3 4 5 6 
#
# 1 0.010561 -0.008146 -0.000152 0.000000 -0.003178 0.000000
# 2 -0.008146 0.027025 -0.009688 0.000000 -0.000229 0.000000
# 3 -0.000152 -0.009688 0.014424 0.000000 -0.002779 0.000000
# 4 0.000000 0.000000 0.000000 0.040775 0.000000 -0.001255
# 5 -0.003178 -0.000229 -0.002779 0.000000 0.098254 0.000000
# 6 0.000000 0.000000 0.000000 -0.001255 0.000000 0.031903
#
#
# Mechanical properties :
#
#
# Convention : Reuss Voigt Hill
#
# Bulk Modulus (GPa) = 62.35423 68.24555 65.29989
# Shear Modulus (GPa) = 18.92077 24.56615 21.74346
#
# Velocity S-wave (km/s) = 3.30228 3.76281 3.54004
# Velocity P-wave (km/s) = 7.10479 7.62967 7.37191
#
# Compressibility (1/GPa) = 0.01603741
#
# Stress axis : x y z
#
# Youngs Moduli (GPa) = 94.68784 37.00341 69.32724
#
# Poissons Ratio (x) = 0.30143 0.01054
# Poissons Ratio (y) = 0.77133 0.67165
# Poissons Ratio (z) = 0.01440 0.35849
#
# Static dielectric constant tensor:
#      x y z
#    x 3.196410 0.000000 0.005760 
#    y 0.000000 3.051080 0.000000 
#    z 0.005760 0.000000 3.323290 
# 
# 
# High freq. dielectric constant tensor:
#      x y z
#    x 1.674490 0.000000 0.001890 
#    y 0.000000 1.654750 0.000000 
#    z 0.001890 0.000000 1.674370 
# 
# From -- ./inp_files/375159.got.cif
#   From: 2010.06.25/outbox.cif.g09.slc.cpg/sg12_188_cif.got.tgz:375159.got - 2010.06.28 00:19:55.
