data_PCOD8096012
_publ_section_title
;
Structure prediction by ZEFSAII (Michael W. Deem and Ramdas Pophale) SiO2 
 PCOD8096012
Probable space group: C 2/M
;
_chemical_formula_sum "Si O2"
_cell_formula_units_Z 36
_cell_length_a 15.053257
_cell_length_b 10.155306
_cell_length_c 28.745127
_cell_angle_alpha 90.000000
_cell_angle_beta 24.873182
_cell_angle_gamma 90.000000
_cell_volume 1848.283428
_symmetry_space_group_name_H-M "C 2/M"
_symmetry_group_IT_number 12
_symmetry_cell_setting 'monoclinic'
loop_
_space_group_symop_operation_xyz
x,y,z
-x,y,-z
-x,-y,-z
x,-y,z
1/2+x,1/2+y,z
1/2-x,1/2+y,-z
1/2-x,1/2-y,-z
1/2+x,1/2-y,z
loop_
_atom_site_type_symbol
_atom_site_label
_atom_site_fract_x
_atom_site_fract_y
_atom_site_fract_z
Si Si1 0.000000 0.261283 0.000000
Si Si2 0.668075 0.155361 0.383687
Si Si3 0.076097 0.149672 0.244540
Si Si4 0.358555 0.148779 0.707141
Si Si5 0.616919 0.642603 0.037371
O O1 0.186166 0.348180 0.888802
O O2 0.892703 0.168672 0.012865
O O3 0.500000 0.215992 0.500000
O O4 0.610205 0.207772 0.359643
O O5 0.906898 0.192271 0.285535
O O6 0.644424 0.000000 0.392783
O O7 0.039504 0.249315 0.304873
O O8 0.031837 0.000000 0.282531
O O9 0.110963 0.141120 0.832066
O O10 0.453632 0.000000 0.668122
O O11 0.725141 0.500000 0.993280
O O12 0.750000 0.750000 0.000000
#
# Coordination Sequence:
#
# PCOD8096012 Si02
#       5
#     4   8   8   8   8
#     4  10  20  34  52  76 108 140 170 206 256 308
#     4   9  18  34  55  76 101 136 174 210 254 308
#     4  10  20  34  54  79 104 134 173 214 253 300
#     4   9  19  35  52  74 104 136 169 209 259 308
#     4  10  20  33  51  75 105 139 174 210 252 304
#
# _framework density 19.477533999999999
#
# number of rings (size 3 to 8) (size 9 to 14) (size 15 to 20)
#    0.000    2.444    0.000    2.000    0.000    8.000 
#    0.000    1.111    0.000    1.333    0.000    0.000 
#    0.000    0.000    0.000    0.000    0.000    0.000 
#
# Total GULP energy -223107.806712 kJ/mol
# GULP energy per Si atom -12394.878151 kJ/mol
# Density = 1.943320 g / cm^3
# Si number density = 19.477534 Si / 1000 Ang^3
#
#
#
# Elastic Constant Matrix: (Units=GPa)
#
#
# Indices 1 2 3 4 5 6 
#
# 1 118.5365 55.1901 37.7286 0.0005 24.7944 -0.0029
# 2 55.1901 108.5655 14.2548 0.0013 7.4063 -0.0011
# 3 37.7286 14.2548 51.7464 -0.0091 16.7485 0.0095
# 4 0.0005 0.0013 -0.0091 14.0903 -0.0006 2.5596
# 5 24.7944 7.4063 16.7485 -0.0006 37.5954 0.0026
# 6 -0.0029 -0.0011 0.0095 2.5596 0.0026 24.7678
#
#
#
# Elastic Compliance Matrix: (Units=1/GPa)
#
#
# Indices 1 2 3 4 5 6 
#
# 1 0.014747 -0.006174 -0.007358 -0.000006 -0.005231 0.000005
# 2 -0.006174 0.012163 0.000711 0.000000 0.001359 -0.000001
# 3 -0.007358 0.000711 0.026839 0.000019 -0.007244 -0.000012
# 4 -0.000006 0.000000 0.000019 0.072328 -0.000003 -0.007475
# 5 -0.005231 0.001359 -0.007244 -0.000003 0.033009 -0.000001
# 6 0.000005 -0.000001 -0.000012 -0.007475 -0.000001 0.041148
#
#
# Mechanical properties :
#
#
# Convention : Reuss Voigt Hill
#
# Bulk Modulus (GPa) = 35.57847 54.79948 45.18898
# Shear Modulus (GPa) = 21.25448 26.73569 23.99509
#
# Velocity S-wave (km/s) = 3.30696 3.70894 3.51370
# Velocity P-wave (km/s) = 5.73475 6.82183 6.30178
#
# Compressibility (1/GPa) = 0.02810688
#
# Stress axis : x y z
#
# Youngs Moduli (GPa) = 67.81074 82.21348 37.25982
#
# Poissons Ratio (x) = 0.50756 0.27416
# Poissons Ratio (y) = 0.41864 -0.02648
# Poissons Ratio (z) = 0.49896 -0.05843
#
# Static dielectric constant tensor:
#      x y z
#    x 3.702780 0.000000 0.196810 
#    y 0.000000 3.592500 0.000000 
#    z 0.196810 0.000000 3.647780 
# 
# 
# High freq. dielectric constant tensor:
#      x y z
#    x 1.764630 0.000000 0.012000 
#    y 0.000000 1.737240 0.000000 
#    z 0.012000 0.000000 1.749300 
# 
# From -- ./inp_files/139547.got.cif
#   From: 2010.06.25/outbox.cif.g09.slc.cpg/sg12_70_cif.got.tgz:139547.got - 2010.06.28 00:19:55.
