data_PCOD8096269
_publ_section_title
;
Structure prediction by ZEFSAII (Michael W. Deem and Ramdas Pophale) SiO2 
 PCOD8096269
Probable space group: C 2/M
;
_chemical_formula_sum "Si O2"
_cell_formula_units_Z 56
_cell_length_a 19.629573
_cell_length_b 9.409667
_cell_length_c 19.527435
_cell_angle_alpha 90.000000
_cell_angle_beta 127.228956
_cell_angle_gamma 90.000000
_cell_volume 2871.876214
_symmetry_space_group_name_H-M "C 2/M"
_symmetry_group_IT_number 12
_symmetry_cell_setting 'monoclinic'
loop_
_space_group_symop_operation_xyz
x,y,z
-x,y,-z
-x,-y,-z
x,-y,z
1/2+x,1/2+y,z
1/2-x,1/2+y,-z
1/2-x,1/2-y,-z
1/2+x,1/2-y,z
loop_
_atom_site_type_symbol
_atom_site_label
_atom_site_fract_x
_atom_site_fract_y
_atom_site_fract_z
Si Si1 0.003590 0.660492 0.197823
Si Si2 0.959566 0.847748 0.660885
Si Si3 0.270205 0.341044 0.579579
Si Si4 0.480639 0.839500 0.409836
Si Si5 0.691336 0.169288 0.266819
Si Si6 0.316446 0.838670 0.083215
Si Si7 0.197952 0.333784 0.766584
O O1 0.015174 0.500000 0.231428
O O2 0.911040 0.677555 0.104754
O O3 0.986314 0.754727 0.253929
O O4 0.088296 0.701548 0.206043
O O5 0.869081 0.875038 0.639027
O O6 0.950468 0.762103 0.584575
O O7 0.005105 0.000000 0.676350
O O8 0.224161 0.500000 0.554578
O O9 0.250000 0.250000 0.500000
O O10 0.255918 0.245481 0.638962
O O11 0.500000 0.815470 0.500000
O O12 0.385859 0.793878 0.328959
O O13 0.498681 0.000000 0.398282
O O14 0.724926 0.237679 0.216666
O O15 0.708650 0.000000 0.280059
O O16 0.315746 0.792295 0.162602
O O17 0.285837 0.000000 0.059857
O O18 0.250000 0.750000 0.000000
O O19 0.220497 0.500000 0.771177
#
# Coordination Sequence:
#
# PCOD8096269 Si02
#       7
#     8   8   8   8   8   8   8
#     4   9  18  38  61  81 111 151 189 226 276 344
#     4  10  20  33  52  79 108 141 186 241 285 323
#     4  10  21  35  51  76 110 149 195 242 287 338
#     4  10  21  36  55  78 108 155 198 229 282 347
#     4  10  21  36  58  84 112 151 192 236 291 343
#     4  10  21  39  64  90 116 148 190 236 286 347
#     4  10  21  39  59  84 119 154 191 240 291 344
#
# _framework density 19.499448000000001
#
# number of rings (size 3 to 8) (size 9 to 14) (size 15 to 20)
#    0.000    2.143    1.429    1.286    2.000    4.286 
#    0.000    0.714    0.000    4.286    0.000    0.000 
#    0.000    0.000    0.000    0.000    0.000    0.000 
#
# Total GULP energy -346878.039021 kJ/mol
# GULP energy per Si atom -12388.501394 kJ/mol
# Density = 1.945507 g / cm^3
# Si number density = 19.499448 Si / 1000 Ang^3
#
#
#
# Elastic Constant Matrix: (Units=GPa)
#
#
# Indices 1 2 3 4 5 6 
#
# 1 82.5978 38.6446 37.0363 0.0000 -8.0854 0.0000
# 2 38.6446 92.8472 40.1540 0.0000 -10.8227 0.0000
# 3 37.0363 40.1540 102.5076 0.0000 2.5499 0.0000
# 4 0.0000 0.0000 0.0000 29.5540 0.0000 -5.4792
# 5 -8.0854 -10.8227 2.5499 0.0000 13.7708 0.0000
# 6 0.0000 0.0000 0.0000 -5.4792 0.0000 31.5723
#
#
#
# Elastic Compliance Matrix: (Units=1/GPa)
#
#
# Indices 1 2 3 4 5 6 
#
# 1 0.016865 -0.004125 -0.004665 0.000000 0.007524 0.000000
# 2 -0.004125 0.015952 -0.005033 0.000000 0.011046 0.000000
# 3 -0.004665 -0.005033 0.013642 0.000000 -0.009220 0.000000
# 4 0.000000 0.000000 0.000000 0.034961 0.000000 0.006067
# 5 0.007524 0.011046 -0.009220 0.000000 0.087424 0.000000
# 6 0.000000 0.000000 0.000000 0.006067 0.000000 0.032726
#
#
# Mechanical properties :
#
#
# Convention : Reuss Voigt Hill
#
# Bulk Modulus (GPa) = 53.15536 56.62472 54.89004
# Shear Modulus (GPa) = 21.23274 25.78727 23.51001
#
# Velocity S-wave (km/s) = 3.30341 3.64051 3.47605
# Velocity P-wave (km/s) = 6.47064 6.83910 6.65742
#
# Compressibility (1/GPa) = 0.01881278
#
# Stress axis : x y z
#
# Youngs Moduli (GPa) = 59.29464 62.68994 73.30568
#
# Poissons Ratio (x) = 0.25860 0.34194
# Poissons Ratio (y) = 0.24460 0.36894
# Poissons Ratio (z) = 0.27659 0.31551
#
# Static dielectric constant tensor:
#      x y z
#    x 3.667480 0.000000 0.094610 
#    y 0.000000 4.062600 0.000000 
#    z 0.094610 0.000000 3.295770 
# 
# 
# High freq. dielectric constant tensor:
#      x y z
#    x 1.757730 0.000000 0.007080 
#    y 0.000000 1.770420 0.000000 
#    z 0.007080 0.000000 1.729140 
# 
# From -- ./inp_files/280890.got.cif
#   From: 2010.06.25/outbox.cif.g09.slc.cpg/sg12_141_cif.got.tgz:280890.got - 2010.06.28 00:19:55.
