data_PCOD8096334
_publ_section_title
;
Structure prediction by ZEFSAII (Michael W. Deem and Ramdas Pophale) SiO2 
 PCOD8096334
Probable space group: C 2/M
;
_chemical_formula_sum "Si O2"
_cell_formula_units_Z 64
_cell_length_a 22.674152
_cell_length_b 16.809218
_cell_length_c 17.235217
_cell_angle_alpha 90.000000
_cell_angle_beta 148.931226
_cell_angle_gamma 90.000000
_cell_volume 3390.010650
_symmetry_space_group_name_H-M "C 2/M"
_symmetry_group_IT_number 12
_symmetry_cell_setting 'monoclinic'
loop_
_space_group_symop_operation_xyz
x,y,z
-x,y,-z
-x,-y,-z
x,-y,z
1/2+x,1/2+y,z
1/2-x,1/2+y,-z
1/2-x,1/2-y,-z
1/2+x,1/2-y,z
loop_
_atom_site_type_symbol
_atom_site_label
_atom_site_fract_x
_atom_site_fract_y
_atom_site_fract_z
Si Si1 0.624292 0.409182 0.160390
Si Si2 0.532394 0.593701 0.352581
Si Si3 0.282424 0.409401 0.566053
Si Si4 0.400959 0.704387 0.447493
Si Si5 0.743313 0.300026 0.178007
Si Si6 0.372435 0.723449 0.103962
Si Si7 0.932852 0.327436 0.619204
Si Si8 0.567933 0.913002 0.655296
O O1 0.635631 0.500000 0.145663
O O2 0.644160 0.399646 0.273611
O O3 0.717207 0.359885 0.218240
O O4 0.500000 0.375145 0.000000
O O5 0.502826 0.500000 0.316970
O O6 0.635597 0.616801 0.411448
O O7 0.575499 0.617167 0.488571
O O8 0.418839 0.643390 0.199555
O O9 0.241668 0.500000 0.508718
O O10 0.172011 0.352379 0.443525
O O11 0.500000 0.728713 0.500000
O O12 0.285777 0.716767 0.265793
O O13 0.394585 0.762953 0.513091
O O14 0.840979 0.341962 0.235772
O O15 0.638597 0.287602 0.001462
O O16 0.465577 0.792795 0.214216
O O17 0.250000 0.750000 0.000000
O O18 0.978555 0.404903 0.625373
O O19 0.500000 0.904152 0.500000
O O20 0.626274 0.000000 0.727121
#
# Coordination Sequence:
#
# PCOD8096334 Si02
#       8
#     8   8   8   8   8   8   8   8
#     4  10  20  33  52  83 122 155 189 238 295 365
#     4  10  24  43  64  87 117 162 208 252 302 359
#     4  10  20  38  61  88 120 157 202 243 292 365
#     4  11  20  37  61  83 115 150 199 252 292 348
#     4  12  19  35  53  81 117 156 191 246 302 360
#     4  11  23  38  58  84 122 158 202 251 310 362
#     4  11  19  37  57  84 119 157 194 250 298 352
#     4  11  19  29  53  86 114 150 191 231 299 371
#
# _framework density 18.878996000000001
#
# number of rings (size 3 to 8) (size 9 to 14) (size 15 to 20)
#    0.000    1.250    5.000    2.250    0.000    6.250 
#    2.250    0.000    0.000    1.500    0.000    1.750 
#    0.000    0.000    0.000    0.000    0.000    0.000 
#
# Total GULP energy -396662.808644 kJ/mol
# GULP energy per Si atom -12395.712770 kJ/mol
# Density = 1.883603 g / cm^3
# Si number density = 18.878996 Si / 1000 Ang^3
#
#
#
# Elastic Constant Matrix: (Units=GPa)
#
#
# Indices 1 2 3 4 5 6 
#
# 1 64.2156 34.4338 24.1967 0.0000 6.3634 0.0000
# 2 34.4338 89.4025 52.6121 0.0000 1.1321 0.0000
# 3 24.1967 52.6121 109.5181 0.0000 -3.1621 0.0000
# 4 0.0000 0.0000 0.0000 26.8876 0.0000 2.2359
# 5 6.3634 1.1321 -3.1621 0.0000 33.6488 0.0000
# 6 0.0000 0.0000 0.0000 2.2359 0.0000 26.6656
#
#
#
# Elastic Compliance Matrix: (Units=1/GPa)
#
#
# Indices 1 2 3 4 5 6 
#
# 1 0.020146 -0.007014 -0.001188 0.000000 -0.003686 0.000000
# 2 -0.007014 0.018087 -0.007138 0.000000 0.000047 0.000000
# 3 -0.001188 -0.007138 0.012871 0.000000 0.001674 0.000000
# 4 0.000000 0.000000 0.000000 0.037453 0.000000 -0.003140
# 5 -0.003686 0.000047 0.001674 0.000000 0.030571 0.000000
# 6 0.000000 0.000000 0.000000 -0.003140 0.000000 0.037765
#
#
# Mechanical properties :
#
#
# Convention : Reuss Voigt Hill
#
# Bulk Modulus (GPa) = 48.96078 53.95791 51.45934
# Shear Modulus (GPa) = 25.72278 27.56664 26.64471
#
# Velocity S-wave (km/s) = 3.69522 3.82537 3.76086
# Velocity P-wave (km/s) = 6.64805 6.93933 6.79525
#
# Compressibility (1/GPa) = 0.02042451
#
# Stress axis : x y z
#
# Youngs Moduli (GPa) = 49.63697 55.28970 77.69553
#
# Poissons Ratio (x) = 0.38777 0.09232
# Poissons Ratio (y) = 0.34813 0.55458
# Poissons Ratio (z) = 0.05898 0.39465
#
# Static dielectric constant tensor:
#      x y z
#    x 3.511260 0.000000 -0.065100 
#    y 0.000000 3.532470 0.000000 
#    z -0.065100 0.000000 3.637130 
# 
# 
# High freq. dielectric constant tensor:
#      x y z
#    x 1.731530 0.000000 0.000530 
#    y 0.000000 1.719640 0.000000 
#    z 0.000530 0.000000 1.727040 
# 
# From -- ./inp_files/290466.got.cif
#   From: 2010.06.25/outbox.cif.g09.slc.cpg/sg12_146_cif.got.tgz:290466.got - 2010.06.28 00:19:55.
