data_PCOD8096740
_publ_section_title
;
Structure prediction by ZEFSAII (Michael W. Deem and Ramdas Pophale) SiO2 
 PCOD8096740
Probable space group: C 2/M
;
_chemical_formula_sum "Si O2"
_cell_formula_units_Z 64
_cell_length_a 18.502775
_cell_length_b 8.836690
_cell_length_c 20.708242
_cell_angle_alpha 90.000000
_cell_angle_beta 87.462337
_cell_angle_gamma 90.000000
_cell_volume 3382.545224
_symmetry_space_group_name_H-M "C 2/M"
_symmetry_group_IT_number 12
_symmetry_cell_setting 'monoclinic'
loop_
_space_group_symop_operation_xyz
x,y,z
-x,y,-z
-x,-y,-z
x,-y,z
1/2+x,1/2+y,z
1/2-x,1/2+y,-z
1/2-x,1/2-y,-z
1/2+x,1/2-y,z
loop_
_atom_site_type_symbol
_atom_site_label
_atom_site_fract_x
_atom_site_fract_y
_atom_site_fract_z
Si Si1 0.427499 0.177702 0.387973
Si Si2 0.428618 0.674243 0.753590
Si Si3 0.827592 0.322980 0.005717
Si Si4 0.079756 0.324758 0.752888
Si Si5 0.408884 0.675234 0.119249
Si Si6 0.078793 0.828970 0.103725
Si Si7 0.672445 0.179116 0.494995
Si Si8 0.909193 0.321043 0.630148
O O1 0.389515 0.214203 0.320002
O O2 0.379424 0.248181 0.447127
O O3 0.509640 0.239490 0.388239
O O4 0.432855 0.000000 0.398441
O O5 0.453735 0.500000 0.742820
O O6 0.495207 0.789047 0.752448
O O7 0.389140 0.687598 0.824758
O O8 0.379680 0.732530 0.695481
O O9 0.816694 0.500000 0.009623
O O10 0.879405 0.284875 0.943861
O O11 0.750000 0.250000 0.000000
O O12 0.863119 0.268796 0.070327
O O13 0.090926 0.500000 0.769670
O O14 0.116395 0.225256 0.807820
O O15 0.391432 0.500000 0.110880
O O16 0.493671 0.710163 0.106247
O O17 0.090462 0.000000 0.077765
O O18 0.750000 0.250000 0.500000
O O19 0.641432 0.226920 0.426897
O O20 0.678013 0.000000 0.501473
O O21 0.907185 0.500000 0.642692
#
# Coordination Sequence:
#
# PCOD8096740 Si02
#       8
#     8   8   8   8   8   8   8   8
#     4   8  15  30  53  76  98 130 171 212 253 299
#     4   9  17  30  51  79 109 136 163 208 266 313
#     4  12  25  39  56  78 107 142 180 221 263 310
#     4   9  16  29  52  80 105 132 172 217 257 303
#     4  10  20  36  58  83 112 142 172 213 263 313
#     4   9  19  36  57  81 109 140 173 212 261 314
#     4  10  20  34  50  71 101 135 171 211 258 308
#     4   9  17  31  53  76  98 130 174 217 251 298
#
# _framework density 18.920663000000001
#
# number of rings (size 3 to 8) (size 9 to 14) (size 15 to 20)
#    0.000    2.500    0.000    4.500    0.000    6.500 
#    0.000    4.375    0.000    8.250    0.000    0.000 
#    0.000    0.000    0.000    0.000    0.000    0.000 
#
# Total GULP energy -396640.052093 kJ/mol
# GULP energy per Si atom -12395.001628 kJ/mol
# Density = 1.887760 g / cm^3
# Si number density = 18.920663 Si / 1000 Ang^3
#
#
#
# Elastic Constant Matrix: (Units=GPa)
#
#
# Indices 1 2 3 4 5 6 
#
# 1 74.5310 34.1449 54.1116 0.0000 19.0328 0.0000
# 2 34.1449 80.3282 53.0316 0.0000 11.2807 0.0000
# 3 54.1116 53.0316 151.5651 0.0000 30.2479 0.0000
# 4 0.0000 0.0000 0.0000 31.3931 0.0000 3.1524
# 5 19.0328 11.2807 30.2479 0.0000 9.6429 0.0000
# 6 0.0000 0.0000 0.0000 3.1524 0.0000 26.5591
#
#
#
# Elastic Compliance Matrix: (Units=1/GPa)
#
#
# Indices 1 2 3 4 5 6 
#
# 1 0.029937 -0.006615 0.005012 0.000000 -0.067070 0.000000
# 2 -0.006615 0.017685 -0.006158 0.000000 0.011684 0.000000
# 3 0.005012 -0.006158 0.020053 0.000000 -0.065590 0.000000
# 4 0.000000 0.000000 0.000000 0.032238 0.000000 -0.003827
# 5 -0.067070 0.011684 -0.065590 0.000000 0.428158 0.000000
# 6 0.000000 0.000000 0.000000 -0.003827 0.000000 0.038106
#
#
# Mechanical properties :
#
#
# Convention : Reuss Voigt Hill
#
# Bulk Modulus (GPa) = 19.17454 65.44449 42.30951
# Shear Modulus (GPa) = 8.34607 24.52809 16.43708
#
# Velocity S-wave (km/s) = 2.10254 3.60441 2.95063
# Velocity P-wave (km/s) = 4.00629 7.21016 5.83253
#
# Compressibility (1/GPa) = 0.05215250
#
# Stress axis : x y z
#
# Youngs Moduli (GPa) = 33.40396 56.54364 49.86756
#
# Poissons Ratio (x) = 0.37404 -0.24993
# Poissons Ratio (y) = 0.22097 0.30709
# Poissons Ratio (z) = -0.16741 0.34820
#
# Static dielectric constant tensor:
#      x y z
#    x 3.182670 0.000000 0.049420 
#    y 0.000000 3.383920 0.000000 
#    z 0.049420 0.000000 4.050110 
# 
# 
# High freq. dielectric constant tensor:
#      x y z
#    x 1.691730 0.000000 0.008860 
#    y 0.000000 1.726070 0.000000 
#    z 0.008860 0.000000 1.761020 
# 
# From -- ./inp_files/314024.got.cif
#   From: 2010.06.25/outbox.cif.g09.slc.cpg/sg12_158_cif.got.tgz:314024.got - 2010.06.28 00:19:55.
