data_PCOD8096017
_publ_section_title
;
Structure prediction by ZEFSAII (Michael W. Deem and Ramdas Pophale) SiO2 
 PCOD8096017
Probable space group: C 2/M
;
_chemical_formula_sum "Si O2"
_cell_formula_units_Z 48
_cell_length_a 15.180449
_cell_length_b 8.912268
_cell_length_c 19.327922
_cell_angle_alpha 90.000000
_cell_angle_beta 100.275079
_cell_angle_gamma 90.000000
_cell_volume 2572.981487
_symmetry_space_group_name_H-M "C 2/M"
_symmetry_group_IT_number 12
_symmetry_cell_setting 'monoclinic'
loop_
_space_group_symop_operation_xyz
x,y,z
-x,y,-z
-x,-y,-z
x,-y,z
1/2+x,1/2+y,z
1/2-x,1/2+y,-z
1/2-x,1/2-y,-z
1/2+x,1/2-y,z
loop_
_atom_site_type_symbol
_atom_site_label
_atom_site_fract_x
_atom_site_fract_y
_atom_site_fract_z
Si Si1 0.290778 0.677850 0.073992
Si Si2 0.908987 0.177935 0.570135
Si Si3 0.330611 0.677175 0.829994
Si Si4 0.390781 0.677519 0.412841
Si Si5 0.221595 0.177057 0.330657
Si Si6 0.510746 0.677297 0.924747
O O1 0.279951 0.500000 0.067112
O O2 0.243207 0.738473 0.135377
O O3 0.394764 0.726555 0.094610
O O4 0.250000 0.750000 0.000000
O O5 0.874601 0.230287 0.489882
O O6 0.844627 0.245370 0.620201
O O7 0.010767 0.232210 0.597191
O O8 0.908709 0.000000 0.572793
O O9 0.319374 0.500000 0.840241
O O10 0.317071 0.723772 0.748861
O O11 0.429452 0.734105 0.865351
O O12 0.381211 0.500000 0.404708
O O13 0.319844 0.754809 0.352792
O O14 0.228718 0.000000 0.339259
O O15 0.506109 0.500000 0.930002
O O16 0.500000 0.747427 0.000000
#
# Coordination Sequence:
#
# PCOD8096017 Si02
#       6
#     8   8   8   8   8   8
#     4  11  21  35  58  82 103 130 169 216 261 309
#     4   8  16  32  53  77 103 139 179 214 256 309
#     4  10  21  37  53  74 105 141 176 213 256 309
#     4   9  17  32  55  78 103 135 178 222 256 301
#     4  10  20  33  51  75 107 140 172 212 265 314
#     4   9  17  33  56  76  98 132 172 206 247 311
#
# _framework density 18.655398999999999
#
# number of rings (size 3 to 8) (size 9 to 14) (size 15 to 20)
#    0.000    2.500    1.667    2.000    0.000    2.000 
#    0.000    8.333    0.000    0.000    0.000    0.000 
#    0.000    0.000    0.000    0.000    0.000    0.000 
#
# Total GULP energy -297568.354161 kJ/mol
# GULP energy per Si atom -12398.681423 kJ/mol
# Density = 1.861294 g / cm^3
# Si number density = 18.655399 Si / 1000 Ang^3
#
#
#
# Elastic Constant Matrix: (Units=GPa)
#
#
# Indices 1 2 3 4 5 6 
#
# 1 139.2845 29.7226 67.0869 0.0000 16.7061 0.0000
# 2 29.7226 29.4476 32.2235 0.0000 1.0079 0.0000
# 3 67.0869 32.2235 123.0334 0.0000 22.5301 0.0000
# 4 0.0000 0.0000 0.0000 25.1758 0.0000 1.7977
# 5 16.7061 1.0079 22.5301 0.0000 34.5269 0.0000
# 6 0.0000 0.0000 0.0000 1.7977 0.0000 28.4827
#
#
#
# Elastic Compliance Matrix: (Units=1/GPa)
#
#
# Indices 1 2 3 4 5 6 
#
# 1 0.010652 -0.006776 -0.003550 0.000000 -0.002640 0.000000
# 2 -0.006776 0.053766 -0.012152 0.000000 0.009639 0.000000
# 3 -0.003550 -0.012152 0.014613 0.000000 -0.007463 0.000000
# 4 0.000000 0.000000 0.000000 0.039901 0.000000 -0.002518
# 5 -0.002640 0.009639 -0.007463 0.000000 0.034829 0.000000
# 6 0.000000 0.000000 0.000000 -0.002518 0.000000 0.035268
#
#
# Mechanical properties :
#
#
# Convention : Reuss Voigt Hill
#
# Bulk Modulus (GPa) = 29.34784 61.09239 45.22011
# Shear Modulus (GPa) = 20.37964 28.48590 24.43277
#
# Velocity S-wave (km/s) = 3.30877 3.91186 3.62289
# Velocity P-wave (km/s) = 5.51026 7.29537 6.46473
#
# Compressibility (1/GPa) = 0.03407406
#
# Stress axis : x y z
#
# Youngs Moduli (GPa) = 93.87771 18.59924 68.43231
#
# Poissons Ratio (x) = 0.12604 0.24294
# Poissons Ratio (y) = 0.63616 0.83157
# Poissons Ratio (z) = 0.33328 0.22601
#
# Static dielectric constant tensor:
#      x y z
#    x 3.826980 0.000000 -0.071790 
#    y 0.000000 3.047560 0.000000 
#    z -0.071790 0.000000 3.582200 
# 
# 
# High freq. dielectric constant tensor:
#      x y z
#    x 1.739600 0.000000 0.004110 
#    y 0.000000 1.685810 0.000000 
#    z 0.004110 0.000000 1.724850 
# 
# From -- ./inp_files/307997.got.cif
#   From: 2010.06.25/outbox.cif.g09.slc.cpg/sg12_154_cif.got.tgz:307997.got - 2010.06.28 00:19:55.
