data_PCOD8096480
_publ_section_title
;
Structure prediction by ZEFSAII (Michael W. Deem and Ramdas Pophale) SiO2 
 PCOD8096480
Probable space group: C 2/M
;
_chemical_formula_sum "Si O2"
_cell_formula_units_Z 56
_cell_length_a 26.485235
_cell_length_b 9.570505
_cell_length_c 11.028337
_cell_angle_alpha 90.000000
_cell_angle_beta 109.745925
_cell_angle_gamma 90.000000
_cell_volume 2631.059404
_symmetry_space_group_name_H-M "C 2/M"
_symmetry_group_IT_number 12
_symmetry_cell_setting 'monoclinic'
loop_
_space_group_symop_operation_xyz
x,y,z
-x,y,-z
-x,-y,-z
x,-y,z
1/2+x,1/2+y,z
1/2-x,1/2+y,-z
1/2-x,1/2-y,-z
1/2+x,1/2-y,z
loop_
_atom_site_type_symbol
_atom_site_label
_atom_site_fract_x
_atom_site_fract_y
_atom_site_fract_z
Si Si1 0.301075 0.840450 0.573429
Si Si2 0.044283 0.846925 0.307060
Si Si3 0.630768 0.334463 0.187501
Si Si4 0.036185 0.650768 0.647251
Si Si5 0.823978 0.662187 0.975192
Si Si6 0.203426 0.153595 0.828238
Si Si7 0.871743 0.241293 0.429934
O O1 0.250000 0.750000 0.500000
O O2 0.326657 0.753221 0.701975
O O3 0.341891 0.852424 0.492195
O O4 0.287262 0.000000 0.601732
O O5 0.072677 0.813648 0.202069
O O6 0.087424 0.845357 0.452231
O O7 0.992322 0.750141 0.278814
O O8 0.019246 0.000000 0.284388
O O9 0.645610 0.500000 0.192736
O O10 0.631921 0.259166 0.057391
O O11 0.039139 0.500000 0.712730
O O12 0.095751 0.692058 0.655559
O O13 0.000000 0.645725 0.500000
O O14 0.842374 0.500000 0.995429
O O15 0.766851 0.678883 0.860742
O O16 0.820069 0.723302 0.107472
O O17 0.174598 0.150857 0.673240
O O18 0.195194 0.000000 0.881830
#
# Coordination Sequence:
#
# PCOD8096480 Si02
#       7
#     8   8   8   8   8   8   8
#     4  11  22  34  50  75 108 142 176 215 261 313
#     4   9  19  33  52  80 108 136 171 212 260 313
#     4  10  20  35  54  75 103 138 176 216 261 314
#     4   9  18  32  50  74 105 138 171 209 257 313
#     4  10  21  36  55  78 105 140 181 221 262 311
#     4  10  21  36  54  77 106 140 179 221 263 309
#     4  10  20  33  54  79 107 140 176 216 261 312
#
# _framework density 21.284202000000001
#
# number of rings (size 3 to 8) (size 9 to 14) (size 15 to 20)
#    0.000    2.143    0.000    3.000    0.000   11.714 
#    0.000    0.000    0.000    0.857    0.000    5.000 
#    0.000    0.000    0.000    0.000    0.000    0.000 
#
# Total GULP energy -346955.605583 kJ/mol
# GULP energy per Si atom -12391.271628 kJ/mol
# Density = 2.123576 g / cm^3
# Si number density = 21.284202 Si / 1000 Ang^3
#
#
#
# Elastic Constant Matrix: (Units=GPa)
#
#
# Indices 1 2 3 4 5 6 
#
# 1 87.9610 50.0012 15.6537 0.0000 -25.5542 0.0000
# 2 50.0012 164.7955 15.1961 0.0000 -30.4852 0.0000
# 3 15.6537 15.1961 35.9354 0.0000 -10.2279 0.0000
# 4 0.0000 0.0000 0.0000 18.7239 0.0000 -11.2143
# 5 -25.5542 -30.4852 -10.2279 0.0000 29.3317 0.0000
# 6 0.0000 0.0000 0.0000 -11.2143 0.0000 29.1694
#
#
#
# Elastic Compliance Matrix: (Units=1/GPa)
#
#
# Indices 1 2 3 4 5 6 
#
# 1 0.016536 -0.002808 -0.003049 0.000000 0.010425 0.000000
# 2 -0.002808 0.008026 -0.000547 0.000000 0.005705 0.000000
# 3 -0.003049 -0.000547 0.031606 0.000000 0.007796 0.000000
# 4 0.000000 0.000000 0.000000 0.069384 0.000000 0.026675
# 5 0.010425 0.005705 0.007796 0.000000 0.051823 0.000000
# 6 0.000000 0.000000 0.000000 0.026675 0.000000 0.044538
#
#
# Mechanical properties :
#
#
# Convention : Reuss Voigt Hill
#
# Bulk Modulus (GPa) = 23.06234 50.04376 36.55305
# Shear Modulus (GPa) = 20.06638 29.30106 24.68372
#
# Velocity S-wave (km/s) = 3.07381 3.71436 3.40916
# Velocity P-wave (km/s) = 4.84321 6.47754 5.71905
#
# Compressibility (1/GPa) = 0.04336073
#
# Stress axis : x y z
#
# Youngs Moduli (GPa) = 60.47463 124.59961 31.63944
#
# Poissons Ratio (x) = 0.34982 0.09646
# Poissons Ratio (y) = 0.16978 0.01732
# Poissons Ratio (z) = 0.18437 0.06819
#
# Static dielectric constant tensor:
#      x y z
#    x 3.964130 0.000000 -0.165890 
#    y 0.000000 3.871010 0.000000 
#    z -0.165890 0.000000 3.936920 
# 
# 
# High freq. dielectric constant tensor:
#      x y z
#    x 1.835590 0.000000 -0.014950 
#    y 0.000000 1.839040 0.000000 
#    z -0.014950 0.000000 1.803890 
# 
# From -- ./inp_files/181145.got.cif
#   From: 2010.06.25/outbox.cif.g09.slc.cpg/sg12_91_cif.got.tgz:181145.got - 2010.06.28 00:19:55.
