data_PCOD8096411
_publ_section_title
;
Structure prediction by ZEFSAII (Michael W. Deem and Ramdas Pophale) SiO2 
 PCOD8096411
Probable space group: C 2/M
;
_chemical_formula_sum "Si O2"
_cell_formula_units_Z 56
_cell_length_a 18.735065
_cell_length_b 8.554959
_cell_length_c 27.186783
_cell_angle_alpha 90.000000
_cell_angle_beta 39.206457
_cell_angle_gamma 90.000000
_cell_volume 2754.407389
_symmetry_space_group_name_H-M "C 2/M"
_symmetry_group_IT_number 12
_symmetry_cell_setting 'monoclinic'
loop_
_space_group_symop_operation_xyz
x,y,z
-x,y,-z
-x,-y,-z
x,-y,z
1/2+x,1/2+y,z
1/2-x,1/2+y,-z
1/2-x,1/2-y,-z
1/2+x,1/2-y,z
loop_
_atom_site_type_symbol
_atom_site_label
_atom_site_fract_x
_atom_site_fract_y
_atom_site_fract_z
Si Si1 0.089340 0.316009 0.793111
Si Si2 0.668843 0.816401 0.645097
Si Si3 0.860979 0.676269 0.960139
Si Si4 0.273054 0.686047 0.769988
Si Si5 0.121369 0.678326 0.937043
Si Si6 0.026871 0.184170 0.631076
Si Si7 0.410124 0.816956 0.506277
O O1 0.087794 0.500000 0.802802
O O2 0.093143 0.273827 0.733353
O O3 0.201064 0.252051 0.761578
O O4 0.976228 0.242014 0.878576
O O5 0.603663 0.767829 0.630759
O O6 0.784451 0.722214 0.591210
O O7 0.695934 0.000000 0.628580
O O8 0.867235 0.500000 0.938420
O O9 0.750000 0.750000 0.000000
O O10 0.837309 0.690032 0.030122
O O11 0.282682 0.500000 0.764905
O O12 0.212420 0.753621 0.851499
O O13 0.399877 0.753299 0.701589
O O14 0.104347 0.500000 0.927750
O O15 0.000000 0.764630 0.000000
O O16 0.072261 0.219703 0.552748
O O17 0.032697 0.000000 0.637872
O O18 0.500000 0.764364 0.500000
O O19 0.422352 0.000000 0.488531
#
# Coordination Sequence:
#
# PCOD8096411 Si02
#       7
#     8   8   8   8   8   8   8
#     4   9  18  34  54  80 112 149 191 235 285 340
#     4  11  23  39  60  85 119 157 193 235 285 341
#     4  10  20  33  53  80 112 149 188 234 287 340
#     4   9  17  31  53  82 111 143 190 240 282 332
#     4   9  15  28  52  80 108 142 189 240 281 323
#     4  11  23  38  60  89 120 151 190 238 286 341
#     4  11  24  43  66  90 117 148 187 233 285 344
#
# _framework density 20.331050999999999
#
# number of rings (size 3 to 8) (size 9 to 14) (size 15 to 20)
#    0.000    2.000    1.429    2.571    2.000    2.286 
#    0.000    0.714    0.000    2.143    0.000    0.000 
#    0.000    0.000    0.000    0.000    0.000    0.000 
#
# Total GULP energy -347079.001075 kJ/mol
# GULP energy per Si atom -12395.678610 kJ/mol
# Density = 2.028478 g / cm^3
# Si number density = 20.331051 Si / 1000 Ang^3
#
#
#
# Elastic Constant Matrix: (Units=GPa)
#
#
# Indices 1 2 3 4 5 6 
#
# 1 138.4629 22.2954 50.6757 0.0000 -13.5675 -0.0001
# 2 22.2954 25.7012 10.1367 0.0002 0.6061 -0.0012
# 3 50.6757 10.1367 114.1631 0.0000 0.9861 0.0007
# 4 0.0000 0.0002 0.0000 14.7757 0.0000 -7.4721
# 5 -13.5675 0.6061 0.9861 0.0000 40.7298 -0.0002
# 6 -0.0001 -0.0012 0.0007 -7.4721 -0.0002 15.6135
#
#
#
# Elastic Compliance Matrix: (Units=1/GPa)
#
#
# Indices 1 2 3 4 5 6 
#
# 1 0.010191 -0.007388 -0.003899 0.000000 0.003599 0.000000
# 2 -0.007388 0.045687 -0.000750 0.000002 -0.003123 0.000004
# 3 -0.003899 -0.000750 0.010570 0.000000 -0.001544 -0.000001
# 4 0.000000 0.000002 0.000000 0.089287 0.000000 0.042729
# 5 0.003599 -0.003123 -0.001544 0.000000 0.025835 0.000000
# 6 0.000000 0.000004 -0.000001 0.042729 0.000000 0.084496
#
#
# Mechanical properties :
#
#
# Convention : Reuss Voigt Hill
#
# Bulk Modulus (GPa) = 23.59919 49.39363 36.49641
# Shear Modulus (GPa) = 16.43304 27.23844 21.83574
#
# Velocity S-wave (km/s) = 2.84610 3.66422 3.28076
# Velocity P-wave (km/s) = 4.73635 6.49996 5.68694
#
# Compressibility (1/GPa) = 0.04237433
#
# Stress axis : x y z
#
# Youngs Moduli (GPa) = 98.12182 21.88799 94.60703
#
# Poissons Ratio (x) = 0.16171 0.36887
# Poissons Ratio (y) = 0.72492 0.07097
# Poissons Ratio (z) = 0.38257 0.01642
#
# Static dielectric constant tensor:
#      x y z
#    x 3.592420 0.000050 -0.234060 
#    y 0.000050 3.317620 0.000040 
#    z -0.234060 0.000040 3.791450 
# 
# 
# High freq. dielectric constant tensor:
#      x y z
#    x 1.807390 0.000000 -0.000620 
#    y 0.000000 1.744890 0.000000 
#    z -0.000620 0.000000 1.814200 
# 
# From -- ./inp_files/362919.got.cif
#   From: 2010.06.25/outbox.cif.g09.slc.cpg/sg12_182_cif.got.tgz:362919.got - 2010.06.28 00:19:55.
