data_PCOD8096944
_publ_section_title
;
Structure prediction by ZEFSAII (Michael W. Deem and Ramdas Pophale) SiO2 
 PCOD8096944
Probable space group: C 2/M
;
_chemical_formula_sum "Si O2"
_cell_formula_units_Z 64
_cell_length_a 23.587913
_cell_length_b 8.881249
_cell_length_c 17.030818
_cell_angle_alpha 90.000000
_cell_angle_beta 85.375815
_cell_angle_gamma 90.000000
_cell_volume 3556.174880
_symmetry_space_group_name_H-M "C 2/M"
_symmetry_group_IT_number 12
_symmetry_cell_setting 'monoclinic'
loop_
_space_group_symop_operation_xyz
x,y,z
-x,y,-z
-x,-y,-z
x,-y,z
1/2+x,1/2+y,z
1/2-x,1/2+y,-z
1/2-x,1/2-y,-z
1/2+x,1/2-y,z
loop_
_atom_site_type_symbol
_atom_site_label
_atom_site_fract_x
_atom_site_fract_y
_atom_site_fract_z
Si Si1 0.801242 0.175008 0.733902
Si Si2 0.983701 0.322581 0.917308
Si Si3 0.392176 0.666906 0.837613
Si Si4 0.308871 0.677897 0.466837
Si Si5 0.678651 0.827525 0.697570
Si Si6 0.556087 0.825209 0.763502
Si Si7 0.374726 0.178288 0.593584
Si Si8 0.968687 0.168977 0.674865
O O1 0.829304 0.220087 0.815279
O O2 0.733678 0.201900 0.746086
O O3 0.826471 0.275080 0.661271
O O4 0.816210 0.000000 0.714182
O O5 0.984553 0.500000 0.922687
O O6 0.029474 0.263512 0.848123
O O7 0.919652 0.273970 0.900342
O O8 0.000000 0.252210 0.000000
O O9 0.389764 0.500000 0.874242
O O10 0.429693 0.670533 0.755536
O O11 0.305537 0.500000 0.479506
O O12 0.250000 0.750000 0.500000
O O13 0.321126 0.715276 0.375339
O O14 0.360080 0.746410 0.512131
O O15 0.623491 0.794757 0.757128
O O16 0.678386 0.000000 0.666848
O O17 0.529030 0.742362 0.691029
O O18 0.541110 0.000000 0.756410
O O19 0.437424 0.234882 0.611046
O O20 0.375238 0.000000 0.584963
O O21 0.979094 0.000000 0.642875
#
# Coordination Sequence:
#
# PCOD8096944 Si02
#       8
#     8   8   8   8   8   8   8   8
#     4   9  17  30  48  70  98 130 166 208 253 300
#     4   9  17  30  50  76 103 130 162 203 249 297
#     4   8  15  27  45  71  97 124 161 202 245 293
#     4  12  23  35  50  72 101 132 170 213 255 300
#     4  10  20  34  52  72  99 134 169 209 256 304
#     4   9  18  33  52  75 101 132 170 207 248 304
#     4  11  20  31  50  74  98 128 168 215 258 298
#     4   9  17  31  50  71  98 131 165 209 257 301
#
# _framework density 17.996867000000002
#
# number of rings (size 3 to 8) (size 9 to 14) (size 15 to 20)
#    0.000    2.375    1.250    3.375    0.000    3.750 
#    0.000    0.625    0.000    4.500    0.000    0.000 
#    0.000    0.000    0.000    0.000    0.000    1.625 
#
# Total GULP energy -396714.979180 kJ/mol
# GULP energy per Si atom -12397.343099 kJ/mol
# Density = 1.795590 g / cm^3
# Si number density = 17.996867 Si / 1000 Ang^3
#
#
#
# Elastic Constant Matrix: (Units=GPa)
#
#
# Indices 1 2 3 4 5 6 
#
# 1 117.3025 34.3897 54.5202 0.0000 26.0534 0.0000
# 2 34.3897 87.8461 36.1257 0.0000 10.0597 0.0000
# 3 54.5202 36.1257 95.1183 0.0000 28.1939 0.0000
# 4 0.0000 0.0000 0.0000 21.9113 0.0000 8.1172
# 5 26.0534 10.0597 28.1939 0.0000 28.7524 0.0000
# 6 0.0000 0.0000 0.0000 8.1172 0.0000 23.8136
#
#
#
# Elastic Compliance Matrix: (Units=1/GPa)
#
#
# Indices 1 2 3 4 5 6 
#
# 1 0.012721 -0.002403 -0.004527 0.000000 -0.006247 0.000000
# 2 -0.002403 0.013948 -0.004397 0.000000 0.001609 0.000000
# 3 -0.004527 -0.004397 0.018476 0.000000 -0.012477 0.000000
# 4 0.000000 0.000000 0.000000 0.052235 0.000000 -0.017805
# 5 -0.006247 0.001609 -0.012477 0.000000 0.052112 0.000000
# 6 0.000000 0.000000 0.000000 -0.017805 0.000000 0.048062
#
#
# Mechanical properties :
#
#
# Convention : Reuss Voigt Hill
#
# Bulk Modulus (GPa) = 44.46171 61.14869 52.80520
# Shear Modulus (GPa) = 21.95816 26.57753 24.26785
#
# Velocity S-wave (km/s) = 3.49680 3.84707 3.67611
# Velocity P-wave (km/s) = 6.40799 7.33379 6.88646
#
# Compressibility (1/GPa) = 0.02249126
#
# Stress axis : x y z
#
# Youngs Moduli (GPa) = 78.60974 71.69367 54.12295
#
# Poissons Ratio (x) = 0.17227 0.24503
# Poissons Ratio (y) = 0.18889 0.23799
# Poissons Ratio (z) = 0.35589 0.31525
#
# Static dielectric constant tensor:
#      x y z
#    x 3.480660 0.000000 0.385310 
#    y 0.000000 3.348000 0.000000 
#    z 0.385310 0.000000 3.314020 
# 
# 
# High freq. dielectric constant tensor:
#      x y z
#    x 1.690680 0.000000 0.034740 
#    y 0.000000 1.695510 0.000000 
#    z 0.034740 0.000000 1.665770 
# 
# From -- ./inp_files/287779.got.cif
#   From: 2010.06.25/outbox.cif.g09.slc.cpg/sg12_144_cif.got.tgz:287779.got - 2010.06.28 00:19:55.
