data_PCOD8096071
_publ_section_title
;
Structure prediction by ZEFSAII (Michael W. Deem and Ramdas Pophale) SiO2 
 PCOD8096071
Probable space group: C 2/M
;
_chemical_formula_sum "Si O2"
_cell_formula_units_Z 48
_cell_length_a 27.734345
_cell_length_b 20.402906
_cell_length_c 12.345066
_cell_angle_alpha 90.000000
_cell_angle_beta 158.757530
_cell_angle_gamma 90.000000
_cell_volume 2530.989417
_symmetry_space_group_name_H-M "C 2/M"
_symmetry_group_IT_number 12
_symmetry_cell_setting 'monoclinic'
loop_
_space_group_symop_operation_xyz
x,y,z
-x,y,-z
-x,-y,-z
x,-y,z
1/2+x,1/2+y,z
1/2-x,1/2+y,-z
1/2-x,1/2-y,-z
1/2+x,1/2-y,z
loop_
_atom_site_type_symbol
_atom_site_label
_atom_site_fract_x
_atom_site_fract_y
_atom_site_fract_z
Si Si1 0.808654 0.071645 0.046478
Si Si2 0.065780 0.889032 0.482228
Si Si3 0.471658 0.878524 0.568467
Si Si4 0.215595 0.425294 0.223816
Si Si5 0.241776 0.285214 0.368029
Si Si6 0.524512 0.252722 0.301320
O O1 0.843834 0.118222 0.220855
O O2 0.928301 0.071581 0.209649
O O3 0.800791 0.000000 0.082191
O O4 0.667917 0.086778 0.696380
O O5 0.148997 0.922678 0.561122
O O6 0.022497 0.815987 0.369652
O O7 0.500000 0.881874 0.500000
O O8 0.447641 0.805177 0.556984
O O9 0.589118 0.913564 0.881087
O O10 0.204728 0.500000 0.250906
O O11 0.226575 0.365977 0.336726
O O12 0.250000 0.250000 0.500000
O O13 0.369624 0.260124 0.572217
O O14 0.117532 0.255012 0.048628
#
# Coordination Sequence:
#
# PCOD8096071 Si02
#       6
#     8   8   8   8   8   8
#     4  11  21  32  49  74 111 160 189 214 262 317
#     4  10  20  33  51  76 112 150 185 229 263 324
#     4  11  22  33  53  81 119 155 187 226 267 330
#     4  10  20  37  58  85 113 145 189 232 279 339
#     4  10  21  40  64  83 107 143 186 244 300 339
#     4  10  22  37  56  86 108 144 188 232 285 332
#
# _framework density 18.964915000000001
#
# number of rings (size 3 to 8) (size 9 to 14) (size 15 to 20)
#    0.000    1.667    1.667    4.000    2.333    1.333 
#    0.000    0.000    0.000   21.000    0.000    0.000 
#    0.000    0.000    0.000    0.000    0.000    0.000 
#
# Total GULP energy -297405.878824 kJ/mol
# GULP energy per Si atom -12391.911618 kJ/mol
# Density = 1.892175 g / cm^3
# Si number density = 18.964915 Si / 1000 Ang^3
#
#
#
# Elastic Constant Matrix: (Units=GPa)
#
#
# Indices 1 2 3 4 5 6 
#
# 1 56.1100 40.8386 45.9686 0.0000 -9.7419 0.0000
# 2 40.8386 152.7570 57.7787 0.0000 -9.8928 0.0000
# 3 45.9686 57.7787 137.2469 0.0000 17.6363 0.0000
# 4 0.0000 0.0000 0.0000 -26.2147 0.0000 20.5529
# 5 -9.7419 -9.8928 17.6363 0.0000 21.8505 0.0000
# 6 0.0000 0.0000 0.0000 20.5529 0.0000 13.5615
#
#
#
# Elastic Compliance Matrix: (Units=1/GPa)
#
#
# Indices 1 2 3 4 5 6 
#
# 1 0.036112 -0.002442 -0.014497 0.000000 0.026696 0.000000
# 2 -0.002442 0.009005 -0.003746 0.000000 0.006012 0.000000
# 3 -0.014497 -0.003746 0.016476 0.000000 -0.021458 0.000000
# 4 0.000000 0.000000 0.000000 -0.017433 0.000000 0.026420
# 5 0.026696 0.006012 -0.021458 0.000000 0.077709 0.000000
# 6 0.000000 0.000000 0.000000 0.026420 0.000000 0.033698
#
#
# Mechanical properties :
#
#
# Convention : Reuss Voigt Hill
#
# Bulk Modulus (GPa) = 49.44895 70.58729 60.01812
# Shear Modulus (GPa) = 24.54854 15.27466 19.91160
#
# Velocity S-wave (km/s) = 3.60171 2.84107 3.24376
# Velocity P-wave (km/s) = 6.58991 6.93274 6.76350
#
# Compressibility (1/GPa) = 0.02022288
#
# Stress axis : x y z
#
# Youngs Moduli (GPa) = 27.69196 111.04618 60.69410
#
# Poissons Ratio (x) = 0.27115 0.87991
# Poissons Ratio (y) = 0.06762 0.22734
# Poissons Ratio (z) = 0.40146 0.41595
#
# Static dielectric constant tensor:
#      x y z
#    x 3.338710 0.000000 0.294340 
#    y 0.000000 3.790070 0.000000 
#    z 0.294340 0.000000 3.730480 
# 
# 
# High freq. dielectric constant tensor:
#      x y z
#    x 1.711910 0.000000 0.025380 
#    y 0.000000 1.749460 0.000000 
#    z 0.025380 0.000000 1.749770 
# 
# From -- ./inp_files/184780.got.cif
#   From: 2010.06.25/outbox.cif.g09.slc.cpg/sg12_93_cif.got.tgz:184780.got - 2010.06.28 00:19:55.
