data_PCOD8096405
_publ_section_title
;
Structure prediction by ZEFSAII (Michael W. Deem and Ramdas Pophale) SiO2 
 PCOD8096405
Probable space group: C 2/M
;
_chemical_formula_sum "Si O2"
_cell_formula_units_Z 56
_cell_length_a 24.829854
_cell_length_b 8.904546
_cell_length_c 16.756253
_cell_angle_alpha 90.000000
_cell_angle_beta 60.111624
_cell_angle_gamma 90.000000
_cell_volume 3212.039547
_symmetry_space_group_name_H-M "C 2/M"
_symmetry_group_IT_number 12
_symmetry_cell_setting 'monoclinic'
loop_
_space_group_symop_operation_xyz
x,y,z
-x,y,-z
-x,-y,-z
x,-y,z
1/2+x,1/2+y,z
1/2-x,1/2+y,-z
1/2-x,1/2-y,-z
1/2+x,1/2-y,z
loop_
_atom_site_type_symbol
_atom_site_label
_atom_site_fract_x
_atom_site_fract_y
_atom_site_fract_z
Si Si1 0.751939 0.672386 0.289520
Si Si2 0.077987 0.177235 0.586398
Si Si3 0.159026 0.675525 0.102183
Si Si4 0.727966 0.825318 0.899894
Si Si5 0.621110 0.175212 0.397015
Si Si6 0.307609 0.174603 0.414133
Si Si7 0.951220 0.325317 0.710609
O O1 0.728496 0.500000 0.306169
O O2 0.787731 0.713004 0.180567
O O3 0.692645 0.777191 0.345236
O O4 0.800871 0.698464 0.324177
O O5 0.083315 0.237506 0.492706
O O6 0.129338 0.247712 0.605935
O O7 0.011345 0.221809 0.670476
O O8 0.086200 0.000000 0.580221
O O9 0.169066 0.500000 0.105301
O O10 0.207324 0.749131 0.126801
O O11 0.089298 0.716798 0.180893
O O12 0.172578 0.728410 0.000650
O O13 0.738503 0.000000 0.904503
O O14 0.589793 0.214538 0.336282
O O15 0.617254 0.000000 0.419336
O O16 0.250000 0.250000 0.500000
O O17 0.309485 0.000000 0.436063
O O18 0.970837 0.500000 0.695463
#
# Coordination Sequence:
#
# PCOD8096405 Si02
#       7
#     8   8   8   8   8   8   8
#     4  10  20  33  53  80 109 138 172 215 262 311
#     4  12  25  38  53  75 104 141 183 222 264 313
#     4   9  17  31  51  77 108 140 172 208 256 313
#     4   9  17  30  51  79 109 137 169 212 259 309
#     4  11  21  34  54  78 108 142 174 212 261 317
#     4  11  22  37  56  77 104 139 179 222 264 310
#     4  10  21  36  53  77 108 143 178 213 260 317
#
# _framework density 17.434405000000002
#
# number of rings (size 3 to 8) (size 9 to 14) (size 15 to 20)
#    0.000    1.714    2.857    2.571    0.000    4.000 
#    0.000    0.000    0.000    0.857    0.000    6.000 
#    0.000    0.000    0.000    0.000    0.000    0.000 
#
# Total GULP energy -347186.440038 kJ/mol
# GULP energy per Si atom -12399.515716 kJ/mol
# Density = 1.739472 g / cm^3
# Si number density = 17.434405 Si / 1000 Ang^3
#
#
#
# Elastic Constant Matrix: (Units=GPa)
#
#
# Indices 1 2 3 4 5 6 
#
# 1 75.9003 40.3484 44.7381 0.0000 -3.3680 -0.0001
# 2 40.3484 83.2529 43.7948 0.0000 -2.6145 -0.0002
# 3 44.7381 43.7948 133.4933 0.0000 2.2615 0.0000
# 4 0.0000 0.0000 0.0000 22.9547 0.0000 -4.2340
# 5 -3.3680 -2.6145 2.2615 0.0000 24.0144 0.0000
# 6 -0.0001 -0.0002 0.0000 -4.2340 0.0000 27.5732
#
#
#
# Elastic Compliance Matrix: (Units=1/GPa)
#
#
# Indices 1 2 3 4 5 6 
#
# 1 0.019610 -0.007193 -0.004253 0.000000 0.002368 0.000000
# 2 -0.007193 0.017255 -0.003270 0.000000 0.001178 0.000000
# 3 -0.004253 -0.003270 0.010021 0.000000 -0.001896 0.000000
# 4 0.000000 0.000000 0.000000 0.044834 0.000000 0.006884
# 5 0.002368 0.001178 -0.001896 0.000000 0.042281 0.000000
# 6 0.000000 0.000000 0.000000 0.006884 0.000000 0.037324
#
#
# Mechanical properties :
#
#
# Convention : Reuss Voigt Hill
#
# Bulk Modulus (GPa) = 57.28858 61.15654 59.22256
# Shear Modulus (GPa) = 24.20432 25.82613 25.01523
#
# Velocity S-wave (km/s) = 3.73004 3.85298 3.79201
# Velocity P-wave (km/s) = 7.17508 7.41270 7.29486
#
# Compressibility (1/GPa) = 0.01745549
#
# Stress axis : x y z
#
# Youngs Moduli (GPa) = 50.99313 57.95485 99.78926
#
# Poissons Ratio (x) = 0.41686 0.42435
# Poissons Ratio (y) = 0.36678 0.32632
# Poissons Ratio (z) = 0.21685 0.18952
#
# Static dielectric constant tensor:
#      x y z
#    x 3.205400 0.000000 0.189930 
#    y 0.000000 3.321590 0.000000 
#    z 0.189930 0.000000 3.702030 
# 
# 
# High freq. dielectric constant tensor:
#      x y z
#    x 1.649430 0.000000 0.005370 
#    y 0.000000 1.678750 0.000000 
#    z 0.005370 0.000000 1.683330 
# 
# From -- ./inp_files/287376.got.cif
#   From: 2010.06.25/outbox.cif.g09.slc.cpg/sg12_144_cif.got.tgz:287376.got - 2010.06.28 00:19:55.
