data_PCOD8096955
_publ_section_title
;
Structure prediction by ZEFSAII (Michael W. Deem and Ramdas Pophale) SiO2 
 PCOD8096955
Probable space group: C 2/M
;
_chemical_formula_sum "Si O2"
_cell_formula_units_Z 40
_cell_length_a 14.410913
_cell_length_b 9.637754
_cell_length_c 19.476896
_cell_angle_alpha 90.000000
_cell_angle_beta 57.611922
_cell_angle_gamma 90.000000
_cell_volume 2284.312770
_symmetry_space_group_name_H-M "C 2/M"
_symmetry_group_IT_number 12
_symmetry_cell_setting 'monoclinic'
loop_
_space_group_symop_operation_xyz
x,y,z
-x,y,-z
-x,-y,-z
x,-y,z
1/2+x,1/2+y,z
1/2-x,1/2+y,-z
1/2-x,1/2-y,-z
1/2+x,1/2-y,z
loop_
_atom_site_type_symbol
_atom_site_label
_atom_site_fract_x
_atom_site_fract_y
_atom_site_fract_z
Si Si1 0.789538 0.843851 0.922849
Si Si2 0.676879 0.660373 0.616701
Si Si3 0.115427 0.838548 0.487713
Si Si4 0.912523 0.657935 0.090470
Si Si5 0.035496 0.838647 0.803070
O O1 0.709319 0.831565 0.890482
O O2 0.907971 0.797296 0.848464
O O3 0.792553 0.000000 0.950481
O O4 0.750000 0.750000 0.000000
O O5 0.712145 0.500000 0.607227
O O6 0.786026 0.751152 0.584827
O O7 0.615352 0.691305 0.569277
O O8 0.591022 0.702179 0.709421
O O9 0.000000 0.790526 0.500000
O O10 0.136567 0.000000 0.463304
O O11 0.944214 0.500000 0.097522
O O12 0.909581 0.751849 0.158406
O O13 0.000000 0.714969 0.000000
O O14 0.052160 0.000000 0.813216
#
# Coordination Sequence:
#
# PCOD8096955 Si02
#       5
#     8   8   8   8   8
#     4  10  20  34  52  73 100 135 174 216 262 305
#     4   9  19  35  52  77 110 137 170 213 258 308
#     4   9  18  34  58  82 104 136 173 208 254 313
#     4  10  20  34  52  75 101 133 176 223 263 302
#     4  10  21  35  52  75 105 141 175 214 261 311
#
# _framework density 17.510736000000001
#
# number of rings (size 3 to 8) (size 9 to 14) (size 15 to 20)
#    0.000    2.400    2.000    0.000    0.000    4.000 
#    0.000    4.000    0.000    0.000    0.000    0.000 
#    0.000    0.000    0.000    0.000    0.000    0.000 
#
# Total GULP energy -248035.230968 kJ/mol
# GULP energy per Si atom -12401.761548 kJ/mol
# Density = 1.747088 g / cm^3
# Si number density = 17.510736 Si / 1000 Ang^3
#
#
#
# Elastic Constant Matrix: (Units=GPa)
#
#
# Indices 1 2 3 4 5 6 
#
# 1 120.7680 50.5919 66.7023 0.0000 -14.2661 0.0000
# 2 50.5919 61.6603 64.9729 0.0000 -4.5537 0.0000
# 3 66.7023 64.9729 153.4902 0.0000 -9.2494 0.0000
# 4 0.0000 0.0000 0.0000 30.7570 0.0000 0.8434
# 5 -14.2661 -4.5537 -9.2494 0.0000 25.2050 0.0000
# 6 0.0000 0.0000 0.0000 0.8434 0.0000 30.7187
#
#
#
# Elastic Compliance Matrix: (Units=1/GPa)
#
#
# Indices 1 2 3 4 5 6 
#
# 1 0.013656 -0.008836 -0.001866 0.000000 0.005448 0.000000
# 2 -0.008836 0.035009 -0.011146 0.000000 -0.002767 0.000000
# 3 -0.001866 -0.011146 0.012127 0.000000 0.001381 0.000000
# 4 0.000000 0.000000 0.000000 0.032537 0.000000 -0.000893
# 5 0.005448 -0.002767 0.001381 0.000000 0.042765 0.000000
# 6 0.000000 0.000000 0.000000 -0.000893 0.000000 0.032578
#
#
# Mechanical properties :
#
#
# Convention : Reuss Voigt Hill
#
# Bulk Modulus (GPa) = 58.49438 77.82810 68.16124
# Shear Modulus (GPa) = 22.92871 27.57956 25.25413
#
# Velocity S-wave (km/s) = 3.62250 3.97294 3.80176
# Velocity P-wave (km/s) = 7.13961 8.09865 7.63421
#
# Compressibility (1/GPa) = 0.01709566
#
# Stress axis : x y z
#
# Youngs Moduli (GPa) = 73.22688 28.56448 82.45954
#
# Poissons Ratio (x) = 0.25241 0.15385
# Poissons Ratio (y) = 0.64707 0.91908
# Poissons Ratio (z) = 0.13662 0.31838
#
# Static dielectric constant tensor:
#      x y z
#    x 3.304770 0.000000 -0.066200 
#    y 0.000000 3.296740 0.000000 
#    z -0.066200 0.000000 3.213860 
# 
# 
# High freq. dielectric constant tensor:
#      x y z
#    x 1.681220 0.000000 -0.005640 
#    y 0.000000 1.675290 0.000000 
#    z -0.005640 0.000000 1.673850 
# 
# From -- ./inp_files/203018.got.cif
#   From: 2010.06.25/outbox.cif.g09.slc.cpg/sg12_102_cif.got.tgz:203018.got - 2010.06.28 00:19:55.
