data_PCOD8096531
_publ_section_title
;
Structure prediction by ZEFSAII (Michael W. Deem and Ramdas Pophale) SiO2 
 PCOD8096531
Probable space group: C 2/M
;
_chemical_formula_sum "Si O2"
_cell_formula_units_Z 64
_cell_length_a 17.054011
_cell_length_b 13.892695
_cell_length_c 24.972832
_cell_angle_alpha 90.000000
_cell_angle_beta 144.397837
_cell_angle_gamma 90.000000
_cell_volume 3444.438794
_symmetry_space_group_name_H-M "C 2/M"
_symmetry_group_IT_number 12
_symmetry_cell_setting 'monoclinic'
loop_
_space_group_symop_operation_xyz
x,y,z
-x,y,-z
-x,-y,-z
x,-y,z
1/2+x,1/2+y,z
1/2-x,1/2+y,-z
1/2-x,1/2-y,-z
1/2+x,1/2-y,z
loop_
_atom_site_type_symbol
_atom_site_label
_atom_site_fract_x
_atom_site_fract_y
_atom_site_fract_z
Si Si1 0.538487 0.889304 0.081469
Si Si2 0.594557 0.215502 0.805474
Si Si3 0.704816 0.611629 0.710672
Si Si4 0.622529 0.611246 0.028770
Si Si5 0.595404 0.733382 0.919666
Si Si6 0.788326 0.611895 0.532962
Si Si7 0.662672 0.891313 0.321750
Si Si8 0.971411 0.216131 0.632601
O O1 0.697099 0.877912 0.183032
O O2 0.460904 0.827687 0.082347
O O3 0.492761 0.000000 0.063183
O O4 0.500000 0.853914 0.000000
O O5 0.748184 0.177945 0.886373
O O6 0.550566 0.278479 0.833205
O O7 0.494875 0.124848 0.753943
O O8 0.559286 0.280932 0.735361
O O9 0.662589 0.500000 0.680522
O O10 0.774890 0.659231 0.696486
O O11 0.570048 0.674412 0.642413
O O12 0.663941 0.500000 0.054987
O O13 0.500000 0.636134 0.000000
O O14 0.566715 0.637384 0.938489
O O15 0.750000 0.750000 0.000000
O O16 0.822879 0.500000 0.541177
O O17 0.758238 0.632869 0.579370
O O18 0.914972 0.677987 0.584595
O O19 0.654113 0.643895 0.427174
O O20 0.678945 0.000000 0.314327
#
# Coordination Sequence:
#
# PCOD8096531 Si02
#       8
#     8   8   8   8   8   8   8   8
#     4  10  21  35  54  79 112 147 177 221 278 325
#     4  10  20  34  54  78 106 143 185 224 270 317
#     4  10  20  33  54  85 114 141 176 224 273 321
#     4  10  22  37  53  74 104 146 189 230 264 302
#     4  10  21  33  53  76 104 145 186 225 263 312
#     4   9  19  38  59  82 111 140 176 218 272 333
#     4   9  17  32  56  82 107 137 176 226 277 324
#     4  10  21  34  56  85 110 142 174 220 275 325
#
# _framework density 18.580674999999999
#
# number of rings (size 3 to 8) (size 9 to 14) (size 15 to 20)
#    0.000    2.250    1.250    1.125    5.250    3.000 
#    0.000    3.125    0.000    0.000    0.000   12.250 
#    0.000    0.000    0.000    0.000    0.000    0.000 
#
# Total GULP energy -396436.944559 kJ/mol
# GULP energy per Si atom -12388.654517 kJ/mol
# Density = 1.853838 g / cm^3
# Si number density = 18.580675 Si / 1000 Ang^3
#
#
#
# Elastic Constant Matrix: (Units=GPa)
#
#
# Indices 1 2 3 4 5 6 
#
# 1 105.0513 42.7379 38.9222 0.0000 13.3475 0.0000
# 2 42.7379 73.5168 40.7865 0.0000 8.6857 0.0000
# 3 38.9222 40.7865 82.1991 0.0003 3.6921 0.0001
# 4 0.0000 0.0000 0.0003 23.4546 0.0001 7.6892
# 5 13.3475 8.6857 3.6921 0.0001 26.1129 0.0000
# 6 0.0000 0.0000 0.0001 7.6892 0.0000 24.9369
#
#
#
# Elastic Compliance Matrix: (Units=1/GPa)
#
#
# Indices 1 2 3 4 5 6 
#
# 1 0.013628 -0.005391 -0.003568 0.000000 -0.004668 0.000000
# 2 -0.005391 0.021562 -0.007999 0.000000 -0.003285 0.000000
# 3 -0.003568 -0.007999 0.017735 0.000000 0.001977 0.000000
# 4 0.000000 0.000000 0.000000 0.047430 0.000000 -0.014625
# 5 -0.004668 -0.003285 0.001977 0.000000 0.041495 0.000000
# 6 0.000000 0.000000 0.000000 -0.014625 0.000000 0.044611
#
#
# Mechanical properties :
#
#
# Convention : Reuss Voigt Hill
#
# Bulk Modulus (GPa) = 52.60622 56.18449 54.39536
# Shear Modulus (GPa) = 22.05439 24.12224 23.08832
#
# Velocity S-wave (km/s) = 3.44896 3.60702 3.52888
# Velocity P-wave (km/s) = 6.65088 6.90299 6.77811
#
# Compressibility (1/GPa) = 0.01900916
#
# Stress axis : x y z
#
# Youngs Moduli (GPa) = 73.38100 46.37774 56.38516
#
# Poissons Ratio (x) = 0.25003 0.20119
# Poissons Ratio (y) = 0.39560 0.45100
# Poissons Ratio (z) = 0.26183 0.37096
#
# Static dielectric constant tensor:
#      x y z
#    x 3.146960 0.000000 0.191220 
#    y 0.000000 3.461860 0.000000 
#    z 0.191220 0.000000 3.185320 
# 
# 
# High freq. dielectric constant tensor:
#      x y z
#    x 1.717570 0.000000 -0.000720 
#    y 0.000000 1.702920 0.000000 
#    z -0.000720 0.000000 1.724150 
# 
# From -- ./inp_files/340192.got.cif
#   From: 2010.06.25/outbox.cif.g09.slc.cpg/sg12_171_cif.got.tgz:340192.got - 2010.06.28 00:19:55.
