data_PCOD8096089
_publ_section_title
;
Structure prediction by ZEFSAII (Michael W. Deem and Ramdas Pophale) SiO2 
 PCOD8096089
Probable space group: C 2/M
;
_chemical_formula_sum "Si O2"
_cell_formula_units_Z 40
_cell_length_a 19.155683
_cell_length_b 8.809801
_cell_length_c 27.154316
_cell_angle_alpha 90.000000
_cell_angle_beta 151.894268
_cell_angle_gamma 90.000000
_cell_volume 2158.817006
_symmetry_space_group_name_H-M "C 2/M"
_symmetry_group_IT_number 12
_symmetry_cell_setting 'monoclinic'
loop_
_space_group_symop_operation_xyz
x,y,z
-x,y,-z
-x,-y,-z
x,-y,z
1/2+x,1/2+y,z
1/2-x,1/2+y,-z
1/2-x,1/2-y,-z
1/2+x,1/2-y,z
loop_
_atom_site_type_symbol
_atom_site_label
_atom_site_fract_x
_atom_site_fract_y
_atom_site_fract_z
Si Si1 0.150285 0.675970 0.180561
Si Si2 0.822302 0.179669 0.193335
Si Si3 0.827891 0.320526 0.001648
Si Si4 0.591922 0.821213 0.410554
Si Si5 0.450190 0.323559 0.415197
O O1 0.118290 0.500000 0.152696
O O2 0.208003 0.740490 0.164032
O O3 0.273947 0.705179 0.299484
O O4 0.994148 0.749267 0.099925
O O5 0.980551 0.258150 0.299769
O O6 0.843795 0.000000 0.212371
O O7 0.762960 0.227182 0.103247
O O8 0.830979 0.500000 0.010356
O O9 0.750000 0.250000 0.000000
O O10 0.750000 0.750000 0.500000
O O11 0.539324 0.777382 0.432276
O O12 0.602121 0.000000 0.411799
O O13 0.500000 0.271067 0.500000
O O14 0.487675 0.500000 0.428839
#
# Coordination Sequence:
#
# PCOD8096089 Si02
#       5
#     8   8   8   8   8
#     4   8  15  31  54  75  98 134 178 214 248 300
#     4   9  18  35  56  75  98 135 183 224 259 308
#     4  10  20  33  51  77 107 138 173 217 266 314
#     4  11  22  36  55  79 108 140 176 219 267 319
#     4   9  18  34  56  81 108 140 178 217 261 317
#
# _framework density 18.528665
#
# number of rings (size 3 to 8) (size 9 to 14) (size 15 to 20)
#    0.000    2.600    0.000    3.600    0.000    5.200 
#    0.000    6.000    0.000    6.000    0.000    0.000 
#    0.000    0.000    0.000    0.000    0.000    0.000 
#
# Total GULP energy -247971.218562 kJ/mol
# GULP energy per Si atom -12398.560928 kJ/mol
# Density = 1.848649 g / cm^3
# Si number density = 18.528665 Si / 1000 Ang^3
#
#
#
# Elastic Constant Matrix: (Units=GPa)
#
#
# Indices 1 2 3 4 5 6 
#
# 1 125.4436 36.7681 106.1618 0.0002 -1.2402 0.0000
# 2 36.7681 59.6136 54.5744 -0.0007 2.6369 0.0000
# 3 106.1618 54.5744 176.2760 0.0041 4.6795 0.0000
# 4 0.0002 -0.0007 0.0041 23.4734 0.0002 0.8364
# 5 -1.2402 2.6369 4.6795 0.0002 43.2149 -0.0002
# 6 0.0000 0.0000 0.0000 0.8364 -0.0002 30.4533
#
#
#
# Elastic Compliance Matrix: (Units=1/GPa)
#
#
# Indices 1 2 3 4 5 6 
#
# 1 0.016461 -0.001548 -0.009477 0.000001 0.001593 0.000000
# 2 -0.001548 0.023573 -0.006345 0.000002 -0.000796 0.000000
# 3 -0.009477 -0.006345 0.013380 -0.000002 -0.001334 0.000000
# 4 0.000001 0.000002 -0.000002 0.042643 0.000000 -0.001171
# 5 0.001593 -0.000796 -0.001334 0.000000 0.023379 0.000000
# 6 0.000000 0.000000 0.000000 -0.001171 0.000000 0.032869
#
#
# Mechanical properties :
#
#
# Convention : Reuss Voigt Hill
#
# Bulk Modulus (GPa) = 53.54597 84.03797 68.79197
# Shear Modulus (GPa) = 25.87052 30.35023 28.11037
#
# Velocity S-wave (km/s) = 3.74069 4.05163 3.89926
# Velocity P-wave (km/s) = 6.90063 8.20620 7.58157
#
# Compressibility (1/GPa) = 0.01867554
#
# Stress axis : x y z
#
# Youngs Moduli (GPa) = 60.74843 42.42141 74.73731
#
# Poissons Ratio (x) = 0.06565 0.70828
# Poissons Ratio (y) = 0.09401 0.47421
# Poissons Ratio (z) = 0.57571 0.26916
#
# Static dielectric constant tensor:
#      x y z
#    x 3.492050 0.000000 0.100350 
#    y 0.000000 3.129740 0.000000 
#    z 0.100350 0.000000 3.768850 
# 
# 
# High freq. dielectric constant tensor:
#      x y z
#    x 1.715790 0.000000 0.000900 
#    y 0.000000 1.689260 0.000000 
#    z 0.000900 0.000000 1.735340 
# 
# From -- ./inp_files/273944.got.cif
#   From: 2010.06.25/outbox.cif.g09.slc.cpg/sg12_137_cif.got.tgz:273944.got - 2010.06.28 00:19:55.
