data_PCOD8096051
_publ_section_title
;
Structure prediction by ZEFSAII (Michael W. Deem and Ramdas Pophale) SiO2 
 PCOD8096051
Probable space group: C 2/M
;
_chemical_formula_sum "Si O2"
_cell_formula_units_Z 52
_cell_length_a 9.068190
_cell_length_b 30.666256
_cell_length_c 13.075880
_cell_angle_alpha 90.000000
_cell_angle_beta 50.721452
_cell_angle_gamma 90.000000
_cell_volume 2814.729243
_symmetry_space_group_name_H-M "C 2/M"
_symmetry_group_IT_number 12
_symmetry_cell_setting 'monoclinic'
loop_
_space_group_symop_operation_xyz
x,y,z
-x,y,-z
-x,-y,-z
x,-y,z
1/2+x,1/2+y,z
1/2-x,1/2+y,-z
1/2-x,1/2-y,-z
1/2+x,1/2-y,z
loop_
_atom_site_type_symbol
_atom_site_label
_atom_site_fract_x
_atom_site_fract_y
_atom_site_fract_z
Si Si1 0.412605 0.737609 0.817743
Si Si2 0.699014 0.329193 0.629599
Si Si3 0.016183 0.500000 0.662148
Si Si4 0.500000 0.247232 0.000000
Si Si5 0.024747 0.915440 0.649093
Si Si6 0.190749 0.000000 0.653069
Si Si7 0.677201 0.085853 0.665730
Si Si8 0.499076 0.172278 0.676167
O O1 0.556178 0.711074 0.685717
O O2 0.453818 0.788708 0.775250
O O3 0.196269 0.721847 0.886251
O O4 0.446861 0.725318 0.921981
O O5 0.572871 0.372491 0.691485
O O6 0.815189 0.321082 0.475030
O O7 0.822428 0.331299 0.677521
O O8 0.802223 0.500000 0.711640
O O9 0.162352 0.500000 0.504546
O O10 0.046288 0.542730 0.718840
O O11 0.803365 0.913864 0.713226
O O12 0.056300 0.957636 0.706058
O O13 0.172548 0.916010 0.491510
O O14 0.536632 0.127704 0.722760
#
# Coordination Sequence:
#
# PCOD8096051 Si02
#       8
#     8   8   4   4   8   4   8   8
#     4  11  21  40  54  76  99 135 170 220 254 307
#     4  10  20  33  51  76 106 137 168 207 259 313
#     4   9  15  25  41  61  95 138 171 200 239 295
#     4  10  24  38  58  70  96 132 180 216 260 294
#     4   9  17  27  42  67  99 134 170 204 244 298
#     4   9  15  25  41  61  95 138 171 200 239 295
#     4   9  17  27  42  67  99 134 170 204 244 298
#     4  10  20  33  51  76 106 137 168 207 259 313
#
# _framework density 18.474245
#
# number of rings (size 3 to 8) (size 9 to 14) (size 15 to 20)
#    0.000    2.308    1.538    1.846    2.154    5.538 
#    0.000    0.000    0.000    0.000    0.000    0.000 
#    0.000    7.385    0.000    0.000    0.000    0.000 
#
# Total GULP energy -322155.328550 kJ/mol
# GULP energy per Si atom -12390.589560 kJ/mol
# Density = 1.843220 g / cm^3
# Si number density = 18.474245 Si / 1000 Ang^3
#
#
#
# Elastic Constant Matrix: (Units=GPa)
#
#
# Indices 1 2 3 4 5 6 
#
# 1 115.4784 55.8762 40.0999 0.0000 -23.5540 0.0000
# 2 55.8762 141.1716 37.3734 0.0000 -12.7933 0.0000
# 3 40.0999 37.3734 43.6644 0.0000 -15.0923 0.0000
# 4 0.0000 0.0000 0.0000 1.5744 0.0000 -6.0592
# 5 -23.5540 -12.7933 -15.0923 0.0000 25.7558 0.0000
# 6 0.0000 0.0000 0.0000 -6.0592 0.0000 28.8819
#
#
#
# Elastic Compliance Matrix: (Units=1/GPa)
#
#
# Indices 1 2 3 4 5 6 
#
# 1 0.014327 -0.002836 -0.008387 0.000000 0.006779 0.000000
# 2 -0.002836 0.009720 -0.006198 0.000000 -0.001397 0.000000
# 3 -0.008387 -0.006198 0.040371 0.000000 0.012908 0.000000
# 4 0.000000 0.000000 0.000000 3.297266 0.000000 0.691737
# 5 0.006779 -0.001397 0.012908 0.000000 0.051895 0.000000
# 6 0.000000 0.000000 0.000000 0.691737 0.000000 0.179744
#
#
# Mechanical properties :
#
#
# Convention : Reuss Voigt Hill
#
# Bulk Modulus (GPa) = 33.81155 63.00150 48.40653
# Shear Modulus (GPa) = 1.37437 22.37341 11.87389
#
# Velocity S-wave (km/s) = 0.86346 3.48380 2.53796
# Velocity P-wave (km/s) = 4.39725 7.09640 5.90316
#
# Compressibility (1/GPa) = 0.02957569
#
# Stress axis : x y z
#
# Youngs Moduli (GPa) = 69.79867 102.87648 24.77027
#
# Poissons Ratio (x) = 0.29176 0.20774
# Poissons Ratio (y) = 0.19795 0.15354
# Poissons Ratio (z) = 0.58539 0.63767
#
# Static dielectric constant tensor:
#      x y z
#    x 3.636310 0.000000 -0.256320 
#    y 0.000000 3.447030 0.000000 
#    z -0.256320 0.000000 2.991050 
# 
# 
# High freq. dielectric constant tensor:
#      x y z
#    x 1.736400 0.000000 -0.021020 
#    y 0.000000 1.711110 0.000000 
#    z -0.021020 0.000000 1.658820 
# 
# From -- ./inp_files/124803.got.cif
#   From: 2010.06.25/outbox.cif.g09.slc.cpg/sg12_63_cif.got.tgz:124803.got - 2010.06.28 00:19:55.
