data_PCOD8096896
_publ_section_title
;
Structure prediction by ZEFSAII (Michael W. Deem and Ramdas Pophale) SiO2 
 PCOD8096896
Probable space group: C 2/M
;
_chemical_formula_sum "Si O2"
_cell_formula_units_Z 48
_cell_length_a 27.126887
_cell_length_b 8.738664
_cell_length_c 11.922717
_cell_angle_alpha 90.000000
_cell_angle_beta 72.303136
_cell_angle_gamma 90.000000
_cell_volume 2692.566426
_symmetry_space_group_name_H-M "C 2/M"
_symmetry_group_IT_number 12
_symmetry_cell_setting 'monoclinic'
loop_
_space_group_symop_operation_xyz
x,y,z
-x,y,-z
-x,-y,-z
x,-y,z
1/2+x,1/2+y,z
1/2-x,1/2+y,-z
1/2-x,1/2-y,-z
1/2+x,1/2-y,z
loop_
_atom_site_type_symbol
_atom_site_label
_atom_site_fract_x
_atom_site_fract_y
_atom_site_fract_z
Si Si1 0.677407 0.817525 0.773678
Si Si2 0.715290 0.327769 0.381884
Si Si3 0.869948 0.817684 0.395278
Si Si4 0.804722 0.818816 0.999992
Si Si5 0.867668 0.172301 0.746014
Si Si6 0.559160 0.821778 0.474076
O O1 0.729296 0.749581 0.678030
O O2 0.629986 0.757867 0.728720
O O3 0.673911 0.747764 0.898991
O O4 0.677283 0.000000 0.783471
O O5 0.725711 0.500000 0.412599
O O6 0.680664 0.250816 0.503387
O O7 0.685310 0.320773 0.286032
O O8 0.919983 0.768780 0.431805
O O9 0.869831 0.000000 0.386824
O O10 0.797436 0.000000 0.012746
O O11 0.750000 0.750000 0.000000
O O12 0.850808 0.774977 0.881673
O O13 0.910829 0.281116 0.661693
O O14 0.890129 0.000000 0.729955
O O15 0.500000 0.773615 0.500000
O O16 0.565630 0.000000 0.493734
#
# Coordination Sequence:
#
# PCOD8096896 Si02
#       6
#     8   8   8   8   8   8
#     4  11  20  32  49  73 108 146 180 215 258 306
#     4   8  15  29  47  70 102 137 173 212 250 299
#     4  10  20  34  51  75 105 138 177 216 262 316
#     4  11  21  34  51  75 108 147 186 219 253 303
#     4   9  18  34  53  76 106 139 180 219 255 308
#     4  10  21  37  58  83 106 130 168 220 275 323
#
# _framework density 17.826858000000001
#
# number of rings (size 3 to 8) (size 9 to 14) (size 15 to 20)
#    0.000    2.167    1.667    3.500    0.000    2.667 
#    0.000    1.667    0.000    1.000    0.000    7.000 
#    0.000    0.000    0.000    0.000    0.000    0.000 
#
# Total GULP energy -297474.893050 kJ/mol
# GULP energy per Si atom -12394.787210 kJ/mol
# Density = 1.778628 g / cm^3
# Si number density = 17.826858 Si / 1000 Ang^3
#
#
#
# Elastic Constant Matrix: (Units=GPa)
#
#
# Indices 1 2 3 4 5 6 
#
# 1 81.7323 36.2539 59.1514 0.0000 1.2016 0.0000
# 2 36.2539 73.0840 48.2427 0.0000 3.5169 0.0000
# 3 59.1514 48.2427 133.4022 0.0000 23.9265 0.0000
# 4 0.0000 0.0000 0.0000 31.2159 0.0000 3.5056
# 5 1.2016 3.5169 23.9265 0.0000 16.1395 0.0000
# 6 0.0000 0.0000 0.0000 3.5056 0.0000 24.5974
#
#
#
# Elastic Compliance Matrix: (Units=1/GPa)
#
#
# Indices 1 2 3 4 5 6 
#
# 1 0.021807 -0.004403 -0.010840 0.000000 0.015406 0.000000
# 2 -0.004403 0.019612 -0.006037 0.000000 0.005005 0.000000
# 3 -0.010840 -0.006037 0.019214 0.000000 -0.026362 0.000000
# 4 0.000000 0.000000 0.000000 0.032556 0.000000 -0.004640
# 5 0.015406 0.005005 -0.026362 0.000000 0.098804 0.000000
# 6 0.000000 0.000000 0.000000 -0.004640 0.000000 0.041316
#
#
# Mechanical properties :
#
#
# Convention : Reuss Voigt Hill
#
# Bulk Modulus (GPa) = 55.33689 63.94606 59.64148
# Shear Modulus (GPa) = 17.73715 24.02858 20.88286
#
# Velocity S-wave (km/s) = 3.15773 3.67534 3.42632
# Velocity P-wave (km/s) = 6.66361 7.34570 7.01295
#
# Compressibility (1/GPa) = 0.01807113
#
# Stress axis : x y z
#
# Youngs Moduli (GPa) = 45.85680 50.99017 52.04460
#
# Poissons Ratio (x) = 0.22453 0.56417
# Poissons Ratio (y) = 0.20192 0.31421
# Poissons Ratio (z) = 0.49710 0.30785
#
# Static dielectric constant tensor:
#      x y z
#    x 3.103780 0.000000 0.046610 
#    y 0.000000 3.212490 0.000000 
#    z 0.046610 0.000000 3.468590 
# 
# 
# High freq. dielectric constant tensor:
#      x y z
#    x 1.658680 0.000000 0.011430 
#    y 0.000000 1.687190 0.000000 
#    z 0.011430 0.000000 1.693800 
# 
# From -- ./inp_files/172270.got.cif
#   From: 2010.06.25/outbox.cif.g09.slc.cpg/sg12_87_cif.got.tgz:172270.got - 2010.06.28 00:19:55.
