data_PCOD8096398
_publ_section_title
;
Structure prediction by ZEFSAII (Michael W. Deem and Ramdas Pophale) SiO2 
 PCOD8096398
Probable space group: C 2/M
;
_chemical_formula_sum "Si O2"
_cell_formula_units_Z 56
_cell_length_a 27.886140
_cell_length_b 9.272058
_cell_length_c 19.209052
_cell_angle_alpha 90.000000
_cell_angle_beta 38.046055
_cell_angle_gamma 90.000000
_cell_volume 3060.968779
_symmetry_space_group_name_H-M "C 2/M"
_symmetry_group_IT_number 12
_symmetry_cell_setting 'monoclinic'
loop_
_space_group_symop_operation_xyz
x,y,z
-x,y,-z
-x,-y,-z
x,-y,z
1/2+x,1/2+y,z
1/2-x,1/2+y,-z
1/2-x,1/2-y,-z
1/2+x,1/2-y,z
loop_
_atom_site_type_symbol
_atom_site_label
_atom_site_fract_x
_atom_site_fract_y
_atom_site_fract_z
Si Si1 0.390536 0.168592 0.912979
Si Si2 0.450439 0.334646 0.420880
Si Si3 0.206732 0.830549 0.611383
Si Si4 0.459651 0.335472 0.250179
Si Si5 0.220682 0.164413 0.347209
Si Si6 0.239565 0.166085 0.167493
Si Si7 0.398516 0.830268 0.743510
O O1 0.467186 0.241082 0.858005
O O2 0.380444 0.212328 0.843957
O O3 0.401783 0.000000 0.909706
O O4 0.315056 0.224000 0.040401
O O5 0.475422 0.500000 0.404055
O O6 0.435889 0.300364 0.356527
O O7 0.370855 0.297387 0.551717
O O8 0.518235 0.234259 0.374218
O O9 0.250000 0.750000 0.500000
O O10 0.114611 0.799528 0.712444
O O11 0.234478 0.772775 0.653843
O O12 0.224628 0.000000 0.584509
O O13 0.485500 0.500000 0.212632
O O14 0.256447 0.183095 0.229901
O O15 0.230590 0.000000 0.363157
O O16 0.166893 0.263060 0.230152
O O17 0.221760 0.000000 0.168315
O O18 0.400410 0.000000 0.729851
#
# Coordination Sequence:
#
# PCOD8096398 Si02
#       7
#     8   8   8   8   8   8   8
#     4   9  19  35  55  80 105 137 182 225 264 311
#     4   9  17  33  53  75 105 137 175 216 263 320
#     4  11  21  35  57  84 111 139 176 218 265 319
#     4   9  18  33  54  80 106 135 173 217 263 314
#     4  10  21  37  55  78 108 143 181 219 265 321
#     4  10  21  37  55  75 106 145 182 220 266 320
#     4  10  20  33  53  80 107 135 179 227 269 315
#
# _framework density 18.294861999999998
#
# number of rings (size 3 to 8) (size 9 to 14) (size 15 to 20)
#    0.000    2.286    1.429    1.286    0.000    4.000 
#    0.000    3.571    0.000    4.286    0.000    0.000 
#    0.000    0.000    0.000    0.000    0.000    0.000 
#
# Total GULP energy -347295.168666 kJ/mol
# GULP energy per Si atom -12403.398881 kJ/mol
# Density = 1.825322 g / cm^3
# Si number density = 18.294862 Si / 1000 Ang^3
#
#
#
# Elastic Constant Matrix: (Units=GPa)
#
#
# Indices 1 2 3 4 5 6 
#
# 1 90.9892 53.4689 27.9088 0.0083 -13.4877 -0.0012
# 2 53.4689 76.6798 23.1533 0.0253 -9.9888 -0.0146
# 3 27.9088 23.1533 50.5741 0.0125 -4.8281 -0.0032
# 4 0.0083 0.0253 0.0125 24.7992 -0.0091 -6.2844
# 5 -13.4877 -9.9888 -4.8281 -0.0091 22.4073 0.0044
# 6 -0.0012 -0.0146 -0.0032 -6.2844 0.0044 37.0314
#
#
#
# Elastic Compliance Matrix: (Units=1/GPa)
#
#
# Indices 1 2 3 4 5 6 
#
# 1 0.020492 -0.011927 -0.005287 0.000009 0.005879 -0.000004
# 2 -0.011927 0.022734 -0.003618 -0.000015 0.002175 0.000005
# 3 -0.005287 -0.003618 0.024391 -0.000007 0.000460 -0.000001
# 4 0.000009 -0.000015 -0.000007 0.042136 0.000013 0.007151
# 5 0.005879 0.002175 0.000460 0.000013 0.049236 -0.000003
# 6 -0.000004 0.000005 -0.000001 0.007151 -0.000003 0.028218
#
#
# Mechanical properties :
#
#
# Convention : Reuss Voigt Hill
#
# Bulk Modulus (GPa) = 38.53180 47.47834 43.00507
# Shear Modulus (GPa) = 21.05069 24.42837 22.73953
#
# Velocity S-wave (km/s) = 3.39578 3.65808 3.52937
# Velocity P-wave (km/s) = 6.04006 6.62195 6.33769
#
# Compressibility (1/GPa) = 0.02595259
#
# Stress axis : x y z
#
# Youngs Moduli (GPa) = 48.79903 43.98709 40.99888
#
# Poissons Ratio (x) = 0.52464 0.21676
# Poissons Ratio (y) = 0.58203 0.14835
# Poissons Ratio (z) = 0.25799 0.15916
#
# Static dielectric constant tensor:
#      x y z
#    x 3.275240 0.000000 -0.123750 
#    y 0.000000 3.365570 0.000010 
#    z -0.123750 0.000010 3.405920 
# 
# 
# High freq. dielectric constant tensor:
#      x y z
#    x 1.701510 0.000000 -0.011660 
#    y 0.000000 1.708830 0.000000 
#    z -0.011660 0.000000 1.704010 
# 
# From -- ./inp_files/238431.got.cif
#   From: 2010.06.25/outbox.cif.g09.slc.cpg/sg12_120_cif.got.tgz:238431.got - 2010.06.28 00:19:55.
