data_PCOD8096771
_publ_section_title
;
Structure prediction by ZEFSAII (Michael W. Deem and Ramdas Pophale) SiO2 
 PCOD8096771
Probable space group: C 2/M
;
_chemical_formula_sum "Si O2"
_cell_formula_units_Z 56
_cell_length_a 29.565503
_cell_length_b 9.124950
_cell_length_c 11.732423
_cell_angle_alpha 90.000000
_cell_angle_beta 109.379454
_cell_angle_gamma 90.000000
_cell_volume 2985.881134
_symmetry_space_group_name_H-M "C 2/M"
_symmetry_group_IT_number 12
_symmetry_cell_setting 'monoclinic'
loop_
_space_group_symop_operation_xyz
x,y,z
-x,y,-z
-x,-y,-z
x,-y,z
1/2+x,1/2+y,z
1/2-x,1/2+y,-z
1/2-x,1/2-y,-z
1/2+x,1/2-y,z
loop_
_atom_site_type_symbol
_atom_site_label
_atom_site_fract_x
_atom_site_fract_y
_atom_site_fract_z
Si Si1 0.452463 0.168190 0.517588
Si Si2 0.291450 0.667905 0.402409
Si Si3 0.579709 0.331378 0.877174
Si Si4 0.815660 0.328889 0.647173
Si Si5 0.374316 0.331868 0.315424
Si Si6 0.980141 0.330785 0.795706
Si Si7 0.100987 0.830320 0.148180
O O1 0.500000 0.237640 0.500000
O O2 0.406067 0.247491 0.432870
O O3 0.453273 0.188136 0.653464
O O4 0.448856 0.000000 0.477540
O O5 0.297224 0.500000 0.448423
O O6 0.235570 0.704055 0.336456
O O7 0.314817 0.770847 0.517639
O O8 0.318927 0.695524 0.305438
O O9 0.563227 0.500000 0.849884
O O10 0.616055 0.282105 0.806573
O O11 0.533553 0.229406 0.831462
O O12 0.607977 0.309603 0.018779
O O13 0.828303 0.500000 0.654725
O O14 0.855523 0.248290 0.753564
O O15 0.388350 0.500000 0.340557
O O16 0.982565 0.500000 0.834714
O O17 0.950125 0.241023 0.863527
O O18 0.100141 0.000000 0.182966
#
# Coordination Sequence:
#
# PCOD8096771 Si02
#       7
#     8   8   8   8   8   8   8
#     4  10  20  34  50  75 110 140 168 213 268 314
#     4   9  19  36  59  85 111 139 172 218 271 322
#     4  10  22  38  54  75 107 146 183 221 264 315
#     4  10  20  36  58  84 111 138 175 221 269 319
#     4  10  20  35  56  80 106 141 182 218 261 317
#     4  11  22  36  56  80 107 141 181 224 269 318
#     4  11  23  38  55  76 107 144 183 224 267 315
#
# _framework density 18.754933000000001
#
# number of rings (size 3 to 8) (size 9 to 14) (size 15 to 20)
#    0.000    1.857    1.429    2.571    0.000    7.714 
#    0.000    0.714    0.000    0.000    0.000    0.000 
#    0.000    0.000    0.000    0.000    0.000    0.000 
#
# Total GULP energy -347252.974014 kJ/mol
# GULP energy per Si atom -12401.891929 kJ/mol
# Density = 1.871225 g / cm^3
# Si number density = 18.754933 Si / 1000 Ang^3
#
#
#
# Elastic Constant Matrix: (Units=GPa)
#
#
# Indices 1 2 3 4 5 6 
#
# 1 133.0325 52.4144 50.7597 0.0000 -13.6654 0.0000
# 2 52.4144 97.6362 48.7783 0.0000 -2.2541 0.0000
# 3 50.7597 48.7783 75.7909 0.0000 -10.3115 0.0000
# 4 0.0000 0.0000 0.0000 11.0189 0.0000 -0.6575
# 5 -13.6654 -2.2541 -10.3115 0.0000 23.9947 0.0000
# 6 0.0000 0.0000 0.0000 -0.6575 0.0000 27.4937
#
#
#
# Elastic Compliance Matrix: (Units=1/GPa)
#
#
# Indices 1 2 3 4 5 6 
#
# 1 0.011082 -0.003569 -0.004580 0.000000 0.004008 0.000000
# 2 -0.003569 0.016441 -0.008771 0.000000 -0.004257 0.000000
# 3 -0.004580 -0.008771 0.022771 0.000000 0.006353 0.000000
# 4 0.000000 0.000000 0.000000 0.090883 0.000000 0.002173
# 5 0.004008 -0.004257 0.006353 0.000000 0.046289 0.000000
# 6 0.000000 0.000000 0.000000 0.002173 0.000000 0.036424
#
#
# Mechanical properties :
#
#
# Convention : Reuss Voigt Hill
#
# Bulk Modulus (GPa) = 60.76979 67.81825 64.29402
# Shear Modulus (GPa) = 18.99597 22.80196 20.89897
#
# Velocity S-wave (km/s) = 3.18599 3.49059 3.34176
# Velocity P-wave (km/s) = 6.78280 7.24461 7.01751
#
# Compressibility (1/GPa) = 0.01645554
#
# Stress axis : x y z
#
# Youngs Moduli (GPa) = 90.23408 60.82247 43.91612
#
# Poissons Ratio (x) = 0.21705 0.20114
# Poissons Ratio (y) = 0.32201 0.38517
# Poissons Ratio (z) = 0.41329 0.53345
#
# Static dielectric constant tensor:
#      x y z
#    x 3.650590 0.000000 -0.207510 
#    y 0.000000 3.535000 0.000000 
#    z -0.207510 0.000000 3.347480 
# 
# 
# High freq. dielectric constant tensor:
#      x y z
#    x 1.735980 0.000000 -0.010390 
#    y 0.000000 1.733700 0.000000 
#    z -0.010390 0.000000 1.715190 
# 
# From -- ./inp_files/180829.got.cif
#   From: 2010.06.25/outbox.cif.g09.slc.cpg/sg12_91_cif.got.tgz:180829.got - 2010.06.28 00:19:55.
