data_PCOD8096359
_publ_section_title
;
Structure prediction by ZEFSAII (Michael W. Deem and Ramdas Pophale) SiO2 
 PCOD8096359
Probable space group: C 2/M
;
_chemical_formula_sum "Si O2"
_cell_formula_units_Z 56
_cell_length_a 19.165857
_cell_length_b 9.018731
_cell_length_c 19.808390
_cell_angle_alpha 90.000000
_cell_angle_beta 66.130653
_cell_angle_gamma 90.000000
_cell_volume 3131.068651
_symmetry_space_group_name_H-M "C 2/M"
_symmetry_group_IT_number 12
_symmetry_cell_setting 'monoclinic'
loop_
_space_group_symop_operation_xyz
x,y,z
-x,y,-z
-x,-y,-z
x,-y,z
1/2+x,1/2+y,z
1/2-x,1/2+y,-z
1/2-x,1/2-y,-z
1/2+x,1/2-y,z
loop_
_atom_site_type_symbol
_atom_site_label
_atom_site_fract_x
_atom_site_fract_y
_atom_site_fract_z
Si Si1 0.237795 0.329682 0.435841
Si Si2 0.808449 0.828059 0.062900
Si Si3 0.427682 0.825329 0.484849
Si Si4 0.097436 0.825302 0.649298
Si Si5 0.562000 0.829487 0.920302
Si Si6 0.505063 0.172561 0.199509
Si Si7 0.344905 0.327291 0.896472
O O1 0.239945 0.500000 0.453397
O O2 0.250000 0.250000 0.500000
O O3 0.152030 0.291502 0.441865
O O4 0.313778 0.291139 0.362310
O O5 0.866234 0.778124 0.098329
O O6 0.733694 0.730725 0.103473
O O7 0.787325 0.000000 0.078435
O O8 0.846789 0.793532 0.975584
O O9 0.500000 0.767390 0.500000
O O10 0.424322 0.741395 0.414984
O O11 0.436701 0.000000 0.466966
O O12 0.044985 0.751916 0.725277
O O13 0.081760 0.000000 0.652862
O O14 0.530705 0.796429 0.859011
O O15 0.587077 0.000000 0.919713
O O16 0.500000 0.785207 0.000000
O O17 0.589232 0.239699 0.167742
O O18 0.510075 0.000000 0.214513
O O19 0.353744 0.500000 0.877628
#
# Coordination Sequence:
#
# PCOD8096359 Si02
#       7
#     8   8   8   8   8   8   8
#     4   8  15  29  50  75 102 134 170 206 247 300
#     4  10  20  33  53  78 103 133 174 222 271 326
#     4   9  17  32  56  83 108 137 175 217 260 310
#     4  10  20  34  52  76 108 142 176 216 265 320
#     4  10  20  35  54  76 103 137 179 229 276 320
#     4  11  22  36  55  77 105 141 182 226 277 328
#     4  10  20  34  53  76 104 137 174 219 271 326
#
# _framework density 17.885266000000001
#
# number of rings (size 3 to 8) (size 9 to 14) (size 15 to 20)
#    0.000    2.286    1.429    1.714    0.000    3.429 
#    0.000    1.429    0.000    5.143    0.000    0.000 
#    0.000    0.000    0.000    0.000    0.000    0.000 
#
# Total GULP energy -347002.007881 kJ/mol
# GULP energy per Si atom -12392.928853 kJ/mol
# Density = 1.784456 g / cm^3
# Si number density = 17.885266 Si / 1000 Ang^3
#
#
#
# Elastic Constant Matrix: (Units=GPa)
#
#
# Indices 1 2 3 4 5 6 
#
# 1 133.4242 50.2628 57.7931 -0.0001 -17.0949 -0.0001
# 2 50.2628 63.6006 44.2499 -0.0002 -6.7215 -0.0002
# 3 57.7931 44.2499 97.0350 0.0000 -19.8763 0.0000
# 4 -0.0001 -0.0002 0.0000 10.5249 0.0000 -2.7289
# 5 -17.0949 -6.7215 -19.8763 0.0000 24.0382 0.0000
# 6 -0.0001 -0.0002 0.0000 -2.7289 0.0000 30.7036
#
#
#
# Elastic Compliance Matrix: (Units=1/GPa)
#
#
# Indices 1 2 3 4 5 6 
#
# 1 0.011950 -0.006793 -0.003212 0.000000 0.003943 0.000000
# 2 -0.006793 0.027038 -0.009300 0.000000 -0.004960 0.000000
# 3 -0.003212 -0.009300 0.018611 0.000000 0.010504 0.000000
# 4 0.000000 0.000000 0.000000 0.097254 0.000000 0.008644
# 5 0.003943 -0.004960 0.010504 0.000000 0.051703 0.000000
# 6 0.000000 0.000000 0.000000 0.008644 0.000000 0.033338
#
#
# Mechanical properties :
#
#
# Convention : Reuss Voigt Hill
#
# Bulk Modulus (GPa) = 52.66095 66.51903 59.58999
# Shear Modulus (GPa) = 17.55407 22.50359 20.02883
#
# Velocity S-wave (km/s) = 3.13626 3.55099 3.35005
# Velocity P-wave (km/s) = 6.52859 7.35428 6.95370
#
# Compressibility (1/GPa) = 0.01898940
#
# Stress axis : x y z
#
# Youngs Moduli (GPa) = 83.67935 36.98558 53.73042
#
# Poissons Ratio (x) = 0.25123 0.17260
# Poissons Ratio (y) = 0.56840 0.49970
# Poissons Ratio (z) = 0.26880 0.34397
#
# Static dielectric constant tensor:
#      x y z
#    x 3.658310 0.000000 -0.357390 
#    y 0.000000 3.491780 0.000000 
#    z -0.357390 0.000000 3.081990 
# 
# 
# High freq. dielectric constant tensor:
#      x y z
#    x 1.702890 0.000000 -0.021360 
#    y 0.000000 1.702090 0.000000 
#    z -0.021360 0.000000 1.662020 
# 
# From -- ./inp_files/275264.got.cif
#   From: 2010.06.25/outbox.cif.g09.slc.cpg/sg12_138_cif.got.tgz:275264.got - 2010.06.28 00:19:55.
