data_PCOD8096228
_publ_section_title
;
Structure prediction by ZEFSAII (Michael W. Deem and Ramdas Pophale) SiO2 
 PCOD8096228
Probable space group: C 2/M
;
_chemical_formula_sum "Si O2"
_cell_formula_units_Z 56
_cell_length_a 14.214280
_cell_length_b 8.501040
_cell_length_c 27.502394
_cell_angle_alpha 90.000000
_cell_angle_beta 60.040620
_cell_angle_gamma 90.000000
_cell_volume 2879.225462
_symmetry_space_group_name_H-M "C 2/M"
_symmetry_group_IT_number 12
_symmetry_cell_setting 'monoclinic'
loop_
_space_group_symop_operation_xyz
x,y,z
-x,y,-z
-x,-y,-z
x,-y,z
1/2+x,1/2+y,z
1/2-x,1/2+y,-z
1/2-x,1/2-y,-z
1/2+x,1/2-y,z
loop_
_atom_site_type_symbol
_atom_site_label
_atom_site_fract_x
_atom_site_fract_y
_atom_site_fract_z
Si Si1 0.223288 0.686374 0.268310
Si Si2 0.287691 0.814818 0.352302
Si Si3 0.005048 0.815653 0.647994
Si Si4 0.436512 0.815118 0.565194
Si Si5 0.627944 0.314179 0.857278
Si Si6 0.820183 0.813725 0.049518
Si Si7 0.592528 0.815152 0.066258
O O1 0.206049 0.500000 0.271429
O O2 0.290187 0.732411 0.299087
O O3 0.290555 0.750080 0.204744
O O4 0.106649 0.769770 0.296615
O O5 0.397294 0.778225 0.352562
O O6 0.185496 0.749462 0.409157
O O7 0.274248 0.000000 0.348458
O O8 0.998876 0.769556 0.593062
O O9 0.026609 0.000000 0.647750
O O10 0.500000 0.774026 0.500000
O O11 0.432848 0.000000 0.576955
O O12 0.631802 0.500000 0.856028
O O13 0.661288 0.246069 0.901352
O O14 0.506359 0.257029 0.877502
O O15 0.701395 0.755186 0.064241
O O16 0.831030 0.000000 0.045622
O O17 0.909078 0.744945 0.989141
O O18 0.582946 0.000000 0.069646
#
# Coordination Sequence:
#
# PCOD8096228 Si02
#       7
#     8   8   8   8   8   8   8
#     4  10  21  38  57  81 111 142 185 234 279 329
#     4  11  22  38  60  83 112 151 189 227 276 328
#     4  11  22  38  60  84 113 150 189 229 276 326
#     4  10  21  38  60  88 120 150 185 230 275 323
#     4  10  21  36  55  77 104 140 175 215 270 328
#     4   9  19  36  53  72 103 140 174 211 266 328
#     4  10  20  33  52  78 105 135 175 221 264 315
#
# _framework density 19.449674000000002
#
# number of rings (size 3 to 8) (size 9 to 14) (size 15 to 20)
#    0.000    1.857    0.000    6.000    0.000    6.857 
#    0.000    1.429    0.000    0.000    0.000    0.000 
#    0.000    0.000    0.000    0.000    0.000    0.000 
#
# Total GULP energy -347287.511812 kJ/mol
# GULP energy per Si atom -12403.125422 kJ/mol
# Density = 1.940541 g / cm^3
# Si number density = 19.449674 Si / 1000 Ang^3
#
#
#
# Elastic Constant Matrix: (Units=GPa)
#
#
# Indices 1 2 3 4 5 6 
#
# 1 88.1707 2.4369 44.1146 0.0000 -9.4464 0.0000
# 2 2.4369 49.6322 28.0621 0.0000 -1.3452 0.0000
# 3 44.1146 28.0621 146.1888 0.0000 -5.5058 0.0000
# 4 0.0000 0.0000 0.0000 29.1561 0.0000 -4.3666
# 5 -9.4464 -1.3452 -5.5058 0.0000 17.8684 0.0000
# 6 0.0000 0.0000 0.0000 -4.3666 0.0000 32.1917
#
#
#
# Elastic Compliance Matrix: (Units=1/GPa)
#
#
# Indices 1 2 3 4 5 6 
#
# 1 0.014170 0.001973 -0.004418 0.000000 0.006279 0.000000
# 2 0.001973 0.022878 -0.004940 0.000000 0.001243 0.000000
# 3 -0.004418 -0.004940 0.009126 0.000000 0.000104 0.000000
# 4 0.000000 0.000000 0.000000 0.035009 0.000000 0.004749
# 5 0.006279 0.001243 0.000104 0.000000 0.059410 0.000000
# 6 0.000000 0.000000 0.000000 0.004749 0.000000 0.031708
#
#
# Mechanical properties :
#
#
# Convention : Reuss Voigt Hill
#
# Bulk Modulus (GPa) = 31.84426 48.13544 39.98985
# Shear Modulus (GPa) = 25.31120 29.80177 27.55648
#
# Velocity S-wave (km/s) = 3.61136 3.91864 3.76814
# Velocity P-wave (km/s) = 5.81356 6.72880 6.28785
#
# Compressibility (1/GPa) = 0.03140284
#
# Stress axis : x y z
#
# Youngs Moduli (GPa) = 70.56967 43.70976 109.57741
#
# Poissons Ratio (x) = -0.08622 0.48415
# Poissons Ratio (y) = -0.13920 0.54132
# Poissons Ratio (z) = 0.31180 0.21593
#
# Static dielectric constant tensor:
#      x y z
#    x 3.636790 0.000000 -0.006700 
#    y 0.000000 3.501640 0.000000 
#    z -0.006700 0.000000 3.751720 
# 
# 
# High freq. dielectric constant tensor:
#      x y z
#    x 1.760730 0.000000 -0.005490 
#    y 0.000000 1.762170 0.000000 
#    z -0.005490 0.000000 1.760210 
# 
# From -- ./inp_files/374956.got.cif
#   From: 2010.06.25/outbox.cif.g09.slc.cpg/sg12_188_cif.got.tgz:374956.got - 2010.06.28 00:19:55.
