data_PCOD8096114
_publ_section_title
;
Structure prediction by ZEFSAII (Michael W. Deem and Ramdas Pophale) SiO2 
 PCOD8096114
Probable space group: C 2/M
;
_chemical_formula_sum "Si O2"
_cell_formula_units_Z 40
_cell_length_a 27.159163
_cell_length_b 8.406167
_cell_length_c 19.251606
_cell_angle_alpha 90.000000
_cell_angle_beta 152.014999
_cell_angle_gamma 90.000000
_cell_volume 2062.418344
_symmetry_space_group_name_H-M "C 2/M"
_symmetry_group_IT_number 12
_symmetry_cell_setting 'monoclinic'
loop_
_space_group_symop_operation_xyz
x,y,z
-x,y,-z
-x,-y,-z
x,-y,z
1/2+x,1/2+y,z
1/2-x,1/2+y,-z
1/2-x,1/2-y,-z
1/2+x,1/2-y,z
loop_
_atom_site_type_symbol
_atom_site_label
_atom_site_fract_x
_atom_site_fract_y
_atom_site_fract_z
Si Si1 0.967722 0.186103 0.754054
Si Si2 0.922627 0.313207 0.845412
Si Si3 0.508129 0.686599 0.430678
Si Si4 0.810259 0.187096 0.441810
Si Si5 0.365734 0.815061 0.138717
O O1 0.968621 0.279431 0.827125
O O2 0.872234 0.251422 0.586928
O O3 0.076573 0.219696 0.850735
O O4 0.956788 0.000000 0.755211
O O5 0.914869 0.500000 0.848094
O O6 0.805880 0.236213 0.707538
O O7 0.000000 0.238264 0.000000
O O8 0.500000 0.739136 0.500000
O O9 0.484393 0.500000 0.390879
O O10 0.624037 0.728959 0.545817
O O11 0.421707 0.786265 0.281952
O O12 0.799981 0.000000 0.437642
O O13 0.365692 0.000000 0.120030
O O14 0.250000 0.750000 0.000000
#
# Coordination Sequence:
#
# PCOD8096114 Si02
#       5
#     8   8   8   8   8
#     4  10  20  36  56  76 102 139 183 226 270 321
#     4  10  20  33  51  78 110 142 178 221 270 323
#     4   9  18  34  56  81 111 147 185 225 270 319
#     4   8  16  32  52  75 104 140 180 218 259 311
#     4  11  22  37  57  81 110 142 180 224 273 329
#
# _framework density 19.394708000000001
#
# number of rings (size 3 to 8) (size 9 to 14) (size 15 to 20)
#    0.000    2.400    0.000    4.200    0.000    2.400 
#    0.000    8.000    0.000    0.000    0.000    0.000 
#    0.000    0.000    0.000    0.000    0.000    0.000 
#
# Total GULP energy -247994.903414 kJ/mol
# GULP energy per Si atom -12399.745171 kJ/mol
# Density = 1.935056 g / cm^3
# Si number density = 19.394708 Si / 1000 Ang^3
#
#
#
# Elastic Constant Matrix: (Units=GPa)
#
#
# Indices 1 2 3 4 5 6 
#
# 1 138.5363 -1.0584 87.2343 0.0000 -7.4048 0.0000
# 2 -1.0584 28.1615 11.7321 0.0000 1.3223 0.0000
# 3 87.2343 11.7321 142.3581 0.0000 13.8087 0.0000
# 4 0.0000 0.0000 0.0000 20.9892 0.0000 -1.8423
# 5 -7.4048 1.3223 13.8087 0.0000 36.8798 0.0000
# 6 0.0000 0.0000 0.0000 -1.8423 0.0000 25.3135
#
#
#
# Elastic Compliance Matrix: (Units=1/GPa)
#
#
# Indices 1 2 3 4 5 6 
#
# 1 0.013237 0.003975 -0.009010 0.000000 0.005889 0.000000
# 2 0.003975 0.037967 -0.005717 0.000000 0.001577 0.000000
# 3 -0.009010 -0.005717 0.013669 0.000000 -0.006722 0.000000
# 4 0.000000 0.000000 0.000000 0.047950 0.000000 0.003490
# 5 0.005889 0.001577 -0.006722 0.000000 0.030758 0.000000
# 6 0.000000 0.000000 0.000000 0.003490 0.000000 0.039759
#
#
# Mechanical properties :
#
#
# Convention : Reuss Voigt Hill
#
# Bulk Modulus (GPa) = 23.05925 56.09687 39.57806
# Shear Modulus (GPa) = 22.79976 30.71304 26.75640
#
# Velocity S-wave (km/s) = 3.43237 3.98374 3.71829
# Velocity P-wave (km/s) = 5.25581 7.08144 6.23580
#
# Compressibility (1/GPa) = 0.04336655
#
# Stress axis : x y z
#
# Youngs Moduli (GPa) = 75.54581 26.33893 73.15820
#
# Poissons Ratio (x) = -0.10469 0.65917
# Poissons Ratio (y) = -0.30026 0.41828
# Poissons Ratio (z) = 0.68068 0.15059
#
# Static dielectric constant tensor:
#      x y z
#    x 3.582500 0.000000 0.133170 
#    y 0.000000 3.289370 0.000000 
#    z 0.133170 0.000000 3.835890 
# 
# 
# High freq. dielectric constant tensor:
#      x y z
#    x 1.763230 0.000000 0.005800 
#    y 0.000000 1.730460 0.000000 
#    z 0.005800 0.000000 1.754950 
# 
# From -- ./inp_files/162369.got.cif
#   From: 2010.06.25/outbox.cif.g09.slc.cpg/sg12_82_cif.got.tgz:162369.got - 2010.06.28 00:19:55.
