data_PCOD8096043
_publ_section_title
;
Structure prediction by ZEFSAII (Michael W. Deem and Ramdas Pophale) SiO2 
 PCOD8096043
Probable space group: C 2/M
;
_chemical_formula_sum "Si O2"
_cell_formula_units_Z 64
_cell_length_a 31.723462
_cell_length_b 8.929639
_cell_length_c 25.659551
_cell_angle_alpha 90.000000
_cell_angle_beta 150.655935
_cell_angle_gamma 90.000000
_cell_volume 3562.103881
_symmetry_space_group_name_H-M "C 2/M"
_symmetry_group_IT_number 12
_symmetry_cell_setting 'monoclinic'
loop_
_space_group_symop_operation_xyz
x,y,z
-x,y,-z
-x,-y,-z
x,-y,z
1/2+x,1/2+y,z
1/2-x,1/2+y,-z
1/2-x,1/2-y,-z
1/2+x,1/2-y,z
loop_
_atom_site_type_symbol
_atom_site_label
_atom_site_fract_x
_atom_site_fract_y
_atom_site_fract_z
Si Si1 0.133429 0.173462 0.917627
Si Si2 0.446540 0.675597 0.891018
Si Si3 0.509142 0.177153 0.166614
Si Si4 0.884244 0.677098 0.422836
Si Si5 0.729948 0.824025 0.316238
Si Si6 0.330362 0.174493 0.148539
Si Si7 0.076569 0.676519 0.649082
Si Si8 0.802390 0.326249 0.601937
O O1 0.126751 0.232532 0.851664
O O2 0.070164 0.267238 0.885215
O O3 0.107457 0.000000 0.890893
O O4 0.228700 0.200587 0.042282
O O5 0.439384 0.500000 0.873081
O O6 0.495688 0.749696 0.895493
O O7 0.351615 0.741799 0.796718
O O8 0.500000 0.713340 0.000000
O O9 0.597776 0.224481 0.290802
O O10 0.504707 0.000000 0.154557
O O11 0.866523 0.500000 0.408689
O O12 0.815143 0.769942 0.379941
O O13 0.881735 0.732872 0.360090
O O14 0.976796 0.721466 0.546314
O O15 0.738520 0.783073 0.386463
O O16 0.716607 0.000000 0.294227
O O17 0.370831 0.240684 0.245236
O O18 0.352285 0.000000 0.163650
O O19 0.083859 0.500000 0.656072
O O20 0.795345 0.500000 0.583569
O O21 0.750000 0.250000 0.500000
#
# Coordination Sequence:
#
# PCOD8096043 Si02
#       8
#     8   8   8   8   8   8   8   8
#     4  10  20  33  51  76 104 135 173 215 255 300
#     4  10  21  37  57  80 104 133 173 216 255 301
#     4  10  21  37  55  77 107 139 171 210 259 311
#     4   9  17  32  54  77 100 131 172 213 255 304
#     4  10  21  36  52  76 109 139 169 209 260 312
#     4   9  18  34  53  73 101 135 171 213 258 303
#     4   8  16  32  53  75 100 132 171 214 257 303
#     4   9  20  36  53  74 101 134 171 212 256 304
#
# _framework density 17.966911
#
# number of rings (size 3 to 8) (size 9 to 14) (size 15 to 20)
#    0.000    2.625    0.000    3.000    0.000    6.500 
#    0.000    8.750    0.000    0.000    0.000    0.000 
#    0.000    0.000    0.000    0.000    0.000    0.000 
#
# Total GULP energy -396802.187427 kJ/mol
# GULP energy per Si atom -12400.068357 kJ/mol
# Density = 1.792602 g / cm^3
# Si number density = 17.966911 Si / 1000 Ang^3
#
#
#
# Elastic Constant Matrix: (Units=GPa)
#
#
# Indices 1 2 3 4 5 6 
#
# 1 132.4159 52.4029 85.8110 0.0000 2.5052 0.0000
# 2 52.4029 72.5930 54.5079 0.0000 -6.6010 0.0000
# 3 85.8110 54.5079 128.3035 0.0000 -22.1720 0.0000
# 4 0.0000 0.0000 0.0000 25.4410 0.0000 1.2556
# 5 2.5052 -6.6010 -22.1720 0.0000 30.1802 0.0000
# 6 0.0000 0.0000 0.0000 1.2556 0.0000 36.0093
#
#
#
# Elastic Compliance Matrix: (Units=1/GPa)
#
#
# Indices 1 2 3 4 5 6 
#
# 1 0.016785 -0.004814 -0.011000 0.000000 -0.010527 0.000000
# 2 -0.004814 0.021733 -0.005868 0.000000 0.000842 0.000000
# 3 -0.011000 -0.005868 0.020136 0.000000 0.014423 0.000000
# 4 0.000000 0.000000 0.000000 0.039374 0.000000 -0.001373
# 5 -0.010527 0.000842 0.014423 0.000000 0.044788 0.000000
# 6 0.000000 0.000000 0.000000 -0.001373 0.000000 0.027818
#
#
# Mechanical properties :
#
#
# Convention : Reuss Voigt Hill
#
# Bulk Modulus (GPa) = 65.40000 79.86179 72.63089
# Shear Modulus (GPa) = 22.82122 27.69882 25.26002
#
# Velocity S-wave (km/s) = 3.56783 3.93065 3.75363
# Velocity P-wave (km/s) = 7.31107 8.07130 7.70057
#
# Compressibility (1/GPa) = 0.01529052
#
# Stress axis : x y z
#
# Youngs Moduli (GPa) = 59.57843 46.01278 49.66262
#
# Poissons Ratio (x) = 0.22152 0.54627
# Poissons Ratio (y) = 0.28683 0.29140
# Poissons Ratio (z) = 0.65534 0.26998
#
# Static dielectric constant tensor:
#      x y z
#    x 3.481790 0.000000 -0.169420 
#    y 0.000000 3.237850 0.000000 
#    z -0.169420 0.000000 3.615840 
# 
# 
# High freq. dielectric constant tensor:
#      x y z
#    x 1.701440 0.000000 -0.001400 
#    y 0.000000 1.689730 0.000000 
#    z -0.001400 0.000000 1.698430 
# 
# From -- ./inp_files/353559.got.cif
#   From: 2010.06.25/outbox.cif.g09.slc.cpg/sg12_177_cif.got.tgz:353559.got - 2010.06.28 00:19:55.
