data_PCOD8096183
_publ_section_title
;
Structure prediction by ZEFSAII (Michael W. Deem and Ramdas Pophale) SiO2 
 PCOD8096183
Probable space group: C 2/M
;
_chemical_formula_sum "Si O2"
_cell_formula_units_Z 56
_cell_length_a 19.051922
_cell_length_b 9.346139
_cell_length_c 20.045003
_cell_angle_alpha 90.000000
_cell_angle_beta 118.835333
_cell_angle_gamma 90.000000
_cell_volume 3126.698000
_symmetry_space_group_name_H-M "C 2/M"
_symmetry_group_IT_number 12
_symmetry_cell_setting 'monoclinic'
loop_
_space_group_symop_operation_xyz
x,y,z
-x,y,-z
-x,-y,-z
x,-y,z
1/2+x,1/2+y,z
1/2-x,1/2+y,-z
1/2-x,1/2-y,-z
1/2+x,1/2-y,z
loop_
_atom_site_type_symbol
_atom_site_label
_atom_site_fract_x
_atom_site_fract_y
_atom_site_fract_z
Si Si1 0.731674 0.662787 0.131602
Si Si2 0.109432 0.667615 0.871254
Si Si3 0.585793 0.168407 0.012580
Si Si4 0.657471 0.834485 0.696205
Si Si5 0.695768 0.832966 0.564669
Si Si6 0.031290 0.167896 0.720246
Si Si7 0.363320 0.665049 0.580239
O O1 0.704441 0.500000 0.108205
O O2 0.799864 0.704437 0.108939
O O3 0.654700 0.761695 0.088554
O O4 0.765439 0.687063 0.221338
O O5 0.091770 0.500000 0.851964
O O6 0.047590 0.757551 0.798508
O O7 0.096347 0.715950 0.940977
O O8 0.594756 0.000000 0.024775
O O9 0.500000 0.221683 0.000000
O O10 0.680414 0.783786 0.633011
O O11 0.585290 0.735408 0.687090
O O12 0.629844 0.000000 0.686083
O O13 0.633916 0.753316 0.487363
O O14 0.786463 0.789408 0.588413
O O15 0.680695 0.000000 0.549050
O O16 0.939718 0.199645 0.660255
O O17 0.049824 0.000000 0.734326
O O18 0.360137 0.500000 0.558346
#
# Coordination Sequence:
#
# PCOD8096183 Si02
#       7
#     8   8   8   8   8   8   8
#     4   9  18  33  53  74  97 130 168 205 244 288
#     4   9  19  36  54  72  99 133 167 203 243 292
#     4  10  21  35  51  75 105 132 161 202 249 294
#     4   9  19  35  53  75 102 130 165 207 247 292
#     4   9  18  34  54  72  96 135 173 202 242 297
#     4  10  20  33  52  77 102 129 163 206 252 294
#     4   9  19  34  50  73 103 131 165 209 250 289
#
# _framework density 17.910269
#
# number of rings (size 3 to 8) (size 9 to 14) (size 15 to 20)
#    0.000    2.714    0.000    1.714    0.000    6.571 
#    0.000    4.286    0.000    0.000    0.000    0.000 
#    0.000    0.000    0.000    0.000    0.000    0.000 
#
# Total GULP energy -347261.587152 kJ/mol
# GULP energy per Si atom -12402.199541 kJ/mol
# Density = 1.786950 g / cm^3
# Si number density = 17.910269 Si / 1000 Ang^3
#
#
#
# Elastic Constant Matrix: (Units=GPa)
#
#
# Indices 1 2 3 4 5 6 
#
# 1 48.1618 20.3276 21.2062 0.0000 6.4403 0.0000
# 2 20.3276 48.3199 31.0862 0.0000 10.9496 0.0000
# 3 21.2062 31.0862 61.8770 0.0000 7.6138 0.0000
# 4 0.0000 0.0000 0.0000 35.4709 0.0000 5.2551
# 5 6.4403 10.9496 7.6138 0.0000 32.9116 0.0000
# 6 0.0000 0.0000 0.0000 5.2551 0.0000 23.9831
#
#
#
# Elastic Compliance Matrix: (Units=1/GPa)
#
#
# Indices 1 2 3 4 5 6 
#
# 1 0.026361 -0.007473 -0.005096 0.000000 -0.001493 0.000000
# 2 -0.007473 0.034257 -0.013820 0.000000 -0.006738 0.000000
# 3 -0.005096 -0.013820 0.024870 0.000000 -0.000158 0.000000
# 4 0.000000 0.000000 0.000000 0.029138 0.000000 -0.006385
# 5 -0.001493 -0.006738 -0.000158 0.000000 0.032955 0.000000
# 6 0.000000 0.000000 0.000000 -0.006385 0.000000 0.043095
#
#
# Mechanical properties :
#
#
# Convention : Reuss Voigt Hill
#
# Bulk Modulus (GPa) = 30.57194 33.73320 32.15257
# Shear Modulus (GPa) = 19.65730 24.18901 21.92316
#
# Velocity S-wave (km/s) = 3.31651 3.67899 3.50245
# Velocity P-wave (km/s) = 5.63669 6.07636 5.86065
#
# Compressibility (1/GPa) = 0.03270974
#
# Stress axis : x y z
#
# Youngs Moduli (GPa) = 37.93475 29.19102 40.20852
#
# Poissons Ratio (x) = 0.21813 0.20492
# Poissons Ratio (y) = 0.28347 0.55569
# Poissons Ratio (z) = 0.19333 0.40343
#
# Static dielectric constant tensor:
#      x y z
#    x 3.324300 0.000000 -0.087030 
#    y 0.000000 3.257420 0.000000 
#    z -0.087030 0.000000 3.334180 
# 
# 
# High freq. dielectric constant tensor:
#      x y z
#    x 1.687980 0.000000 -0.002900 
#    y 0.000000 1.690400 0.000000 
#    z -0.002900 0.000000 1.698550 
# 
# From -- ./inp_files/313701.got.cif
#   From: 2010.06.25/outbox.cif.g09.slc.cpg/sg12_157_cif.got.tgz:313701.got - 2010.06.28 00:19:55.
