data_PCOD8096852
_publ_section_title
;
Structure prediction by ZEFSAII (Michael W. Deem and Ramdas Pophale) SiO2 
 PCOD8096852
Probable space group: C 2/M
;
_chemical_formula_sum "Si O2"
_cell_formula_units_Z 48
_cell_length_a 18.940100
_cell_length_b 9.717140
_cell_length_c 23.840088
_cell_angle_alpha 90.000000
_cell_angle_beta 35.686994
_cell_angle_gamma 90.000000
_cell_volume 2559.545697
_symmetry_space_group_name_H-M "C 2/M"
_symmetry_group_IT_number 12
_symmetry_cell_setting 'monoclinic'
loop_
_space_group_symop_operation_xyz
x,y,z
-x,y,-z
-x,-y,-z
x,-y,z
1/2+x,1/2+y,z
1/2-x,1/2+y,-z
1/2-x,1/2-y,-z
1/2+x,1/2-y,z
loop_
_atom_site_type_symbol
_atom_site_label
_atom_site_fract_x
_atom_site_fract_y
_atom_site_fract_z
Si Si1 0.556429 0.840161 0.203821
Si Si2 0.975290 0.655162 0.578512
Si Si3 0.017248 0.154479 0.330557
Si Si4 0.827993 0.152945 0.057999
Si Si5 0.010002 0.656618 0.877250
Si Si6 0.747062 0.249179 0.778479
O O1 0.491322 0.741460 0.290974
O O2 0.700051 0.815134 0.111255
O O3 0.505677 0.794162 0.176477
O O4 0.527276 0.000000 0.236983
O O5 0.025546 0.500000 0.553530
O O6 0.042068 0.759740 0.579021
O O7 0.830496 0.654715 0.684599
O O8 0.000000 0.709460 0.500000
O O9 0.162327 0.142568 0.248267
O O10 0.962991 0.000000 0.360940
O O11 0.818991 0.160989 0.131246
O O12 0.871155 0.000000 0.014216
O O13 0.927528 0.257810 0.972298
O O14 0.967611 0.500000 0.910493
O O15 0.150213 0.670077 0.803150
#
# Coordination Sequence:
#
# PCOD8096852 Si02
#       6
#     8   8   8   8   8   8
#     4   9  19  35  52  70 102 144 179 212 251 303
#     4   9  18  34  58  82 103 131 168 209 257 315
#     4   9  18  32  53  78 104 132 166 211 256 302
#     4  10  20  34  51  73 102 139 181 218 254 298
#     4  11  22  34  50  75 107 142 178 213 256 303
#     4   9  20  33  53  76 105 134 171 213 260 307
#
# _framework density 18.753329000000001
#
# number of rings (size 3 to 8) (size 9 to 14) (size 15 to 20)
#    1.000    1.500    0.000    2.500    0.000    7.000 
#    0.000    0.000    0.000    1.000    0.000    0.000 
#    0.000    0.000    0.000    0.000    0.000    0.000 
#
# Total GULP energy -297419.277596 kJ/mol
# GULP energy per Si atom -12392.469900 kJ/mol
# Density = 1.871065 g / cm^3
# Si number density = 18.753329 Si / 1000 Ang^3
#
#
#
# Elastic Constant Matrix: (Units=GPa)
#
#
# Indices 1 2 3 4 5 6 
#
# 1 91.6505 15.1018 33.2469 0.0000 20.2397 0.0001
# 2 15.1018 91.0791 37.3836 0.0000 17.5886 0.0002
# 3 33.2469 37.3836 83.9255 -0.0002 38.3538 0.0001
# 4 0.0000 0.0000 -0.0002 18.4524 0.0000 2.4975
# 5 20.2397 17.5886 38.3538 0.0000 22.4529 0.0000
# 6 0.0001 0.0002 0.0001 2.4975 0.0000 19.5439
#
#
#
# Elastic Compliance Matrix: (Units=1/GPa)
#
#
# Indices 1 2 3 4 5 6 
#
# 1 0.013641 0.000041 0.000966 0.000000 -0.013979 0.000000
# 2 0.000041 0.013445 -0.005357 0.000000 -0.001419 0.000000
# 3 0.000966 -0.005357 0.056524 0.000001 -0.093228 -0.000001
# 4 0.000000 0.000000 0.000001 0.055147 -0.000002 -0.007047
# 5 -0.013979 -0.001419 -0.093228 -0.000002 0.217502 0.000001
# 6 0.000000 0.000000 -0.000001 -0.007047 0.000001 0.052067
#
#
# Mechanical properties :
#
#
# Convention : Reuss Voigt Hill
#
# Bulk Modulus (GPa) = 13.34912 48.67997 31.01455
# Shear Modulus (GPa) = 11.31233 24.15137 17.73185
#
# Velocity S-wave (km/s) = 2.45871 3.59255 3.07828
# Velocity P-wave (km/s) = 3.89796 6.57441 5.40449
#
# Compressibility (1/GPa) = 0.07491128
#
# Stress axis : x y z
#
# Youngs Moduli (GPa) = 73.30956 74.37468 17.69168
#
# Poissons Ratio (x) = -0.00306 -0.01710
# Poissons Ratio (y) = -0.00302 0.09477
# Poissons Ratio (z) = -0.07085 0.39842
#
# Static dielectric constant tensor:
#      x y z
#    x 3.350030 0.000000 0.205070 
#    y 0.000000 3.289110 0.000000 
#    z 0.205070 0.000000 3.144160 
# 
# 
# High freq. dielectric constant tensor:
#      x y z
#    x 1.714210 0.000000 0.025600 
#    y 0.000000 1.725680 0.000000 
#    z 0.025600 0.000000 1.702740 
# 
# From -- ./inp_files/341902.got.cif
#   From: 2010.06.25/outbox.cif.g09.slc.cpg/sg12_171_cif.got.tgz:341902.got - 2010.06.28 00:19:55.
