data_PCOD8096007
_publ_section_title
;
Structure prediction by ZEFSAII (Michael W. Deem and Ramdas Pophale) SiO2 
 PCOD8096007
Probable space group: C 2/M
;
_chemical_formula_sum "Si O2"
_cell_formula_units_Z 56
_cell_length_a 16.539910
_cell_length_b 12.868319
_cell_length_c 13.710935
_cell_angle_alpha 90.000000
_cell_angle_beta 88.753454
_cell_angle_gamma 90.000000
_cell_volume 2917.556265
_symmetry_space_group_name_H-M "C 2/M"
_symmetry_group_IT_number 12
_symmetry_cell_setting 'monoclinic'
loop_
_space_group_symop_operation_xyz
x,y,z
-x,y,-z
-x,-y,-z
x,-y,z
1/2+x,1/2+y,z
1/2-x,1/2+y,-z
1/2-x,1/2-y,-z
1/2+x,1/2-y,z
loop_
_atom_site_type_symbol
_atom_site_label
_atom_site_fract_x
_atom_site_fract_y
_atom_site_fract_z
Si Si1 0.405119 0.117039 0.008134
Si Si2 0.085002 0.748106 0.460878
Si Si3 0.807635 0.619302 0.200765
Si Si4 0.855168 0.798475 0.335064
Si Si5 0.315921 0.116906 0.678402
Si Si6 0.646262 0.733375 0.154007
Si Si7 0.974747 0.122459 0.717792
O O1 0.361940 0.208930 0.949097
O O2 0.381743 0.000000 0.971874
O O3 0.500000 0.134150 0.000000
O O4 0.379327 0.128842 0.120985
O O5 0.129455 0.801461 0.550238
O O6 0.144765 0.658877 0.422280
O O7 0.000000 0.699193 0.500000
O O8 0.069278 0.833442 0.377634
O O9 0.792749 0.500000 0.232739
O O10 0.832265 0.683250 0.296818
O O11 0.727045 0.664772 0.153109
O O12 0.780826 0.875223 0.318230
O O13 0.932917 0.840199 0.275292
O O14 0.354761 0.176269 0.766948
O O15 0.343334 0.000000 0.689675
O O16 0.570653 0.658997 0.182418
O O17 0.971100 0.000000 0.709692
#
# Coordination Sequence:
#
# PCOD8096007 Si02
#       7
#     8   8   8   8   8   8   8
#     4  10  20  35  57  82 107 140 177 214 263 316
#     4   9  20  35  51  76 105 137 177 218 261 312
#     4  10  21  36  56  80 106 141 179 216 264 315
#     4  10  20  35  53  78 107 136 177 221 260 309
#     4  10  20  33  51  75 104 138 173 214 264 311
#     4  10  20  36  55  78 108 137 174 220 260 310
#     4  10  20  35  56  79 105 140 178 217 264 315
#
# _framework density 19.194147000000001
#
# number of rings (size 3 to 8) (size 9 to 14) (size 15 to 20)
#    0.000    2.143    0.000    3.000    0.000    4.000 
#    0.000    7.143    0.000   10.286    0.000    0.000 
#    0.000    0.000    0.000    0.000    0.000    0.000 
#
# Total GULP energy -347205.006112 kJ/mol
# GULP energy per Si atom -12400.178790 kJ/mol
# Density = 1.915046 g / cm^3
# Si number density = 19.194147 Si / 1000 Ang^3
#
#
#
# Elastic Constant Matrix: (Units=GPa)
#
#
# Indices 1 2 3 4 5 6 
#
# 1 83.8730 35.4704 0.7892 0.0000 -8.4940 0.0000
# 2 35.4704 124.2845 18.1580 0.0000 -0.7144 0.0000
# 3 0.7892 18.1580 42.6136 0.0000 0.9279 0.0000
# 4 0.0000 0.0000 0.0000 17.4537 0.0000 0.1246
# 5 -8.4940 -0.7144 0.9279 0.0000 28.7645 0.0000
# 6 0.0000 0.0000 0.0000 0.1246 0.0000 22.2334
#
#
#
# Elastic Compliance Matrix: (Units=1/GPa)
#
#
# Indices 1 2 3 4 5 6 
#
# 1 0.014096 -0.004211 0.001446 0.000000 0.004011 0.000000
# 2 -0.004211 0.009841 -0.004097 0.000000 -0.000867 0.000000
# 3 0.001446 -0.004097 0.025196 0.000000 -0.000487 0.000000
# 4 0.000000 0.000000 0.000000 0.057297 0.000000 -0.000321
# 5 0.004011 -0.000867 -0.000487 0.000000 0.035944 0.000000
# 6 0.000000 0.000000 0.000000 -0.000321 0.000000 0.044979
#
#
# Mechanical properties :
#
#
# Convention : Reuss Voigt Hill
#
# Bulk Modulus (GPa) = 28.24041 39.95626 34.09834
# Shear Modulus (GPa) = 23.48730 26.78055 25.13392
#
# Velocity S-wave (km/s) = 3.50189 3.73935 3.62257
# Velocity P-wave (km/s) = 5.57638 6.28536 5.94145
#
# Compressibility (1/GPa) = 0.03541025
#
# Stress axis : x y z
#
# Youngs Moduli (GPa) = 70.94011 101.61073 39.68862
#
# Poissons Ratio (x) = 0.42791 -0.05739
# Poissons Ratio (y) = 0.29875 0.16259
# Poissons Ratio (z) = -0.10258 0.41626
#
# Static dielectric constant tensor:
#      x y z
#    x 3.669610 0.000000 -0.152350 
#    y 0.000000 3.489720 0.000000 
#    z -0.152350 0.000000 3.412380 
# 
# 
# High freq. dielectric constant tensor:
#      x y z
#    x 1.760080 0.000000 -0.013200 
#    y 0.000000 1.742580 0.000000 
#    z -0.013200 0.000000 1.736100 
# 
# From -- ./inp_files/213381.got.cif
#   From: 2010.06.25/outbox.cif.g09.slc.cpg/sg12_107_cif.got.tgz:213381.got - 2010.06.28 00:19:55.
