data_PCOD8096382
_publ_section_title
;
Structure prediction by ZEFSAII (Michael W. Deem and Ramdas Pophale) SiO2 
 PCOD8096382
Probable space group: C 2/M
;
_chemical_formula_sum "Si O2"
_cell_formula_units_Z 40
_cell_length_a 21.335016
_cell_length_b 24.033728
_cell_length_c 5.030547
_cell_angle_alpha 90.000000
_cell_angle_beta 53.673375
_cell_angle_gamma 90.000000
_cell_volume 2078.152447
_symmetry_space_group_name_H-M "C 2/M"
_symmetry_group_IT_number 12
_symmetry_cell_setting 'monoclinic'
loop_
_space_group_symop_operation_xyz
x,y,z
-x,y,-z
-x,-y,-z
x,-y,z
1/2+x,1/2+y,z
1/2-x,1/2+y,-z
1/2-x,1/2-y,-z
1/2+x,1/2-y,z
loop_
_atom_site_type_symbol
_atom_site_label
_atom_site_fract_x
_atom_site_fract_y
_atom_site_fract_z
Si Si1 0.261186 0.311746 0.575280
Si Si2 0.051668 0.437411 0.628642
Si Si3 0.414437 0.625668 0.160197
Si Si4 0.637571 0.563845 0.219280
Si Si5 0.790956 0.373299 0.798059
O O1 0.250000 0.250000 0.500000
O O2 0.353296 0.324503 0.363241
O O3 0.219734 0.353011 0.474805
O O4 0.221542 0.322355 0.962224
O O5 0.080752 0.500000 0.625272
O O6 0.123483 0.397449 0.390011
O O7 0.000000 0.438194 0.500000
O O8 0.000000 0.413562 0.000000
O O9 0.400041 0.574874 0.399337
O O10 0.500000 0.650628 0.000000
O O11 0.406547 0.602368 0.882685
O O12 0.626713 0.500000 0.167792
O O13 0.728916 0.578035 0.010367
#
# Coordination Sequence:
#
# PCOD8096382 Si02
#       5
#     8   8   8   8   8
#     4  10  21  38  58  77 101 141 183 224 272 313
#     4  10  20  34  54  81 114 147 176 217 274 326
#     4  10  21  35  52  77 108 137 172 217 261 310
#     4  10  20  33  53  79 107 142 174 205 255 318
#     4  10  20  36  56  78 107 139 181 224 261 322
#
# _framework density 19.247865000000001
#
# number of rings (size 3 to 8) (size 9 to 14) (size 15 to 20)
#    0.000    2.000    0.000    3.600    0.000    2.400 
#    0.000    9.000    0.000    2.400    0.000    0.000 
#    0.000    0.000    0.000    0.000    0.000    0.000 
#
# Total GULP energy -248053.133980 kJ/mol
# GULP energy per Si atom -12402.656699 kJ/mol
# Density = 1.920406 g / cm^3
# Si number density = 19.247865 Si / 1000 Ang^3
#
#
#
# Elastic Constant Matrix: (Units=GPa)
#
#
# Indices 1 2 3 4 5 6 
#
# 1 100.0750 29.7028 49.2920 0.0000 -14.9312 0.0000
# 2 29.7028 76.8237 29.4443 0.0000 -21.9339 0.0000
# 3 49.2920 29.4443 94.5523 0.0000 -5.7537 0.0000
# 4 0.0000 0.0000 0.0000 19.3721 0.0000 4.6459
# 5 -14.9312 -21.9339 -5.7537 0.0000 43.0859 0.0000
# 6 0.0000 0.0000 0.0000 4.6459 0.0000 20.3400
#
#
#
# Elastic Compliance Matrix: (Units=1/GPa)
#
#
# Indices 1 2 3 4 5 6 
#
# 1 0.014340 -0.002152 -0.006623 0.000000 0.002989 0.000000
# 2 -0.002152 0.017517 -0.003867 0.000000 0.007655 0.000000
# 3 -0.006623 -0.003867 0.015097 0.000000 -0.002248 0.000000
# 4 0.000000 0.000000 0.000000 0.054612 0.000000 -0.012474
# 5 0.002989 0.007655 -0.002248 0.000000 0.027842 0.000000
# 6 0.000000 0.000000 0.000000 -0.012474 0.000000 0.052013
#
#
# Mechanical properties :
#
#
# Convention : Reuss Voigt Hill
#
# Bulk Modulus (GPa) = 46.15207 54.25881 50.20544
# Shear Modulus (GPa) = 23.37233 27.42706 25.39970
#
# Velocity S-wave (km/s) = 3.48844 3.77893 3.63659
# Velocity P-wave (km/s) = 6.34471 6.87686 6.61614
#
# Compressibility (1/GPa) = 0.02166750
#
# Stress axis : x y z
#
# Youngs Moduli (GPa) = 69.73662 57.08864 66.24045
#
# Poissons Ratio (x) = 0.12287 0.43874
# Poissons Ratio (y) = 0.15009 0.25615
# Poissons Ratio (z) = 0.46190 0.22076
#
# Static dielectric constant tensor:
#      x y z
#    x 3.616320 0.000000 0.110620 
#    y 0.000000 3.185040 0.000000 
#    z 0.110620 0.000000 3.651790 
# 
# 
# High freq. dielectric constant tensor:
#      x y z
#    x 1.762170 0.000000 0.011210 
#    y 0.000000 1.719420 0.000000 
#    z 0.011210 0.000000 1.759560 
# 
# From -- ./inp_files/11302.got.cif
#   From: 2010.06.25/outbox.cif.g09.slc.cpg/sg12_6_cif.got.tgz:11302.got - 2010.06.28 00:19:55.
