data_PCOD8096806
_publ_section_title
;
Structure prediction by ZEFSAII (Michael W. Deem and Ramdas Pophale) SiO2 
 PCOD8096806
Probable space group: C 2/M
;
_chemical_formula_sum "Si O2"
_cell_formula_units_Z 48
_cell_length_a 14.127858
_cell_length_b 9.204722
_cell_length_c 22.554412
_cell_angle_alpha 90.000000
_cell_angle_beta 69.689186
_cell_angle_gamma 90.000000
_cell_volume 2750.676956
_symmetry_space_group_name_H-M "C 2/M"
_symmetry_group_IT_number 12
_symmetry_cell_setting 'monoclinic'
loop_
_space_group_symop_operation_xyz
x,y,z
-x,y,-z
-x,-y,-z
x,-y,z
1/2+x,1/2+y,z
1/2-x,1/2+y,-z
1/2-x,1/2-y,-z
1/2+x,1/2-y,z
loop_
_atom_site_type_symbol
_atom_site_label
_atom_site_fract_x
_atom_site_fract_y
_atom_site_fract_z
Si Si1 0.767749 0.330289 0.435069
Si Si2 0.180064 0.330502 0.346504
Si Si3 0.055208 0.828133 0.900281
Si Si4 0.523903 0.167926 0.672628
Si Si5 0.612539 0.669770 0.759710
Si Si6 0.151660 0.828257 0.999051
O O1 0.743780 0.500000 0.447121
O O2 0.750000 0.250000 0.500000
O O3 0.691960 0.262974 0.403324
O O4 0.883029 0.301946 0.391361
O O5 0.176320 0.500000 0.364832
O O6 0.271684 0.297084 0.281837
O O7 0.077469 0.279067 0.337582
O O8 0.092048 0.763856 0.829415
O O9 0.127731 0.773442 0.937465
O O10 0.061995 0.000000 0.897525
O O11 0.940261 0.781191 0.938110
O O12 0.536117 0.255685 0.730634
O O13 0.516384 0.000000 0.691607
O O14 0.588870 0.500000 0.762849
O O15 0.168270 0.000000 0.997101
O O16 0.250000 0.750000 0.000000
#
# Coordination Sequence:
#
# PCOD8096806 Si02
#       6
#     8   8   8   8   8   8
#     4  10  20  34  51  71  97 126 157 193 233 277
#     4   9  18  33  51  70  94 124 157 192 233 282
#     4   8  16  31  48  67  95 129 157 188 237 288
#     4   9  19  34  50  71  99 126 152 192 242 279
#     4   9  17  31  51  71  92 123 162 195 227 280
#     4   9  17  31  49  68  94 126 160 196 235 280
#
# _framework density 17.45025
#
# number of rings (size 3 to 8) (size 9 to 14) (size 15 to 20)
#    0.000    3.000    0.000    1.500    0.000    3.333 
#    0.000    8.333    0.000    0.000    0.000    0.000 
#    0.000    0.000    0.000    0.000    0.000    0.000 
#
# Total GULP energy -297583.811784 kJ/mol
# GULP energy per Si atom -12399.325491 kJ/mol
# Density = 1.741053 g / cm^3
# Si number density = 17.450250 Si / 1000 Ang^3
#
#
#
# Elastic Constant Matrix: (Units=GPa)
#
#
# Indices 1 2 3 4 5 6 
#
# 1 163.8964 51.1021 75.2594 0.0000 19.1054 0.0000
# 2 51.1021 53.7692 53.8192 0.0000 9.8864 0.0000
# 3 75.2594 53.8192 158.6357 0.0000 19.6563 0.0000
# 4 0.0000 0.0000 0.0000 22.7178 0.0000 4.9249
# 5 19.1054 9.8864 19.6563 0.0000 16.6804 0.0000
# 6 0.0000 0.0000 0.0000 4.9249 0.0000 31.9318
#
#
#
# Elastic Compliance Matrix: (Units=1/GPa)
#
#
# Indices 1 2 3 4 5 6 
#
# 1 0.009453 -0.006348 -0.001704 0.000000 -0.005056 0.000000
# 2 -0.006348 0.033013 -0.007804 0.000000 -0.003099 0.000000
# 3 -0.001704 -0.007804 0.010474 0.000000 -0.005765 0.000000
# 4 0.000000 0.000000 0.000000 0.045541 0.000000 -0.007024
# 5 -0.005056 -0.003099 -0.005765 0.000000 0.074372 0.000000
# 6 0.000000 0.000000 0.000000 -0.007024 0.000000 0.032400
#
#
# Mechanical properties :
#
#
# Convention : Reuss Voigt Hill
#
# Bulk Modulus (GPa) = 47.11205 81.85141 64.48173
# Shear Modulus (GPa) = 20.48825 27.34071 23.91448
#
# Velocity S-wave (km/s) = 3.43022 3.96255 3.70596
# Velocity P-wave (km/s) = 6.53797 8.24276 7.43936
#
# Compressibility (1/GPa) = 0.02122599
#
# Stress axis : x y z
#
# Youngs Moduli (GPa) = 105.78896 30.29132 95.47089
#
# Poissons Ratio (x) = 0.19230 0.16271
# Poissons Ratio (y) = 0.67159 0.74508
# Poissons Ratio (z) = 0.18030 0.23640
#
# Static dielectric constant tensor:
#      x y z
#    x 3.316290 0.000000 0.071270 
#    y 0.000000 3.065970 0.000000 
#    z 0.071270 0.000000 3.588610 
# 
# 
# High freq. dielectric constant tensor:
#      x y z
#    x 1.676830 0.000000 0.003550 
#    y 0.000000 1.655790 0.000000 
#    z 0.003550 0.000000 1.679600 
# 
# From -- ./inp_files/308264.got.cif
#   From: 2010.06.25/outbox.cif.g09.slc.cpg/sg12_155_cif.got.tgz:308264.got - 2010.06.28 00:19:55.
