data_PCOD8096587
_publ_section_title
;
Structure prediction by ZEFSAII (Michael W. Deem and Ramdas Pophale) SiO2 
 PCOD8096587
Probable space group: C 2/M
;
_chemical_formula_sum "Si O2"
_cell_formula_units_Z 32
_cell_length_a 29.805184
_cell_length_b 7.585563
_cell_length_c 21.482958
_cell_angle_alpha 90.000000
_cell_angle_beta 160.566414
_cell_angle_gamma 90.000000
_cell_volume 1616.012644
_symmetry_space_group_name_H-M "C 2/M"
_symmetry_group_IT_number 12
_symmetry_cell_setting 'monoclinic'
loop_
_space_group_symop_operation_xyz
x,y,z
-x,y,-z
-x,-y,-z
x,-y,z
1/2+x,1/2+y,z
1/2-x,1/2+y,-z
1/2-x,1/2-y,-z
1/2+x,1/2-y,z
loop_
_atom_site_type_symbol
_atom_site_label
_atom_site_fract_x
_atom_site_fract_y
_atom_site_fract_z
Si Si1 0.403239 0.289215 0.570695
Si Si2 0.520722 0.693457 0.853785
Si Si3 0.899468 0.302579 0.819373
Si Si4 0.522392 0.000000 0.426642
Si Si5 0.720426 0.000000 0.799236
O O1 0.418251 0.500000 0.578668
O O2 0.478386 0.227991 0.731983
O O3 0.249308 0.219402 0.375053
O O4 0.471979 0.180244 0.605309
O O5 0.452322 0.500000 0.771470
O O6 0.463831 0.810478 0.835087
O O7 0.683906 0.674342 0.071443
O O8 0.879777 0.500000 0.817960
O O9 0.000000 0.203686 0.000000
O O10 0.644656 0.000000 0.634953
O O11 0.379436 0.000000 0.273537
#
# Coordination Sequence:
#
# PCOD8096587 Si02
#       5
#     8   8   8   4   4
#     4  10  22  38  57  90 118 150 193 240 284 351
#     4   9  20  37  55  79 120 147 184 239 284 337
#     4  10  20  33  55  86 117 149 190 233 285 353
#     4  11  22  39  67  81 113 159 196 238 296 328
#     4   9  22  41  57  89 113 147 206 242 272 358
#
# _framework density 19.801825999999998
#
# number of rings (size 3 to 8) (size 9 to 14) (size 15 to 20)
#    0.750    1.500    0.000    2.250    3.500    1.500 
#    0.000    3.750    0.000    0.000    0.000    0.000 
#    0.000    0.000    0.000    0.000    0.000    0.000 
#
# Total GULP energy -198288.213468 kJ/mol
# GULP energy per Si atom -12393.013342 kJ/mol
# Density = 1.975676 g / cm^3
# Si number density = 19.801826 Si / 1000 Ang^3
#
#
#
# Elastic Constant Matrix: (Units=GPa)
#
#
# Indices 1 2 3 4 5 6 
#
# 1 120.8931 30.6898 39.6301 0.0000 -14.9327 0.0000
# 2 30.6898 52.5796 13.7208 0.0000 -6.1793 0.0000
# 3 39.6301 13.7208 92.5322 0.0000 -18.0935 0.0000
# 4 0.0000 0.0000 0.0000 2.2854 0.0000 -0.6470
# 5 -14.9327 -6.1793 -18.0935 0.0000 36.3888 0.0000
# 6 0.0000 0.0000 0.0000 -0.6470 0.0000 25.5688
#
#
#
# Elastic Compliance Matrix: (Units=1/GPa)
#
#
# Indices 1 2 3 4 5 6 
#
# 1 0.011011 -0.005278 -0.003572 0.000000 0.001846 0.000000
# 2 -0.005278 0.022461 -0.000828 0.000000 0.001236 0.000000
# 3 -0.003572 -0.000828 0.013454 0.000000 0.005083 0.000000
# 4 0.000000 0.000000 0.000000 0.440726 0.000000 0.011152
# 5 0.001846 0.001236 0.005083 0.000000 0.030976 0.000000
# 6 0.000000 0.000000 0.000000 0.011152 0.000000 0.039392
#
#
# Mechanical properties :
#
#
# Convention : Reuss Voigt Hill
#
# Bulk Modulus (GPa) = 36.27300 48.23180 42.25240
# Shear Modulus (GPa) = 8.52421 24.97954 16.75188
#
# Velocity S-wave (km/s) = 2.07704 3.55558 2.91172
# Velocity P-wave (km/s) = 4.91018 6.42389 5.71735
#
# Compressibility (1/GPa) = 0.02756872
#
# Stress axis : x y z
#
# Youngs Moduli (GPa) = 90.82231 44.52226 74.32913
#
# Poissons Ratio (x) = 0.23497 0.26551
# Poissons Ratio (y) = 0.47932 0.06158
# Poissons Ratio (z) = 0.32443 0.03688
#
# Static dielectric constant tensor:
#      x y z
#    x 3.348000 0.000000 -0.029190 
#    y 0.000000 3.222730 0.000000 
#    z -0.029190 0.000000 3.880410 
# 
# 
# High freq. dielectric constant tensor:
#      x y z
#    x 1.762670 0.000000 -0.009520 
#    y 0.000000 1.746400 0.000000 
#    z -0.009520 0.000000 1.789630 
# 
# From -- ./inp_files/239110.got.cif
#   From: 2010.06.25/outbox.cif.g09.slc.cpg/sg12_120_cif.got.tgz:239110.got - 2010.06.28 00:19:55.
