data_PCOD8096285
_publ_section_title
;
Structure prediction by ZEFSAII (Michael W. Deem and Ramdas Pophale) SiO2 
 PCOD8096285
Probable space group: C 2/M
;
_chemical_formula_sum "Si O2"
_cell_formula_units_Z 48
_cell_length_a 19.076858
_cell_length_b 8.716069
_cell_length_c 22.367728
_cell_angle_alpha 90.000000
_cell_angle_beta 138.457837
_cell_angle_gamma 90.000000
_cell_volume 2466.464758
_symmetry_space_group_name_H-M "C 2/M"
_symmetry_group_IT_number 12
_symmetry_cell_setting 'monoclinic'
loop_
_space_group_symop_operation_xyz
x,y,z
-x,y,-z
-x,-y,-z
x,-y,z
1/2+x,1/2+y,z
1/2-x,1/2+y,-z
1/2-x,1/2-y,-z
1/2+x,1/2-y,z
loop_
_atom_site_type_symbol
_atom_site_label
_atom_site_fract_x
_atom_site_fract_y
_atom_site_fract_z
Si Si1 0.571621 0.182320 0.747273
Si Si2 0.857933 0.319635 0.549252
Si Si3 0.477030 0.320014 0.916890
Si Si4 0.760186 0.317080 0.241589
Si Si5 0.385495 0.181369 0.433426
Si Si6 0.366514 0.181962 0.081031
O O1 0.461213 0.248126 0.649483
O O2 0.670730 0.243265 0.770803
O O3 0.585307 0.237726 0.824468
O O4 0.569400 0.000000 0.742000
O O5 0.859165 0.500000 0.558985
O O6 0.750000 0.250000 0.500000
O O7 0.850238 0.270648 0.475924
O O8 0.486423 0.500000 0.909172
O O9 0.358984 0.254545 0.833215
O O10 0.558152 0.235874 0.924565
O O11 0.500000 0.282401 0.000000
O O12 0.757787 0.500000 0.237744
O O13 0.809629 0.250538 0.334165
O O14 0.500000 0.255496 0.500000
O O15 0.390916 0.000000 0.427445
O O16 0.357412 0.000000 0.073656
O O17 0.250000 0.250000 0.000000
#
# Coordination Sequence:
#
# PCOD8096285 Si02
#       6
#     8   8   8   8   8   8
#     4   9  18  34  54  78 109 145 181 221 276 330
#     4  10  20  33  52  79 111 145 180 222 272 323
#     4  10  21  37  58  84 111 141 180 228 281 334
#     4   9  16  29  52  78 105 137 179 226 266 314
#     4   9  15  27  49  78 104 134 181 226 258 302
#     4  11  23  39  59  82 111 147 185 228 278 334
#
# _framework density 19.461051999999999
#
# number of rings (size 3 to 8) (size 9 to 14) (size 15 to 20)
#    0.000    2.333    1.667    1.500    2.333    3.000 
#    0.000    0.833    0.000    1.500    0.000    0.000 
#    0.000    0.000    0.000    0.000    0.000    0.000 
#
# Total GULP energy -297410.757994 kJ/mol
# GULP energy per Si atom -12392.114916 kJ/mol
# Density = 1.941676 g / cm^3
# Si number density = 19.461052 Si / 1000 Ang^3
#
#
#
# Elastic Constant Matrix: (Units=GPa)
#
#
# Indices 1 2 3 4 5 6 
#
# 1 182.4727 42.2304 92.9754 0.0000 18.4239 0.0000
# 2 42.2304 18.2381 32.4591 0.0000 -11.8438 0.0000
# 3 92.9754 32.4591 175.0577 0.0000 8.0003 0.0000
# 4 0.0000 0.0000 0.0000 12.4082 0.0000 4.8557
# 5 18.4239 -11.8438 8.0003 0.0000 34.5869 0.0000
# 6 0.0000 0.0000 0.0000 4.8557 0.0000 25.4820
#
#
#
# Elastic Compliance Matrix: (Units=1/GPa)
#
#
# Indices 1 2 3 4 5 6 
#
# 1 -0.191784 0.832443 -0.070938 0.000000 0.403628 0.000000
# 2 0.832443 -3.470982 0.279000 0.000000 -1.696556 0.000000
# 3 -0.070938 0.279000 -0.014591 0.000000 0.136703 0.000000
# 4 0.000000 0.000000 0.000000 0.087085 0.000000 -0.016594
# 5 0.403628 -1.696556 0.136703 0.000000 -0.798677 0.000000
# 6 0.000000 0.000000 0.000000 -0.016594 0.000000 0.042406
#
#
# Mechanical properties :
#
#
# Convention : Reuss Voigt Hill
#
# Bulk Modulus (GPa) = -0.62643 79.01092 39.19225
# Shear Modulus (GPa) = -0.71843 28.36900 13.82529
#
# Velocity S-wave (km/s) = -0.60824 3.82217 2.66824
# Velocity P-wave (km/s) = 0.90326 7.75669 5.44749
#
# Compressibility (1/GPa) = -1.59634748
#
# Stress axis : x y z
#
# Youngs Moduli (GPa) = -5.21420 -0.28810 -68.53642
#
# Poissons Ratio (x) = 0.23983 -4.86186
# Poissons Ratio (y) = 4.34053 19.12167
# Poissons Ratio (z) = -0.36989 0.08038
#
# Static dielectric constant tensor:
#      x y z
#    x 3.683480 0.000000 0.059940 
#    y 0.000000 2.994780 0.000000 
#    z 0.059940 0.000000 3.830860 
# 
# 
# High freq. dielectric constant tensor:
#      x y z
#    x 1.775340 0.000000 0.000110 
#    y 0.000000 1.697410 0.000000 
#    z 0.000110 0.000000 1.780690 
# 
# From -- ./inp_files/320323.got.cif
#   From: 2010.06.25/outbox.cif.g09.slc.cpg/sg12_161_cif.got.tgz:320323.got - 2010.06.28 00:19:55.
