data_PCOD8096192
_publ_section_title
;
Structure prediction by ZEFSAII (Michael W. Deem and Ramdas Pophale) SiO2 
 PCOD8096192
Probable space group: C 2/M
;
_chemical_formula_sum "Si O2"
_cell_formula_units_Z 64
_cell_length_a 31.837519
_cell_length_b 13.816963
_cell_length_c 16.864194
_cell_angle_alpha 90.000000
_cell_angle_beta 30.264218
_cell_angle_gamma 90.000000
_cell_volume 3738.848569
_symmetry_space_group_name_H-M "C 2/M"
_symmetry_group_IT_number 12
_symmetry_cell_setting 'monoclinic'
loop_
_space_group_symop_operation_xyz
x,y,z
-x,y,-z
-x,-y,-z
x,-y,z
1/2+x,1/2+y,z
1/2-x,1/2+y,-z
1/2-x,1/2-y,-z
1/2+x,1/2-y,z
loop_
_atom_site_type_symbol
_atom_site_label
_atom_site_fract_x
_atom_site_fract_y
_atom_site_fract_z
Si Si1 0.800477 0.387991 0.776574
Si Si2 0.982028 0.258861 0.237733
Si Si3 0.675652 0.228071 0.935150
Si Si4 0.537761 0.888732 0.584185
Si Si5 0.192330 0.388630 0.749283
Si Si6 0.349284 0.111566 0.870612
Si Si7 0.863310 0.889803 0.377939
Si Si8 0.078808 0.739686 0.825938
O O1 0.778083 0.500000 0.797738
O O2 0.732071 0.324007 0.842990
O O3 0.892840 0.363967 0.594127
O O4 0.799684 0.363729 0.871295
O O5 0.944998 0.325009 0.366851
O O6 0.937204 0.153543 0.312888
O O7 0.957340 0.311794 0.195035
O O8 0.080055 0.240824 0.084211
O O9 0.701590 0.161277 0.819382
O O10 0.690896 0.171217 0.992098
O O11 0.446795 0.864158 0.697416
O O12 0.542868 0.000000 0.602295
O O13 0.166846 0.500000 0.803954
O O14 0.278026 0.378880 0.563386
O O15 0.122625 0.338474 0.809469
O O16 0.338900 0.000000 0.910312
O O17 0.860014 0.828155 0.300614
O O18 0.883656 0.000000 0.323844
O O19 0.000000 0.785807 0.000000
#
# Coordination Sequence:
#
# PCOD8096192 Si02
#       8
#     8   8   8   8   8   8   8   8
#     4  10  20  33  52  77 104 135 170 210 255 298
#     4   9  20  34  52  73 103 134 172 203 250 298
#     4  11  20  34  51  77 107 136 169 207 255 299
#     4   9  17  32  53  77 103 133 167 211 257 301
#     4  11  21  35  55  78 102 132 168 210 256 300
#     4   9  18  33  53  77 103 134 170 209 255 307
#     4   9  20  36  53  72  98 136 174 207 246 293
#     4  10  20  38  53  76 101 133 168 210 250 301
#
# _framework density 17.117570000000001
#
# number of rings (size 3 to 8) (size 9 to 14) (size 15 to 20)
#    0.750    1.500    1.250    2.250    0.000    3.500 
#    0.000    0.625    0.000    0.000    0.000    0.000 
#    0.000   18.000    0.000    0.000    0.000    0.000 
#
# Total GULP energy -396629.263782 kJ/mol
# GULP energy per Si atom -12394.664493 kJ/mol
# Density = 1.707861 g / cm^3
# Si number density = 17.117570 Si / 1000 Ang^3
#
#
#
# Elastic Constant Matrix: (Units=GPa)
#
#
# Indices 1 2 3 4 5 6 
#
# 1 88.0990 56.8900 34.3710 0.0000 10.7121 0.0000
# 2 56.8900 104.1788 52.4651 0.0000 2.6514 0.0000
# 3 34.3710 52.4651 83.1756 0.0000 7.6980 0.0000
# 4 0.0000 0.0000 0.0000 14.9244 0.0000 -6.9895
# 5 10.7121 2.6514 7.6980 0.0000 23.9025 0.0000
# 6 0.0000 0.0000 0.0000 -6.9895 0.0000 23.9214
#
#
#
# Elastic Compliance Matrix: (Units=1/GPa)
#
#
# Indices 1 2 3 4 5 6 
#
# 1 0.018783 -0.009521 -0.001108 0.000000 -0.007005 0.000000
# 2 -0.009521 0.018935 -0.008462 0.000000 0.004892 0.000000
# 3 -0.001108 -0.008462 0.018229 0.000000 -0.004436 0.000000
# 4 0.000000 0.000000 0.000000 0.077627 0.000000 0.022682
# 5 -0.007005 0.004892 -0.004436 0.000000 0.045862 0.000000
# 6 0.000000 0.000000 0.000000 0.022682 0.000000 0.048431
#
#
# Mechanical properties :
#
#
# Convention : Reuss Voigt Hill
#
# Bulk Modulus (GPa) = 56.29051 62.54505 59.41778
# Shear Modulus (GPa) = 18.38441 21.33149 19.85795
#
# Velocity S-wave (km/s) = 3.28076 3.53395 3.40971
# Velocity P-wave (km/s) = 6.87802 7.29860 7.09143
#
# Compressibility (1/GPa) = 0.01776498
#
# Stress axis : x y z
#
# Youngs Moduli (GPa) = 53.24007 52.81207 54.85794
#
# Poissons Ratio (x) = 0.50281 0.06078
# Poissons Ratio (y) = 0.50688 0.46422
# Poissons Ratio (z) = 0.05899 0.44691
#
# Static dielectric constant tensor:
#      x y z
#    x 3.162460 0.000000 0.101100 
#    y 0.000000 3.090410 0.000000 
#    z 0.101100 0.000000 3.243650 
# 
# 
# High freq. dielectric constant tensor:
#      x y z
#    x 1.656530 0.000000 0.007370 
#    y 0.000000 1.647760 0.000000 
#    z 0.007370 0.000000 1.670970 
# 
# From -- ./inp_files/246340.got.cif
#   From: 2010.06.25/outbox.cif.g09.slc.cpg/sg12_124_cif.got.tgz:246340.got - 2010.06.28 00:19:55.
