data_PCOD8096565
_publ_section_title
;
Structure prediction by ZEFSAII (Michael W. Deem and Ramdas Pophale) SiO2 
 PCOD8096565
Probable space group: C 2/M
;
_chemical_formula_sum "Si O2"
_cell_formula_units_Z 56
_cell_length_a 8.646901
_cell_length_b 25.602028
_cell_length_c 17.611795
_cell_angle_alpha 90.000000
_cell_angle_beta 140.373094
_cell_angle_gamma 90.000000
_cell_volume 2486.642139
_symmetry_space_group_name_H-M "C 2/M"
_symmetry_group_IT_number 12
_symmetry_cell_setting 'monoclinic'
loop_
_space_group_symop_operation_xyz
x,y,z
-x,y,-z
-x,-y,-z
x,-y,z
1/2+x,1/2+y,z
1/2-x,1/2+y,-z
1/2-x,1/2-y,-z
1/2+x,1/2-y,z
loop_
_atom_site_type_symbol
_atom_site_label
_atom_site_fract_x
_atom_site_fract_y
_atom_site_fract_z
Si Si1 0.821781 0.631197 0.511413
Si Si2 0.924842 0.181247 0.711044
Si Si3 0.437598 0.785824 0.305414
Si Si4 0.726268 0.857500 0.881760
Si Si5 0.887194 0.056686 0.351954
Si Si6 0.623825 0.891248 0.123200
Si Si7 0.445504 0.058540 0.293303
O O1 0.795991 0.646406 0.411136
O O2 0.562088 0.605246 0.430027
O O3 0.845065 0.683820 0.569701
O O4 0.029906 0.589174 0.616439
O O5 0.815407 0.206809 0.745013
O O6 0.996323 0.225252 0.676555
O O7 0.163526 0.148599 0.821403
O O8 0.406590 0.810008 0.210497
O O9 0.585041 0.863284 0.907135
O O10 0.728550 0.909658 0.829663
O O11 0.000000 0.841446 0.000000
O O12 0.735824 0.062512 0.216289
O O13 0.712264 0.056676 0.358154
O O14 0.020030 0.000000 0.397921
O O15 0.500000 0.913830 0.000000
O O16 0.340984 0.000000 0.266693
#
# Coordination Sequence:
#
# PCOD8096565 Si02
#       7
#     8   8   8   8   8   8   8
#     4  10  20  33  55  83 116 150 186 230 278 332
#     4  11  23  39  59  84 115 149 189 234 284 339
#     4  11  23  39  59  84 115 149 189 234 284 339
#     4  10  21  38  60  85 115 150 190 235 284 336
#     4   9  18  33  56  86 118 153 192 234 281 334
#     4  10  21  38  60  85 115 150 190 235 284 336
#     4   9  18  33  56  86 118 153 192 234 281 334
#
# _framework density 22.520330000000001
#
# number of rings (size 3 to 8) (size 9 to 14) (size 15 to 20)
#    0.000    2.000    0.000    3.429    0.000    5.714 
#    0.000    2.857    0.000   43.714    0.000    0.000 
#    0.000    0.000    0.000    0.000    0.000    0.000 
#
# Total GULP energy -347069.047541 kJ/mol
# GULP energy per Si atom -12395.323126 kJ/mol
# Density = 2.246907 g / cm^3
# Si number density = 22.520330 Si / 1000 Ang^3
#
#
#
# Elastic Constant Matrix: (Units=GPa)
#
#
# Indices 1 2 3 4 5 6 
#
# 1 80.7768 1.2083 10.3038 0.0004 -11.0025 0.0001
# 2 1.2083 75.7255 -1.1344 0.0006 -9.7243 0.0001
# 3 10.3038 -1.1344 90.5347 0.0020 -15.7524 0.0004
# 4 0.0004 0.0006 0.0020 20.4289 0.0003 3.6102
# 5 -11.0025 -9.7243 -15.7524 0.0003 37.5202 0.0003
# 6 0.0001 0.0001 0.0004 3.6102 0.0003 25.2895
#
#
#
# Elastic Compliance Matrix: (Units=1/GPa)
#
#
# Indices 1 2 3 4 5 6 
#
# 1 0.012963 0.000229 -0.000864 0.000000 0.003498 0.000000
# 2 0.000229 0.013725 0.000838 -0.000001 0.003976 0.000000
# 3 -0.000864 0.000838 0.012027 -0.000001 0.005013 0.000000
# 4 0.000000 -0.000001 -0.000001 0.050217 -0.000001 -0.007169
# 5 0.003498 0.003976 0.005013 -0.000001 0.030813 0.000000
# 6 0.000000 0.000000 0.000000 -0.007169 0.000000 0.040565
#
#
# Mechanical properties :
#
#
# Convention : Reuss Voigt Hill
#
# Bulk Modulus (GPa) = 25.56160 29.75472 27.65816
# Shear Modulus (GPa) = 28.91103 32.42500 30.66802
#
# Velocity S-wave (km/s) = 3.58687 3.79860 3.69425
# Velocity P-wave (km/s) = 5.34128 5.69914 5.52311
#
# Compressibility (1/GPa) = 0.03912118
#
# Stress axis : x y z
#
# Youngs Moduli (GPa) = 77.14254 72.85938 83.14959
#
# Poissons Ratio (x) = -0.01672 0.07183
# Poissons Ratio (y) = -0.01770 -0.06965
# Poissons Ratio (z) = 0.06664 -0.06103
#
# Static dielectric constant tensor:
#      x y z
#    x 3.924750 0.000000 -0.138710 
#    y 0.000000 4.114650 0.000000 
#    z -0.138710 0.000000 4.045820 
# 
# 
# High freq. dielectric constant tensor:
#      x y z
#    x 1.881690 0.000000 -0.008230 
#    y 0.000000 1.879470 0.000000 
#    z -0.008230 0.000000 1.892900 
# 
# From -- ./inp_files/259862.got.cif
#   From: 2010.06.25/outbox.cif.g09.slc.cpg/sg12_130_cif.got.tgz:259862.got - 2010.06.28 00:19:55.
