data_PCOD8096215
_publ_section_title
;
Structure prediction by ZEFSAII (Michael W. Deem and Ramdas Pophale) SiO2 
 PCOD8096215
Probable space group: C 2/M
;
_chemical_formula_sum "Si O2"
_cell_formula_units_Z 64
_cell_length_a 19.474017
_cell_length_b 9.131101
_cell_length_c 19.489959
_cell_angle_alpha 90.000000
_cell_angle_beta 90.537328
_cell_angle_gamma 90.000000
_cell_volume 3465.536829
_symmetry_space_group_name_H-M "C 2/M"
_symmetry_group_IT_number 12
_symmetry_cell_setting 'monoclinic'
loop_
_space_group_symop_operation_xyz
x,y,z
-x,y,-z
-x,-y,-z
x,-y,z
1/2+x,1/2+y,z
1/2-x,1/2+y,-z
1/2-x,1/2-y,-z
1/2+x,1/2-y,z
loop_
_atom_site_type_symbol
_atom_site_label
_atom_site_fract_x
_atom_site_fract_y
_atom_site_fract_z
Si Si1 0.661397 0.670294 0.051502
Si Si2 0.558704 0.328521 0.656789
Si Si3 0.199064 0.666954 0.412506
Si Si4 0.922758 0.329010 0.690802
Si Si5 0.684358 0.828828 0.916042
Si Si6 0.665540 0.169310 0.566583
Si Si7 0.094102 0.832686 0.810855
Si Si8 0.061492 0.170301 0.171539
O O1 0.657824 0.500000 0.033053
O O2 0.735090 0.711457 0.084629
O O3 0.602130 0.715915 0.103785
O O4 0.647845 0.757755 0.981619
O O5 0.548827 0.500000 0.643919
O O6 0.484525 0.254149 0.654131
O O7 0.602991 0.260169 0.596700
O O8 0.595170 0.298484 0.729996
O O9 0.225776 0.500000 0.408920
O O10 0.145499 0.701653 0.352634
O O11 0.263039 0.773677 0.401499
O O12 0.163155 0.695656 0.485176
O O13 0.940658 0.500000 0.694865
O O14 0.909246 0.267137 0.766422
O O15 0.650630 0.769065 0.846409
O O16 0.671809 0.000000 0.919643
O O17 0.657187 0.000000 0.586194
O O18 0.018903 0.797858 0.841000
O O19 0.114232 0.000000 0.825515
O O20 0.073036 0.000000 0.190392
#
# Coordination Sequence:
#
# PCOD8096215 Si02
#       8
#     8   8   8   8   8   8   8   8
#     4   9  19  36  54  72 100 136 170 206 251 304
#     4  10  21  37  55  77 107 140 176 216 260 313
#     4   9  20  37  54  77 109 141 174 215 265 316
#     4  10  20  35  55  78 106 138 173 216 264 312
#     4  10  20  33  52  78 104 130 166 212 254 299
#     4  10  20  35  56  79 105 139 178 219 261 309
#     4   9  19  35  53  72  99 135 168 205 254 306
#     4   9  19  36  55  75 100 134 176 214 252 303
#
# _framework density 18.467558
#
# number of rings (size 3 to 8) (size 9 to 14) (size 15 to 20)
#    0.000    2.500    0.000    2.250    0.000    7.000 
#    0.000    7.500    0.000    0.000    0.000    0.000 
#    0.000    0.000    0.000    0.000    0.000    0.000 
#
# Total GULP energy -396919.841076 kJ/mol
# GULP energy per Si atom -12403.745034 kJ/mol
# Density = 1.842553 g / cm^3
# Si number density = 18.467558 Si / 1000 Ang^3
#
#
#
# Elastic Constant Matrix: (Units=GPa)
#
#
# Indices 1 2 3 4 5 6 
#
# 1 22.4816 13.5592 -0.8469 0.0000 -3.0860 0.0000
# 2 13.5592 71.1302 14.0412 0.0000 2.4663 0.0000
# 3 -0.8469 14.0412 23.5760 0.0000 0.1832 0.0000
# 4 0.0000 0.0000 0.0000 36.2424 0.0000 -0.0827
# 5 -3.0860 2.4663 0.1832 0.0000 34.1501 0.0000
# 6 0.0000 0.0000 0.0000 -0.0827 0.0000 32.0852
#
#
#
# Elastic Compliance Matrix: (Units=1/GPa)
#
#
# Indices 1 2 3 4 5 6 
#
# 1 0.052860 -0.012054 0.009034 0.000000 0.005599 0.000000
# 2 -0.012054 0.018722 -0.011565 0.000000 -0.002379 0.000000
# 3 0.009034 -0.011565 0.049617 0.000000 0.001385 0.000000
# 4 0.000000 0.000000 0.000000 0.027592 0.000000 0.000071
# 5 0.005599 -0.002379 0.001385 0.000000 0.029953 0.000000
# 6 0.000000 0.000000 0.000000 0.000071 0.000000 0.031167
#
#
# Mechanical properties :
#
#
# Convention : Reuss Voigt Hill
#
# Bulk Modulus (GPa) = 10.86597 18.96607 14.91602
# Shear Modulus (GPa) = 18.53522 26.52451 22.52986
#
# Velocity S-wave (km/s) = 3.17150 3.79393 3.49660
# Velocity P-wave (km/s) = 4.39407 5.42993 4.93923
#
# Compressibility (1/GPa) = 0.09203046
#
# Stress axis : x y z
#
# Youngs Moduli (GPa) = 18.91797 53.41336 20.15423
#
# Poissons Ratio (x) = 0.64384 -0.18208
# Poissons Ratio (y) = 0.22804 0.23308
# Poissons Ratio (z) = -0.17091 0.61771
#
# Static dielectric constant tensor:
#      x y z
#    x 3.341330 0.000000 -0.064790 
#    y 0.000000 3.454580 0.000000 
#    z -0.064790 0.000000 3.337500 
# 
# 
# High freq. dielectric constant tensor:
#      x y z
#    x 1.713770 0.000000 -0.002500 
#    y 0.000000 1.723120 0.000000 
#    z -0.002500 0.000000 1.714480 
# 
# From -- ./inp_files/314193.got.cif
#   From: 2010.06.25/outbox.cif.g09.slc.cpg/sg12_158_cif.got.tgz:314193.got - 2010.06.28 00:19:55.
