data_PCOD8096315
_publ_section_title
;
Structure prediction by ZEFSAII (Michael W. Deem and Ramdas Pophale) SiO2 
 PCOD8096315
Probable space group: C 2/M
;
_chemical_formula_sum "Si O2"
_cell_formula_units_Z 64
_cell_length_a 9.776853
_cell_length_b 15.687841
_cell_length_c 21.437206
_cell_angle_alpha 90.000000
_cell_angle_beta 96.647997
_cell_angle_gamma 90.000000
_cell_volume 3265.881676
_symmetry_space_group_name_H-M "C 2/M"
_symmetry_group_IT_number 12
_symmetry_cell_setting 'monoclinic'
loop_
_space_group_symop_operation_xyz
x,y,z
-x,y,-z
-x,-y,-z
x,-y,z
1/2+x,1/2+y,z
1/2-x,1/2+y,-z
1/2-x,1/2-y,-z
1/2+x,1/2-y,z
loop_
_atom_site_type_symbol
_atom_site_label
_atom_site_fract_x
_atom_site_fract_y
_atom_site_fract_z
Si Si1 0.633115 0.242087 0.544033
Si Si2 0.888970 0.686088 0.124529
Si Si3 0.926937 0.899092 0.371507
Si Si4 0.704018 0.903719 0.263274
Si Si5 0.754760 0.099491 0.638453
Si Si6 0.406408 0.901286 0.250019
Si Si7 0.661230 0.092515 0.997322
Si Si8 0.704585 0.160210 0.129893
O O1 0.500000 0.212021 0.500000
O O2 0.750000 0.250000 0.500000
O O3 0.609029 0.335530 0.573671
O O4 0.668902 0.164328 0.591686
O O5 0.859107 0.618678 0.177477
O O6 0.808841 0.657846 0.057304
O O7 0.822851 0.771532 0.145867
O O8 0.051065 0.699594 0.120553
O O9 0.830767 0.865242 0.309447
O O10 0.083412 0.884130 0.358850
O O11 0.905158 0.000000 0.388534
O O12 0.557167 0.858102 0.272480
O O13 0.725465 0.901836 0.189697
O O14 0.699766 0.000000 0.285179
O O15 0.710226 0.124150 0.706606
O O16 0.719060 0.000000 0.621024
O O17 0.435603 0.000000 0.253956
O O18 0.715801 0.000000 0.979177
O O19 0.500000 0.087978 0.000000
O O20 0.736763 0.115493 0.065721
#
# Coordination Sequence:
#
# PCOD8096315 Si02
#       8
#     8   8   8   8   8   8   8   8
#     4  12  26  44  65  95 124 157 197 244 292 358
#     4  10  20  33  52  81 112 148 187 236 290 342
#     4  10  23  43  66  90 123 163 200 243 297 356
#     4   9  19  36  58  84 112 149 196 241 288 342
#     4  10  23  43  65  91 124 160 200 246 297 353
#     4   9  19  36  58  84 113 148 195 244 287 340
#     4   9  17  32  55  77 104 145 193 241 284 335
#     4  10  20  33  52  81 112 147 188 237 288 342
#
# _framework density 19.596546
#
# number of rings (size 3 to 8) (size 9 to 14) (size 15 to 20)
#    0.000    2.125    1.250    1.125    3.500    5.000 
#    0.000    0.000    0.000    3.000    0.000    0.000 
#    0.000    0.000    0.000    0.000    0.000    0.000 
#
# Total GULP energy -396515.824826 kJ/mol
# GULP energy per Si atom -12391.119526 kJ/mol
# Density = 1.955194 g / cm^3
# Si number density = 19.596546 Si / 1000 Ang^3
#
#
#
# Elastic Constant Matrix: (Units=GPa)
#
#
# Indices 1 2 3 4 5 6 
#
# 1 87.5800 41.0187 49.4079 0.0000 3.9546 0.0000
# 2 41.0187 63.1054 35.7378 0.0000 -6.7429 0.0000
# 3 49.4079 35.7378 114.5907 0.0000 3.7180 0.0000
# 4 0.0000 0.0000 0.0000 31.3010 0.0000 1.9413
# 5 3.9546 -6.7429 3.7180 0.0000 25.8133 0.0000
# 6 0.0000 0.0000 0.0000 1.9413 0.0000 19.8944
#
#
#
# Elastic Compliance Matrix: (Units=1/GPa)
#
#
# Indices 1 2 3 4 5 6 
#
# 1 0.019208 -0.010212 -0.004938 0.000000 -0.004899 0.000000
# 2 -0.010212 0.025620 -0.003873 0.000000 0.008815 0.000000
# 3 -0.004938 -0.003873 0.012129 0.000000 -0.002002 0.000000
# 4 0.000000 0.000000 0.000000 0.032142 0.000000 -0.003136
# 5 -0.004899 0.008815 -0.002002 0.000000 0.042081 0.000000
# 6 0.000000 0.000000 0.000000 -0.003136 0.000000 0.050571
#
#
# Mechanical properties :
#
#
# Convention : Reuss Voigt Hill
#
# Bulk Modulus (GPa) = 52.88202 57.51166 55.19684
# Shear Modulus (GPa) = 22.11398 24.67584 23.39491
#
# Velocity S-wave (km/s) = 3.36290 3.55236 3.45893
# Velocity P-wave (km/s) = 6.49021 6.79980 6.64681
#
# Compressibility (1/GPa) = 0.01891002
#
# Stress axis : x y z
#
# Youngs Moduli (GPa) = 52.06130 39.03248 82.44946
#
# Poissons Ratio (x) = 0.39861 0.40714
# Poissons Ratio (y) = 0.53167 0.31932
# Poissons Ratio (z) = 0.25708 0.15117
#
# Static dielectric constant tensor:
#      x y z
#    x 3.649330 0.000000 0.008970 
#    y 0.000000 3.652370 0.000000 
#    z 0.008970 0.000000 3.861220 
# 
# 
# High freq. dielectric constant tensor:
#      x y z
#    x 1.755640 0.000000 0.001280 
#    y 0.000000 1.755290 0.000000 
#    z 0.001280 0.000000 1.772500 
# 
# From -- ./inp_files/332945.got.cif
#   From: 2010.06.25/outbox.cif.g09.slc.cpg/sg12_167_cif.got.tgz:332945.got - 2010.06.28 00:19:55.
