data_PCOD8096265
_publ_section_title
;
Structure prediction by ZEFSAII (Michael W. Deem and Ramdas Pophale) SiO2 
 PCOD8096265
Probable space group: C 2/M
;
_chemical_formula_sum "Si O2"
_cell_formula_units_Z 48
_cell_length_a 10.950049
_cell_length_b 24.035534
_cell_length_c 9.329009
_cell_angle_alpha 90.000000
_cell_angle_beta 96.197268
_cell_angle_gamma 90.000000
_cell_volume 2440.955922
_symmetry_space_group_name_H-M "C 2/M"
_symmetry_group_IT_number 12
_symmetry_cell_setting 'monoclinic'
loop_
_space_group_symop_operation_xyz
x,y,z
-x,y,-z
-x,-y,-z
x,-y,z
1/2+x,1/2+y,z
1/2-x,1/2+y,-z
1/2-x,1/2-y,-z
1/2+x,1/2-y,z
loop_
_atom_site_type_symbol
_atom_site_label
_atom_site_fract_x
_atom_site_fract_y
_atom_site_fract_z
Si Si1 0.508255 0.834482 0.330560
Si Si2 0.611270 0.435241 0.420851
Si Si3 0.875633 0.063305 0.897406
Si Si4 0.122027 0.438556 0.416195
Si Si5 0.604958 0.241293 0.113037
Si Si6 0.287435 0.837077 0.101574
O O1 0.500000 0.823212 0.500000
O O2 0.597988 0.887255 0.305879
O O3 0.558721 0.778702 0.262477
O O4 0.379023 0.850595 0.243162
O O5 0.500000 0.407350 0.500000
O O6 0.584812 0.500000 0.414134
O O7 0.598666 0.412820 0.258030
O O8 0.749878 0.423389 0.490295
O O9 0.778437 0.105741 0.954689
O O10 0.822382 0.000000 0.889378
O O11 0.000000 0.065158 0.000000
O O12 0.133459 0.500000 0.344858
O O13 0.000000 0.438694 0.500000
O O14 0.701737 0.289008 0.155380
O O15 0.500000 0.268730 0.000000
O O16 0.651679 0.186523 0.034831
#
# Coordination Sequence:
#
# PCOD8096265 Si02
#       6
#     8   8   8   8   8   8
#     4  10  20  34  55  83 108 132 176 232 271 310
#     4   9  18  33  51  74 109 149 182 215 267 332
#     4  10  20  33  52  79 107 136 176 225 269 313
#     4   9  17  31  53  79 110 147 178 211 269 336
#     4   9  20  38  56  74 100 141 183 215 264 330
#     4  10  20  37  57  73 103 146 179 214 267 331
#
# _framework density 19.664427
#
# number of rings (size 3 to 8) (size 9 to 14) (size 15 to 20)
#    0.000    2.500    0.000    2.500    0.000    4.000 
#    0.000    3.333    0.000    3.000    0.000    0.000 
#    0.000    0.000    0.000    0.000    0.000    0.000 
#
# Total GULP energy -297336.649638 kJ/mol
# GULP energy per Si atom -12389.027068 kJ/mol
# Density = 1.961967 g / cm^3
# Si number density = 19.664427 Si / 1000 Ang^3
#
#
#
# Elastic Constant Matrix: (Units=GPa)
#
#
# Indices 1 2 3 4 5 6 
#
# 1 107.9819 26.6251 35.4357 0.0000 15.7745 0.0000
# 2 26.6251 63.8296 39.5578 0.0000 11.1631 0.0000
# 3 35.4357 39.5578 86.8624 0.0000 15.8836 0.0000
# 4 0.0000 0.0000 0.0000 16.5703 0.0000 5.5188
# 5 15.7745 11.1631 15.8836 0.0000 27.9354 0.0000
# 6 0.0000 0.0000 0.0000 5.5188 0.0000 31.6297
#
#
#
# Elastic Compliance Matrix: (Units=1/GPa)
#
#
# Indices 1 2 3 4 5 6 
#
# 1 0.011329 -0.002263 -0.002887 0.000000 -0.003851 0.000000
# 2 -0.002263 0.022577 -0.008864 0.000000 -0.002704 0.000000
# 3 -0.002887 -0.008864 0.017612 0.000000 -0.004842 0.000000
# 4 0.000000 0.000000 0.000000 0.064072 0.000000 -0.011179
# 5 -0.003851 -0.002704 -0.004842 0.000000 0.041805 0.000000
# 6 0.000000 0.000000 0.000000 -0.011179 0.000000 0.033566
#
#
# Mechanical properties :
#
#
# Convention : Reuss Voigt Hill
#
# Bulk Modulus (GPa) = 42.57052 51.32344 46.94698
# Shear Modulus (GPa) = 22.04393 25.69743 23.87068
#
# Velocity S-wave (km/s) = 3.35177 3.61889 3.48789
# Velocity P-wave (km/s) = 6.05596 6.60440 6.33612
#
# Compressibility (1/GPa) = 0.02349043
#
# Stress axis : x y z
#
# Youngs Moduli (GPa) = 88.27107 44.29288 56.77855
#
# Poissons Ratio (x) = 0.10023 0.16391
# Poissons Ratio (y) = 0.19975 0.50329
# Poissons Ratio (z) = 0.25482 0.39262
#
# Static dielectric constant tensor:
#      x y z
#    x 3.794680 0.000000 0.037140 
#    y 0.000000 3.709710 0.000000 
#    z 0.037140 0.000000 3.454950 
# 
# 
# High freq. dielectric constant tensor:
#      x y z
#    x 1.773450 0.000000 0.015270 
#    y 0.000000 1.761520 0.000000 
#    z 0.015270 0.000000 1.747420 
# 
# From -- ./inp_files/50810.got.cif
#   From: 2010.06.25/outbox.cif.g09.slc.cpg/sg12_26_cif.got.tgz:50810.got - 2010.06.28 00:19:55.
