data_PCOD8096212
_publ_section_title
;
Structure prediction by ZEFSAII (Michael W. Deem and Ramdas Pophale) SiO2 
 PCOD8096212
Probable space group: C 2/M
;
_chemical_formula_sum "Si O2"
_cell_formula_units_Z 48
_cell_length_a 14.045321
_cell_length_b 9.257933
_cell_length_c 21.695588
_cell_angle_alpha 90.000000
_cell_angle_beta 106.679706
_cell_angle_gamma 90.000000
_cell_volume 2702.391588
_symmetry_space_group_name_H-M "C 2/M"
_symmetry_group_IT_number 12
_symmetry_cell_setting 'monoclinic'
loop_
_space_group_symop_operation_xyz
x,y,z
-x,y,-z
-x,-y,-z
x,-y,z
1/2+x,1/2+y,z
1/2-x,1/2+y,-z
1/2-x,1/2-y,-z
1/2+x,1/2-y,z
loop_
_atom_site_type_symbol
_atom_site_label
_atom_site_fract_x
_atom_site_fract_y
_atom_site_fract_z
Si Si1 0.376105 0.667284 0.764545
Si Si2 0.200811 0.166558 0.676522
Si Si3 0.954242 0.331817 0.895293
Si Si4 0.847393 0.332689 0.999239
Si Si5 0.524783 0.666926 0.346282
Si Si6 0.700515 0.168236 0.434667
O O1 0.357265 0.500000 0.773988
O O2 0.269301 0.740657 0.734655
O O3 0.431504 0.735883 0.832326
O O4 0.446797 0.692992 0.719225
O O5 0.229579 0.193929 0.611191
O O6 0.088058 0.217158 0.665102
O O7 0.214878 0.000000 0.697607
O O8 0.951602 0.500000 0.876692
O O9 0.873837 0.298421 0.933349
O O10 0.062530 0.286063 0.939725
O O11 0.825858 0.500000 0.003709
O O12 0.750000 0.250000 0.000000
O O13 0.539781 0.500000 0.368059
O O14 0.591945 0.765065 0.402986
O O15 0.750000 0.250000 0.500000
O O16 0.688703 0.000000 0.448262
#
# Coordination Sequence:
#
# PCOD8096212 Si02
#       6
#     8   8   8   8   8   8
#     4  10  20  33  52  78 103 128 165 213 253 287
#     4   9  19  36  55  73  99 137 171 201 248 306
#     4   9  19  36  53  71 102 139 168 198 248 309
#     4   9  19  35  54  75 100 133 170 208 249 295
#     4   9  19  36  54  73 100 132 168 208 248 295
#     4  10  20  34  53  76 102 133 168 206 250 298
#
# _framework density 17.762045000000001
#
# number of rings (size 3 to 8) (size 9 to 14) (size 15 to 20)
#    0.000    2.667    0.000    2.000    0.000    5.333 
#    0.000   10.000    0.000    0.000    0.000    0.000 
#    0.000    0.000    0.000    0.000    0.000    0.000 
#
# Total GULP energy -297659.592550 kJ/mol
# GULP energy per Si atom -12402.483023 kJ/mol
# Density = 1.772162 g / cm^3
# Si number density = 17.762045 Si / 1000 Ang^3
#
#
#
# Elastic Constant Matrix: (Units=GPa)
#
#
# Indices 1 2 3 4 5 6 
#
# 1 135.9299 55.0564 41.0269 0.0000 14.4269 0.0000
# 2 55.0564 92.8825 65.6227 0.0000 12.4504 0.0000
# 3 41.0269 65.6227 111.9545 0.0000 16.1101 0.0000
# 4 0.0000 0.0000 0.0000 39.0394 0.0000 3.6531
# 5 14.4269 12.4504 16.1101 0.0000 15.2666 0.0000
# 6 0.0000 0.0000 0.0000 3.6531 0.0000 33.2289
#
#
#
# Elastic Compliance Matrix: (Units=1/GPa)
#
#
# Indices 1 2 3 4 5 6 
#
# 1 0.010040 -0.005426 0.000271 0.000000 -0.005349 0.000000
# 2 -0.005426 0.021547 -0.010436 0.000000 -0.001433 0.000000
# 3 0.000271 -0.010436 0.016226 0.000000 -0.008868 0.000000
# 4 0.000000 0.000000 0.000000 0.025881 0.000000 -0.002845
# 5 -0.005349 -0.001433 -0.008868 0.000000 0.081083 0.000000
# 6 0.000000 0.000000 0.000000 -0.002845 0.000000 0.030407
#
#
# Mechanical properties :
#
#
# Convention : Reuss Voigt Hill
#
# Bulk Modulus (GPa) = 60.12381 73.79765 66.96073
# Shear Modulus (GPa) = 22.53159 29.44437 25.98798
#
# Velocity S-wave (km/s) = 3.56550 4.07592 3.82922
# Velocity P-wave (km/s) = 7.13256 7.98680 7.57174
#
# Compressibility (1/GPa) = 0.01663235
#
# Stress axis : x y z
#
# Youngs Moduli (GPa) = 99.59835 46.40947 61.62970
#
# Poissons Ratio (x) = 0.25180 -0.01667
# Poissons Ratio (y) = 0.54038 0.64314
# Poissons Ratio (z) = -0.02695 0.48431
#
# Static dielectric constant tensor:
#      x y z
#    x 3.304850 0.000000 0.015780 
#    y 0.000000 3.309720 0.000000 
#    z 0.015780 0.000000 3.228690 
# 
# 
# High freq. dielectric constant tensor:
#      x y z
#    x 1.689800 0.000000 0.004000 
#    y 0.000000 1.690400 0.000000 
#    z 0.004000 0.000000 1.688460 
# 
# From -- ./inp_files/308261.got.cif
#   From: 2010.06.25/outbox.cif.g09.slc.cpg/sg12_155_cif.got.tgz:308261.got - 2010.06.28 00:19:55.
