data_PCOD8096609
_publ_section_title
;
Structure prediction by ZEFSAII (Michael W. Deem and Ramdas Pophale) SiO2 
 PCOD8096609
Probable space group: C 2/M
;
_chemical_formula_sum "Si O2"
_cell_formula_units_Z 56
_cell_length_a 18.697345
_cell_length_b 9.121741
_cell_length_c 18.696327
_cell_angle_alpha 90.000000
_cell_angle_beta 67.738786
_cell_angle_gamma 90.000000
_cell_volume 2951.036756
_symmetry_space_group_name_H-M "C 2/M"
_symmetry_group_IT_number 12
_symmetry_cell_setting 'monoclinic'
loop_
_space_group_symop_operation_xyz
x,y,z
-x,y,-z
-x,-y,-z
x,-y,z
1/2+x,1/2+y,z
1/2-x,1/2+y,-z
1/2-x,1/2-y,-z
1/2+x,1/2-y,z
loop_
_atom_site_type_symbol
_atom_site_label
_atom_site_fract_x
_atom_site_fract_y
_atom_site_fract_z
Si Si1 0.449846 0.664969 0.958394
Si Si2 0.920879 0.173715 0.495707
Si Si3 0.031653 0.825859 0.206509
Si Si4 0.724886 0.335660 0.940333
Si Si5 0.115639 0.826143 0.650733
Si Si6 0.689864 0.327646 0.213802
Si Si7 0.772420 0.827166 0.638626
O O1 0.482086 0.500000 0.935888
O O2 0.455965 0.741532 0.877971
O O3 0.500000 0.748810 0.000000
O O4 0.366222 0.661108 0.023645
O O5 0.912679 0.223672 0.416849
O O6 0.845878 0.231981 0.566391
O O7 0.000000 0.239333 0.500000
O O8 0.924291 0.000000 0.500883
O O9 0.102744 0.773677 0.229429
O O10 0.950402 0.770837 0.269370
O O11 0.033251 0.000000 0.203757
O O12 0.759295 0.500000 0.928637
O O13 0.750140 0.254566 0.859264
O O14 0.750000 0.250000 0.000000
O O15 0.196047 0.751577 0.639593
O O16 0.127119 0.000000 0.649958
O O17 0.698096 0.500000 0.196610
O O18 0.711474 0.284701 0.285832
O O19 0.761179 0.000000 0.632765
#
# Coordination Sequence:
#
# PCOD8096609 Si02
#       7
#     8   8   8   8   8   8   8
#     4   9  18  31  50  75 102 134 173 216 263 310
#     4   9  17  33  57  84 107 138 186 227 261 312
#     4   9  17  32  52  74 101 137 180 223 260 306
#     4  11  21  35  57  81 107 140 178 225 271 318
#     4  10  20  33  56  83 108 138 181 228 264 316
#     4  10  20  36  55  76 104 142 184 221 265 319
#     4  10  21  35  54  79 113 145 171 218 279 326
#
# _framework density 18.976382000000001
#
# number of rings (size 3 to 8) (size 9 to 14) (size 15 to 20)
#    0.000    2.286    1.429    1.714    2.000    4.000 
#    0.000    0.714    0.000    5.143    0.000    0.000 
#    0.000    0.000    0.000    0.000    0.000    0.000 
#
# Total GULP energy -347112.600972 kJ/mol
# GULP energy per Si atom -12396.878606 kJ/mol
# Density = 1.893319 g / cm^3
# Si number density = 18.976382 Si / 1000 Ang^3
#
#
#
# Elastic Constant Matrix: (Units=GPa)
#
#
# Indices 1 2 3 4 5 6 
#
# 1 166.2877 29.5918 82.9246 0.0000 8.2689 0.0000
# 2 29.5918 30.3560 30.7296 0.0000 3.0066 0.0000
# 3 82.9246 30.7296 152.4411 0.0000 -7.7746 0.0000
# 4 0.0000 0.0000 0.0000 23.0476 0.0000 -1.9885
# 5 8.2689 3.0066 -7.7746 0.0000 36.3087 0.0000
# 6 0.0000 0.0000 0.0000 -1.9885 0.0000 24.8922
#
#
#
# Elastic Compliance Matrix: (Units=1/GPa)
#
#
# Indices 1 2 3 4 5 6 
#
# 1 0.008974 -0.004295 -0.004147 0.000000 -0.002576 0.000000
# 2 -0.004295 0.044466 -0.006840 0.000000 -0.004169 0.000000
# 3 -0.004147 -0.006840 0.010385 0.000000 0.003735 0.000000
# 4 0.000000 0.000000 0.000000 0.043690 0.000000 0.003490
# 5 -0.002576 -0.004169 0.003735 0.000000 0.029273 0.000000
# 6 0.000000 0.000000 0.000000 0.003490 0.000000 0.040452
#
#
# Mechanical properties :
#
#
# Convention : Reuss Voigt Hill
#
# Bulk Modulus (GPa) = 30.06487 70.61966 50.34226
# Shear Modulus (GPa) = 22.84228 30.57227 26.70728
#
# Velocity S-wave (km/s) = 3.47323 4.01817 3.75560
# Velocity P-wave (km/s) = 5.65351 7.66961 6.73740
#
# Compressibility (1/GPa) = 0.03326142
#
# Stress axis : x y z
#
# Youngs Moduli (GPa) = 111.42900 22.48900 96.28936
#
# Poissons Ratio (x) = 0.09658 0.39936
# Poissons Ratio (y) = 0.47856 0.65862
# Poissons Ratio (z) = 0.46215 0.15383
#
# Static dielectric constant tensor:
#      x y z
#    x 3.617820 0.000000 0.142050 
#    y 0.000000 3.069690 0.000000 
#    z 0.142050 0.000000 3.771610 
# 
# 
# High freq. dielectric constant tensor:
#      x y z
#    x 1.752300 0.000000 0.001790 
#    y 0.000000 1.683700 0.000000 
#    z 0.001790 0.000000 1.756420 
# 
# From -- ./inp_files/275092.got.cif
#   From: 2010.06.25/outbox.cif.g09.slc.cpg/sg12_138_cif.got.tgz:275092.got - 2010.06.28 00:19:55.
