data_PCOD8096109
_publ_section_title
;
Structure prediction by ZEFSAII (Michael W. Deem and Ramdas Pophale) SiO2 
 PCOD8096109
Probable space group: C 2/M
;
_chemical_formula_sum "Si O2"
_cell_formula_units_Z 56
_cell_length_a 28.759222
_cell_length_b 9.212571
_cell_length_c 20.430466
_cell_angle_alpha 90.000000
_cell_angle_beta 147.773240
_cell_angle_gamma 90.000000
_cell_volume 2886.586478
_symmetry_space_group_name_H-M "C 2/M"
_symmetry_group_IT_number 12
_symmetry_cell_setting 'monoclinic'
loop_
_space_group_symop_operation_xyz
x,y,z
-x,y,-z
-x,-y,-z
x,-y,z
1/2+x,1/2+y,z
1/2-x,1/2+y,-z
1/2-x,1/2-y,-z
1/2+x,1/2-y,z
loop_
_atom_site_type_symbol
_atom_site_label
_atom_site_fract_x
_atom_site_fract_y
_atom_site_fract_z
Si Si1 0.997354 0.168637 0.201658
Si Si2 0.443447 0.666987 0.281660
Si Si3 0.353906 0.669448 0.926934
Si Si4 0.385783 0.331524 0.436539
Si Si5 0.804853 0.668032 0.745690
Si Si6 0.664074 0.829129 0.746889
Si Si7 0.668494 0.171883 0.370873
O O1 0.945385 0.196189 0.206752
O O2 0.081862 0.269318 0.301953
O O3 0.025405 0.000000 0.229736
O O4 0.934466 0.216377 0.067848
O O5 0.422110 0.500000 0.271637
O O6 0.536478 0.711897 0.422682
O O7 0.367081 0.765148 0.220978
O O8 0.354158 0.500000 0.913368
O O9 0.363071 0.747099 0.867891
O O10 0.264616 0.715720 0.856604
O O11 0.388788 0.500000 0.420621
O O12 0.296895 0.291348 0.368407
O O13 0.394540 0.240050 0.380436
O O14 0.820673 0.500000 0.777802
O O15 0.835740 0.713497 0.710569
O O16 0.650360 0.000000 0.730301
O O17 0.750000 0.250000 0.500000
O O18 0.677167 0.000000 0.391664
#
# Coordination Sequence:
#
# PCOD8096109 Si02
#       7
#     8   8   8   8   8   8   8
#     4  10  22  40  58  78 109 147 186 227 270 322
#     4  10  20  34  53  76 105 144 185 224 271 325
#     4   9  20  38  57  79 109 145 184 226 274 324
#     4   9  17  32  53  76 103 138 179 218 265 327
#     4   9  19  36  58  81 108 143 181 223 268 321
#     4  10  20  33  51  78 109 139 177 226 275 323
#     4  11  23  39  60  87 115 143 178 221 272 326
#
# _framework density 19.400078000000001
#
# number of rings (size 3 to 8) (size 9 to 14) (size 15 to 20)
#    0.000    2.286    0.000    2.143    0.000    8.571 
#    0.000    5.714    0.000    0.000    0.000    0.000 
#    0.000    0.000    0.000    0.000    0.000    0.000 
#
# Total GULP energy -347320.590411 kJ/mol
# GULP energy per Si atom -12404.306800 kJ/mol
# Density = 1.935592 g / cm^3
# Si number density = 19.400078 Si / 1000 Ang^3
#
#
#
# Elastic Constant Matrix: (Units=GPa)
#
#
# Indices 1 2 3 4 5 6 
#
# 1 84.8602 41.7708 25.5146 0.0000 -11.9885 0.0000
# 2 41.7708 68.7080 43.8720 0.0000 -6.0788 0.0000
# 3 25.5146 43.8720 98.9295 0.0000 -13.5012 0.0000
# 4 0.0000 0.0000 0.0000 27.7956 0.0000 -1.1041
# 5 -11.9885 -6.0788 -13.5012 0.0000 24.4858 0.0000
# 6 0.0000 0.0000 0.0000 -1.1041 0.0000 35.5701
#
#
#
# Elastic Compliance Matrix: (Units=1/GPa)
#
#
# Indices 1 2 3 4 5 6 
#
# 1 0.017764 -0.010972 0.001189 0.000000 0.006629 0.000000
# 2 -0.010972 0.027081 -0.009727 0.000000 -0.004013 0.000000
# 3 0.001189 -0.009727 0.014993 0.000000 0.006434 0.000000
# 4 0.000000 0.000000 0.000000 0.036021 0.000000 0.001118
# 5 0.006629 -0.004013 0.006434 0.000000 0.046637 0.000000
# 6 0.000000 0.000000 0.000000 0.001118 0.000000 0.028148
#
#
# Mechanical properties :
#
#
# Convention : Reuss Voigt Hill
#
# Bulk Modulus (GPa) = 48.03678 52.75692 50.39685
# Shear Modulus (GPa) = 23.08342 26.99299 25.03821
#
# Velocity S-wave (km/s) = 3.45318 3.73418 3.59642
# Velocity P-wave (km/s) = 6.38076 6.77092 6.57873
#
# Compressibility (1/GPa) = 0.02081738
#
# Stress axis : x y z
#
# Youngs Moduli (GPa) = 56.29367 36.92611 66.69596
#
# Poissons Ratio (x) = 0.40517 -0.07931
# Poissons Ratio (y) = 0.61767 0.64877
# Poissons Ratio (z) = -0.06694 0.35919
#
# Static dielectric constant tensor:
#      x y z
#    x 3.626500 0.000000 -0.058130 
#    y 0.000000 3.463890 0.000000 
#    z -0.058130 0.000000 3.529560 
# 
# 
# High freq. dielectric constant tensor:
#      x y z
#    x 1.760670 0.000000 -0.003200 
#    y 0.000000 1.749310 0.000000 
#    z -0.003200 0.000000 1.752100 
# 
# From -- ./inp_files/319683.got.cif
#   From: 2010.06.25/outbox.cif.g09.slc.cpg/sg12_160_cif.got.tgz:319683.got - 2010.06.28 00:19:55.
