data_PCOD8096570
_publ_section_title
;
Structure prediction by ZEFSAII (Michael W. Deem and Ramdas Pophale) SiO2 
 PCOD8096570
Probable space group: C 2/M
;
_chemical_formula_sum "Si O2"
_cell_formula_units_Z 48
_cell_length_a 18.697859
_cell_length_b 29.952969
_cell_length_c 9.391785
_cell_angle_alpha 90.000000
_cell_angle_beta 150.702628
_cell_angle_gamma 90.000000
_cell_volume 2573.906657
_symmetry_space_group_name_H-M "C 2/M"
_symmetry_group_IT_number 12
_symmetry_cell_setting 'monoclinic'
loop_
_space_group_symop_operation_xyz
x,y,z
-x,y,-z
-x,-y,-z
x,-y,z
1/2+x,1/2+y,z
1/2-x,1/2+y,-z
1/2-x,1/2-y,-z
1/2+x,1/2-y,z
loop_
_atom_site_type_symbol
_atom_site_label
_atom_site_fract_x
_atom_site_fract_y
_atom_site_fract_z
Si Si1 0.867040 0.949669 0.357197
Si Si2 0.841095 0.550872 0.259649
Si Si3 0.795792 0.875737 0.777401
Si Si4 0.382616 0.791260 0.586236
Si Si5 0.628111 0.623349 0.411656
Si Si6 0.298090 0.207847 0.768429
O O1 0.842066 0.922671 0.457045
O O2 0.000000 0.928115 0.500000
O O3 0.906845 0.000000 0.473166
O O4 0.728195 0.947652 0.016072
O O5 0.842939 0.500000 0.322123
O O6 0.760321 0.580950 0.236296
O O7 0.000000 0.569758 0.500000
O O8 0.684310 0.834720 0.607910
O O9 0.803299 0.885957 0.623261
O O10 0.957876 0.862777 0.111414
O O11 0.342402 0.789768 0.681378
O O12 0.310882 0.748583 0.383525
O O13 0.559347 0.790544 0.881528
O O14 0.711576 0.661952 0.643288
#
# Coordination Sequence:
#
# PCOD8096570 Si02
#       6
#     8   8   8   8   8   8
#     4  10  20  37  57  78 106 145 186 219 264 325
#     4  10  22  39  57  77 107 147 184 219 268 329
#     4  10  20  34  54  83 112 140 179 227 272 311
#     4   9  17  30  50  76 109 143 178 218 264 321
#     4  10  20  33  55  84 111 139 179 229 270 311
#     4   9  17  30  50  77 108 143 178 217 267 319
#
# _framework density 18.648695
#
# number of rings (size 3 to 8) (size 9 to 14) (size 15 to 20)
#    0.000    2.333    1.667    1.000    2.333    4.667 
#    0.000    1.667    0.000    5.000    0.000    0.000 
#    0.000    0.000    0.000    0.000    0.000    0.000 
#
# Total GULP energy -297544.590845 kJ/mol
# GULP energy per Si atom -12397.691285 kJ/mol
# Density = 1.860625 g / cm^3
# Si number density = 18.648695 Si / 1000 Ang^3
#
#
#
# Elastic Constant Matrix: (Units=GPa)
#
#
# Indices 1 2 3 4 5 6 
#
# 1 51.0977 45.6882 35.0355 0.0000 7.4513 0.0000
# 2 45.6882 120.0189 52.4270 0.0000 -0.1619 0.0000
# 3 35.0355 52.4270 120.5738 0.0000 20.1412 0.0000
# 4 0.0000 0.0000 0.0000 25.8892 0.0000 8.1385
# 5 7.4513 -0.1619 20.1412 0.0000 23.7123 0.0000
# 6 0.0000 0.0000 0.0000 8.1385 0.0000 12.4090
#
#
#
# Elastic Compliance Matrix: (Units=1/GPa)
#
#
# Indices 1 2 3 4 5 6 
#
# 1 0.032906 -0.010987 -0.003548 0.000000 -0.007402 0.000000
# 2 -0.010987 0.014385 -0.004260 0.000000 0.007169 0.000000
# 3 -0.003548 -0.004260 0.012814 0.000000 -0.009798 0.000000
# 4 0.000000 0.000000 0.000000 0.048658 0.000000 -0.031912
# 5 -0.007402 0.007169 -0.009798 0.000000 0.052869 0.000000
# 6 0.000000 0.000000 0.000000 -0.031912 0.000000 0.101516
#
#
# Mechanical properties :
#
#
# Convention : Reuss Voigt Hill
#
# Bulk Modulus (GPa) = 44.41417 61.99910 53.20664
# Shear Modulus (GPa) = 16.22104 22.97143 19.59624
#
# Velocity S-wave (km/s) = 2.95247 3.51351 3.24514
# Velocity P-wave (km/s) = 5.95741 7.05533 6.52949
#
# Compressibility (1/GPa) = 0.02251534
#
# Stress axis : x y z
#
# Youngs Moduli (GPa) = 30.38972 69.51784 78.04221
#
# Poissons Ratio (x) = 0.76376 0.27690
# Poissons Ratio (y) = 0.33388 0.33245
# Poissons Ratio (z) = 0.10782 0.29613
#
# Static dielectric constant tensor:
#      x y z
#    x 3.185500 0.000000 0.143750 
#    y 0.000000 3.483880 0.000000 
#    z 0.143750 0.000000 3.687050 
# 
# 
# High freq. dielectric constant tensor:
#      x y z
#    x 1.683110 0.000000 0.014500 
#    y 0.000000 1.727520 0.000000 
#    z 0.014500 0.000000 1.740220 
# 
# From -- ./inp_files/80847.got.cif
#   From: 2010.06.25/outbox.cif.g09.slc.cpg/sg12_41_cif.got.tgz:80847.got - 2010.06.28 00:19:55.
