data_PCOD8096362
_publ_section_title
;
Structure prediction by ZEFSAII (Michael W. Deem and Ramdas Pophale) SiO2 
 PCOD8096362
Probable space group: C 2/M
;
_chemical_formula_sum "Si O2"
_cell_formula_units_Z 64
_cell_length_a 24.676272
_cell_length_b 8.949519
_cell_length_c 32.845881
_cell_angle_alpha 90.000000
_cell_angle_beta 151.187268
_cell_angle_gamma 90.000000
_cell_volume 3495.913618
_symmetry_space_group_name_H-M "C 2/M"
_symmetry_group_IT_number 12
_symmetry_cell_setting 'monoclinic'
loop_
_space_group_symop_operation_xyz
x,y,z
-x,y,-z
-x,-y,-z
x,-y,z
1/2+x,1/2+y,z
1/2-x,1/2+y,-z
1/2-x,1/2-y,-z
1/2+x,1/2-y,z
loop_
_atom_site_type_symbol
_atom_site_label
_atom_site_fract_x
_atom_site_fract_y
_atom_site_fract_z
Si Si1 0.350630 0.326151 0.510853
Si Si2 0.347617 0.327488 0.727720
Si Si3 0.900733 0.671454 0.464594
Si Si4 0.487206 0.173258 0.323858
Si Si5 0.394907 0.828354 0.678880
Si Si6 0.244244 0.823938 0.814607
Si Si7 0.911125 0.675968 0.852763
Si Si8 0.914038 0.167919 0.980358
O O1 0.369514 0.500000 0.532123
O O2 0.415762 0.279950 0.512724
O O3 0.399676 0.230852 0.580236
O O4 0.220239 0.283280 0.419772
O O5 0.376306 0.500000 0.754201
O O6 0.215704 0.299238 0.635187
O O7 0.414578 0.272827 0.731620
O O8 0.385459 0.232626 0.791065
O O9 0.908754 0.500000 0.484622
O O10 0.000000 0.715049 0.500000
O O11 0.503355 0.197175 0.285922
O O12 0.382119 0.264865 0.271863
O O13 0.469156 0.000000 0.322246
O O14 0.387678 0.000000 0.688367
O O15 0.310440 0.777294 0.817118
O O16 0.301349 0.752040 0.892113
O O17 0.243916 0.000000 0.820237
O O18 0.927221 0.500000 0.862925
O O19 0.029147 0.747660 0.944428
O O20 0.882298 0.000000 0.972720
O O21 0.000000 0.168080 0.000000
#
# Coordination Sequence:
#
# PCOD8096362 Si02
#       8
#     8   8   8   8   8   8   8   8
#     4  10  20  34  52  75 101 134 178 222 266 314
#     4  10  20  33  53  78 103 136 178 219 259 309
#     4   9  19  34  49  70 102 140 174 213 262 310
#     4  11  22  35  54  77 104 139 178 222 266 312
#     4   9  20  38  55  73 101 139 180 222 268 312
#     4  10  21  35  52  80 112 141 172 211 264 313
#     4  10  20  34  54  79 110 142 173 211 256 313
#     4   9  17  32  54  79 107 139 173 210 255 309
#
# _framework density 18.307089000000001
#
# number of rings (size 3 to 8) (size 9 to 14) (size 15 to 20)
#    0.000    2.250    0.000    2.625    1.750    5.250 
#    0.000    0.000    0.000    0.750    0.000    0.000 
#    0.000    0.000    0.000    0.000    0.000    0.000 
#
# Total GULP energy -396874.670011 kJ/mol
# GULP energy per Si atom -12402.333438 kJ/mol
# Density = 1.826542 g / cm^3
# Si number density = 18.307089 Si / 1000 Ang^3
#
#
#
# Elastic Constant Matrix: (Units=GPa)
#
#
# Indices 1 2 3 4 5 6 
#
# 1 64.7120 31.9902 30.3503 0.0000 -13.3341 -0.0001
# 2 31.9902 85.5375 35.7333 -0.0009 -9.3078 -0.0007
# 3 30.3503 35.7333 68.5308 -0.0004 -16.1414 0.0000
# 4 0.0000 -0.0009 -0.0004 36.1834 0.0001 -4.7664
# 5 -13.3341 -9.3078 -16.1414 0.0001 20.2233 0.0001
# 6 -0.0001 -0.0007 0.0000 -4.7664 0.0001 28.2064
#
#
#
# Elastic Compliance Matrix: (Units=1/GPa)
#
#
# Indices 1 2 3 4 5 6 
#
# 1 0.022127 -0.005239 -0.005172 0.000000 0.008050 0.000000
# 2 -0.005239 0.016198 -0.006383 0.000000 -0.001094 0.000000
# 3 -0.005172 -0.006383 0.023049 0.000000 0.012049 0.000000
# 4 0.000000 0.000000 0.000000 0.028266 0.000000 0.004776
# 5 0.008050 -0.001094 0.012049 0.000000 0.063869 0.000000
# 6 0.000000 0.000000 0.000000 0.004776 0.000000 0.036260
#
#
# Mechanical properties :
#
#
# Convention : Reuss Voigt Hill
#
# Bulk Modulus (GPa) = 35.98973 46.10310 41.04641
# Shear Modulus (GPa) = 21.49441 24.96973 23.23207
#
# Velocity S-wave (km/s) = 3.43024 3.69716 3.56620
# Velocity P-wave (km/s) = 5.94897 6.59266 6.27907
#
# Compressibility (1/GPa) = 0.02778571
#
# Stress axis : x y z
#
# Youngs Moduli (GPa) = 45.19313 61.73736 43.38654
#
# Poissons Ratio (x) = 0.32344 0.22438
# Poissons Ratio (y) = 0.23676 0.27695
# Poissons Ratio (z) = 0.23373 0.39409
#
# Static dielectric constant tensor:
#      x y z
#    x 3.241210 0.000000 -0.048030 
#    y 0.000000 3.456180 0.000000 
#    z -0.048030 0.000000 3.292670 
# 
# 
# High freq. dielectric constant tensor:
#      x y z
#    x 1.693570 0.000000 -0.008480 
#    y 0.000000 1.721900 0.000000 
#    z -0.008480 0.000000 1.698070 
# 
# From -- ./inp_files/382445.got.cif
#   From: 2010.06.25/outbox.cif.g09.slc.cpg/sg12_192_cif.got.tgz:382445.got - 2010.06.28 00:19:55.
