data_PCOD8096732
_publ_section_title
;
Structure prediction by ZEFSAII (Michael W. Deem and Ramdas Pophale) SiO2 
 PCOD8096732
Probable space group: C 2/M
;
_chemical_formula_sum "Si O2"
_cell_formula_units_Z 44
_cell_length_a 5.258060
_cell_length_b 34.469455
_cell_length_c 16.814671
_cell_angle_alpha 90.000000
_cell_angle_beta 55.832939
_cell_angle_gamma 90.000000
_cell_volume 2521.539188
_symmetry_space_group_name_H-M "C 2/M"
_symmetry_group_IT_number 12
_symmetry_cell_setting 'monoclinic'
loop_
_space_group_symop_operation_xyz
x,y,z
-x,y,-z
-x,-y,-z
x,-y,z
1/2+x,1/2+y,z
1/2-x,1/2+y,-z
1/2-x,1/2-y,-z
1/2+x,1/2-y,z
loop_
_atom_site_type_symbol
_atom_site_label
_atom_site_fract_x
_atom_site_fract_y
_atom_site_fract_z
Si Si1 0.809910 0.729333 0.613993
Si Si2 0.000000 0.896393 0.500000
Si Si3 0.083898 0.641970 0.392865
Si Si4 0.618403 0.456718 0.362860
Si Si5 0.360079 0.454969 0.939825
Si Si6 0.313834 0.429347 0.267816
O O1 0.468560 0.745443 0.656194
O O2 0.795936 0.684998 0.645414
O O3 0.000000 0.732683 0.500000
O O4 0.249655 0.867910 0.414767
O O5 0.894326 0.926289 0.448496
O O6 0.322397 0.613076 0.308555
O O7 0.000000 0.634262 0.500000
O O8 0.563148 0.500000 0.404852
O O9 0.527541 0.456332 0.285928
O O10 0.971498 0.445641 0.318062
O O11 0.429947 0.500000 0.908501
O O12 0.527283 0.427833 0.845984
O O13 0.500000 0.443265 0.000000
O O14 0.000000 0.446153 0.000000
#
# Coordination Sequence:
#
# PCOD8096732 Si02
#       6
#     8   4   8   8   8   8
#     4   9  19  30  48  70  94 130 167 198 235 286
#     4  10  21  32  44  68  98 142 170 202 242 282
#     4  10  20  34  50  70 107 133 166 201 248 294
#     4  11  21  33  48  67  97 132 174 209 238 290
#     4  10  20  35  54  73  96 125 164 214 259 296
#     4  11  22  35  53  75  97 133 168 210 259 296
#
# _framework density 17.449660999999999
#
# number of rings (size 3 to 8) (size 9 to 14) (size 15 to 20)
#    0.000    1.818    1.818    3.000    6.364    1.455 
#    0.000    2.727    0.000    0.000    0.000    0.000 
#    0.000    4.364    0.000    0.000    0.000    0.000 
#
# Total GULP energy -272569.645438 kJ/mol
# GULP energy per Si atom -12389.529338 kJ/mol
# Density = 1.740994 g / cm^3
# Si number density = 17.449661 Si / 1000 Ang^3
#
#
#
# Elastic Constant Matrix: (Units=GPa)
#
#
# Indices 1 2 3 4 5 6 
#
# 1 115.0553 46.8402 23.3376 0.0000 8.6594 0.0000
# 2 46.8402 130.5650 41.9979 0.0000 3.6797 0.0000
# 3 23.3376 41.9979 79.2085 0.0000 11.3129 0.0000
# 4 0.0000 0.0000 0.0000 14.5125 0.0000 1.8489
# 5 8.6594 3.6797 11.3129 0.0000 21.7169 0.0000
# 6 0.0000 0.0000 0.0000 1.8489 0.0000 13.9562
#
#
#
# Elastic Compliance Matrix: (Units=1/GPa)
#
#
# Indices 1 2 3 4 5 6 
#
# 1 0.010485 -0.003405 -0.000831 0.000000 -0.003171 0.000000
# 2 -0.003405 0.010362 -0.004791 0.000000 0.002097 0.000000
# 3 -0.000831 -0.004791 0.016472 0.000000 -0.007438 0.000000
# 4 0.000000 0.000000 0.000000 0.070089 0.000000 -0.009285
# 5 -0.003171 0.002097 -0.007438 0.000000 0.050830 0.000000
# 6 0.000000 0.000000 0.000000 -0.009285 0.000000 0.072883
#
#
# Mechanical properties :
#
#
# Convention : Reuss Voigt Hill
#
# Bulk Modulus (GPa) = 51.90412 61.02003 56.46207
# Shear Modulus (GPa) = 19.56203 24.21398 21.88801
#
# Velocity S-wave (km/s) = 3.35185 3.72916 3.54552
# Velocity P-wave (km/s) = 6.69249 7.32033 7.01344
#
# Compressibility (1/GPa) = 0.01926629
#
# Stress axis : x y z
#
# Youngs Moduli (GPa) = 95.37621 96.50305 60.70847
#
# Poissons Ratio (x) = 0.32857 0.05045
# Poissons Ratio (y) = 0.32473 0.29084
# Poissons Ratio (z) = 0.07926 0.46232
#
# Static dielectric constant tensor:
#      x y z
#    x 3.573990 0.000000 0.053980 
#    y 0.000000 3.190920 0.000000 
#    z 0.053980 0.000000 2.937830 
# 
# 
# High freq. dielectric constant tensor:
#      x y z
#    x 1.695270 0.000000 0.006610 
#    y 0.000000 1.661060 0.000000 
#    z 0.006610 0.000000 1.623450 
# 
# From -- ./inp_files/192663.got.cif
#   From: 2010.06.25/outbox.cif.g09.slc.cpg/sg12_97_cif.got.tgz:192663.got - 2010.06.28 00:19:55.
