data_PCOD8096540
_publ_section_title
;
Structure prediction by ZEFSAII (Michael W. Deem and Ramdas Pophale) SiO2 
 PCOD8096540
Probable space group: C 2/M
;
_chemical_formula_sum "Si O2"
_cell_formula_units_Z 56
_cell_length_a 9.178745
_cell_length_b 26.462558
_cell_length_c 13.551279
_cell_angle_alpha 90.000000
_cell_angle_beta 116.005995
_cell_angle_gamma 90.000000
_cell_volume 2958.240205
_symmetry_space_group_name_H-M "C 2/M"
_symmetry_group_IT_number 12
_symmetry_cell_setting 'monoclinic'
loop_
_space_group_symop_operation_xyz
x,y,z
-x,y,-z
-x,-y,-z
x,-y,z
1/2+x,1/2+y,z
1/2-x,1/2+y,-z
1/2-x,1/2-y,-z
1/2+x,1/2-y,z
loop_
_atom_site_type_symbol
_atom_site_label
_atom_site_fract_x
_atom_site_fract_y
_atom_site_fract_z
Si Si1 0.383688 0.216556 0.204811
Si Si2 0.823686 0.590474 0.964459
Si Si3 0.962953 0.866211 0.374992
Si Si4 0.577209 0.266108 0.420648
Si Si5 0.500938 0.442825 0.780839
Si Si6 0.690360 0.184064 0.177666
Si Si7 0.662597 0.624249 0.105816
O O1 0.483488 0.221542 0.336627
O O2 0.513708 0.204303 0.157959
O O3 0.293071 0.269754 0.161870
O O4 0.249633 0.173240 0.176847
O O5 0.685227 0.556124 0.874988
O O6 0.827623 0.646047 0.918082
O O7 0.787484 0.595936 0.070025
O O8 0.000000 0.564722 0.000000
O O9 0.003669 0.916686 0.327170
O O10 0.780270 0.844774 0.296193
O O11 0.000000 0.879601 0.500000
O O12 0.076788 0.820602 0.365267
O O13 0.500000 0.281071 0.500000
O O14 0.750000 0.250000 0.500000
O O15 0.438875 0.500000 0.751232
O O16 0.382050 0.413945 0.820129
O O17 0.500000 0.641228 0.000000
#
# Coordination Sequence:
#
# PCOD8096540 Si02
#       7
#     8   8   8   8   8   8   8
#     4  11  21  34  55  83 121 162 194 238 284 349
#     4  10  20  40  56  81 117 148 194 247 295 348
#     4   9  19  37  60  85 121 147 188 241 289 352
#     4  10  20  33  54  86 115 153 193 227 278 345
#     4  10  23  40  62  87 110 146 201 253 302 353
#     4  10  22  33  55  84 121 155 198 230 282 353
#     4  10  23  37  57  81 116 157 199 242 294 343
#
# _framework density 18.930173
#
# number of rings (size 3 to 8) (size 9 to 14) (size 15 to 20)
#    0.000    2.000    1.429    2.571   10.000    4.286 
#    0.000    0.000    0.000    0.000    0.000    4.000 
#    0.000    0.000    0.000    0.000    0.000    0.000 
#
# Total GULP energy -346962.604869 kJ/mol
# GULP energy per Si atom -12391.521602 kJ/mol
# Density = 1.888709 g / cm^3
# Si number density = 18.930173 Si / 1000 Ang^3
#
#
#
# Elastic Constant Matrix: (Units=GPa)
#
#
# Indices 1 2 3 4 5 6 
#
# 1 105.3025 43.9073 32.2937 0.0000 -3.3079 0.0000
# 2 43.9073 120.7731 47.3978 0.0000 -4.7338 0.0000
# 3 32.2937 47.3978 85.7452 0.0000 -6.3428 0.0000
# 4 0.0000 0.0000 0.0000 17.8760 0.0000 -2.4992
# 5 -3.3079 -4.7338 -6.3428 0.0000 30.3569 0.0000
# 6 0.0000 0.0000 0.0000 -2.4992 0.0000 17.8261
#
#
#
# Elastic Compliance Matrix: (Units=1/GPa)
#
#
# Indices 1 2 3 4 5 6 
#
# 1 0.011635 -0.003203 -0.002595 0.000000 0.000226 0.000000
# 2 -0.003203 0.011461 -0.005102 0.000000 0.000372 0.000000
# 3 -0.002595 -0.005102 0.015622 0.000000 0.002186 0.000000
# 4 0.000000 0.000000 0.000000 0.057059 0.000000 0.008000
# 5 0.000226 0.000372 0.002186 0.000000 0.033481 0.000000
# 6 0.000000 0.000000 0.000000 0.008000 0.000000 0.057219
#
#
# Mechanical properties :
#
#
# Convention : Reuss Voigt Hill
#
# Bulk Modulus (GPa) = 59.10510 62.11314 60.60912
# Shear Modulus (GPa) = 23.37384 25.75994 24.56689
#
# Velocity S-wave (km/s) = 3.51770 3.69289 3.60636
# Velocity P-wave (km/s) = 6.91299 7.14606 7.03049
#
# Compressibility (1/GPa) = 0.01691901
#
# Stress axis : x y z
#
# Youngs Moduli (GPa) = 85.94984 87.25199 64.01433
#
# Poissons Ratio (x) = 0.27943 0.16611
# Poissons Ratio (y) = 0.27526 0.32658
# Poissons Ratio (z) = 0.22303 0.44513
#
# Static dielectric constant tensor:
#      x y z
#    x 3.518530 0.000000 0.144810 
#    y 0.000000 3.322700 0.000000 
#    z 0.144810 0.000000 3.544680 
# 
# 
# High freq. dielectric constant tensor:
#      x y z
#    x 1.735610 0.000000 0.003370 
#    y 0.000000 1.718700 0.000000 
#    z 0.003370 0.000000 1.735540 
# 
# From -- ./inp_files/198529.got.cif
#   From: 2010.06.25/outbox.cif.g09.slc.cpg/sg12_100_cif.got.tgz:198529.got - 2010.06.28 00:19:55.
