data_PCOD8096676
_publ_section_title
;
Structure prediction by ZEFSAII (Michael W. Deem and Ramdas Pophale) SiO2 
 PCOD8096676
Probable space group: C 2/M
;
_chemical_formula_sum "Si O2"
_cell_formula_units_Z 56
_cell_length_a 9.884787
_cell_length_b 17.820390
_cell_length_c 23.817095
_cell_angle_alpha 90.000000
_cell_angle_beta 45.837930
_cell_angle_gamma 90.000000
_cell_volume 3009.661938
_symmetry_space_group_name_H-M "C 2/M"
_symmetry_group_IT_number 12
_symmetry_cell_setting 'monoclinic'
loop_
_space_group_symop_operation_xyz
x,y,z
-x,y,-z
-x,-y,-z
x,-y,z
1/2+x,1/2+y,z
1/2-x,1/2+y,-z
1/2-x,1/2-y,-z
1/2+x,1/2-y,z
loop_
_atom_site_type_symbol
_atom_site_label
_atom_site_fract_x
_atom_site_fract_y
_atom_site_fract_z
Si Si1 0.444233 0.415813 0.757325
Si Si2 0.613062 0.151420 0.796645
Si Si3 0.920998 0.694541 0.459944
Si Si4 0.575988 0.914629 0.919528
Si Si5 0.528378 0.085703 0.271921
Si Si6 0.244261 0.808347 0.717479
Si Si7 0.793306 0.085781 0.549691
O O1 0.520689 0.500000 0.723499
O O2 0.321076 0.386864 0.739631
O O3 0.305856 0.415431 0.852109
O O4 0.613885 0.358563 0.715344
O O5 0.507872 0.138554 0.887356
O O6 0.488886 0.107011 0.787782
O O7 0.628693 0.238954 0.776621
O O8 0.750000 0.750000 0.500000
O O9 0.830821 0.615641 0.466628
O O10 0.000000 0.689540 0.500000
O O11 0.087706 0.720998 0.370429
O O12 0.500175 0.000000 0.933239
O O13 0.500000 0.880781 0.000000
O O14 0.685001 0.139918 0.252467
O O15 0.325120 0.098296 0.359335
O O16 0.596664 0.000000 0.259195
O O17 0.000000 0.124831 0.500000
O O18 0.828615 0.000000 0.524529
#
# Coordination Sequence:
#
# PCOD8096676 Si02
#       7
#     8   8   8   8   8   8   8
#     4   9  19  36  59  84 109 147 190 225 277 336
#     4  10  20  33  58  87 108 143 188 229 269 336
#     4  11  26  38  57  77 109 153 195 235 289 353
#     4   8  16  34  60  86 113 147 188 226 268 336
#     4  10  20  35  55  78 109 145 182 227 284 338
#     4  11  23  36  56  81 117 143 181 245 288 328
#     4   9  20  38  56  78 107 142 184 237 290 338
#
# _framework density 18.606741
#
# number of rings (size 3 to 8) (size 9 to 14) (size 15 to 20)
#    0.857    1.429    0.000    2.571    8.000    0.857 
#    0.000    2.143    0.000    0.000    0.000    4.000 
#    0.000    0.000    0.000    0.000    0.000    0.000 
#
# Total GULP energy -346977.985221 kJ/mol
# GULP energy per Si atom -12392.070901 kJ/mol
# Density = 1.856439 g / cm^3
# Si number density = 18.606741 Si / 1000 Ang^3
#
#
#
# Elastic Constant Matrix: (Units=GPa)
#
#
# Indices 1 2 3 4 5 6 
#
# 1 85.7860 16.2923 20.5798 0.0015 24.3933 0.0005
# 2 16.2923 86.9141 20.9281 -0.0006 12.4412 0.0002
# 3 20.5798 20.9281 56.3012 0.0034 23.4348 -0.0009
# 4 0.0015 -0.0006 0.0034 -5.7812 -0.0012 5.8228
# 5 24.3933 12.4412 23.4348 -0.0012 30.5424 -0.0002
# 6 0.0005 0.0002 -0.0009 5.8228 -0.0002 26.3305
#
#
#
# Elastic Compliance Matrix: (Units=1/GPa)
#
#
# Indices 1 2 3 4 5 6 
#
# 1 0.015201 -0.001124 -0.000405 0.000005 -0.011372 -0.000001
# 2 -0.001124 0.012828 -0.003756 -0.000003 -0.001446 0.000000
# 3 -0.000405 -0.003756 0.027231 0.000017 -0.019041 -0.000003
# 4 0.000005 -0.000003 0.000017 -0.141466 -0.000021 0.031284
# 5 -0.011372 -0.001446 -0.019041 -0.000021 0.057023 0.000005
# 6 -0.000001 0.000000 -0.000003 0.031284 0.000005 0.031061
#
#
# Mechanical properties :
#
#
# Convention : Reuss Voigt Hill
#
# Bulk Modulus (GPa) = 22.37616 38.28908 30.33262
# Shear Modulus (GPa) = 182.85730 21.63174 102.24452
#
# Velocity S-wave (km/s) = 9.92412 3.41336 7.42089
# Velocity P-wave (km/s) = 11.97370 6.01310 9.47436
#
# Compressibility (1/GPa) = 0.04469042
#
# Stress axis : x y z
#
# Youngs Moduli (GPa) = 65.78414 77.95698 36.72251
#
# Poissons Ratio (x) = 0.08763 0.01488
# Poissons Ratio (y) = 0.07395 0.13791
# Poissons Ratio (z) = 0.02666 0.29277
#
# Static dielectric constant tensor:
#      x y z
#    x 3.712230 0.000000 0.083480 
#    y 0.000000 3.509480 0.000000 
#    z 0.083480 0.000000 3.246910 
# 
# 
# High freq. dielectric constant tensor:
#      x y z
#    x 1.715540 0.000000 0.009730 
#    y 0.000000 1.727890 0.000000 
#    z 0.009730 0.000000 1.694440 
# 
# From -- ./inp_files/301392.got.cif
#   From: 2010.06.25/outbox.cif.g09.slc.cpg/sg12_151_cif.got.tgz:301392.got - 2010.06.28 00:19:55.
