data_PCOD8096568
_publ_section_title
;
Structure prediction by ZEFSAII (Michael W. Deem and Ramdas Pophale) SiO2 
 PCOD8096568
Probable space group: C 2/M
;
_chemical_formula_sum "Si O2"
_cell_formula_units_Z 64
_cell_length_a 20.398882
_cell_length_b 9.245242
_cell_length_c 23.335752
_cell_angle_alpha 90.000000
_cell_angle_beta 49.824274
_cell_angle_gamma 90.000000
_cell_volume 3362.631414
_symmetry_space_group_name_H-M "C 2/M"
_symmetry_group_IT_number 12
_symmetry_cell_setting 'monoclinic'
loop_
_space_group_symop_operation_xyz
x,y,z
-x,y,-z
-x,-y,-z
x,-y,z
1/2+x,1/2+y,z
1/2-x,1/2+y,-z
1/2-x,1/2-y,-z
1/2+x,1/2-y,z
loop_
_atom_site_type_symbol
_atom_site_label
_atom_site_fract_x
_atom_site_fract_y
_atom_site_fract_z
Si Si1 0.782955 0.166119 0.155994
Si Si2 0.533551 0.662891 0.654774
Si Si3 0.175577 0.669395 0.510445
Si Si4 0.285483 0.835163 0.642573
Si Si5 0.393502 0.667439 0.198046
Si Si6 0.479677 0.827931 0.797662
Si Si7 0.717544 0.166507 0.072930
Si Si8 0.148416 0.841373 0.298540
O O1 0.868411 0.202854 0.145210
O O2 0.786492 0.195315 0.085599
O O3 0.703474 0.258201 0.221159
O O4 0.758875 0.000000 0.181243
O O5 0.571341 0.500000 0.645127
O O6 0.588769 0.755886 0.579437
O O7 0.524987 0.747297 0.719294
O O8 0.445396 0.646362 0.672515
O O9 0.173120 0.500000 0.526559
O O10 0.250000 0.750000 0.500000
O O11 0.194813 0.698530 0.433639
O O12 0.187838 0.796330 0.715379
O O13 0.352329 0.739787 0.640487
O O14 0.304035 0.000000 0.647920
O O15 0.421101 0.500000 0.188608
O O16 0.472916 0.769074 0.171660
O O17 0.379214 0.785442 0.856107
O O18 0.492540 0.000000 0.784870
O O19 0.716298 0.000000 0.056594
O O20 0.750000 0.250000 0.000000
O O21 0.188322 0.000000 0.285180
#
# Coordination Sequence:
#
# PCOD8096568 Si02
#       8
#     8   8   8   8   8   8   8   8
#     4   9  18  37  60  82 114 152 189 229 276 338
#     4  11  23  37  55  81 113 148 189 236 285 338
#     4  11  23  38  56  78 107 148 192 237 289 340
#     4   9  20  37  55  77 110 149 189 232 283 340
#     4   9  18  34  59  85 112 150 191 235 283 334
#     4  11  22  37  59  87 116 147 189 239 285 337
#     4  10  22  39  61  88 116 149 187 229 282 340
#     4  10  20  33  55  84 109 142 187 236 284 329
#
# _framework density 19.032713999999999
#
# number of rings (size 3 to 8) (size 9 to 14) (size 15 to 20)
#    0.000    2.000    1.250    3.000    0.000    7.500 
#    0.000    3.125    0.000    3.750    0.000    0.000 
#    0.000    0.000    0.000    0.000    0.000    0.000 
#
# Total GULP energy -396667.451320 kJ/mol
# GULP energy per Si atom -12395.857854 kJ/mol
# Density = 1.898939 g / cm^3
# Si number density = 19.032714 Si / 1000 Ang^3
#
#
#
# Elastic Constant Matrix: (Units=GPa)
#
#
# Indices 1 2 3 4 5 6 
#
# 1 110.7593 54.1638 33.9325 0.0000 21.3937 0.0005
# 2 54.1638 97.3060 40.8635 -0.0001 19.4216 0.0006
# 3 33.9325 40.8635 69.3756 -0.0001 25.0002 0.0000
# 4 0.0000 -0.0001 -0.0001 30.4859 0.0000 0.7823
# 5 21.3937 19.4216 25.0002 0.0000 23.9059 0.0000
# 6 0.0005 0.0006 0.0000 0.7823 0.0000 34.2760
#
#
#
# Elastic Compliance Matrix: (Units=1/GPa)
#
#
# Indices 1 2 3 4 5 6 
#
# 1 0.013355 -0.005823 -0.000803 0.000000 -0.006381 0.000000
# 2 -0.005823 0.016475 -0.006276 0.000000 -0.001611 0.000000
# 3 -0.000803 -0.006276 0.026330 0.000000 -0.021718 0.000000
# 4 0.000000 0.000000 0.000000 0.032821 0.000000 -0.000749
# 5 -0.006381 -0.001611 -0.021718 0.000000 0.071562 0.000000
# 6 0.000000 0.000000 0.000000 -0.000749 0.000000 0.029192
#
#
# Mechanical properties :
#
#
# Convention : Reuss Voigt Hill
#
# Bulk Modulus (GPa) = 32.94112 59.48451 46.21282
# Shear Modulus (GPa) = 22.15760 27.63228 24.89494
#
# Velocity S-wave (km/s) = 3.41572 3.81442 3.62056
# Velocity P-wave (km/s) = 5.73597 7.12190 6.46617
#
# Compressibility (1/GPa) = 0.03035719
#
# Stress axis : x y z
#
# Youngs Moduli (GPa) = 74.88077 60.69800 37.97997
#
# Poissons Ratio (x) = 0.35344 0.03048
# Poissons Ratio (y) = 0.43603 0.23835
# Poissons Ratio (z) = 0.06010 0.38091
#
# Static dielectric constant tensor:
#      x y z
#    x 3.666420 0.000000 0.129430 
#    y 0.000000 3.608580 0.000000 
#    z 0.129430 0.000000 3.204410 
# 
# 
# High freq. dielectric constant tensor:
#      x y z
#    x 1.750910 0.000000 0.014370 
#    y 0.000000 1.749260 0.000000 
#    z 0.014370 0.000000 1.718050 
# 
# From -- ./inp_files/345953.got.cif
#   From: 2010.06.25/outbox.cif.g09.slc.cpg/sg12_173_cif.got.tgz:345953.got - 2010.06.28 00:19:55.
