data_PCOD8096035
_publ_section_title
;
Structure prediction by ZEFSAII (Michael W. Deem and Ramdas Pophale) SiO2 
 PCOD8096035
Probable space group: C 2/M
;
_chemical_formula_sum "Si O2"
_cell_formula_units_Z 56
_cell_length_a 9.230020
_cell_length_b 19.432375
_cell_length_c 32.663656
_cell_angle_alpha 90.000000
_cell_angle_beta 147.967760
_cell_angle_gamma 90.000000
_cell_volume 3107.376398
_symmetry_space_group_name_H-M "C 2/M"
_symmetry_group_IT_number 12
_symmetry_cell_setting 'monoclinic'
loop_
_space_group_symop_operation_xyz
x,y,z
-x,y,-z
-x,-y,-z
x,-y,z
1/2+x,1/2+y,z
1/2-x,1/2+y,-z
1/2-x,1/2-y,-z
1/2+x,1/2-y,z
loop_
_atom_site_type_symbol
_atom_site_label
_atom_site_fract_x
_atom_site_fract_y
_atom_site_fract_z
Si Si1 0.252991 0.819011 0.694555
Si Si2 0.585657 0.680993 0.305445
Si Si3 0.900351 0.919600 0.411918
Si Si4 0.054788 0.681169 0.128543
Si Si5 0.571154 0.919600 0.411916
Si Si6 0.283543 0.318838 0.871457
Si Si7 0.671706 0.576800 0.000004
O O1 0.254618 0.750003 0.668205
O O2 0.151747 0.881587 0.642896
O O3 0.555228 0.837133 0.783139
O O4 0.044038 0.807874 0.681345
O O5 0.356393 0.662874 0.216862
O O6 0.794365 0.618415 0.357100
O O7 0.665543 0.901000 0.388514
O O8 0.193414 0.897270 0.500002
O O9 0.898102 0.000000 0.401813
O O10 0.055211 0.750005 0.101741
O O11 0.848429 0.694830 0.116146
O O12 0.952623 0.617644 0.076280
O O13 0.512764 0.000000 0.401808
O O14 0.494954 0.382365 0.923723
O O15 0.740394 0.500000 0.000010
O O16 0.500000 0.570631 0.000000
#
# Coordination Sequence:
#
# PCOD8096035 Si02
#       7
#     8   8   8   8   8   8   8
#     4  10  20  33  51  76 103 131 167 209 250 294
#     4  10  20  33  51  76 103 131 167 209 250 294
#     4   9  19  36  55  74  99 132 167 203 248 301
#     4   9  18  32  51  73  97 129 165 201 242 289
#     4   9  19  36  55  74  99 132 167 203 248 301
#     4   9  18  32  51  73  97 129 165 201 242 289
#     4   9  17  30  49  73 100 129 162 200 242 287
#
# _framework density 18.021633000000001
#
# number of rings (size 3 to 8) (size 9 to 14) (size 15 to 20)
#    0.000    2.714    0.000    2.143    0.000    4.000 
#    0.000    4.286    0.000    1.714    0.000    0.000 
#    0.000    0.000    0.000    0.000    0.000    0.000 
#
# Total GULP energy -347230.993581 kJ/mol
# GULP energy per Si atom -12401.106914 kJ/mol
# Density = 1.798062 g / cm^3
# Si number density = 18.021633 Si / 1000 Ang^3
#
#
#
# Elastic Constant Matrix: (Units=GPa)
#
#
# Indices 1 2 3 4 5 6 
#
# 1 66.4898 49.3582 44.3494 -0.0014 0.5556 0.0000
# 2 49.3582 123.9338 72.0460 0.0006 0.7178 -0.0003
# 3 44.3494 72.0460 96.5731 0.0050 0.3914 0.0002
# 4 -0.0014 0.0006 0.0050 33.9528 0.0012 0.0295
# 5 0.5556 0.7178 0.3914 0.0012 19.8412 -0.0003
# 6 0.0000 -0.0003 0.0002 0.0295 -0.0003 33.0192
#
#
#
# Elastic Compliance Matrix: (Units=1/GPa)
#
#
# Indices 1 2 3 4 5 6 
#
# 1 0.023615 -0.005473 -0.006760 0.000002 -0.000330 0.000000
# 2 -0.005473 0.015518 -0.009063 0.000001 -0.000229 0.000000
# 3 -0.006760 -0.009063 0.020220 -0.000003 0.000118 0.000000
# 4 0.000002 0.000001 -0.000003 0.029453 -0.000002 -0.000026
# 5 -0.000330 -0.000229 0.000118 -0.000002 0.050415 0.000000
# 6 0.000000 0.000000 0.000000 -0.000026 0.000000 0.030285
#
#
# Mechanical properties :
#
#
# Convention : Reuss Voigt Hill
#
# Bulk Modulus (GPa) = 59.66273 68.72264 64.19268
# Shear Modulus (GPa) = 22.96896 25.44551 24.20723
#
# Velocity S-wave (km/s) = 3.57392 3.76166 3.66899
# Velocity P-wave (km/s) = 7.08580 7.55533 7.32433
#
# Compressibility (1/GPa) = 0.01676088
#
# Stress axis : x y z
#
# Youngs Moduli (GPa) = 42.34655 64.44034 49.45626
#
# Poissons Ratio (x) = 0.35268 0.33434
# Poissons Ratio (y) = 0.23176 0.44821
# Poissons Ratio (z) = 0.28627 0.58400
#
# Static dielectric constant tensor:
#      x y z
#    x 3.197930 0.000000 0.006480 
#    y 0.000000 3.386320 0.000000 
#    z 0.006480 0.000000 3.402050 
# 
# 
# High freq. dielectric constant tensor:
#      x y z
#    x 1.684150 0.000000 0.000630 
#    y 0.000000 1.696580 0.000000 
#    z 0.000630 0.000000 1.704020 
# 
# From -- ./inp_files/373187.got.cif
#   From: 2010.06.25/outbox.cif.g09.slc.cpg/sg12_187_cif.got.tgz:373187.got - 2010.06.28 00:19:55.
