data_PCOD8096690
_publ_section_title
;
Structure prediction by ZEFSAII (Michael W. Deem and Ramdas Pophale) SiO2 
 PCOD8096690
Probable space group: C 2/M
;
_chemical_formula_sum "Si O2"
_cell_formula_units_Z 48
_cell_length_a 11.504822
_cell_length_b 26.974707
_cell_length_c 10.443052
_cell_angle_alpha 90.000000
_cell_angle_beta 48.704054
_cell_angle_gamma 90.000000
_cell_volume 2434.914578
_symmetry_space_group_name_H-M "C 2/M"
_symmetry_group_IT_number 12
_symmetry_cell_setting 'monoclinic'
loop_
_space_group_symop_operation_xyz
x,y,z
-x,y,-z
-x,-y,-z
x,-y,z
1/2+x,1/2+y,z
1/2-x,1/2+y,-z
1/2-x,1/2-y,-z
1/2+x,1/2-y,z
loop_
_atom_site_type_symbol
_atom_site_label
_atom_site_fract_x
_atom_site_fract_y
_atom_site_fract_z
Si Si1 0.986954 0.000000 0.157001
Si Si2 0.500000 0.672670 0.000000
Si Si3 0.324101 0.344061 0.674591
Si Si4 0.452927 0.602309 0.802864
Si Si5 0.196621 0.607216 0.532024
Si Si6 0.635872 0.000000 0.504376
Si Si7 0.273811 0.759621 0.828948
Si Si8 0.000000 0.678241 0.500000
O O1 0.085680 0.953759 0.134591
O O2 0.805048 0.000000 0.319073
O O3 0.000000 0.000000 0.000000
O O4 0.436525 0.639216 0.932574
O O5 0.640741 0.707885 0.860064
O O6 0.500000 0.336513 0.500000
O O7 0.327665 0.382512 0.788924
O O8 0.196204 0.365153 0.669046
O O9 0.259701 0.292324 0.769512
O O10 0.624978 0.602333 0.627314
O O11 0.120318 0.551796 0.595913
O O12 0.122809 0.641576 0.476621
O O13 0.500000 0.000000 0.500000
O O14 0.430243 0.787815 0.666895
O O15 0.250000 0.750000 0.000000
#
# Coordination Sequence:
#
# PCOD8096690 Si02
#       8
#     4   4   8   8   8   4   8   4
#     4  10  20  33  63  91 115 157 202 256 312 359
#     4  12  22  37  60  88 126 157 214 254 302 370
#     4  10  22  40  60  87 126 163 204 253 312 368
#     4  10  20  38  58  92 122 157 204 258 307 367
#     4  10  22  38  64  90 121 165 203 259 313 375
#     4  10  20  39  61  91 123 151 206 254 311 380
#     4  12  26  40  62  93 125 170 209 261 311 367
#     4  12  24  41  64  94 124 165 216 250 316 376
#
# _framework density 19.713218000000001
#
# number of rings (size 3 to 8) (size 9 to 14) (size 15 to 20)
#    0.000    1.333    5.833    0.000    2.333    1.333 
#    0.000    3.333    0.000    0.000    0.000    2.333 
#    0.000    0.000    0.000    0.000    0.000    0.000 
#
# Total GULP energy -297345.084335 kJ/mol
# GULP energy per Si atom -12389.378514 kJ/mol
# Density = 1.966835 g / cm^3
# Si number density = 19.713218 Si / 1000 Ang^3
#
#
#
# Elastic Constant Matrix: (Units=GPa)
#
#
# Indices 1 2 3 4 5 6 
#
# 1 106.8429 66.1980 15.2067 0.0000 28.7618 0.0000
# 2 66.1980 191.4564 42.4434 0.0000 21.9080 0.0000
# 3 15.2067 42.4434 58.6052 0.0000 19.9607 0.0000
# 4 0.0000 0.0000 0.0000 32.9567 0.0000 5.5118
# 5 28.7618 21.9080 19.9607 0.0000 31.8586 0.0000
# 6 0.0000 0.0000 0.0000 5.5118 0.0000 35.9085
#
#
#
# Elastic Compliance Matrix: (Units=1/GPa)
#
#
# Indices 1 2 3 4 5 6 
#
# 1 0.015137 -0.004600 0.003790 0.000000 -0.012876 0.000000
# 2 -0.004600 0.007707 -0.005082 0.000000 0.002037 0.000000
# 3 0.003790 -0.005082 0.025090 0.000000 -0.015646 0.000000
# 4 0.000000 0.000000 0.000000 0.031142 0.000000 -0.004780
# 5 -0.012876 0.002037 -0.015646 0.000000 0.051416 0.000000
# 6 0.000000 0.000000 0.000000 -0.004780 0.000000 0.028582
#
#
# Mechanical properties :
#
#
# Convention : Reuss Voigt Hill
#
# Bulk Modulus (GPa) = 27.66386 67.17786 47.42086
# Shear Modulus (GPa) = 27.33607 35.68184 31.50896
#
# Velocity S-wave (km/s) = 3.72787 4.25908 4.00230
# Velocity P-wave (km/s) = 5.70902 7.63793 6.74280
#
# Compressibility (1/GPa) = 0.03614825
#
# Stress axis : x y z
#
# Youngs Moduli (GPa) = 66.06435 129.74807 39.85716
#
# Poissons Ratio (x) = 0.59689 -0.15105
# Poissons Ratio (y) = 0.30392 0.20255
# Poissons Ratio (z) = -0.25037 0.65938
#
# Static dielectric constant tensor:
#      x y z
#    x 4.150030 0.000000 0.237840 
#    y 0.000000 4.083680 0.000000 
#    z 0.237840 0.000000 3.567440 
# 
# 
# High freq. dielectric constant tensor:
#      x y z
#    x 1.762790 0.000000 0.009730 
#    y 0.000000 1.794770 0.000000 
#    z 0.009730 0.000000 1.748560 
# 
# From -- ./inp_files/135253.got.cif
#   From: 2010.06.25/outbox.cif.g09.slc.cpg/sg12_68_cif.got.tgz:135253.got - 2010.06.28 00:19:55.
