data_PCOD8096266
_publ_section_title
;
Structure prediction by ZEFSAII (Michael W. Deem and Ramdas Pophale) SiO2 
 PCOD8096266
Probable space group: C 2/M
;
_chemical_formula_sum "Si O2"
_cell_formula_units_Z 56
_cell_length_a 27.957564
_cell_length_b 9.071494
_cell_length_c 19.025368
_cell_angle_alpha 90.000000
_cell_angle_beta 36.280102
_cell_angle_gamma 90.000000
_cell_volume 2855.204299
_symmetry_space_group_name_H-M "C 2/M"
_symmetry_group_IT_number 12
_symmetry_cell_setting 'monoclinic'
loop_
_space_group_symop_operation_xyz
x,y,z
-x,y,-z
-x,-y,-z
x,-y,z
1/2+x,1/2+y,z
1/2-x,1/2+y,-z
1/2-x,1/2-y,-z
1/2+x,1/2-y,z
loop_
_atom_site_type_symbol
_atom_site_label
_atom_site_fract_x
_atom_site_fract_y
_atom_site_fract_z
Si Si1 0.482673 0.828497 0.718149
Si Si2 0.738758 0.825018 0.303515
Si Si3 0.172118 0.173122 0.062749
Si Si4 0.377232 0.672868 0.034105
Si Si5 0.716058 0.824949 0.609893
Si Si6 0.532833 0.829507 0.813534
Si Si7 0.563190 0.827061 0.480492
O O1 0.402729 0.731633 0.803366
O O2 0.527136 0.788700 0.737994
O O3 0.541337 0.781821 0.585726
O O4 0.458560 0.000000 0.743299
O O5 0.815742 0.772470 0.166994
O O6 0.736892 0.739721 0.379290
O O7 0.656840 0.780480 0.357993
O O8 0.740413 0.000000 0.316072
O O9 0.180618 0.000000 0.061767
O O10 0.250000 0.250000 0.000000
O O11 0.160550 0.220162 0.995531
O O12 0.389905 0.500000 0.023292
O O13 0.465556 0.744811 0.939307
O O14 0.750000 0.750000 0.500000
O O15 0.621940 0.783326 0.732374
O O16 0.728289 0.000000 0.589479
O O17 0.516107 0.000000 0.846075
O O18 0.500000 0.752190 0.500000
O O19 0.555934 0.000000 0.479115
#
# Coordination Sequence:
#
# PCOD8096266 Si02
#       7
#     8   8   8   8   8   8   8
#     4   9  17  32  54  78 103 137 182 231 278 329
#     4  10  21  38  58  85 117 149 190 238 284 338
#     4  10  20  33  52  79 107 143 186 231 279 330
#     4   9  20  36  56  82 114 149 189 235 281 333
#     4  11  23  39  61  88 115 150 191 234 284 340
#     4   9  19  36  57  81 111 147 188 232 282 340
#     4   9  18  32  56  82 107 147 193 234 279 335
#
# _framework density 19.613308
#
# number of rings (size 3 to 8) (size 9 to 14) (size 15 to 20)
#    0.000    2.429    0.000    1.714    2.000    5.143 
#    0.000    6.429    0.000    0.857    0.000    0.000 
#    0.000    0.000    0.000    0.000    0.000    0.000 
#
# Total GULP energy -347181.611885 kJ/mol
# GULP energy per Si atom -12399.343282 kJ/mol
# Density = 1.956867 g / cm^3
# Si number density = 19.613308 Si / 1000 Ang^3
#
#
#
# Elastic Constant Matrix: (Units=GPa)
#
#
# Indices 1 2 3 4 5 6 
#
# 1 95.5592 26.9843 50.9256 0.0012 -13.2788 -0.0007
# 2 26.9843 47.1881 35.1556 -0.0133 -4.4165 0.0028
# 3 50.9256 35.1556 131.2436 -0.0076 -6.7523 0.0032
# 4 0.0012 -0.0133 -0.0076 31.8111 0.0013 -3.5427
# 5 -13.2788 -4.4165 -6.7523 0.0013 28.8199 0.0010
# 6 -0.0007 0.0028 0.0032 -3.5427 0.0010 28.2018
#
#
#
# Elastic Compliance Matrix: (Units=1/GPa)
#
#
# Indices 1 2 3 4 5 6 
#
# 1 0.014764 -0.004865 -0.004164 -0.000004 0.005081 0.000001
# 2 -0.004865 0.028247 -0.005639 0.000010 0.000766 -0.000001
# 3 -0.004164 -0.005639 0.010732 0.000000 -0.000268 -0.000001
# 4 -0.000004 0.000010 0.000000 0.031882 -0.000002 0.004005
# 5 0.005081 0.000766 -0.000268 -0.000002 0.037094 -0.000001
# 6 0.000001 -0.000001 -0.000001 0.004005 -0.000001 0.035962
#
#
# Mechanical properties :
#
#
# Convention : Reuss Voigt Hill
#
# Bulk Modulus (GPa) = 40.97336 55.56911 48.27123
# Shear Modulus (GPa) = 25.49056 28.49492 26.99274
#
# Velocity S-wave (km/s) = 3.60899 3.81574 3.71380
# Velocity P-wave (km/s) = 6.18889 6.91426 6.56161
#
# Compressibility (1/GPa) = 0.02440610
#
# Stress axis : x y z
#
# Youngs Moduli (GPa) = 67.73389 35.40252 93.17954
#
# Poissons Ratio (x) = 0.17222 0.38801
# Poissons Ratio (y) = 0.32950 0.52547
# Poissons Ratio (z) = 0.28206 0.19964
#
# Static dielectric constant tensor:
#      x y z
#    x 3.503850 -0.000010 0.140370 
#    y -0.000010 3.419800 0.000010 
#    z 0.140370 0.000010 3.438390 
# 
# 
# High freq. dielectric constant tensor:
#      x y z
#    x 1.766810 0.000000 -0.008820 
#    y 0.000000 1.740820 0.000000 
#    z -0.008820 0.000000 1.772850 
# 
# From -- ./inp_files/292442.got.cif
#   From: 2010.06.25/outbox.cif.g09.slc.cpg/sg12_147_cif.got.tgz:292442.got - 2010.06.28 00:19:55.
