data_PCOD8096144
_publ_section_title
;
Structure prediction by ZEFSAII (Michael W. Deem and Ramdas Pophale) SiO2 
 PCOD8096144
Probable space group: C 2/M
;
_chemical_formula_sum "Si O2"
_cell_formula_units_Z 48
_cell_length_a 19.388480
_cell_length_b 9.472073
_cell_length_c 18.997657
_cell_angle_alpha 90.000000
_cell_angle_beta 135.271997
_cell_angle_gamma 90.000000
_cell_volume 2455.287336
_symmetry_space_group_name_H-M "C 2/M"
_symmetry_group_IT_number 12
_symmetry_cell_setting 'monoclinic'
loop_
_space_group_symop_operation_xyz
x,y,z
-x,y,-z
-x,-y,-z
x,-y,z
1/2+x,1/2+y,z
1/2-x,1/2+y,-z
1/2-x,1/2-y,-z
1/2+x,1/2-y,z
loop_
_atom_site_type_symbol
_atom_site_label
_atom_site_fract_x
_atom_site_fract_y
_atom_site_fract_z
Si Si1 0.607389 0.665031 0.606578
Si Si2 0.677710 0.158385 0.538821
Si Si3 0.584690 0.166379 0.007389
Si Si4 0.304503 0.665656 0.184893
Si Si5 0.891182 0.156491 0.628968
Si Si6 0.072241 0.165229 0.854797
O O1 0.500000 0.703289 0.500000
O O2 0.631116 0.500000 0.615312
O O3 0.683226 0.753613 0.614711
O O4 0.626354 0.716549 0.700477
O O5 0.785388 0.157651 0.586265
O O6 0.602463 0.233911 0.430524
O O7 0.639402 0.000000 0.524581
O O8 0.691319 0.208003 0.116111
O O9 0.576654 0.000000 0.987138
O O10 0.500000 0.215872 0.000000
O O11 0.573597 0.246223 0.926423
O O12 0.315898 0.500000 0.187748
O O13 0.344886 0.724243 0.139471
O O14 0.967678 0.196815 0.744243
O O15 0.915500 0.000000 0.615999
O O16 0.086579 0.000000 0.882967
#
# Coordination Sequence:
#
# PCOD8096144 Si02
#       6
#     8   8   8   8   8   8
#     4  10  20  35  57  80 107 148 191 224 268 330
#     4  10  20  33  51  80 114 144 182 231 279 325
#     4  10  22  38  56  82 114 145 180 226 282 337
#     4   9  19  36  57  81 110 147 188 227 272 329
#     4   9  19  35  54  78 109 147 186 226 276 333
#     4  10  20  37  61  82 106 142 189 234 271 322
#
# _framework density 19.549645999999999
#
# number of rings (size 3 to 8) (size 9 to 14) (size 15 to 20)
#    0.000    2.333    0.000    2.000    2.333    4.667 
#    0.000    1.667    0.000    0.000    0.000    0.000 
#    0.000    0.000    0.000    0.000    0.000    0.000 
#
# Total GULP energy -297537.757231 kJ/mol
# GULP energy per Si atom -12397.406551 kJ/mol
# Density = 1.950515 g / cm^3
# Si number density = 19.549646 Si / 1000 Ang^3
#
#
#
# Elastic Constant Matrix: (Units=GPa)
#
#
# Indices 1 2 3 4 5 6 
#
# 1 98.6966 41.7782 75.4573 0.0000 -16.3816 0.0000
# 2 41.7782 63.6331 46.0666 0.0000 -9.9420 0.0000
# 3 75.4573 46.0666 139.5121 0.0000 -9.1170 0.0000
# 4 0.0000 0.0000 0.0000 29.7499 0.0000 -9.4604
# 5 -16.3816 -9.9420 -9.1170 0.0000 36.5078 0.0000
# 6 0.0000 0.0000 0.0000 -9.4604 0.0000 21.5965
#
#
#
# Elastic Compliance Matrix: (Units=1/GPa)
#
#
# Indices 1 2 3 4 5 6 
#
# 1 0.020131 -0.006265 -0.008479 0.000000 0.005210 0.000000
# 2 -0.006265 0.023188 -0.004106 0.000000 0.002478 0.000000
# 3 -0.008479 -0.004106 0.013000 0.000000 -0.001677 0.000000
# 4 0.000000 0.000000 0.000000 0.039054 0.000000 0.017108
# 5 0.005210 0.002478 -0.001677 0.000000 0.029985 0.000000
# 6 0.000000 0.000000 0.000000 0.017108 0.000000 0.053798
#
#
# Mechanical properties :
#
#
# Convention : Reuss Voigt Hill
#
# Bulk Modulus (GPa) = 53.70841 69.82734 61.76788
# Shear Modulus (GPa) = 22.41508 26.80680 24.61094
#
# Velocity S-wave (km/s) = 3.38978 3.70701 3.55194
# Velocity P-wave (km/s) = 6.54624 7.35650 6.96317
#
# Compressibility (1/GPa) = 0.01861906
#
# Stress axis : x y z
#
# Youngs Moduli (GPa) = 49.67361 43.12552 76.92094
#
# Poissons Ratio (x) = 0.27017 0.65224
# Poissons Ratio (y) = 0.31119 0.31586
# Poissons Ratio (z) = 0.42120 0.17709
#
# Static dielectric constant tensor:
#      x y z
#    x 3.800510 0.000000 0.091210 
#    y 0.000000 3.502500 0.000000 
#    z 0.091210 0.000000 3.698310 
# 
# 
# High freq. dielectric constant tensor:
#      x y z
#    x 1.770830 0.000000 0.000330 
#    y 0.000000 1.738710 0.000000 
#    z 0.000330 0.000000 1.765020 
# 
# From -- ./inp_files/244702.got.cif
#   From: 2010.06.25/outbox.cif.g09.slc.cpg/sg12_123_cif.got.tgz:244702.got - 2010.06.28 00:19:55.
