data_PCOD8096431
_publ_section_title
;
Structure prediction by ZEFSAII (Michael W. Deem and Ramdas Pophale) SiO2 
 PCOD8096431
Probable space group: C 2/M
;
_chemical_formula_sum "Si O2"
_cell_formula_units_Z 44
_cell_length_a 8.102160
_cell_length_b 30.707962
_cell_length_c 14.738936
_cell_angle_alpha 90.000000
_cell_angle_beta 145.799552
_cell_angle_gamma 90.000000
_cell_volume 2061.216840
_symmetry_space_group_name_H-M "C 2/M"
_symmetry_group_IT_number 12
_symmetry_cell_setting 'monoclinic'
loop_
_space_group_symop_operation_xyz
x,y,z
-x,y,-z
-x,-y,-z
x,-y,z
1/2+x,1/2+y,z
1/2-x,1/2+y,-z
1/2-x,1/2-y,-z
1/2+x,1/2-y,z
loop_
_atom_site_type_symbol
_atom_site_label
_atom_site_fract_x
_atom_site_fract_y
_atom_site_fract_z
Si Si1 0.616882 0.079205 0.353086
Si Si2 0.345649 0.214637 0.798864
Si Si3 0.707383 0.395628 0.306801
Si Si4 0.111825 0.951460 0.695244
Si Si5 0.937114 0.804152 0.140127
Si Si6 0.500000 0.341563 0.500000
O O1 0.296747 0.077791 0.255136
O O2 0.823295 0.045366 0.501096
O O3 0.621472 0.067793 0.246931
O O4 0.753082 0.127441 0.432579
O O5 0.219894 0.206874 0.839195
O O6 0.324700 0.266462 0.770854
O O7 0.141205 0.188938 0.638203
O O8 0.683585 0.197151 0.946732
O O9 0.450897 0.420983 0.245365
O O10 0.591414 0.350312 0.216400
O O11 0.000000 0.389785 0.500000
O O12 0.193435 0.000000 0.766125
#
# Coordination Sequence:
#
# PCOD8096431 Si02
#       6
#     8   8   8   8   8   4
#     4   9  18  31  51  81 113 142 190 236 281 339
#     4  10  22  37  57  76 115 151 201 236 289 340
#     4  10  20  33  53  81 116 150 196 236 284 344
#     4   9  17  31  52  82 118 150 184 234 288 344
#     4  10  22  39  52  82 113 157 191 244 287 340
#     4  10  20  36  57  84 106 154 191 240 286 342
#
# _framework density 21.346612
#
# number of rings (size 3 to 8) (size 9 to 14) (size 15 to 20)
#    0.000    2.545    0.000    4.364    3.818    4.727 
#    0.000    0.000    0.000    0.000    0.000   28.000 
#    0.000  100.364    0.000    0.000    0.000    0.182 
#
# Total GULP energy -272597.599099 kJ/mol
# GULP energy per Si atom -12390.799959 kJ/mol
# Density = 2.129803 g / cm^3
# Si number density = 21.346612 Si / 1000 Ang^3
#
#
#
# Elastic Constant Matrix: (Units=GPa)
#
#
# Indices 1 2 3 4 5 6 
#
# 1 134.2970 42.8968 12.7796 0.0000 -6.6852 0.0000
# 2 42.8968 138.4818 39.1052 0.0000 -4.9702 0.0000
# 3 12.7796 39.1052 48.2596 0.0000 -10.8260 0.0000
# 4 0.0000 0.0000 0.0000 9.8313 0.0000 2.2768
# 5 -6.6852 -4.9702 -10.8260 0.0000 12.1831 0.0000
# 6 0.0000 0.0000 0.0000 2.2768 0.0000 25.3824
#
#
#
# Elastic Compliance Matrix: (Units=1/GPa)
#
#
# Indices 1 2 3 4 5 6 
#
# 1 0.008444 -0.002729 0.000955 0.000000 0.004369 0.000000
# 2 -0.002729 0.010377 -0.008833 0.000000 -0.005113 0.000000
# 3 0.000955 -0.008833 0.033641 0.000000 0.026814 0.000000
# 4 0.000000 0.000000 0.000000 0.103873 0.000000 -0.009317
# 5 0.004369 -0.005113 0.026814 0.000000 0.106220 0.000000
# 6 0.000000 0.000000 0.000000 -0.009317 0.000000 0.040233
#
#
# Mechanical properties :
#
#
# Convention : Reuss Voigt Hill
#
# Bulk Modulus (GPa) = 32.00090 56.73353 44.36722
# Shear Modulus (GPa) = 14.95128 24.56315 19.75722
#
# Velocity S-wave (km/s) = 2.64939 3.39585 3.04558
# Velocity P-wave (km/s) = 4.93788 6.48157 5.76166
#
# Compressibility (1/GPa) = 0.03124912
#
# Stress axis : x y z
#
# Youngs Moduli (GPa) = 118.42208 96.36451 29.72547
#
# Poissons Ratio (x) = 0.26294 -0.02839
# Poissons Ratio (y) = 0.32313 0.26257
# Poissons Ratio (z) = -0.11309 0.85121
#
# Static dielectric constant tensor:
#      x y z
#    x 4.210170 0.000000 0.121520 
#    y 0.000000 3.613320 0.000000 
#    z 0.121520 0.000000 2.131870 
# 
# 
# High freq. dielectric constant tensor:
#      x y z
#    x 1.853090 0.000000 -0.013700 
#    y 0.000000 1.835600 0.000000 
#    z -0.013700 0.000000 1.784880 
# 
# From -- ./inp_files/200048.got.cif
#   From: 2010.06.25/outbox.cif.g09.slc.cpg/sg12_101_cif.got.tgz:200048.got - 2010.06.28 00:19:55.
