data_PCOD8096403
_publ_section_title
;
Structure prediction by ZEFSAII (Michael W. Deem and Ramdas Pophale) SiO2 
 PCOD8096403
Probable space group: C 2/M
;
_chemical_formula_sum "Si O2"
_cell_formula_units_Z 64
_cell_length_a 20.324842
_cell_length_b 8.679854
_cell_length_c 23.637297
_cell_angle_alpha 90.000000
_cell_angle_beta 121.903232
_cell_angle_gamma 90.000000
_cell_volume 3540.098678
_symmetry_space_group_name_H-M "C 2/M"
_symmetry_group_IT_number 12
_symmetry_cell_setting 'monoclinic'
loop_
_space_group_symop_operation_xyz
x,y,z
-x,y,-z
-x,-y,-z
x,-y,z
1/2+x,1/2+y,z
1/2-x,1/2+y,-z
1/2-x,1/2-y,-z
1/2+x,1/2-y,z
loop_
_atom_site_type_symbol
_atom_site_label
_atom_site_fract_x
_atom_site_fract_y
_atom_site_fract_z
Si Si1 0.832534 0.677198 0.049013
Si Si2 0.067633 0.678501 0.803109
Si Si3 0.977507 0.818394 0.051380
Si Si4 0.928128 0.177221 0.801898
Si Si5 0.281299 0.180813 0.456893
Si Si6 0.040158 0.319946 0.460516
Si Si7 0.348122 0.819899 0.670138
Si Si8 0.505605 0.681722 0.328115
O O1 0.826402 0.500000 0.030874
O O2 0.852952 0.700648 0.125309
O O3 0.898536 0.744291 0.038130
O O4 0.750000 0.750000 0.000000
O O5 0.040571 0.500000 0.794311
O O6 0.006465 0.793418 0.803262
O O7 0.067540 0.735029 0.737620
O O8 0.052253 0.777358 0.124484
O O9 0.962838 0.000000 0.043679
O O10 0.000000 0.753884 0.000000
O O11 0.861043 0.280944 0.742723
O O12 0.903347 0.000000 0.785369
O O13 0.250000 0.250000 0.500000
O O14 0.370548 0.224278 0.491942
O O15 0.236361 0.257686 0.384170
O O16 0.266701 0.000000 0.449514
O O17 0.028760 0.500000 0.443031
O O18 0.001044 0.226771 0.391639
O O19 0.000000 0.267869 0.500000
O O20 0.412749 0.738499 0.660608
O O21 0.353259 0.000000 0.661167
O O22 0.498306 0.500000 0.318127
#
# Coordination Sequence:
#
# PCOD8096403 Si02
#       8
#     8   8   8   8   8   8   8   8
#     4  10  20  33  53  80 108 140 176 220 265 311
#     4   9  17  30  49  74 103 134 173 214 259 309
#     4   9  18  33  54  79 108 141 177 217 261 316
#     4   9  16  28  48  75 104 134 172 215 259 306
#     4  11  21  34  55  81 106 133 170 214 260 307
#     4  10  22  39  57  76 103 139 175 210 255 314
#     4  11  20  31  50  76 107 137 170 217 261 304
#     4  11  20  31  52  79 105 134 171 216 261 306
#
# _framework density 18.078590999999999
#
# number of rings (size 3 to 8) (size 9 to 14) (size 15 to 20)
#    0.000    2.000    1.250    5.250    0.000    3.000 
#    0.000    0.000    2.750    0.000    0.000    0.000 
#    0.000    0.000    0.000    0.000    0.000    0.000 
#
# Total GULP energy -396627.929881 kJ/mol
# GULP energy per Si atom -12394.622809 kJ/mol
# Density = 1.803744 g / cm^3
# Si number density = 18.078591 Si / 1000 Ang^3
#
#
#
# Elastic Constant Matrix: (Units=GPa)
#
#
# Indices 1 2 3 4 5 6 
#
# 1 80.2737 39.2255 62.6833 0.0000 -6.4865 0.0000
# 2 39.2255 83.9080 62.4364 0.0000 -1.2877 0.0000
# 3 62.6833 62.4364 175.1980 0.0000 -7.2955 0.0000
# 4 0.0000 0.0000 0.0000 33.4282 0.0000 0.1708
# 5 -6.4865 -1.2877 -7.2955 0.0000 25.8362 0.0000
# 6 0.0000 0.0000 0.0000 0.1708 0.0000 19.5789
#
#
#
# Elastic Compliance Matrix: (Units=1/GPa)
#
#
# Indices 1 2 3 4 5 6 
#
# 1 0.019041 -0.005282 -0.004798 0.000000 0.003162 0.000000
# 2 -0.005282 0.017702 -0.004490 0.000000 -0.001712 0.000000
# 3 -0.004798 -0.004490 0.009072 0.000000 0.001133 0.000000
# 4 0.000000 0.000000 0.000000 0.029916 0.000000 -0.000261
# 5 0.003162 -0.001712 0.001133 0.000000 0.039734 0.000000
# 6 0.000000 0.000000 0.000000 -0.000261 0.000000 0.051078
#
#
# Mechanical properties :
#
#
# Convention : Reuss Voigt Hill
#
# Bulk Modulus (GPa) = 59.97500 74.23003 67.10251
# Shear Modulus (GPa) = 24.84573 27.43762 26.14168
#
# Velocity S-wave (km/s) = 3.71120 3.89998 3.80676
# Velocity P-wave (km/s) = 7.18405 7.83763 7.51795
#
# Compressibility (1/GPa) = 0.01667361
#
# Stress axis : x y z
#
# Youngs Moduli (GPa) = 52.51820 56.49131 110.23025
#
# Poissons Ratio (x) = 0.29840 0.52894
# Poissons Ratio (y) = 0.27741 0.49492
# Poissons Ratio (z) = 0.25201 0.25364
#
# Static dielectric constant tensor:
#      x y z
#    x 2.890550 0.000000 -0.232770 
#    y 0.000000 3.395980 0.000000 
#    z -0.232770 0.000000 3.950760 
# 
# 
# High freq. dielectric constant tensor:
#      x y z
#    x 1.642680 0.000000 -0.006560 
#    y 0.000000 1.711790 0.000000 
#    z -0.006560 0.000000 1.727020 
# 
# From -- ./inp_files/365213.got.cif
#   From: 2010.06.25/outbox.cif.g09.slc.cpg/sg12_183_cif.got.tgz:365213.got - 2010.06.28 00:19:55.
