data_PCOD8096410
_publ_section_title
;
Structure prediction by ZEFSAII (Michael W. Deem and Ramdas Pophale) SiO2 
 PCOD8096410
Probable space group: C 2/M
;
_chemical_formula_sum "Si O2"
_cell_formula_units_Z 48
_cell_length_a 18.975929
_cell_length_b 8.887905
_cell_length_c 29.130790
_cell_angle_alpha 90.000000
_cell_angle_beta 31.726579
_cell_angle_gamma 90.000000
_cell_volume 2583.628313
_symmetry_space_group_name_H-M "C 2/M"
_symmetry_group_IT_number 12
_symmetry_cell_setting 'monoclinic'
loop_
_space_group_symop_operation_xyz
x,y,z
-x,y,-z
-x,-y,-z
x,-y,z
1/2+x,1/2+y,z
1/2-x,1/2+y,-z
1/2-x,1/2-y,-z
1/2+x,1/2-y,z
loop_
_atom_site_type_symbol
_atom_site_label
_atom_site_fract_x
_atom_site_fract_y
_atom_site_fract_z
Si Si1 0.715830 0.673835 0.140118
Si Si2 0.581337 0.328280 0.722730
Si Si3 0.871789 0.824962 0.406550
Si Si4 0.860737 0.324597 0.969973
Si Si5 0.154907 0.322442 0.264781
Si Si6 0.147503 0.322981 0.776383
O O1 0.717278 0.500000 0.154996
O O2 0.575410 0.712417 0.193624
O O3 0.736312 0.773562 0.174062
O O4 0.833418 0.710691 0.038818
O O5 0.599910 0.500000 0.728765
O O6 0.651047 0.301184 0.635066
O O7 0.649908 0.217739 0.721241
O O8 0.750000 0.750000 0.500000
O O9 0.008315 0.748714 0.347085
O O10 0.880236 0.000000 0.414243
O O11 0.850088 0.500000 0.965987
O O12 0.008198 0.265268 0.875863
O O13 0.750000 0.250000 0.000000
O O14 0.141388 0.500000 0.273747
O O15 0.232183 0.265118 0.266559
O O16 0.167784 0.500000 0.771759
#
# Coordination Sequence:
#
# PCOD8096410 Si02
#       6
#     8   8   8   8   8   8
#     4   9  18  35  55  77 110 150 191 236 282 329
#     4   9  18  34  57  82 112 147 182 224 275 331
#     4  10  21  40  65  90 115 142 179 224 275 337
#     4  10  20  33  53  80 111 149 193 238 279 326
#     4  11  23  38  57  81 113 150 188 232 282 332
#     4  11  22  35  54  82 115 151 189 233 282 330
#
# _framework density 18.578523000000001
#
# number of rings (size 3 to 8) (size 9 to 14) (size 15 to 20)
#    0.000    2.000    1.667    3.500    0.000    5.333 
#    0.000    4.167    0.000    5.000    0.000    0.000 
#    0.000    0.000    0.000    0.000    0.000    0.000 
#
# Total GULP energy -297670.388236 kJ/mol
# GULP energy per Si atom -12402.932843 kJ/mol
# Density = 1.853624 g / cm^3
# Si number density = 18.578523 Si / 1000 Ang^3
#
#
#
# Elastic Constant Matrix: (Units=GPa)
#
#
# Indices 1 2 3 4 5 6 
#
# 1 110.5140 57.2223 46.9971 0.0106 -0.3366 -0.0329
# 2 57.2223 107.2673 45.9656 0.0064 -0.0380 0.0039
# 3 46.9971 45.9656 95.7306 0.0082 7.6948 -0.0009
# 4 0.0106 0.0064 0.0082 28.8759 0.0020 2.8454
# 5 -0.3366 -0.0380 7.6948 0.0020 20.0953 0.0008
# 6 -0.0329 0.0039 -0.0009 2.8454 0.0008 36.7954
#
#
#
# Elastic Compliance Matrix: (Units=1/GPa)
#
#
# Indices 1 2 3 4 5 6 
#
# 1 0.013700 -0.005492 -0.004236 -0.000004 0.001841 0.000013
# 2 -0.005492 0.014039 -0.004168 0.000001 0.001530 -0.000007
# 3 -0.004236 -0.004168 0.014995 -0.000001 -0.005821 -0.000003
# 4 -0.000004 0.000001 -0.000001 0.034897 -0.000003 -0.002699
# 5 0.001841 0.001530 -0.005821 -0.000003 0.052025 0.000000
# 6 0.000013 -0.000007 -0.000003 -0.002699 0.000000 0.027386
#
#
# Mechanical properties :
#
#
# Convention : Reuss Voigt Hill
#
# Bulk Modulus (GPa) = 66.93092 68.20909 67.57001
# Shear Modulus (GPa) = 26.34164 28.04177 27.19171
#
# Velocity S-wave (km/s) = 3.76953 3.88927 3.82987
# Velocity P-wave (km/s) = 7.41956 7.54733 7.48372
#
# Compressibility (1/GPa) = 0.01494078
#
# Stress axis : x y z
#
# Youngs Moduli (GPa) = 72.99525 71.23195 66.69011
#
# Poissons Ratio (x) = 0.39121 0.28253
# Poissons Ratio (y) = 0.40089 0.27793
# Poissons Ratio (z) = 0.30924 0.29686
#
# Static dielectric constant tensor:
#      x y z
#    x 3.338010 0.000000 0.138100 
#    y 0.000000 3.402290 0.000000 
#    z 0.138100 0.000000 3.471520 
# 
# 
# High freq. dielectric constant tensor:
#      x y z
#    x 1.718970 0.000000 0.009230 
#    y 0.000000 1.723440 0.000000 
#    z 0.009230 0.000000 1.711150 
# 
# From -- ./inp_files/274619.got.cif
#   From: 2010.06.25/outbox.cif.g09.slc.cpg/sg12_138_cif.got.tgz:274619.got - 2010.06.28 00:19:55.
