data_PCOD8096087
_publ_section_title
;
Structure prediction by ZEFSAII (Michael W. Deem and Ramdas Pophale) SiO2 
 PCOD8096087
Probable space group: C 2/M
;
_chemical_formula_sum "Si O2"
_cell_formula_units_Z 64
_cell_length_a 33.549680
_cell_length_b 9.155111
_cell_length_c 18.125146
_cell_angle_alpha 90.000000
_cell_angle_beta 141.345126
_cell_angle_gamma 90.000000
_cell_volume 3477.401343
_symmetry_space_group_name_H-M "C 2/M"
_symmetry_group_IT_number 12
_symmetry_cell_setting 'monoclinic'
loop_
_space_group_symop_operation_xyz
x,y,z
-x,y,-z
-x,-y,-z
x,-y,z
1/2+x,1/2+y,z
1/2-x,1/2+y,-z
1/2-x,1/2-y,-z
1/2+x,1/2-y,z
loop_
_atom_site_type_symbol
_atom_site_label
_atom_site_fract_x
_atom_site_fract_y
_atom_site_fract_z
Si Si1 0.241011 0.330155 0.373213
Si Si2 0.413304 0.168351 0.253125
Si Si3 0.461994 0.334278 0.735226
Si Si4 0.104499 0.829104 0.920415
Si Si5 0.041233 0.167896 0.441076
Si Si6 0.853409 0.334244 0.319200
Si Si7 0.281611 0.669380 0.808927
Si Si8 0.155071 0.669200 0.387818
O O1 0.256573 0.500000 0.386507
O O2 0.217021 0.265621 0.262084
O O3 0.185352 0.301779 0.351849
O O4 0.305839 0.252110 0.492145
O O5 0.383800 0.243538 0.138474
O O6 0.478993 0.241995 0.374970
O O7 0.362079 0.187119 0.244317
O O8 0.427416 0.000000 0.255742
O O9 0.449607 0.500000 0.742728
O O10 0.535525 0.289730 0.855250
O O11 0.445256 0.312895 0.625576
O O12 0.417010 0.229401 0.718472
O O13 0.107445 0.000000 0.905014
O O14 0.157602 0.781979 0.055489
O O15 0.102679 0.224350 0.572437
O O16 0.028936 0.000000 0.443971
O O17 0.870818 0.500000 0.367456
O O18 0.780489 0.297449 0.232165
O O19 0.285889 0.500000 0.792556
O O20 0.154886 0.500000 0.408496
#
# Coordination Sequence:
#
# PCOD8096087 Si02
#       8
#     8   8   8   8   8   8   8   8
#     4  10  21  36  54  80 111 137 166 208 254 303
#     4  10  20  34  52  75 104 137 172 213 261 308
#     4   9  18  33  53  77 104 134 172 215 255 300
#     4   9  20  38  56  75 101 135 176 218 255 298
#     4  10  20  33  51  77 107 137 171 213 259 307
#     4  10  21  34  50  76 106 135 171 215 261 310
#     4  10  21  38  57  75 101 138 176 213 256 305
#     4  10  20  34  55  82 109 137 168 204 252 308
#
# _framework density 18.404547000000001
#
# number of rings (size 3 to 8) (size 9 to 14) (size 15 to 20)
#    0.000    2.250    0.000    3.375    0.000   10.000 
#    0.000    0.625    0.000    3.750    0.000    0.000 
#    0.000    0.000    0.000    0.000    0.000    0.000 
#
# Total GULP energy -396932.031614 kJ/mol
# GULP energy per Si atom -12404.125988 kJ/mol
# Density = 1.836266 g / cm^3
# Si number density = 18.404547 Si / 1000 Ang^3
#
#
#
# Elastic Constant Matrix: (Units=GPa)
#
#
# Indices 1 2 3 4 5 6 
#
# 1 100.3967 62.4854 70.2446 0.0000 10.1609 0.0000
# 2 62.4854 108.1543 68.6214 0.0000 0.5359 0.0000
# 3 70.2446 68.6214 135.4912 0.0000 5.0693 0.0000
# 4 0.0000 0.0000 0.0000 29.1173 0.0000 -2.8883
# 5 10.1609 0.5359 5.0693 0.0000 14.5413 0.0000
# 6 0.0000 0.0000 0.0000 -2.8883 0.0000 30.9613
#
#
#
# Elastic Compliance Matrix: (Units=1/GPa)
#
#
# Indices 1 2 3 4 5 6 
#
# 1 0.020275 -0.007758 -0.006143 0.000000 -0.011740 0.000000
# 2 -0.007758 0.016646 -0.004649 0.000000 0.006428 0.000000
# 3 -0.006143 -0.004649 0.012922 0.000000 -0.000041 0.000000
# 4 0.000000 0.000000 0.000000 0.034665 0.000000 0.003234
# 5 -0.011740 0.006428 -0.000041 0.000000 0.076750 0.000000
# 6 0.000000 0.000000 0.000000 0.003234 0.000000 0.032600
#
#
# Mechanical properties :
#
#
# Convention : Reuss Voigt Hill
#
# Bulk Modulus (GPa) = 78.47821 82.97168 80.72495
# Shear Modulus (GPa) = 21.25794 24.43670 22.84732
#
# Velocity S-wave (km/s) = 3.40227 3.64779 3.52717
# Velocity P-wave (km/s) = 7.62674 7.93233 7.78103
#
# Compressibility (1/GPa) = 0.01274239
#
# Stress axis : x y z
#
# Youngs Moduli (GPa) = 49.32078 60.07428 77.39005
#
# Poissons Ratio (x) = 0.46606 0.47543
# Poissons Ratio (y) = 0.38263 0.35979
# Poissons Ratio (z) = 0.30299 0.27929
#
# Static dielectric constant tensor:
#      x y z
#    x 3.377030 0.000000 0.108300 
#    y 0.000000 3.446870 0.000000 
#    z 0.108300 0.000000 3.287830 
# 
# 
# High freq. dielectric constant tensor:
#      x y z
#    x 1.715810 0.000000 0.007860 
#    y 0.000000 1.720470 0.000000 
#    z 0.007860 0.000000 1.701780 
# 
# From -- ./inp_files/295686.got.cif
#   From: 2010.06.25/outbox.cif.g09.slc.cpg/sg12_148_cif.got.tgz:295686.got - 2010.06.28 00:19:55.
