data_PCOD8096167
_publ_section_title
;
Structure prediction by ZEFSAII (Michael W. Deem and Ramdas Pophale) SiO2 
 PCOD8096167
Probable space group: C 2/M
;
_chemical_formula_sum "Si O2"
_cell_formula_units_Z 64
_cell_length_a 19.379855
_cell_length_b 8.929764
_cell_length_c 21.834483
_cell_angle_alpha 90.000000
_cell_angle_beta 58.922572
_cell_angle_gamma 90.000000
_cell_volume 3236.278078
_symmetry_space_group_name_H-M "C 2/M"
_symmetry_group_IT_number 12
_symmetry_cell_setting 'monoclinic'
loop_
_space_group_symop_operation_xyz
x,y,z
-x,y,-z
-x,-y,-z
x,-y,z
1/2+x,1/2+y,z
1/2-x,1/2+y,-z
1/2-x,1/2-y,-z
1/2+x,1/2-y,z
loop_
_atom_site_type_symbol
_atom_site_label
_atom_site_fract_x
_atom_site_fract_y
_atom_site_fract_z
Si Si1 0.026007 0.668109 0.423177
Si Si2 0.121011 0.174695 0.284540
Si Si3 0.781118 0.325719 0.925112
Si Si4 0.373527 0.176272 0.235755
Si Si5 0.721340 0.328657 0.613538
Si Si6 0.782244 0.823172 0.174665
Si Si7 0.148627 0.665464 0.536245
Si Si8 0.048011 0.324549 0.206145
O O1 0.063808 0.500000 0.411111
O O2 0.087338 0.787096 0.366783
O O3 0.000000 0.733004 0.500000
O O4 0.946734 0.661256 0.418379
O O5 0.201138 0.271479 0.244285
O O6 0.055993 0.228145 0.264076
O O7 0.139871 0.000000 0.268830
O O8 0.771066 0.500000 0.939085
O O9 0.725277 0.273571 0.893231
O O10 0.875223 0.284950 0.871802
O O11 0.750000 0.250000 0.000000
O O12 0.307677 0.230598 0.315597
O O13 0.356628 0.246565 0.176291
O O14 0.464659 0.222264 0.211880
O O15 0.364847 0.000000 0.234192
O O16 0.705627 0.500000 0.639343
O O17 0.814544 0.299739 0.549304
O O18 0.672075 0.289592 0.574802
O O19 0.791037 0.000000 0.176400
O O20 0.181228 0.500000 0.540879
O O21 0.048707 0.500000 0.223164
#
# Coordination Sequence:
#
# PCOD8096167 Si02
#       8
#     8   8   8   8   8   8   8   8
#     4  10  21  35  52  71  98 142 188 231 287 346
#     4  11  22  36  56  83 111 144 192 245 289 335
#     4   9  19  38  64  90 116 152 189 226 271 329
#     4  11  22  36  57  85 115 148 190 238 283 331
#     4  10  20  33  52  75 102 141 181 229 288 341
#     4  10  22  40  60  84 118 155 190 228 283 346
#     4   9  19  35  50  70  98 136 187 232 281 344
#     4   9  20  39  60  84 117 155 190 225 276 340
#
# _framework density 19.775804999999998
#
# number of rings (size 3 to 8) (size 9 to 14) (size 15 to 20)
#    0.000    2.125    0.000    3.750    1.750    7.750 
#    0.000    0.625    0.000    3.750    0.000    0.000 
#    0.000    0.000    0.000    0.000    0.000    0.000 
#
# Total GULP energy -396660.860209 kJ/mol
# GULP energy per Si atom -12395.651882 kJ/mol
# Density = 1.973079 g / cm^3
# Si number density = 19.775805 Si / 1000 Ang^3
#
#
#
# Elastic Constant Matrix: (Units=GPa)
#
#
# Indices 1 2 3 4 5 6 
#
# 1 71.8549 22.2447 21.1643 -0.0001 13.5590 -0.0001
# 2 22.2447 56.9538 27.0663 -0.0001 7.5104 -0.0005
# 3 21.1643 27.0663 110.2876 0.0000 12.3416 -0.0001
# 4 -0.0001 -0.0001 0.0000 34.6454 0.0000 5.4601
# 5 13.5590 7.5104 12.3416 0.0000 20.7570 0.0000
# 6 -0.0001 -0.0005 -0.0001 5.4601 0.0000 27.2205
#
#
#
# Elastic Compliance Matrix: (Units=1/GPa)
#
#
# Indices 1 2 3 4 5 6 
#
# 1 0.017518 -0.005141 -0.001101 0.000000 -0.008928 0.000000
# 2 -0.005141 0.021803 -0.004132 0.000000 -0.002074 0.000000
# 3 -0.001101 -0.004132 0.010761 0.000000 -0.004184 0.000000
# 4 0.000000 0.000000 0.000000 0.029806 0.000000 -0.005979
# 5 -0.008928 -0.002074 -0.004184 0.000000 0.057246 0.000000
# 6 0.000000 0.000000 0.000000 -0.005979 0.000000 0.037936
#
#
# Mechanical properties :
#
#
# Convention : Reuss Voigt Hill
#
# Bulk Modulus (GPa) = 34.09146 42.22744 38.15945
# Shear Modulus (GPa) = 24.31942 27.76599 26.04271
#
# Velocity S-wave (km/s) = 3.51059 3.75112 3.63285
# Velocity P-wave (km/s) = 5.80592 6.33724 6.07739
#
# Compressibility (1/GPa) = 0.02933286
#
# Stress axis : x y z
#
# Youngs Moduli (GPa) = 57.08549 45.86443 92.93038
#
# Poissons Ratio (x) = 0.23581 0.10229
# Poissons Ratio (y) = 0.29350 0.38401
# Poissons Ratio (z) = 0.06284 0.18952
#
# Static dielectric constant tensor:
#      x y z
#    x 3.781540 0.000000 0.076200 
#    y 0.000000 3.575040 0.000000 
#    z 0.076200 0.000000 3.640010 
# 
# 
# High freq. dielectric constant tensor:
#      x y z
#    x 1.770140 0.000000 0.003870 
#    y 0.000000 1.766840 0.000000 
#    z 0.003870 0.000000 1.758000 
# 
# From -- ./inp_files/319968.got.cif
#   From: 2010.06.25/outbox.cif.g09.slc.cpg/sg12_160_cif.got.tgz:319968.got - 2010.06.28 00:19:55.
