data_PCOD8096941
_publ_section_title
;
Structure prediction by ZEFSAII (Michael W. Deem and Ramdas Pophale) SiO2 
 PCOD8096941
Probable space group: C 2/M
;
_chemical_formula_sum "Si O2"
_cell_formula_units_Z 56
_cell_length_a 22.617999
_cell_length_b 9.041435
_cell_length_c 18.856428
_cell_angle_alpha 90.000000
_cell_angle_beta 127.913962
_cell_angle_gamma 90.000000
_cell_volume 3042.228630
_symmetry_space_group_name_H-M "C 2/M"
_symmetry_group_IT_number 12
_symmetry_cell_setting 'monoclinic'
loop_
_space_group_symop_operation_xyz
x,y,z
-x,y,-z
-x,-y,-z
x,-y,z
1/2+x,1/2+y,z
1/2-x,1/2+y,-z
1/2-x,1/2-y,-z
1/2+x,1/2-y,z
loop_
_atom_site_type_symbol
_atom_site_label
_atom_site_fract_x
_atom_site_fract_y
_atom_site_fract_z
Si Si1 0.446261 0.835206 0.315932
Si Si2 0.849181 0.170419 0.624548
Si Si3 0.381427 0.169361 0.514541
Si Si4 0.658803 0.673433 0.658946
Si Si5 0.994656 0.329480 0.785314
Si Si6 0.972197 0.173186 0.902270
Si Si7 0.303580 0.330487 0.742662
O O1 0.532437 0.812121 0.400500
O O2 0.394070 0.715139 0.314353
O O3 0.439843 0.816772 0.225646
O O4 0.420454 0.000000 0.319933
O O5 0.828797 0.264503 0.538992
O O6 0.928069 0.222644 0.713245
O O7 0.791881 0.191148 0.648445
O O8 0.855284 0.000000 0.606483
O O9 0.372438 0.253344 0.434810
O O10 0.357636 0.000000 0.486889
O O11 0.658572 0.500000 0.648931
O O12 0.742760 0.729174 0.737159
O O13 0.967392 0.500000 0.770496
O O14 0.021194 0.267719 0.881507
O O15 0.885134 0.218302 0.830034
O O16 0.984484 0.000000 0.896851
O O17 0.000000 0.219937 0.000000
O O18 0.289068 0.500000 0.752686
#
# Coordination Sequence:
#
# PCOD8096941 Si02
#       7
#     8   8   8   8   8   8   8
#     4   9  19  35  52  70  97 134 173 209 248 294
#     4   9  17  31  51  73  98 130 168 210 252 294
#     4  10  20  34  52  72  97 132 172 214 257 297
#     4  12  24  33  47  71  99 134 174 215 251 288
#     4   9  17  30  51  78 104 132 163 199 247 298
#     4   9  18  34  58  85 107 128 158 199 247 298
#     4   9  19  35  52  71 101 136 163 196 250 307
#
# _framework density 18.407558000000002
#
# number of rings (size 3 to 8) (size 9 to 14) (size 15 to 20)
#    0.000    2.429    0.000    4.714    0.000    8.857 
#    0.000    0.000    0.000    0.857    0.000    0.000 
#    0.000    0.000    0.000    0.000    0.000    0.000 
#
# Total GULP energy -347115.946013 kJ/mol
# GULP energy per Si atom -12396.998072 kJ/mol
# Density = 1.836566 g / cm^3
# Si number density = 18.407558 Si / 1000 Ang^3
#
#
#
# Elastic Constant Matrix: (Units=GPa)
#
#
# Indices 1 2 3 4 5 6 
#
# 1 69.6107 42.9710 19.8851 0.0000 -15.0952 0.0000
# 2 42.9710 111.2847 28.8179 0.0000 -11.6063 0.0000
# 3 19.8851 28.8179 78.4842 0.0000 -20.2158 0.0000
# 4 0.0000 0.0000 0.0000 25.3750 0.0000 -6.8773
# 5 -15.0952 -11.6063 -20.2158 0.0000 20.9620 0.0000
# 6 0.0000 0.0000 0.0000 -6.8773 0.0000 32.0368
#
#
#
# Elastic Compliance Matrix: (Units=1/GPa)
#
#
# Indices 1 2 3 4 5 6 
#
# 1 0.021137 -0.007008 0.000185 0.000000 0.011519 0.000000
# 2 -0.007008 0.012365 -0.003061 0.000000 -0.001153 0.000000
# 3 0.000185 -0.003061 0.017851 0.000000 0.015653 0.000000
# 4 0.000000 0.000000 0.000000 0.041843 0.000000 0.008982
# 5 0.011519 -0.001153 0.015653 0.000000 0.070458 0.000000
# 6 0.000000 0.000000 0.000000 0.008982 0.000000 0.033142
#
#
# Mechanical properties :
#
#
# Convention : Reuss Voigt Hill
#
# Bulk Modulus (GPa) = 31.66273 49.19194 40.42734
# Shear Modulus (GPa) = 22.01742 26.85513 24.43628
#
# Velocity S-wave (km/s) = 3.46223 3.82372 3.64746
# Velocity P-wave (km/s) = 5.76377 6.80267 6.30465
#
# Compressibility (1/GPa) = 0.03158287
#
# Stress axis : x y z
#
# Youngs Moduli (GPa) = 47.31045 80.87592 56.02059
#
# Poissons Ratio (x) = 0.56680 -0.01037
# Poissons Ratio (y) = 0.33156 0.17150
# Poissons Ratio (z) = -0.00876 0.24760
#
# Static dielectric constant tensor:
#      x y z
#    x 3.470850 0.000000 -0.330010 
#    y 0.000000 3.462030 0.000000 
#    z -0.330010 0.000000 3.331850 
# 
# 
# High freq. dielectric constant tensor:
#      x y z
#    x 1.706770 0.000000 -0.020280 
#    y 0.000000 1.719840 0.000000 
#    z -0.020280 0.000000 1.686530 
# 
# From -- ./inp_files/281693.got.cif
#   From: 2010.06.25/outbox.cif.g09.slc.cpg/sg12_141_cif.got.tgz:281693.got - 2010.06.28 00:19:55.
