data_PCOD8096586
_publ_section_title
;
Structure prediction by ZEFSAII (Michael W. Deem and Ramdas Pophale) SiO2 
 PCOD8096586
Probable space group: C 2/M
;
_chemical_formula_sum "Si O2"
_cell_formula_units_Z 64
_cell_length_a 32.703546
_cell_length_b 17.434289
_cell_length_c 12.282039
_cell_angle_alpha 90.000000
_cell_angle_beta 151.769219
_cell_angle_gamma 90.000000
_cell_volume 3312.477068
_symmetry_space_group_name_H-M "C 2/M"
_symmetry_group_IT_number 12
_symmetry_cell_setting 'monoclinic'
loop_
_space_group_symop_operation_xyz
x,y,z
-x,y,-z
-x,-y,-z
x,-y,z
1/2+x,1/2+y,z
1/2-x,1/2+y,-z
1/2-x,1/2-y,-z
1/2+x,1/2-y,z
loop_
_atom_site_type_symbol
_atom_site_label
_atom_site_fract_x
_atom_site_fract_y
_atom_site_fract_z
Si Si1 0.733408 0.322058 0.724409
Si Si2 0.178655 0.088761 0.807929
Si Si3 0.983582 0.343421 0.836094
Si Si4 0.186432 0.155394 0.054205
Si Si5 0.682545 0.911473 0.489459
Si Si6 0.487713 0.412106 0.294433
Si Si7 0.960669 0.172808 0.792001
Si Si8 0.652080 0.089064 0.175463
O O1 0.720962 0.363703 0.809908
O O2 0.779330 0.241245 0.853088
O O3 0.642962 0.316425 0.447280
O O4 0.796438 0.370658 0.798402
O O5 0.074899 0.098205 0.568685
O O6 0.204799 0.000000 0.856081
O O7 0.216531 0.122531 0.008509
O O8 0.884498 0.368844 0.585523
O O9 0.999502 0.254441 0.845630
O O10 0.050192 0.392638 0.919993
O O11 0.000000 0.362908 0.000000
O O12 0.224027 0.102987 0.239770
O O13 0.082997 0.147044 0.824598
O O14 0.681807 0.879165 0.363936
O O15 0.657492 0.000000 0.427129
O O16 0.454601 0.500000 0.224273
O O17 0.510194 0.393110 0.222093
O O18 0.000000 0.148494 0.000000
O O19 0.670669 0.000000 0.208057
#
# Coordination Sequence:
#
# PCOD8096586 Si02
#       8
#     8   8   8   8   8   8   8   8
#     4  11  23  38  59  88 117 152 190 233 289 346
#     4  10  22  42  63  82 113 152 193 239 291 342
#     4   9  17  35  54  79 111 151 193 228 280 334
#     4  12  22  37  59  88 114 145 196 244 284 330
#     4  10  20  33  55  86 116 148 190 239 283 333
#     4  10  22  38  58  85 113 150 196 237 284 338
#     4  10  21  37  56  81 120 159 185 225 287 347
#     4  10  21  36  58  84 117 154 190 232 283 348
#
# _framework density 19.320889000000001
#
# number of rings (size 3 to 8) (size 9 to 14) (size 15 to 20)
#    0.000    1.750    1.250    3.375    1.750    3.750 
#    0.000    0.000    0.000    0.000    0.000    2.625 
#    0.000    0.000    0.000    0.000    0.000    0.000 
#
# Total GULP energy -396806.747803 kJ/mol
# GULP energy per Si atom -12400.210869 kJ/mol
# Density = 1.927691 g / cm^3
# Si number density = 19.320889 Si / 1000 Ang^3
#
#
#
# Elastic Constant Matrix: (Units=GPa)
#
#
# Indices 1 2 3 4 5 6 
#
# 1 83.1886 38.2061 38.1133 0.0000 15.2171 0.0000
# 2 38.2061 90.9568 36.7548 0.0000 6.7283 0.0000
# 3 38.1133 36.7548 57.9673 0.0000 6.7547 0.0000
# 4 0.0000 0.0000 0.0000 -6.6414 0.0000 -18.3262
# 5 15.2171 6.7283 6.7547 0.0000 26.7384 0.0000
# 6 0.0000 0.0000 0.0000 -18.3262 0.0000 22.3784
#
#
#
# Elastic Compliance Matrix: (Units=1/GPa)
#
#
# Indices 1 2 3 4 5 6 
#
# 1 0.019555 -0.003778 -0.009557 0.000000 -0.007764 0.000000
# 2 -0.003778 0.015562 -0.007395 0.000000 0.000102 0.000000
# 3 -0.009557 -0.007395 0.028204 0.000000 0.000175 0.000000
# 4 0.000000 0.000000 0.000000 -0.046191 0.000000 -0.037827
# 5 -0.007764 0.000102 0.000175 0.000000 0.041748 0.000000
# 6 0.000000 0.000000 0.000000 -0.037827 0.000000 0.013709
#
#
# Mechanical properties :
#
#
# Convention : Reuss Voigt Hill
#
# Bulk Modulus (GPa) = 45.74592 50.91789 48.33190
# Shear Modulus (GPa) = 41.20926 16.43098 28.82012
#
# Velocity S-wave (km/s) = 4.62333 2.91937 3.86639
# Velocity P-wave (km/s) = 7.22693 6.14611 6.70832
#
# Compressibility (1/GPa) = 0.02185988
#
# Stress axis : x y z
#
# Youngs Moduli (GPa) = 51.13864 64.25993 35.45649
#
# Poissons Ratio (x) = 0.24275 0.33887
# Poissons Ratio (y) = 0.19318 0.26221
# Poissons Ratio (z) = 0.48874 0.47522
#
# Static dielectric constant tensor:
#      x y z
#    x 3.416000 0.000000 0.052890 
#    y 0.000000 3.484880 0.000000 
#    z 0.052890 0.000000 3.617790 
# 
# 
# High freq. dielectric constant tensor:
#      x y z
#    x 1.744400 0.000000 0.006510 
#    y 0.000000 1.757650 0.000000 
#    z 0.006510 0.000000 1.749600 
# 
# From -- ./inp_files/190109.got.cif
#   From: 2010.06.25/outbox.cif.g09.slc.cpg/sg12_96_cif.got.tgz:190109.got - 2010.06.28 00:19:55.
