data_PCOD8096027
_publ_section_title
;
Structure prediction by ZEFSAII (Michael W. Deem and Ramdas Pophale) SiO2 
 PCOD8096027
Probable space group: C 2/M
;
_chemical_formula_sum "Si O2"
_cell_formula_units_Z 56
_cell_length_a 14.094916
_cell_length_b 9.554881
_cell_length_c 26.334871
_cell_angle_alpha 90.000000
_cell_angle_beta 124.537514
_cell_angle_gamma 90.000000
_cell_volume 2921.575532
_symmetry_space_group_name_H-M "C 2/M"
_symmetry_group_IT_number 12
_symmetry_cell_setting 'monoclinic'
loop_
_space_group_symop_operation_xyz
x,y,z
-x,y,-z
-x,-y,-z
x,-y,z
1/2+x,1/2+y,z
1/2-x,1/2+y,-z
1/2-x,1/2-y,-z
1/2+x,1/2-y,z
loop_
_atom_site_type_symbol
_atom_site_label
_atom_site_fract_x
_atom_site_fract_y
_atom_site_fract_z
Si Si1 0.724294 0.336083 0.310447
Si Si2 0.512346 0.162011 0.230924
Si Si3 0.565271 0.342992 0.442013
Si Si4 0.596712 0.337005 0.990240
Si Si5 0.178332 0.158020 0.576571
Si Si6 0.643823 0.160720 0.910115
Si Si7 0.964177 0.339688 0.330643
O O1 0.699986 0.500000 0.309894
O O2 0.619570 0.261269 0.249378
O O3 0.735052 0.264916 0.369464
O O4 0.836582 0.305406 0.311241
O O5 0.409815 0.194474 0.160841
O O6 0.466368 0.202651 0.272577
O O7 0.550818 0.000000 0.239668
O O8 0.591258 0.500000 0.431216
O O9 0.443361 0.336825 0.432698
O O10 0.661837 0.295693 0.512613
O O11 0.562279 0.243226 0.391968
O O12 0.581146 0.500000 0.973177
O O13 0.580468 0.254105 0.932954
O O14 0.500000 0.284545 0.000000
O O15 0.720937 0.303527 0.052337
O O16 0.228792 0.000000 0.595061
O O17 0.624841 0.000000 0.919893
O O18 0.995110 0.500000 0.348807
#
# Coordination Sequence:
#
# PCOD8096027 Si02
#       7
#     8   8   8   8   8   8   8
#     4  10  20  33  51  76 101 129 172 222 262 301
#     4  10  21  37  53  71 103 144 175 202 248 307
#     4   8  14  26  47  72  96 126 167 212 259 313
#     4   9  18  34  58  85 110 137 168 205 250 295
#     4   8  14  27  47  70  97 130 165 207 264 320
#     4   9  19  35  54  78 108 140 173 207 244 293
#     4   9  19  34  51  72 100 133 169 213 263 309
#
# _framework density 19.167740999999999
#
# number of rings (size 3 to 8) (size 9 to 14) (size 15 to 20)
#    0.000    3.000    0.000    1.286    0.000    3.714 
#    0.000    6.429    0.000    0.000    0.000    0.000 
#    0.000    0.000    0.000    0.000    0.000    0.000 
#
# Total GULP energy -347177.284955 kJ/mol
# GULP energy per Si atom -12399.188748 kJ/mol
# Density = 1.912411 g / cm^3
# Si number density = 19.167741 Si / 1000 Ang^3
#
#
#
# Elastic Constant Matrix: (Units=GPa)
#
#
# Indices 1 2 3 4 5 6 
#
# 1 76.1835 33.8912 41.2429 0.0000 -12.5457 0.0000
# 2 33.8912 73.1014 54.0553 0.0000 -8.1815 0.0000
# 3 41.2429 54.0553 132.5217 0.0000 -14.6281 0.0000
# 4 0.0000 0.0000 0.0000 32.4109 0.0000 -2.8815
# 5 -12.5457 -8.1815 -14.6281 0.0000 25.3831 0.0000
# 6 0.0000 0.0000 0.0000 -2.8815 0.0000 22.8307
#
#
#
# Elastic Compliance Matrix: (Units=1/GPa)
#
#
# Indices 1 2 3 4 5 6 
#
# 1 0.018044 -0.005793 -0.002642 0.000000 0.005528 0.000000
# 2 -0.005793 0.021527 -0.006972 0.000000 0.000058 0.000000
# 3 -0.002642 -0.006972 0.011555 0.000000 0.003106 0.000000
# 4 0.000000 0.000000 0.000000 0.031204 0.000000 0.003938
# 5 0.005528 0.000058 0.003106 0.000000 0.043937 0.000000
# 6 0.000000 0.000000 0.000000 0.003938 0.000000 0.044298
#
#
# Mechanical properties :
#
#
# Convention : Reuss Voigt Hill
#
# Bulk Modulus (GPa) = 49.23183 60.02061 54.62622
# Shear Modulus (GPa) = 24.02119 26.29942 25.16030
#
# Velocity S-wave (km/s) = 3.54391 3.70816 3.62696
# Velocity P-wave (km/s) = 6.51815 7.05090 6.78975
#
# Compressibility (1/GPa) = 0.02031206
#
# Stress axis : x y z
#
# Youngs Moduli (GPa) = 55.41953 46.45332 86.54378
#
# Poissons Ratio (x) = 0.26910 0.22869
# Poissons Ratio (y) = 0.32104 0.60335
# Poissons Ratio (z) = 0.14645 0.32385
#
# Static dielectric constant tensor:
#      x y z
#    x 3.376400 0.000000 -0.023450 
#    y 0.000000 3.523860 0.000000 
#    z -0.023450 0.000000 3.629010 
# 
# 
# High freq. dielectric constant tensor:
#      x y z
#    x 1.737500 0.000000 0.002020 
#    y 0.000000 1.740440 0.000000 
#    z 0.002020 0.000000 1.743750 
# 
# From -- ./inp_files/313305.got.cif
#   From: 2010.06.25/outbox.cif.g09.slc.cpg/sg12_157_cif.got.tgz:313305.got - 2010.06.28 00:19:55.
