data_PCOD8096928
_publ_section_title
;
Structure prediction by ZEFSAII (Michael W. Deem and Ramdas Pophale) SiO2 
 PCOD8096928
Probable space group: C 2/M
;
_chemical_formula_sum "Si O2"
_cell_formula_units_Z 64
_cell_length_a 14.294350
_cell_length_b 9.291056
_cell_length_c 30.124117
_cell_angle_alpha 90.000000
_cell_angle_beta 61.350682
_cell_angle_gamma 90.000000
_cell_volume 3510.960033
_symmetry_space_group_name_H-M "C 2/M"
_symmetry_group_IT_number 12
_symmetry_cell_setting 'monoclinic'
loop_
_space_group_symop_operation_xyz
x,y,z
-x,y,-z
-x,-y,-z
x,-y,z
1/2+x,1/2+y,z
1/2-x,1/2+y,-z
1/2-x,1/2-y,-z
1/2+x,1/2-y,z
loop_
_atom_site_type_symbol
_atom_site_label
_atom_site_fract_x
_atom_site_fract_y
_atom_site_fract_z
Si Si1 0.210061 0.670071 0.134784
Si Si2 0.150920 0.167174 0.502417
Si Si3 0.202034 0.668071 0.410470
Si Si4 0.938885 0.163268 0.386662
Si Si5 0.513551 0.670596 0.135716
Si Si6 0.641501 0.169861 0.325939
Si Si7 0.442278 0.329510 0.056212
Si Si8 0.217352 0.829585 0.786225
O O1 0.191502 0.500000 0.134960
O O2 0.318711 0.718333 0.085250
O O3 0.219688 0.719177 0.183921
O O4 0.112560 0.751382 0.135031
O O5 0.250000 0.250000 0.500000
O O6 0.123863 0.241601 0.461276
O O7 0.057220 0.182330 0.560387
O O8 0.178971 0.000000 0.488395
O O9 0.177656 0.500000 0.423214
O O10 0.323884 0.706290 0.393808
O O11 0.182735 0.717775 0.364699
O O12 0.025164 0.264675 0.343871
O O13 0.965731 0.000000 0.367499
O O14 0.529182 0.500000 0.136199
O O15 0.504256 0.719756 0.086469
O O16 0.405461 0.722397 0.185208
O O17 0.722962 0.232610 0.270685
O O18 0.631624 0.000000 0.323992
O O19 0.446144 0.500000 0.053199
O O20 0.500000 0.260766 0.000000
O O21 0.215999 0.000000 0.785454
#
# Coordination Sequence:
#
# PCOD8096928 Si02
#       8
#     8   8   8   8   8   8   8   8
#     4   9  17  31  51  72  96 128 165 203 241 282
#     4   9  17  31  51  71  95 126 155 187 230 283
#     4   9  19  34  50  70  96 124 154 191 235 283
#     4   9  19  34  49  70  99 124 149 189 242 287
#     4   9  17  31  52  73  94 127 168 202 236 284
#     4  10  20  34  52  71  92 123 163 199 232 282
#     4   8  15  29  48  71 102 137 166 193 234 290
#     4   8  17  34  50  66  93 128 162 196 239 290
#
# _framework density 18.228632999999999
#
# number of rings (size 3 to 8) (size 9 to 14) (size 15 to 20)
#    0.000    3.125    0.000    2.625    0.000    5.000 
#    0.000    7.500    0.000    0.750    0.000    0.000 
#    0.000    0.000    0.000    0.000    0.000    0.000 
#
# Total GULP energy -396612.123270 kJ/mol
# GULP energy per Si atom -12394.128852 kJ/mol
# Density = 1.818714 g / cm^3
# Si number density = 18.228633 Si / 1000 Ang^3
#
#
#
# Elastic Constant Matrix: (Units=GPa)
#
#
# Indices 1 2 3 4 5 6 
#
# 1 102.9406 25.9825 40.5256 0.0000 -3.2181 0.0000
# 2 25.9825 37.6941 27.4357 0.0000 -2.1514 0.0000
# 3 40.5256 27.4357 120.4894 0.0000 -5.5946 0.0000
# 4 0.0000 0.0000 0.0000 18.6259 0.0000 -3.2770
# 5 -3.2181 -2.1514 -5.5946 0.0000 20.3627 0.0000
# 6 0.0000 0.0000 0.0000 -3.2770 0.0000 30.7425
#
#
#
# Elastic Compliance Matrix: (Units=1/GPa)
#
#
# Indices 1 2 3 4 5 6 
#
# 1 0.012446 -0.006616 -0.002655 0.000000 0.000539 0.000000
# 2 -0.006616 0.035355 -0.005774 0.000000 0.001103 0.000000
# 3 -0.002655 -0.005774 0.010594 0.000000 0.001881 0.000000
# 4 0.000000 0.000000 0.000000 0.054715 0.000000 0.005832
# 5 0.000539 0.001103 0.001881 0.000000 0.049828 0.000000
# 6 0.000000 0.000000 0.000000 0.005832 0.000000 0.033150
#
#
# Mechanical properties :
#
#
# Convention : Reuss Voigt Hill
#
# Bulk Modulus (GPa) = 35.32764 49.89018 42.60891
# Shear Modulus (GPa) = 21.22115 25.09158 23.15636
#
# Velocity S-wave (km/s) = 3.41569 3.71414 3.56803
# Velocity P-wave (km/s) = 5.91424 6.76917 6.35610
#
# Compressibility (1/GPa) = 0.02830645
#
# Stress axis : x y z
#
# Youngs Moduli (GPa) = 80.34572 28.28418 94.38917
#
# Poissons Ratio (x) = 0.18713 0.25057
# Poissons Ratio (y) = 0.53159 0.54500
# Poissons Ratio (z) = 0.21329 0.16331
#
# Static dielectric constant tensor:
#      x y z
#    x 3.220650 0.000000 0.061200 
#    y 0.000000 3.064610 0.000000 
#    z 0.061200 0.000000 4.082480 
# 
# 
# High freq. dielectric constant tensor:
#      x y z
#    x 1.702870 0.000000 0.001280 
#    y 0.000000 1.675320 0.000000 
#    z 0.001280 0.000000 1.711960 
# 
# From -- ./inp_files/375062.got.cif
#   From: 2010.06.25/outbox.cif.g09.slc.cpg/sg12_188_cif.got.tgz:375062.got - 2010.06.28 00:19:55.
