data_PCOD8096623
_publ_section_title
;
Structure prediction by ZEFSAII (Michael W. Deem and Ramdas Pophale) SiO2 
 PCOD8096623
Probable space group: C 2/M
;
_chemical_formula_sum "Si O2"
_cell_formula_units_Z 64
_cell_length_a 25.959133
_cell_length_b 18.226948
_cell_length_c 15.779519
_cell_angle_alpha 90.000000
_cell_angle_beta 153.522735
_cell_angle_gamma 90.000000
_cell_volume 3328.737336
_symmetry_space_group_name_H-M "C 2/M"
_symmetry_group_IT_number 12
_symmetry_cell_setting 'monoclinic'
loop_
_space_group_symop_operation_xyz
x,y,z
-x,y,-z
-x,-y,-z
x,-y,z
1/2+x,1/2+y,z
1/2-x,1/2+y,-z
1/2-x,1/2-y,-z
1/2+x,1/2-y,z
loop_
_atom_site_type_symbol
_atom_site_label
_atom_site_fract_x
_atom_site_fract_y
_atom_site_fract_z
Si Si1 0.370478 0.585792 0.319932
Si Si2 0.163367 0.586285 0.373269
Si Si3 0.869402 0.674637 0.332560
Si Si4 0.734025 0.304086 0.722684
Si Si5 0.997493 0.286293 0.089236
Si Si6 0.927392 0.416174 0.574930
Si Si7 0.169892 0.802030 0.436783
Si Si8 0.682912 0.914158 0.906265
O O1 0.500000 0.616844 0.500000
O O2 0.372278 0.500000 0.335742
O O3 0.316499 0.616934 0.326908
O O4 0.291644 0.608246 0.123775
O O5 0.149321 0.500000 0.329342
O O6 0.071687 0.638230 0.190347
O O7 0.139609 0.600778 0.437141
O O8 0.291728 0.614576 0.532868
O O9 0.806422 0.749859 0.262225
O O10 0.860872 0.625971 0.403833
O O11 0.805315 0.632785 0.162045
O O12 0.000000 0.691842 0.500000
O O13 0.685196 0.284309 0.558314
O O14 0.870567 0.308684 0.928944
O O15 0.041426 0.223140 0.219726
O O16 0.000000 0.249648 0.000000
O O17 0.916837 0.500000 0.534184
O O18 0.063516 0.394767 0.780162
O O19 0.250000 0.750000 0.500000
O O20 0.685810 0.000000 0.886673
#
# Coordination Sequence:
#
# PCOD8096623 Si02
#       8
#     8   8   8   8   8   8   8   8
#     4  10  23  41  58  78 114 154 190 237 291 343
#     4  10  20  36  61  88 116 149 197 246 285 339
#     4  10  20  33  56  87 115 147 188 235 276 347
#     4  12  23  37  59  86 112 153 198 237 288 337
#     4  11  22  38  58  85 114 157 191 237 294 344
#     4   9  17  31  55  86 116 147 181 233 293 340
#     4  10  21  40  57  81 120 157 190 235 295 351
#     4   9  18  35  56  81 115 149 183 231 293 343
#
# _framework density 19.226509
#
# number of rings (size 3 to 8) (size 9 to 14) (size 15 to 20)
#    0.000    1.875    2.500    3.000    0.000    6.250 
#    0.000    0.000    0.000    1.875    0.000    0.000 
#    0.000    0.000    0.000    0.000    0.000    0.000 
#
# Total GULP energy -396665.313910 kJ/mol
# GULP energy per Si atom -12395.791060 kJ/mol
# Density = 1.918275 g / cm^3
# Si number density = 19.226509 Si / 1000 Ang^3
#
#
#
# Elastic Constant Matrix: (Units=GPa)
#
#
# Indices 1 2 3 4 5 6 
#
# 1 95.2089 41.5231 44.1222 0.0000 -5.4020 0.0000
# 2 41.5231 72.6752 45.5539 0.0000 -5.4141 0.0000
# 3 44.1222 45.5539 116.7325 0.0000 -1.6813 0.0000
# 4 0.0000 0.0000 0.0000 13.8027 0.0000 2.3555
# 5 -5.4020 -5.4141 -1.6813 0.0000 30.0261 0.0000
# 6 0.0000 0.0000 0.0000 2.3555 0.0000 38.5912
#
#
#
# Elastic Compliance Matrix: (Units=1/GPa)
#
#
# Indices 1 2 3 4 5 6 
#
# 1 0.014808 -0.006440 -0.003065 0.000000 0.001331 0.000000
# 2 -0.006440 0.021271 -0.005832 0.000000 0.002350 0.000000
# 3 -0.003065 -0.005832 0.011988 0.000000 -0.000932 0.000000
# 4 0.000000 0.000000 0.000000 0.073212 0.000000 -0.004469
# 5 0.001331 0.002350 -0.000932 0.000000 0.033915 0.000000
# 6 0.000000 0.000000 0.000000 -0.004469 0.000000 0.026185
#
#
# Mechanical properties :
#
#
# Convention : Reuss Voigt Hill
#
# Bulk Modulus (GPa) = 57.50069 60.77945 59.14007
# Shear Modulus (GPa) = 22.95150 26.71183 24.83166
#
# Velocity S-wave (km/s) = 3.45881 3.73141 3.59769
# Velocity P-wave (km/s) = 6.77665 7.08840 6.93428
#
# Compressibility (1/GPa) = 0.01739110
#
# Stress axis : x y z
#
# Youngs Moduli (GPa) = 67.53230 47.01339 83.41967
#
# Poissons Ratio (x) = 0.30278 0.25564
# Poissons Ratio (y) = 0.43493 0.48655
# Poissons Ratio (z) = 0.20695 0.27421
#
# Static dielectric constant tensor:
#      x y z
#    x 3.648440 0.000000 0.058510 
#    y 0.000000 3.804910 0.000000 
#    z 0.058510 0.000000 3.840080 
# 
# 
# High freq. dielectric constant tensor:
#      x y z
#    x 1.752540 0.000000 -0.006640 
#    y 0.000000 1.744110 0.000000 
#    z -0.006640 0.000000 1.739680 
# 
# From -- ./inp_files/241507.got.cif
#   From: 2010.06.25/outbox.cif.g09.slc.cpg/sg12_121_cif.got.tgz:241507.got - 2010.06.28 00:19:55.
