data_PCOD8096230
_publ_section_title
;
Structure prediction by ZEFSAII (Michael W. Deem and Ramdas Pophale) SiO2 
 PCOD8096230
Probable space group: C 2/M
;
_chemical_formula_sum "Si O2"
_cell_formula_units_Z 56
_cell_length_a 22.427085
_cell_length_b 17.879651
_cell_length_c 9.829548
_cell_angle_alpha 90.000000
_cell_angle_beta 53.698086
_cell_angle_gamma 90.000000
_cell_volume 3176.516777
_symmetry_space_group_name_H-M "C 2/M"
_symmetry_group_IT_number 12
_symmetry_cell_setting 'monoclinic'
loop_
_space_group_symop_operation_xyz
x,y,z
-x,y,-z
-x,-y,-z
x,-y,z
1/2+x,1/2+y,z
1/2-x,1/2+y,-z
1/2-x,1/2-y,-z
1/2+x,1/2-y,z
loop_
_atom_site_type_symbol
_atom_site_label
_atom_site_fract_x
_atom_site_fract_y
_atom_site_fract_z
Si Si1 0.193982 0.914208 0.237297
Si Si2 0.295858 0.198163 0.607299
Si Si3 0.936807 0.633363 0.698858
Si Si4 0.412945 0.280740 0.620588
Si Si5 0.284183 0.081817 0.848707
Si Si6 0.931459 0.583538 0.995450
Si Si7 0.705683 0.158226 0.690338
O O1 0.124968 0.859996 0.299620
O O2 0.231159 0.896479 0.333383
O O3 0.166405 0.000000 0.274123
O O4 0.252490 0.896903 0.039464
O O5 0.373583 0.239998 0.541914
O O6 0.263459 0.142840 0.765012
O O7 0.305793 0.149220 0.456485
O O8 0.229151 0.256611 0.684121
O O9 0.903461 0.718282 0.751853
O O10 0.872557 0.576570 0.743073
O O11 0.000000 0.629484 0.500000
O O12 0.966259 0.610313 0.805945
O O13 0.500000 0.298147 0.500000
O O14 0.254728 0.000000 0.843370
O O15 0.896402 0.500000 0.031838
O O16 0.870670 0.641405 0.130476
O O17 0.000000 0.582281 0.000000
#
# Coordination Sequence:
#
# PCOD8096230 Si02
#       7
#     8   8   8   8   8   8   8
#     4  10  20  35  57  82 107 139 180 227 275 324
#     4   9  21  36  55  80 104 141 183 221 265 321
#     4  10  21  36  53  75 106 145 182 217 259 318
#     4   9  20  35  57  81 108 137 182 225 271 321
#     4  10  20  33  52  78 105 137 177 217 266 320
#     4  11  24  35  50  79 111 144 180 218 269 321
#     4  10  20  37  55  75 110 139 183 224 263 319
#
# _framework density 17.629373000000001
#
# number of rings (size 3 to 8) (size 9 to 14) (size 15 to 20)
#    0.000    2.143    1.429    0.857    8.000    4.286 
#    0.000    0.000    0.000    0.000    0.000    0.000 
#    0.000   10.286    0.000    0.000    0.000    0.000 
#
# Total GULP energy -346940.502701 kJ/mol
# GULP energy per Si atom -12390.732239 kJ/mol
# Density = 1.758925 g / cm^3
# Si number density = 17.629373 Si / 1000 Ang^3
#
#
#
# Elastic Constant Matrix: (Units=GPa)
#
#
# Indices 1 2 3 4 5 6 
#
# 1 78.6494 46.8305 48.1668 0.0000 7.3500 0.0000
# 2 46.8305 104.2436 56.3113 0.0000 5.8590 0.0000
# 3 48.1668 56.3113 100.0618 0.0000 9.7436 0.0000
# 4 0.0000 0.0000 0.0000 22.3691 0.0000 1.3278
# 5 7.3500 5.8590 9.7436 0.0000 34.4004 0.0000
# 6 0.0000 0.0000 0.0000 1.3278 0.0000 22.8284
#
#
#
# Elastic Compliance Matrix: (Units=1/GPa)
#
#
# Indices 1 2 3 4 5 6 
#
# 1 0.020038 -0.005439 -0.006435 0.000000 -0.001532 0.000000
# 2 -0.005439 0.015260 -0.005995 0.000000 0.000261 0.000000
# 3 -0.006435 -0.005995 0.016692 0.000000 -0.002332 0.000000
# 4 0.000000 0.000000 0.000000 0.044859 0.000000 -0.002609
# 5 -0.001532 0.000261 -0.002332 0.000000 0.030013 0.000000
# 6 0.000000 0.000000 0.000000 -0.002609 0.000000 0.043957
#
#
# Mechanical properties :
#
#
# Convention : Reuss Voigt Hill
#
# Bulk Modulus (GPa) = 61.53436 65.06355 63.29895
# Shear Modulus (GPa) = 23.58758 24.69600 24.14179
#
# Velocity S-wave (km/s) = 3.66180 3.74685 3.70456
# Velocity P-wave (km/s) = 7.27039 7.46357 7.36761
#
# Compressibility (1/GPa) = 0.01625108
#
# Stress axis : x y z
#
# Youngs Moduli (GPa) = 49.90576 65.52961 59.90730
#
# Poissons Ratio (x) = 0.35644 0.38552
# Poissons Ratio (y) = 0.27146 0.35915
# Poissons Ratio (z) = 0.32116 0.39285
#
# Static dielectric constant tensor:
#      x y z
#    x 3.370140 0.000000 0.129840 
#    y 0.000000 3.467220 0.000000 
#    z 0.129840 0.000000 3.228350 
# 
# 
# High freq. dielectric constant tensor:
#      x y z
#    x 1.681720 0.000000 0.007740 
#    y 0.000000 1.688370 0.000000 
#    z 0.007740 0.000000 1.664590 
# 
# From -- ./inp_files/89488.got.cif
#   From: 2010.06.25/outbox.cif.g09.slc.cpg/sg12_45_cif.got.tgz:89488.got - 2010.06.28 00:19:55.
