data_PCOD8096180
_publ_section_title
;
Structure prediction by ZEFSAII (Michael W. Deem and Ramdas Pophale) SiO2 
 PCOD8096180
Probable space group: C 2/M
;
_chemical_formula_sum "Si O2"
_cell_formula_units_Z 56
_cell_length_a 27.906449
_cell_length_b 9.410772
_cell_length_c 14.169030
_cell_angle_alpha 90.000000
_cell_angle_beta 58.911536
_cell_angle_gamma 90.000000
_cell_volume 3186.632160
_symmetry_space_group_name_H-M "C 2/M"
_symmetry_group_IT_number 12
_symmetry_cell_setting 'monoclinic'
loop_
_space_group_symop_operation_xyz
x,y,z
-x,y,-z
-x,-y,-z
x,-y,z
1/2+x,1/2+y,z
1/2-x,1/2+y,-z
1/2-x,1/2-y,-z
1/2+x,1/2-y,z
loop_
_atom_site_type_symbol
_atom_site_label
_atom_site_fract_x
_atom_site_fract_y
_atom_site_fract_z
Si Si1 0.115619 0.160536 0.625103
Si Si2 0.180259 0.164966 0.979573
Si Si3 0.190613 0.162932 0.377325
Si Si4 0.726348 0.337554 0.610192
Si Si5 0.209445 0.839594 0.153847
Si Si6 0.417961 0.165124 0.017089
Si Si7 0.038411 0.663988 0.823636
O O1 0.142880 0.217920 0.498768
O O2 0.159320 0.169037 0.668522
O O3 0.062142 0.252393 0.708986
O O4 0.095153 0.000000 0.630273
O O5 0.170412 0.187425 0.102221
O O6 0.132136 0.240877 0.970297
O O7 0.180118 0.000000 0.951124
O O8 0.240225 0.228743 0.892658
O O9 0.247964 0.256493 0.325418
O O10 0.171619 0.176463 0.287330
O O11 0.204748 0.000000 0.390881
O O12 0.747407 0.500000 0.588011
O O13 0.750000 0.250000 0.500000
O O14 0.234343 0.000000 0.123528
O O15 0.472439 0.194303 0.897650
O O16 0.401174 0.000000 0.029462
O O17 0.431264 0.211138 0.110571
O O18 0.050245 0.500000 0.793193
#
# Coordination Sequence:
#
# PCOD8096180 Si02
#       7
#     8   8   8   8   8   8   8
#     4   9  18  30  45  69  99 125 156 201 244 280
#     4  10  20  33  52  77 100 125 162 207 249 288
#     4   9  18  32  48  67  95 132 165 196 237 288
#     4   9  17  28  41  63  95 128 161 195 232 280
#     4   9  19  35  52  72 100 133 166 197 240 296
#     4   9  19  36  53  71  96 128 164 201 243 293
#     4   9  19  34  52  72  95 128 167 198 237 297
#
# _framework density 17.573412000000001
#
# number of rings (size 3 to 8) (size 9 to 14) (size 15 to 20)
#    0.000    2.857    0.000    2.571    2.000    5.143 
#    0.000    1.429    0.000    0.857    0.000    6.000 
#    0.000    0.000    0.000    0.000    0.000    0.000 
#
# Total GULP energy -346976.523166 kJ/mol
# GULP energy per Si atom -12392.018685 kJ/mol
# Density = 1.753341 g / cm^3
# Si number density = 17.573412 Si / 1000 Ang^3
#
#
#
# Elastic Constant Matrix: (Units=GPa)
#
#
# Indices 1 2 3 4 5 6 
#
# 1 50.1606 23.9979 8.5895 0.0000 1.1462 0.0000
# 2 23.9979 71.5093 23.2588 0.0000 -4.7169 0.0000
# 3 8.5895 23.2588 82.9176 0.0000 4.4261 0.0000
# 4 0.0000 0.0000 0.0000 26.5667 0.0000 -4.5516
# 5 1.1462 -4.7169 4.4261 0.0000 19.6159 0.0000
# 6 0.0000 0.0000 0.0000 -4.5516 0.0000 21.9845
#
#
#
# Elastic Compliance Matrix: (Units=1/GPa)
#
#
# Indices 1 2 3 4 5 6 
#
# 1 0.023969 -0.008274 0.000019 0.000000 -0.003394 0.000000
# 2 -0.008274 0.018691 -0.004708 0.000000 0.006040 0.000000
# 3 0.000019 -0.004708 0.013603 0.000000 -0.004203 0.000000
# 4 0.000000 0.000000 0.000000 0.039025 0.000000 0.008080
# 5 -0.003394 0.006040 -0.004203 0.000000 0.053578 0.000000
# 6 0.000000 0.000000 0.000000 0.008080 0.000000 0.047159
#
#
# Mechanical properties :
#
#
# Convention : Reuss Voigt Hill
#
# Bulk Modulus (GPa) = 32.96335 35.14223 34.05279
# Shear Modulus (GPa) = 21.54585 23.54950 22.54767
#
# Velocity S-wave (km/s) = 3.50530 3.66466 3.58586
# Velocity P-wave (km/s) = 5.93136 6.16012 6.04682
#
# Compressibility (1/GPa) = 0.03033672
#
# Stress axis : x y z
#
# Youngs Moduli (GPa) = 41.72125 53.50284 73.51226
#
# Poissons Ratio (x) = 0.44267 -0.00140
# Poissons Ratio (y) = 0.34519 0.34611
# Poissons Ratio (z) = -0.00080 0.25190
#
# Static dielectric constant tensor:
#      x y z
#    x 3.337400 0.000000 0.306550 
#    y 0.000000 3.447890 0.000000 
#    z 0.306550 0.000000 3.324460 
# 
# 
# High freq. dielectric constant tensor:
#      x y z
#    x 1.643010 0.000000 0.011790 
#    y 0.000000 1.685040 0.000000 
#    z 0.011790 0.000000 1.676540 
# 
# From -- ./inp_files/242981.got.cif
#   From: 2010.06.25/outbox.cif.g09.slc.cpg/sg12_122_cif.got.tgz:242981.got - 2010.06.28 00:19:55.
