data_PCOD8096323
_publ_section_title
;
Structure prediction by ZEFSAII (Michael W. Deem and Ramdas Pophale) SiO2 
 PCOD8096323
Probable space group: C 2/M
;
_chemical_formula_sum "Si O2"
_cell_formula_units_Z 56
_cell_length_a 21.250265
_cell_length_b 8.817102
_cell_length_c 15.478895
_cell_angle_alpha 90.000000
_cell_angle_beta 86.777797
_cell_angle_gamma 90.000000
_cell_volume 2895.629760
_symmetry_space_group_name_H-M "C 2/M"
_symmetry_group_IT_number 12
_symmetry_cell_setting 'monoclinic'
loop_
_space_group_symop_operation_xyz
x,y,z
-x,y,-z
-x,-y,-z
x,-y,z
1/2+x,1/2+y,z
1/2-x,1/2+y,-z
1/2-x,1/2-y,-z
1/2+x,1/2-y,z
loop_
_atom_site_type_symbol
_atom_site_label
_atom_site_fract_x
_atom_site_fract_y
_atom_site_fract_z
Si Si1 0.295538 0.320679 0.882602
Si Si2 0.994938 0.178623 0.724890
Si Si3 0.556528 0.820313 0.560403
Si Si4 0.355725 0.321068 0.706103
Si Si5 0.160529 0.321731 0.956068
Si Si6 0.037748 0.177318 0.912500
Si Si7 0.683720 0.319859 0.477812
O O1 0.302655 0.500000 0.887515
O O2 0.314738 0.255157 0.787999
O O3 0.224498 0.266663 0.905045
O O4 0.343425 0.250979 0.948652
O O5 0.926501 0.242175 0.704150
O O6 0.043229 0.267353 0.659429
O O7 0.003204 0.216894 0.825572
O O8 0.003070 0.000000 0.707252
O O9 0.500000 0.766054 0.500000
O O10 0.623640 0.746912 0.532173
O O11 0.563714 0.000000 0.556304
O O12 0.359702 0.500000 0.714838
O O13 0.322550 0.271035 0.621131
O O14 0.157717 0.500000 0.965355
O O15 0.103853 0.263261 0.902056
O O16 0.050594 0.000000 0.920603
O O17 0.000000 0.236248 0.000000
O O18 0.684593 0.500000 0.490929
O O19 0.750000 0.250000 0.500000
#
# Coordination Sequence:
#
# PCOD8096323 Si02
#       7
#     8   8   8   8   8   8   8
#     4   9  18  35  57  78 106 148 193 232 280 345
#     4  10  20  36  61  89 112 150 203 246 293 351
#     4  11  23  40  62  88 121 159 200 250 307 363
#     4   9  18  35  60  84 108 146 193 238 288 351
#     4  10  20  33  52  81 115 150 186 231 288 343
#     4  10  21  37  58  82 114 152 193 241 290 350
#     4  11  23  40  63  90 122 157 198 250 308 366
#
# _framework density 19.339489
#
# number of rings (size 3 to 8) (size 9 to 14) (size 15 to 20)
#    0.000    2.000    1.429    2.143    0.000    5.429 
#    0.000    5.000    0.000    0.000    0.000    0.000 
#    0.000    0.000    0.000    0.000    0.000    0.000 
#
# Total GULP energy -347203.410047 kJ/mol
# GULP energy per Si atom -12400.121787 kJ/mol
# Density = 1.929547 g / cm^3
# Si number density = 19.339489 Si / 1000 Ang^3
#
#
#
# Elastic Constant Matrix: (Units=GPa)
#
#
# Indices 1 2 3 4 5 6 
#
# 1 142.9480 42.6649 71.2776 0.0000 4.6133 0.0000
# 2 42.6649 50.0400 42.0151 0.0000 0.9653 0.0000
# 3 71.2776 42.0151 148.7152 0.0000 -11.3597 0.0000
# 4 0.0000 0.0000 0.0000 24.7820 0.0000 3.6482
# 5 4.6133 0.9653 -11.3597 0.0000 32.5733 0.0000
# 6 0.0000 0.0000 0.0000 3.6482 0.0000 32.0642
#
#
#
# Elastic Compliance Matrix: (Units=1/GPa)
#
#
# Indices 1 2 3 4 5 6 
#
# 1 0.010679 -0.006019 -0.003616 0.000000 -0.002595 0.000000
# 2 -0.006019 0.029974 -0.005739 0.000000 -0.002037 0.000000
# 3 -0.003616 -0.005739 0.010408 0.000000 0.004312 0.000000
# 4 0.000000 0.000000 0.000000 0.041039 0.000000 -0.004669
# 5 -0.002595 -0.002037 0.004312 0.000000 0.032632 0.000000
# 6 0.000000 0.000000 0.000000 -0.004669 0.000000 0.031719
#
#
# Mechanical properties :
#
#
# Convention : Reuss Voigt Hill
#
# Bulk Modulus (GPa) = 49.22972 72.62427 60.92700
# Shear Modulus (GPa) = 25.77737 30.26696 28.02216
#
# Velocity S-wave (km/s) = 3.65483 3.96034 3.81065
# Velocity P-wave (km/s) = 6.58189 7.65155 7.13679
#
# Compressibility (1/GPa) = 0.02031293
#
# Stress axis : x y z
#
# Youngs Moduli (GPa) = 93.64445 33.36269 96.07837
#
# Poissons Ratio (x) = 0.20080 0.34742
# Poissons Ratio (y) = 0.56361 0.55140
# Poissons Ratio (z) = 0.33862 0.19147
#
# Static dielectric constant tensor:
#      x y z
#    x 3.621870 0.000000 -0.074430 
#    y 0.000000 3.325800 0.000000 
#    z -0.074430 0.000000 3.863870 
# 
# 
# High freq. dielectric constant tensor:
#      x y z
#    x 1.759200 0.000000 -0.004500 
#    y 0.000000 1.736100 0.000000 
#    z -0.004500 0.000000 1.761550 
# 
# From -- ./inp_files/230965.got.cif
#   From: 2010.06.25/outbox.cif.g09.slc.cpg/sg12_116_cif.got.tgz:230965.got - 2010.06.28 00:19:55.
