data_PCOD8096146
_publ_section_title
;
Structure prediction by ZEFSAII (Michael W. Deem and Ramdas Pophale) SiO2 
 PCOD8096146
Probable space group: C 2/M
;
_chemical_formula_sum "Si O2"
_cell_formula_units_Z 40
_cell_length_a 9.758320
_cell_length_b 26.427926
_cell_length_c 7.904085
_cell_angle_alpha 90.000000
_cell_angle_beta 107.646798
_cell_angle_gamma 90.000000
_cell_volume 1942.481258
_symmetry_space_group_name_H-M "C 2/M"
_symmetry_group_IT_number 12
_symmetry_cell_setting 'monoclinic'
loop_
_space_group_symop_operation_xyz
x,y,z
-x,y,-z
-x,-y,-z
x,-y,z
1/2+x,1/2+y,z
1/2-x,1/2+y,-z
1/2-x,1/2-y,-z
1/2+x,1/2-y,z
loop_
_atom_site_type_symbol
_atom_site_label
_atom_site_fract_x
_atom_site_fract_y
_atom_site_fract_z
Si Si1 0.411359 0.379363 0.296475
Si Si2 0.345735 0.298191 0.004271
Si Si3 0.807004 0.110710 0.771668
Si Si4 0.307620 0.057795 0.587350
Si Si5 0.913351 0.443596 0.115638
O O1 0.500000 0.364227 0.500000
O O2 0.347090 0.329667 0.181547
O O3 0.525731 0.402372 0.202593
O O4 0.287586 0.420713 0.290637
O O5 0.500000 0.278595 0.000000
O O6 0.250000 0.250000 0.000000
O O7 0.286014 0.331312 0.823246
O O8 0.713615 0.096760 0.573420
O O9 0.742715 0.079123 0.904386
O O10 0.478146 0.057163 0.684587
O O11 0.256386 0.000000 0.526758
O O12 0.880516 0.500000 0.039052
O O13 0.000000 0.414031 0.000000
#
# Coordination Sequence:
#
# PCOD8096146 Si02
#       5
#     8   8   8   8   8
#     4   9  20  38  59  83 113 145 185 230 277 335
#     4  10  22  41  60  81 109 144 187 238 286 330
#     4  10  20  35  56  81 110 145 184 230 279 329
#     4  10  20  35  57  86 119 152 186 225 272 331
#     4  10  20  33  51  80 117 154 190 226 269 325
#
# _framework density 20.592220999999999
#
# number of rings (size 3 to 8) (size 9 to 14) (size 15 to 20)
#    0.000    2.200    0.000    2.400    0.000    8.400 
#    0.000   12.000    0.000   18.600    0.000    0.000 
#    0.000    0.000    0.000    0.000    0.000    0.000 
#
# Total GULP energy -247767.071697 kJ/mol
# GULP energy per Si atom -12388.353585 kJ/mol
# Density = 2.054535 g / cm^3
# Si number density = 20.592221 Si / 1000 Ang^3
#
#
#
# Elastic Constant Matrix: (Units=GPa)
#
#
# Indices 1 2 3 4 5 6 
#
# 1 127.3436 74.5456 21.8822 0.0000 -25.1803 0.0000
# 2 74.5456 122.2905 42.4586 0.0000 -5.7450 0.0000
# 3 21.8822 42.4586 65.0728 0.0000 -16.4796 0.0000
# 4 0.0000 0.0000 0.0000 31.9414 0.0000 0.5981
# 5 -25.1803 -5.7450 -16.4796 0.0000 33.8769 0.0000
# 6 0.0000 0.0000 0.0000 0.5981 0.0000 31.2388
#
#
#
# Elastic Compliance Matrix: (Units=1/GPa)
#
#
# Indices 1 2 3 4 5 6 
#
# 1 0.015654 -0.010617 0.004738 0.000000 0.012140 0.000000
# 2 -0.010617 0.017868 -0.010629 0.000000 -0.010032 0.000000
# 3 0.004738 -0.010629 0.024116 0.000000 0.013450 0.000000
# 4 0.000000 0.000000 0.000000 0.031319 0.000000 -0.000600
# 5 0.012140 -0.010032 0.013450 0.000000 0.043384 0.000000
# 6 0.000000 0.000000 0.000000 -0.000600 0.000000 0.032023
#
#
# Mechanical properties :
#
#
# Convention : Reuss Voigt Hill
#
# Bulk Modulus (GPa) = 40.61498 65.83110 53.22304
# Shear Modulus (GPa) = 24.32057 31.13277 27.72667
#
# Velocity S-wave (km/s) = 3.44038 3.89250 3.67340
# Velocity P-wave (km/s) = 5.96220 7.22775 6.62526
#
# Compressibility (1/GPa) = 0.02462146
#
# Stress axis : x y z
#
# Youngs Moduli (GPa) = 63.88032 55.96519 41.46685
#
# Poissons Ratio (x) = 0.59419 -0.19646
# Poissons Ratio (y) = 0.67822 0.44075
# Poissons Ratio (z) = -0.30265 0.59485
#
# Static dielectric constant tensor:
#      x y z
#    x 4.052590 0.000000 -0.223390 
#    y 0.000000 3.415770 0.000000 
#    z -0.223390 0.000000 3.939240 
# 
# 
# High freq. dielectric constant tensor:
#      x y z
#    x 1.824090 0.000000 -0.015410 
#    y 0.000000 1.765400 0.000000 
#    z -0.015410 0.000000 1.817570 
# 
# From -- ./inp_files/39199.got.cif
#   From: 2010.06.25/outbox.cif.g09.slc.cpg/sg12_20_cif.got.tgz:39199.got - 2010.06.28 00:19:55.
