data_PCOD8096735
_publ_section_title
;
Structure prediction by ZEFSAII (Michael W. Deem and Ramdas Pophale) SiO2 
 PCOD8096735
Probable space group: C 2/M
;
_chemical_formula_sum "Si O2"
_cell_formula_units_Z 64
_cell_length_a 23.286823
_cell_length_b 9.146299
_cell_length_c 21.418304
_cell_angle_alpha 90.000000
_cell_angle_beta 57.252728
_cell_angle_gamma 90.000000
_cell_volume 3836.808794
_symmetry_space_group_name_H-M "C 2/M"
_symmetry_group_IT_number 12
_symmetry_cell_setting 'monoclinic'
loop_
_space_group_symop_operation_xyz
x,y,z
-x,y,-z
-x,-y,-z
x,-y,z
1/2+x,1/2+y,z
1/2-x,1/2+y,-z
1/2-x,1/2-y,-z
1/2+x,1/2-y,z
loop_
_atom_site_type_symbol
_atom_site_label
_atom_site_fract_x
_atom_site_fract_y
_atom_site_fract_z
Si Si1 0.282221 0.340150 0.069628
Si Si2 0.560044 0.331154 0.643239
Si Si3 0.195813 0.673657 0.235464
Si Si4 0.936954 0.173643 0.498390
Si Si5 0.148217 0.339617 0.066315
Si Si6 0.216087 0.828758 0.579102
Si Si7 0.432561 0.173492 0.770054
Si Si8 0.794739 0.825428 0.639598
O O1 0.312804 0.500000 0.064139
O O2 0.253495 0.276580 0.151661
O O3 0.220646 0.351107 0.057390
O O4 0.344052 0.247879 0.003136
O O5 0.538257 0.500000 0.655921
O O6 0.559066 0.265464 0.573979
O O7 0.634960 0.309261 0.626668
O O8 0.506049 0.243604 0.716184
O O9 0.199575 0.500000 0.246241
O O10 0.120887 0.716699 0.253198
O O11 0.212561 0.767114 0.286356
O O12 0.867795 0.226694 0.571111
O O13 0.000000 0.239840 0.500000
O O14 0.939260 0.000000 0.495993
O O15 0.122339 0.500000 0.062594
O O16 0.094708 0.267886 0.146705
O O17 0.250000 0.750000 0.500000
O O18 0.238710 0.751526 0.629456
O O19 0.236211 0.000000 0.565681
O O20 0.439052 0.000000 0.768948
O O21 0.785493 0.000000 0.643040
#
# Coordination Sequence:
#
# PCOD8096735 Si02
#       8
#     8   8   8   8   8   8   8   8
#     4   8  14  25  42  64  94 131 165 195 230 280
#     4  10  20  34  50  70  95 127 164 201 244 290
#     4   9  18  32  47  70 105 136 162 198 245 291
#     4   9  17  30  47  68  96 125 154 192 236 282
#     4   8  14  25  41  64  96 130 162 196 234 278
#     4  11  22  38  56  72  94 124 163 211 253 290
#     4   9  18  31  47  71 104 135 162 199 244 290
#     4  11  21  34  52  73  96 127 167 205 246 292
#
# _framework density 16.680529
#
# number of rings (size 3 to 8) (size 9 to 14) (size 15 to 20)
#    0.000    2.625    1.250    3.000    0.000    3.500 
#    0.000    2.500    0.000    2.625    0.000    0.875 
#    0.000    7.000    0.000    0.000    0.000    0.000 
#
# Total GULP energy -396652.631910 kJ/mol
# GULP energy per Si atom -12395.394747 kJ/mol
# Density = 1.664256 g / cm^3
# Si number density = 16.680529 Si / 1000 Ang^3
#
#
#
# Elastic Constant Matrix: (Units=GPa)
#
#
# Indices 1 2 3 4 5 6 
#
# 1 80.2557 36.5391 50.0464 0.0000 0.3620 -0.0013
# 2 36.5391 66.4369 53.8564 -0.0003 -0.1547 -0.0007
# 3 50.0464 53.8564 139.0876 0.0001 -5.2210 -0.0002
# 4 0.0000 -0.0003 0.0001 30.8632 -0.0003 -0.0021
# 5 0.3620 -0.1547 -5.2210 -0.0003 6.6129 0.0003
# 6 -0.0013 -0.0007 -0.0002 -0.0021 0.0003 22.6302
#
#
#
# Elastic Compliance Matrix: (Units=1/GPa)
#
#
# Indices 1 2 3 4 5 6 
#
# 1 0.018046 -0.006614 -0.004096 0.000000 -0.004377 0.000001
# 2 -0.006614 0.024627 -0.007338 0.000000 -0.004855 0.000000
# 3 -0.004096 -0.007338 0.011858 0.000000 0.009415 0.000000
# 4 0.000000 0.000000 0.000000 0.032401 0.000001 0.000003
# 5 -0.004377 -0.004855 0.009415 0.000001 0.158779 -0.000002
# 6 0.000001 0.000000 0.000000 0.000003 -0.000002 0.044189
#
#
# Mechanical properties :
#
#
# Convention : Reuss Voigt Hill
#
# Bulk Modulus (GPa) = 54.24908 62.96266 58.60587
# Shear Modulus (GPa) = 15.05380 21.71050 18.38215
#
# Velocity S-wave (km/s) = 3.00738 3.61161 3.32326
# Velocity P-wave (km/s) = 6.68223 7.43100 7.06654
#
# Compressibility (1/GPa) = 0.01843349
#
# Stress axis : x y z
#
# Youngs Moduli (GPa) = 55.41475 40.60598 84.32792
#
# Poissons Ratio (x) = 0.26858 0.34543
# Poissons Ratio (y) = 0.36653 0.61881
# Poissons Ratio (z) = 0.22700 0.29797
#
# Static dielectric constant tensor:
#      x y z
#    x 2.940600 0.000000 -0.013170 
#    y 0.000000 3.173260 0.000000 
#    z -0.013170 0.000000 3.302040 
# 
# 
# High freq. dielectric constant tensor:
#      x y z
#    x 1.607140 0.000000 -0.001310 
#    y 0.000000 1.633780 0.000000 
#    z -0.001310 0.000000 1.652150 
# 
# From -- ./inp_files/323635.got.cif
#   From: 2010.06.25/outbox.cif.g09.slc.cpg/sg12_162_cif.got.tgz:323635.got - 2010.06.28 00:19:55.
