data_PCOD8096031
_publ_section_title
;
Structure prediction by ZEFSAII (Michael W. Deem and Ramdas Pophale) SiO2 
 PCOD8096031
Probable space group: C 2/M
;
_chemical_formula_sum "Si O2"
_cell_formula_units_Z 64
_cell_length_a 20.142675
_cell_length_b 8.840568
_cell_length_c 22.471673
_cell_angle_alpha 90.000000
_cell_angle_beta 116.461742
_cell_angle_gamma 90.000000
_cell_volume 3582.352911
_symmetry_space_group_name_H-M "C 2/M"
_symmetry_group_IT_number 12
_symmetry_cell_setting 'monoclinic'
loop_
_space_group_symop_operation_xyz
x,y,z
-x,y,-z
-x,-y,-z
x,-y,z
1/2+x,1/2+y,z
1/2-x,1/2+y,-z
1/2-x,1/2-y,-z
1/2+x,1/2-y,z
loop_
_atom_site_type_symbol
_atom_site_label
_atom_site_fract_x
_atom_site_fract_y
_atom_site_fract_z
Si Si1 0.082509 0.322716 0.553789
Si Si2 0.781194 0.179088 0.453022
Si Si3 0.951782 0.679668 0.799834
Si Si4 0.325359 0.176845 0.050816
Si Si5 0.600820 0.823103 0.797009
Si Si6 0.854769 0.821586 0.307172
Si Si7 0.974455 0.319495 0.052865
Si Si8 0.204159 0.678048 0.303233
O O1 0.099144 0.500000 0.560058
O O2 0.137587 0.242486 0.529359
O O3 0.091840 0.260152 0.624304
O O4 0.000000 0.285098 0.500000
O O5 0.750000 0.250000 0.500000
O O6 0.724538 0.227619 0.378192
O O7 0.787018 0.000000 0.461743
O O8 0.947438 0.500000 0.799605
O O9 0.874061 0.753214 0.747286
O O10 0.017519 0.726694 0.781297
O O11 0.969483 0.738745 0.873492
O O12 0.343528 0.215383 0.126669
O O13 0.391712 0.237685 0.035258
O O14 0.317353 0.000000 0.039212
O O15 0.250000 0.250000 0.000000
O O16 0.624443 0.723787 0.750778
O O17 0.604164 0.000000 0.782122
O O18 0.769773 0.770495 0.285072
O O19 0.863796 0.000000 0.319976
O O20 0.975139 0.500000 0.051525
O O21 0.000000 0.250437 0.000000
O O22 0.194765 0.500000 0.296419
#
# Coordination Sequence:
#
# PCOD8096031 Si02
#       8
#     8   8   8   8   8   8   8   8
#     4  10  21  37  56  76 100 135 176 213 255 308
#     4  10  20  34  52  76 106 135 168 211 256 305
#     4   8  14  27  46  66  91 123 158 196 236 281
#     4   9  18  31  47  70  98 128 163 203 248 295
#     4   9  18  32  49  70  98 131 165 201 243 296
#     4  10  20  33  51  76 103 129 160 203 253 301
#     4   8  14  25  43  68  94 119 154 200 241 279
#     4   8  16  30  47  69  95 123 157 197 240 287
#
# _framework density 17.865354
#
# number of rings (size 3 to 8) (size 9 to 14) (size 15 to 20)
#    0.000    3.000    0.000    3.375    0.000    3.500 
#    0.000    5.000    0.000    4.125    0.000    0.000 
#    0.000    0.000    0.000    0.000    0.000    0.000 
#
# Total GULP energy -396681.473977 kJ/mol
# GULP energy per Si atom -12396.296062 kJ/mol
# Density = 1.782469 g / cm^3
# Si number density = 17.865354 Si / 1000 Ang^3
#
#
#
# Elastic Constant Matrix: (Units=GPa)
#
#
# Indices 1 2 3 4 5 6 
#
# 1 142.3712 42.2628 112.9986 0.0000 2.7531 0.0000
# 2 42.2628 46.6859 40.9211 0.0000 2.3760 0.0000
# 3 112.9986 40.9211 140.1694 0.0000 4.2224 0.0000
# 4 0.0000 0.0000 0.0000 25.7051 0.0000 -1.4188
# 5 2.7531 2.3760 4.2224 0.0000 42.6941 0.0000
# 6 0.0000 0.0000 0.0000 -1.4188 0.0000 25.9686
#
#
#
# Elastic Compliance Matrix: (Units=1/GPa)
#
#
# Indices 1 2 3 4 5 6 
#
# 1 0.020501 -0.005488 -0.014938 0.000000 0.000461 0.000000
# 2 -0.005488 0.030280 -0.004389 0.000000 -0.000897 0.000000
# 3 -0.014938 -0.004389 0.020483 0.000000 -0.000818 0.000000
# 4 0.000000 0.000000 0.000000 0.039020 0.000000 0.002132
# 5 0.000461 -0.000897 -0.000818 0.000000 0.023524 0.000000
# 6 0.000000 0.000000 0.000000 0.002132 0.000000 0.038625
#
#
# Mechanical properties :
#
#
# Convention : Reuss Voigt Hill
#
# Bulk Modulus (GPa) = 46.22501 80.17683 63.20092
# Shear Modulus (GPa) = 21.80800 27.74316 24.77558
#
# Velocity S-wave (km/s) = 3.49762 3.94496 3.72801
# Velocity P-wave (km/s) = 6.49934 8.10717 7.34737
#
# Compressibility (1/GPa) = 0.02163331
#
# Stress axis : x y z
#
# Youngs Moduli (GPa) = 48.77928 33.02474 48.82134
#
# Poissons Ratio (x) = 0.18124 0.72931
# Poissons Ratio (y) = 0.26770 0.21427
# Poissons Ratio (z) = 0.72868 0.14494
#
# Static dielectric constant tensor:
#      x y z
#    x -15.974590 0.000000 2.033180 
#    y 0.000000 2.979130 0.000000 
#    z 2.033180 0.000000 2.953760 
# 
# 
# High freq. dielectric constant tensor:
#      x y z
#    x 1.697680 0.000000 0.000580 
#    y 0.000000 1.659480 0.000000 
#    z 0.000580 0.000000 1.697360 
# 
# From -- ./inp_files/320087.got.cif
#   From: 2010.06.25/outbox.cif.g09.slc.cpg/sg12_161_cif.got.tgz:320087.got - 2010.06.28 00:19:55.
