data_PCOD8096679
_publ_section_title
;
Structure prediction by ZEFSAII (Michael W. Deem and Ramdas Pophale) SiO2 
 PCOD8096679
Probable space group: C 2/M
;
_chemical_formula_sum "Si O2"
_cell_formula_units_Z 64
_cell_length_a 18.400675
_cell_length_b 13.259944
_cell_length_c 13.323849
_cell_angle_alpha 90.000000
_cell_angle_beta 91.158726
_cell_angle_gamma 90.000000
_cell_volume 3250.246722
_symmetry_space_group_name_H-M "C 2/M"
_symmetry_group_IT_number 12
_symmetry_cell_setting 'monoclinic'
loop_
_space_group_symop_operation_xyz
x,y,z
-x,y,-z
-x,-y,-z
x,-y,z
1/2+x,1/2+y,z
1/2-x,1/2+y,-z
1/2-x,1/2-y,-z
1/2+x,1/2-y,z
loop_
_atom_site_type_symbol
_atom_site_label
_atom_site_fract_x
_atom_site_fract_y
_atom_site_fract_z
Si Si1 0.000470 0.188139 0.196337
Si Si2 0.848286 0.117047 0.116435
Si Si3 0.854037 0.699185 0.588111
Si Si4 0.144972 0.884624 0.114240
Si Si5 0.146184 0.383752 0.625435
Si Si6 0.950107 0.885114 0.592901
Si Si7 0.988397 0.612933 0.699730
Si Si8 0.749338 0.750252 0.752802
O O1 0.060024 0.141190 0.123949
O O2 0.003556 0.136219 0.305786
O O3 0.014147 0.308365 0.208272
O O4 0.922812 0.171645 0.145646
O O5 0.782137 0.165230 0.175201
O O6 0.854402 0.000000 0.144553
O O7 0.831362 0.133456 0.999141
O O8 0.827514 0.662096 0.479258
O O9 0.878756 0.816003 0.586162
O O10 0.919783 0.627756 0.625217
O O11 0.786034 0.691413 0.661164
O O12 0.189980 0.813712 0.188332
O O13 0.158309 0.000000 0.146332
O O14 0.169211 0.500000 0.632525
O O15 0.185540 0.324362 0.715829
O O16 0.059954 0.369088 0.634643
O O17 0.000000 0.858996 0.500000
O O18 0.923049 0.000000 0.590154
O O19 0.987379 0.500000 0.744836
#
# Coordination Sequence:
#
# PCOD8096679 Si02
#       8
#     8   8   8   8   8   8   8   8
#     4  11  20  41  66  92 122 153 207 264 304 362
#     4  11  25  42  65  93 122 156 205 260 318 368
#     4  11  22  38  60  90 125 164 207 250 295 363
#     4  11  23  43  68  92 116 160 210 257 311 368
#     4  11  23  40  62  89 121 166 212 248 294 361
#     4  10  20  33  58  92 125 160 201 252 312 358
#     4  10  20  38  65  88 118 161 205 253 296 348
#     4  12  24  41  61  89 131 166 195 253 309 370
#
# _framework density 19.690812000000001
#
# number of rings (size 3 to 8) (size 9 to 14) (size 15 to 20)
#    0.000    1.125    3.750    4.875    0.000    3.500 
#    0.000    0.000    0.000    2.250    0.000    0.000 
#    0.000    0.000    0.000    0.000    0.000    0.000 
#
# Total GULP energy -396986.226425 kJ/mol
# GULP energy per Si atom -12405.819576 kJ/mol
# Density = 1.964600 g / cm^3
# Si number density = 19.690812 Si / 1000 Ang^3
#
#
#
# Elastic Constant Matrix: (Units=GPa)
#
#
# Indices 1 2 3 4 5 6 
#
# 1 70.5598 15.7180 19.4221 0.0000 -15.2574 0.0000
# 2 15.7180 98.2294 35.0978 0.0000 -9.3594 0.0000
# 3 19.4221 35.0978 74.9108 0.0000 -14.4956 0.0000
# 4 0.0000 0.0000 0.0000 26.5374 0.0000 -2.7609
# 5 -15.2574 -9.3594 -14.4956 0.0000 29.2676 0.0000
# 6 0.0000 0.0000 0.0000 -2.7609 0.0000 21.1357
#
#
#
# Elastic Compliance Matrix: (Units=1/GPa)
#
#
# Indices 1 2 3 4 5 6 
#
# 1 0.016623 -0.001122 -0.002408 0.000000 0.007115 0.000000
# 2 -0.001122 0.012340 -0.005354 0.000000 0.000710 0.000000
# 3 -0.002408 -0.005354 0.017594 0.000000 0.005747 0.000000
# 4 0.000000 0.000000 0.000000 0.038202 0.000000 0.004990
# 5 0.007115 0.000710 0.005747 0.000000 0.040950 0.000000
# 6 0.000000 0.000000 0.000000 0.004990 0.000000 0.047965
#
#
# Mechanical properties :
#
#
# Convention : Reuss Voigt Hill
#
# Bulk Modulus (GPa) = 34.73246 42.68621 38.70933
# Shear Modulus (GPa) = 24.87103 26.95229 25.91166
#
# Velocity S-wave (km/s) = 3.55784 3.70371 3.63151
# Velocity P-wave (km/s) = 5.87833 6.32576 6.10615
#
# Compressibility (1/GPa) = 0.02879151
#
# Stress axis : x y z
#
# Youngs Moduli (GPa) = 60.15598 81.03572 56.83843
#
# Poissons Ratio (x) = 0.09091 0.13685
# Poissons Ratio (y) = 0.06748 0.30429
# Poissons Ratio (z) = 0.14483 0.43383
#
# Static dielectric constant tensor:
#      x y z
#    x 3.528020 0.000000 -0.131040 
#    y 0.000000 3.738940 0.000000 
#    z -0.131040 0.000000 3.595790 
# 
# 
# High freq. dielectric constant tensor:
#      x y z
#    x 1.766190 0.000000 -0.004240 
#    y 0.000000 1.776690 0.000000 
#    z -0.004240 0.000000 1.764270 
# 
# From -- ./inp_files/156650.got.cif
#   From: 2010.06.25/outbox.cif.g09.slc.cpg/sg12_79_cif.got.tgz:156650.got - 2010.06.28 00:19:55.
