data_PCOD8096475
_publ_section_title
;
Structure prediction by ZEFSAII (Michael W. Deem and Ramdas Pophale) SiO2 
 PCOD8096475
Probable space group: C 2/M
;
_chemical_formula_sum "Si O2"
_cell_formula_units_Z 64
_cell_length_a 9.032596
_cell_length_b 31.647127
_cell_length_c 14.428154
_cell_angle_alpha 90.000000
_cell_angle_beta 50.264300
_cell_angle_gamma 90.000000
_cell_volume 3171.646495
_symmetry_space_group_name_H-M "C 2/M"
_symmetry_group_IT_number 12
_symmetry_cell_setting 'monoclinic'
loop_
_space_group_symop_operation_xyz
x,y,z
-x,y,-z
-x,-y,-z
x,-y,z
1/2+x,1/2+y,z
1/2-x,1/2+y,-z
1/2-x,1/2-y,-z
1/2+x,1/2-y,z
loop_
_atom_site_type_symbol
_atom_site_label
_atom_site_fract_x
_atom_site_fract_y
_atom_site_fract_z
Si Si1 0.831320 0.548469 0.994419
Si Si2 0.028669 0.398248 0.765314
Si Si3 0.972440 0.306382 0.279462
Si Si4 0.959917 0.890678 0.623932
Si Si5 0.819754 0.255250 0.668780
Si Si6 0.042156 0.452094 0.378715
Si Si7 0.837011 0.804852 0.439712
Si Si8 0.534259 0.547689 0.749107
O O1 0.808093 0.500000 0.971874
O O2 0.876090 0.575428 0.885482
O O3 0.634915 0.566027 0.118372
O O4 0.000000 0.553712 0.000000
O O5 0.949330 0.350403 0.791101
O O6 0.233661 0.395755 0.733820
O O7 0.056942 0.420129 0.653541
O O8 0.854764 0.278367 0.251018
O O9 0.819584 0.317415 0.421488
O O10 0.157623 0.281028 0.244088
O O11 0.064921 0.926462 0.641933
O O12 0.000000 0.896871 0.500000
O O13 0.030193 0.845305 0.633476
O O14 0.771999 0.289241 0.608318
O O15 0.029808 0.232626 0.571186
O O16 0.963152 0.500000 0.395974
O O17 0.270899 0.450699 0.269754
O O18 0.000000 0.436723 0.500000
O O19 0.481309 0.500000 0.740352
#
# Coordination Sequence:
#
# PCOD8096475 Si02
#       8
#     8   8   8   8   8   8   8   8
#     4  10  21  41  65  88 115 156 213 263 298 340
#     4  12  23  35  59  89 121 158 203 256 298 352
#     4  11  20  33  51  84 117 156 198 243 300 362
#     4  12  22  35  54  89 125 158 196 246 304 370
#     4  10  20  33  54  77 118 162 197 239 302 370
#     4  10  23  41  59  88 128 163 193 239 310 379
#     4  11  19  33  51  81 119 159 197 240 296 370
#     4  10  23  42  64  86 118 162 205 251 300 353
#
# _framework density 20.178792999999999
#
# number of rings (size 3 to 8) (size 9 to 14) (size 15 to 20)
#    0.000    1.250    3.750    4.125    1.750    1.250 
#    0.000    1.875    0.000    0.000    0.000    9.625 
#    0.000    0.000    0.000    0.000    0.000    0.000 
#
# Total GULP energy -396804.600054 kJ/mol
# GULP energy per Si atom -12400.143752 kJ/mol
# Density = 2.013287 g / cm^3
# Si number density = 20.178793 Si / 1000 Ang^3
#
#
#
# Elastic Constant Matrix: (Units=GPa)
#
#
# Indices 1 2 3 4 5 6 
#
# 1 99.2890 43.6256 14.8043 0.0000 1.0942 0.0000
# 2 43.6256 113.6369 33.4199 0.0000 12.0935 0.0000
# 3 14.8043 33.4199 65.4562 0.0000 -1.7660 0.0000
# 4 0.0000 0.0000 0.0000 20.8663 0.0000 1.8426
# 5 1.0942 12.0935 -1.7660 0.0000 23.7364 0.0000
# 6 0.0000 0.0000 0.0000 1.8426 0.0000 33.0048
#
#
#
# Elastic Compliance Matrix: (Units=1/GPa)
#
#
# Indices 1 2 3 4 5 6 
#
# 1 0.012202 -0.004808 -0.000254 0.000000 0.001868 0.000000
# 2 -0.004808 0.013075 -0.005773 0.000000 -0.006869 0.000000
# 3 -0.000254 -0.005773 0.018399 0.000000 0.004322 0.000000
# 4 0.000000 0.000000 0.000000 0.048162 0.000000 -0.002689
# 5 0.001868 -0.006869 0.004322 0.000000 0.045865 0.000000
# 6 0.000000 0.000000 0.000000 -0.002689 0.000000 0.030449
#
#
# Mechanical properties :
#
#
# Convention : Reuss Voigt Hill
#
# Bulk Modulus (GPa) = 45.44694 51.34240 48.39467
# Shear Modulus (GPa) = 25.36045 27.95699 26.65872
#
# Velocity S-wave (km/s) = 3.54897 3.72622 3.63867
# Velocity P-wave (km/s) = 6.27412 6.63415 6.45664
#
# Compressibility (1/GPa) = 0.02200368
#
# Stress axis : x y z
#
# Youngs Moduli (GPa) = 81.95651 76.48259 54.35000
#
# Poissons Ratio (x) = 0.36775 0.01382
# Poissons Ratio (y) = 0.39407 0.31379
# Poissons Ratio (z) = 0.02084 0.44157
#
# Static dielectric constant tensor:
#      x y z
#    x 3.875180 0.000000 -0.113710 
#    y 0.000000 3.807000 0.000000 
#    z -0.113710 0.000000 3.243400 
# 
# 
# High freq. dielectric constant tensor:
#      x y z
#    x 1.801000 0.000000 -0.008080 
#    y 0.000000 1.795060 0.000000 
#    z -0.008080 0.000000 1.738140 
# 
# From -- ./inp_files/201235.got.cif
#   From: 2010.06.25/outbox.cif.g09.slc.cpg/sg12_101_cif.got.tgz:201235.got - 2010.06.28 00:19:55.
