data_PCOD8096803
_publ_section_title
;
Structure prediction by ZEFSAII (Michael W. Deem and Ramdas Pophale) SiO2 
 PCOD8096803
Probable space group: C 2/M
;
_chemical_formula_sum "Si O2"
_cell_formula_units_Z 56
_cell_length_a 14.243250
_cell_length_b 9.612600
_cell_length_c 29.608680
_cell_angle_alpha 90.000000
_cell_angle_beta 127.621939
_cell_angle_gamma 90.000000
_cell_volume 3210.885939
_symmetry_space_group_name_H-M "C 2/M"
_symmetry_group_IT_number 12
_symmetry_cell_setting 'monoclinic'
loop_
_space_group_symop_operation_xyz
x,y,z
-x,y,-z
-x,-y,-z
x,-y,z
1/2+x,1/2+y,z
1/2-x,1/2+y,-z
1/2-x,1/2-y,-z
1/2+x,1/2-y,z
loop_
_atom_site_type_symbol
_atom_site_label
_atom_site_fract_x
_atom_site_fract_y
_atom_site_fract_z
Si Si1 0.437759 0.339064 0.435757
Si Si2 0.695938 0.655260 0.945954
Si Si3 0.333745 0.161320 0.657024
Si Si4 0.071148 0.837280 0.139841
Si Si5 0.295701 0.338724 0.731234
Si Si6 0.898153 0.342683 0.936543
Si Si7 0.475867 0.838719 0.361703
O O1 0.500000 0.291299 0.500000
O O2 0.463252 0.500000 0.432482
O O3 0.297922 0.310674 0.400507
O O4 0.495755 0.249943 0.412715
O O5 0.693185 0.500000 0.965313
O O6 0.565559 0.703774 0.893441
O O7 0.772021 0.661868 0.923278
O O8 0.750000 0.750000 0.000000
O O9 0.353512 0.250700 0.707851
O O10 0.428915 0.209953 0.647633
O O11 0.352631 0.000000 0.674888
O O12 0.142875 0.788659 0.204773
O O13 0.119531 0.754165 0.111469
O O14 0.090065 0.000000 0.136283
O O15 0.321990 0.500000 0.728896
O O16 0.155818 0.310586 0.695814
O O17 0.932431 0.500000 0.931944
O O18 0.000000 0.284227 0.000000
O O19 0.494662 0.000000 0.379493
#
# Coordination Sequence:
#
# PCOD8096803 Si02
#       7
#     8   8   8   8   8   8   8
#     4   9  18  32  49  73 105 135 166 205 245 287
#     4  10  20  34  51  71  96 125 156 192 237 289
#     4   9  18  33  52  73  98 132 169 203 244 291
#     4  10  21  35  52  74  99 127 161 201 245 294
#     4   9  19  35  51  71  99 128 162 205 248 289
#     4  10  20  34  51  72  98 126 157 195 240 291
#     4   9  18  33  52  72  99 133 167 205 245 289
#
# _framework density 17.440669
#
# number of rings (size 3 to 8) (size 9 to 14) (size 15 to 20)
#    0.000    2.571    1.429    0.000    0.000    4.000 
#    0.000    0.000    0.000    0.000    0.000    0.000 
#    0.000    0.000    0.000    0.000    0.000    0.000 
#
# Total GULP energy -347255.908639 kJ/mol
# GULP energy per Si atom -12401.996737 kJ/mol
# Density = 1.740097 g / cm^3
# Si number density = 17.440669 Si / 1000 Ang^3
#
#
#
# Elastic Constant Matrix: (Units=GPa)
#
#
# Indices 1 2 3 4 5 6 
#
# 1 121.4901 51.0131 58.4935 0.0000 -14.8651 0.0000
# 2 51.0131 63.6038 62.2560 0.0000 -15.4556 0.0000
# 3 58.4935 62.2560 148.6071 0.0000 -19.9442 0.0000
# 4 0.0000 0.0000 0.0000 30.5823 0.0000 -8.9544
# 5 -14.8651 -15.4556 -19.9442 0.0000 22.7513 0.0000
# 6 0.0000 0.0000 0.0000 -8.9544 0.0000 30.7109
#
#
#
# Elastic Compliance Matrix: (Units=1/GPa)
#
#
# Indices 1 2 3 4 5 6 
#
# 1 0.012575 -0.008630 -0.001154 0.000000 0.001342 0.000000
# 2 -0.008630 0.034484 -0.009818 0.000000 0.009182 0.000000
# 3 -0.001154 -0.009818 0.011673 0.000000 0.002810 0.000000
# 4 0.000000 0.000000 0.000000 0.035751 0.000000 0.010424
# 5 0.001342 0.009182 0.002810 0.000000 0.053531 0.000000
# 6 0.000000 0.000000 0.000000 0.010424 0.000000 0.035601
#
#
# Mechanical properties :
#
#
# Convention : Reuss Voigt Hill
#
# Bulk Modulus (GPa) = 51.20450 75.24736 63.22593
# Shear Modulus (GPa) = 21.80292 27.60477 24.70385
#
# Velocity S-wave (km/s) = 3.53954 3.98273 3.76766
# Velocity P-wave (km/s) = 6.79172 8.02421 7.43355
#
# Compressibility (1/GPa) = 0.01952954
#
# Stress axis : x y z
#
# Youngs Moduli (GPa) = 79.52591 28.99876 85.66461
#
# Poissons Ratio (x) = 0.25025 0.09888
# Poissons Ratio (y) = 0.68627 0.84102
# Poissons Ratio (z) = 0.09179 0.28470
#
# Static dielectric constant tensor:
#      x y z
#    x 3.280710 0.000000 0.075070 
#    y 0.000000 3.270520 0.000000 
#    z 0.075070 0.000000 3.213530 
# 
# 
# High freq. dielectric constant tensor:
#      x y z
#    x 1.677250 0.000000 0.005100 
#    y 0.000000 1.671920 0.000000 
#    z 0.005100 0.000000 1.670710 
# 
# From -- ./inp_files/308888.got.cif
#   From: 2010.06.25/outbox.cif.g09.slc.cpg/sg12_155_cif.got.tgz:308888.got - 2010.06.28 00:19:55.
