data_PCOD8096219
_publ_section_title
;
Structure prediction by ZEFSAII (Michael W. Deem and Ramdas Pophale) SiO2 
 PCOD8096219
Probable space group: C 2/M
;
_chemical_formula_sum "Si O2"
_cell_formula_units_Z 56
_cell_length_a 14.309919
_cell_length_b 8.792280
_cell_length_c 27.886663
_cell_angle_alpha 90.000000
_cell_angle_beta 121.502429
_cell_angle_gamma 90.000000
_cell_volume 2991.505031
_symmetry_space_group_name_H-M "C 2/M"
_symmetry_group_IT_number 12
_symmetry_cell_setting 'monoclinic'
loop_
_space_group_symop_operation_xyz
x,y,z
-x,y,-z
-x,-y,-z
x,-y,z
1/2+x,1/2+y,z
1/2-x,1/2+y,-z
1/2-x,1/2-y,-z
1/2+x,1/2-y,z
loop_
_atom_site_type_symbol
_atom_site_label
_atom_site_fract_x
_atom_site_fract_y
_atom_site_fract_z
Si Si1 0.656865 0.321568 0.640259
Si Si2 0.510025 0.319412 0.153170
Si Si3 0.195331 0.680342 0.848352
Si Si4 0.238066 0.320178 0.231499
Si Si5 0.916382 0.820880 0.549120
Si Si6 0.721433 0.178640 0.564681
Si Si7 0.063589 0.820704 0.062151
O O1 0.667058 0.500000 0.635156
O O2 0.695247 0.275095 0.703296
O O3 0.533238 0.263075 0.599223
O O4 0.733552 0.240292 0.621792
O O5 0.522018 0.500000 0.161758
O O6 0.400896 0.262917 0.149284
O O7 0.614890 0.240721 0.205484
O O8 0.506056 0.269279 0.096233
O O9 0.177258 0.500000 0.844120
O O10 0.198753 0.737266 0.794695
O O11 0.309172 0.728713 0.904417
O O12 0.236131 0.500000 0.221698
O O13 0.829202 0.766925 0.565415
O O14 0.886628 0.746931 0.489947
O O15 0.914998 0.000000 0.541327
O O16 0.710375 0.000000 0.562627
O O17 0.056516 0.000000 0.056073
O O18 0.000000 0.744700 0.000000
#
# Coordination Sequence:
#
# PCOD8096219 Si02
#       7
#     8   8   8   8   8   8   8
#     4  10  21  36  54  75 100 134 170 209 261 314
#     4  10  20  35  56  79 107 144 180 217 266 317
#     4  10  20  35  56  80 108 143 180 219 265 314
#     4  10  21  37  55  77 105 137 180 227 269 316
#     4   9  19  36  53  71 101 136 167 203 254 312
#     4  10  20  33  52  78 104 132 168 209 252 304
#     4   8  16  32  53  79 111 143 177 218 261 309
#
# _framework density 18.719674000000001
#
# number of rings (size 3 to 8) (size 9 to 14) (size 15 to 20)
#    0.000    2.429    0.000    3.000    0.000    5.714 
#    0.000    1.429    0.000   14.571    0.000    0.000 
#    0.000    0.000    0.000    0.000    0.000    0.000 
#
# Total GULP energy -347221.459647 kJ/mol
# GULP energy per Si atom -12400.766416 kJ/mol
# Density = 1.867707 g / cm^3
# Si number density = 18.719674 Si / 1000 Ang^3
#
#
#
# Elastic Constant Matrix: (Units=GPa)
#
#
# Indices 1 2 3 4 5 6 
#
# 1 92.0678 6.8150 41.6151 0.0000 -0.5465 0.0000
# 2 6.8150 29.2870 24.4423 0.0000 -0.8482 0.0000
# 3 41.6151 24.4423 127.9081 0.0000 -0.4376 0.0000
# 4 0.0000 0.0000 0.0000 25.6231 0.0000 -2.3474
# 5 -0.5465 -0.8482 -0.4376 0.0000 16.8723 0.0000
# 6 0.0000 0.0000 0.0000 -2.3474 0.0000 30.4168
#
#
#
# Elastic Compliance Matrix: (Units=1/GPa)
#
#
# Indices 1 2 3 4 5 6 
#
# 1 0.012745 0.000599 -0.004260 0.000000 0.000332 0.000000
# 2 0.000599 0.040709 -0.007968 0.000000 0.001859 0.000000
# 3 -0.004260 -0.007968 0.010726 0.000000 -0.000260 0.000000
# 4 0.000000 0.000000 0.000000 0.039305 0.000000 0.003033
# 5 0.000332 0.001859 -0.000260 0.000000 0.059366 0.000000
# 6 0.000000 0.000000 0.000000 0.003033 0.000000 0.033111
#
#
# Mechanical properties :
#
#
# Convention : Reuss Voigt Hill
#
# Bulk Modulus (GPa) = 24.43648 43.88977 34.16312
# Shear Modulus (GPa) = 21.47220 26.34180 23.90700
#
# Velocity S-wave (km/s) = 3.39047 3.75530 3.57754
# Velocity P-wave (km/s) = 5.33004 6.50382 5.94597
#
# Compressibility (1/GPa) = 0.04092243
#
# Stress axis : x y z
#
# Youngs Moduli (GPa) = 78.46428 24.56462 93.23354
#
# Poissons Ratio (x) = -0.01472 0.39716
# Poissons Ratio (y) = -0.04701 0.74286
# Poissons Ratio (z) = 0.33425 0.19573
#
# Static dielectric constant tensor:
#      x y z
#    x 3.548560 0.000000 -0.005050 
#    y 0.000000 3.310600 0.000000 
#    z -0.005050 0.000000 3.704830 
# 
# 
# High freq. dielectric constant tensor:
#      x y z
#    x 1.732830 0.000000 -0.003600 
#    y 0.000000 1.719620 0.000000 
#    z -0.003600 0.000000 1.728360 
# 
# From -- ./inp_files/360033.got.cif
#   From: 2010.06.25/outbox.cif.g09.slc.cpg/sg12_181_cif.got.tgz:360033.got - 2010.06.28 00:19:55.
