data_PCOD8096604
_publ_section_title
;
Structure prediction by ZEFSAII (Michael W. Deem and Ramdas Pophale) SiO2 
 PCOD8096604
Probable space group: C 2/M
;
_chemical_formula_sum "Si O2"
_cell_formula_units_Z 56
_cell_length_a 12.431650
_cell_length_b 23.293645
_cell_length_c 9.115410
_cell_angle_alpha 90.000000
_cell_angle_beta 78.154256
_cell_angle_gamma 90.000000
_cell_volume 2583.412245
_symmetry_space_group_name_H-M "C 2/M"
_symmetry_group_IT_number 12
_symmetry_cell_setting 'monoclinic'
loop_
_space_group_symop_operation_xyz
x,y,z
-x,y,-z
-x,-y,-z
x,-y,z
1/2+x,1/2+y,z
1/2-x,1/2+y,-z
1/2-x,1/2-y,-z
1/2+x,1/2-y,z
loop_
_atom_site_type_symbol
_atom_site_label
_atom_site_fract_x
_atom_site_fract_y
_atom_site_fract_z
Si Si1 0.501675 0.064818 0.834481
Si Si2 0.778071 0.779606 0.220959
Si Si3 0.537975 0.330652 0.654993
Si Si4 0.180492 0.827859 0.105401
Si Si5 0.747965 0.062952 0.771077
Si Si6 0.312640 0.566434 0.437892
Si Si7 0.109288 0.365903 0.375594
O O1 0.625502 0.068418 0.740003
O O2 0.422064 0.105601 0.768420
O O3 0.455915 0.000000 0.837835
O O4 0.500000 0.087715 0.000000
O O5 0.871246 0.783346 0.320866
O O6 0.757705 0.714063 0.180621
O O7 0.665928 0.805486 0.319734
O O8 0.818692 0.814202 0.066332
O O9 0.500000 0.317072 0.500000
O O10 0.441780 0.325104 0.798921
O O11 0.591269 0.394309 0.657343
O O12 0.227748 0.891700 0.109024
O O13 0.828187 0.071499 0.609578
O O14 0.764480 0.000000 0.837426
O O15 0.324198 0.500000 0.383463
O O16 0.193025 0.590882 0.431199
O O17 0.000000 0.354297 0.500000
#
# Coordination Sequence:
#
# PCOD8096604 Si02
#       7
#     8   8   8   8   8   8   8
#     4  10  20  33  55  90 128 167 210 259 320 384
#     4  10  26  44  65  94 127 170 216 259 320 388
#     4  11  23  42  66  98 125 166 211 271 314 374
#     4  11  23  46  68  89 130 172 209 264 322 379
#     4  10  20  36  62  94 127 165 211 260 316 379
#     4  10  21  38  61  95 130 167 214 262 319 381
#     4  11  21  38  61  93 127 169 214 270 319 377
#
# _framework density 21.676759000000001
#
# number of rings (size 3 to 8) (size 9 to 14) (size 15 to 20)
#    0.000    1.571    2.857    1.714    0.000    3.714 
#    0.000    4.286    0.000    4.286    0.000    0.000 
#    0.000    0.000    0.000    0.000    0.000    0.000 
#
# Total GULP energy -347215.165929 kJ/mol
# GULP energy per Si atom -12400.541640 kJ/mol
# Density = 2.162742 g / cm^3
# Si number density = 21.676759 Si / 1000 Ang^3
#
#
#
# Elastic Constant Matrix: (Units=GPa)
#
#
# Indices 1 2 3 4 5 6 
#
# 1 109.2468 44.8439 51.0147 0.0000 3.3259 0.0000
# 2 44.8439 102.4592 32.8771 0.0000 7.2238 0.0000
# 3 51.0147 32.8771 100.4170 0.0000 -4.0275 0.0000
# 4 0.0000 0.0000 0.0000 30.4386 0.0000 1.5485
# 5 3.3259 7.2238 -4.0275 0.0000 37.4206 0.0000
# 6 0.0000 0.0000 0.0000 1.5485 0.0000 22.0888
#
#
#
# Elastic Compliance Matrix: (Units=1/GPa)
#
#
# Indices 1 2 3 4 5 6 
#
# 1 0.013425 -0.004026 -0.005543 0.000000 -0.001013 0.000000
# 2 -0.004026 0.012351 -0.002089 0.000000 -0.002251 0.000000
# 3 -0.005543 -0.002089 0.013553 0.000000 0.002355 0.000000
# 4 0.000000 0.000000 0.000000 0.032971 0.000000 -0.002311
# 5 -0.001013 -0.002251 0.002355 0.000000 0.027501 0.000000
# 6 0.000000 0.000000 0.000000 -0.002311 0.000000 0.045434
#
#
# Mechanical properties :
#
#
# Convention : Reuss Voigt Hill
#
# Bulk Modulus (GPa) = 62.44627 63.28824 62.86726
# Shear Modulus (GPa) = 28.75411 30.21543 29.48477
#
# Velocity S-wave (km/s) = 3.64606 3.73756 3.69209
# Velocity P-wave (km/s) = 6.82609 6.91994 6.87317
#
# Compressibility (1/GPa) = 0.01601377
#
# Stress axis : x y z
#
# Youngs Moduli (GPa) = 74.48584 80.96500 73.78560
#
# Poissons Ratio (x) = 0.32596 0.40899
# Poissons Ratio (y) = 0.29988 0.15412
# Poissons Ratio (z) = 0.41287 0.16912
#
# Static dielectric constant tensor:
#      x y z
#    x 3.904120 0.000000 -0.083190 
#    y 0.000000 3.856130 0.000000 
#    z -0.083190 0.000000 3.834110 
# 
# 
# High freq. dielectric constant tensor:
#      x y z
#    x 1.851080 0.000000 -0.007170 
#    y 0.000000 1.847950 0.000000 
#    z -0.007170 0.000000 1.853040 
# 
# From -- ./inp_files/53152.got.cif
#   From: 2010.06.25/outbox.cif.g09.slc.cpg/sg12_27_cif.got.tgz:53152.got - 2010.06.28 00:19:55.
