data_PCOD8096113
_publ_section_title
;
Structure prediction by ZEFSAII (Michael W. Deem and Ramdas Pophale) SiO2 
 PCOD8096113
Probable space group: C 2/M
;
_chemical_formula_sum "Si O2"
_cell_formula_units_Z 64
_cell_length_a 18.711298
_cell_length_b 8.710079
_cell_length_c 31.160222
_cell_angle_alpha 90.000000
_cell_angle_beta 138.921319
_cell_angle_gamma 90.000000
_cell_volume 3336.987572
_symmetry_space_group_name_H-M "C 2/M"
_symmetry_group_IT_number 12
_symmetry_cell_setting 'monoclinic'
loop_
_space_group_symop_operation_xyz
x,y,z
-x,y,-z
-x,-y,-z
x,-y,z
1/2+x,1/2+y,z
1/2-x,1/2+y,-z
1/2-x,1/2-y,-z
1/2+x,1/2-y,z
loop_
_atom_site_type_symbol
_atom_site_label
_atom_site_fract_x
_atom_site_fract_y
_atom_site_fract_z
Si Si1 0.740597 0.320781 0.827180
Si Si2 0.073394 0.820939 0.825639
Si Si3 0.324801 0.181205 0.426651
Si Si4 0.094634 0.325541 0.309258
Si Si5 0.427531 0.176758 0.308248
Si Si6 0.490424 0.181175 0.428838
Si Si7 0.473228 0.319929 0.939684
Si Si8 0.131407 0.680664 0.941124
O O1 0.768648 0.500000 0.839454
O O2 0.672782 0.275206 0.839123
O O3 0.672194 0.277984 0.754053
O O4 0.849511 0.223010 0.874230
O O5 0.081756 0.727438 0.873126
O O6 0.958697 0.779085 0.751818
O O7 0.075166 0.000000 0.837168
O O8 0.214457 0.273321 0.374812
O O9 0.392747 0.229367 0.415629
O O10 0.393453 0.236545 0.499535
O O11 0.301553 0.000000 0.417289
O O12 0.094259 0.500000 0.292511
O O13 0.029470 0.307877 0.323507
O O14 0.465895 0.249368 0.370823
O O15 0.389045 0.000000 0.295081
O O16 0.496781 0.000000 0.428749
O O17 0.490124 0.500000 0.940919
O O18 0.553826 0.234161 0.944197
O O19 0.500000 0.267320 0.000000
O O20 0.142152 0.500000 0.948429
O O21 0.250000 0.750000 0.000000
#
# Coordination Sequence:
#
# PCOD8096113 Si02
#       8
#     8   8   8   8   8   8   8   8
#     4  10  21  37  58  84 113 145 183 230 281 330
#     4  10  21  39  61  83 111 148 188 229 277 332
#     4   9  17  32  53  74 100 136 180 227 273 326
#     4  10  20  33  51  78 110 142 177 221 275 330
#     4   9  18  34  54  75 104 142 182 223 270 330
#     4   8  16  32  53  74  97 135 183 225 269 324
#     4  11  24  41  62  87 115 150 190 228 271 325
#     4  12  25  41  62  88 118 149 185 229 276 327
#
# _framework density 19.178974
#
# number of rings (size 3 to 8) (size 9 to 14) (size 15 to 20)
#    0.000    2.125    0.000    4.125    0.000    6.500 
#    0.000    6.250    0.000    0.000    0.000    0.000 
#    0.000    0.000    0.000    0.000    0.000    0.000 
#
# Total GULP energy -396846.057023 kJ/mol
# GULP energy per Si atom -12401.439282 kJ/mol
# Density = 1.913532 g / cm^3
# Si number density = 19.178974 Si / 1000 Ang^3
#
#
#
# Elastic Constant Matrix: (Units=GPa)
#
#
# Indices 1 2 3 4 5 6 
#
# 1 95.4797 48.9645 78.2076 0.0000 -5.6804 0.0000
# 2 48.9645 79.3052 43.0933 -0.0002 -2.2035 0.0002
# 3 78.2076 43.0933 143.1518 0.0000 -4.7458 0.0001
# 4 0.0000 -0.0002 0.0000 33.0807 0.0000 4.7237
# 5 -5.6804 -2.2035 -4.7458 0.0000 41.3605 0.0000
# 6 0.0000 0.0002 0.0001 4.7237 0.0000 27.9655
#
#
#
# Elastic Compliance Matrix: (Units=1/GPa)
#
#
# Indices 1 2 3 4 5 6 
#
# 1 0.023353 -0.008931 -0.010017 0.000000 0.001582 0.000000
# 2 -0.008931 0.018495 -0.000699 0.000000 -0.000321 0.000000
# 3 -0.010017 -0.000699 0.012670 0.000000 0.000041 0.000000
# 4 0.000000 0.000000 0.000000 0.030976 0.000000 -0.005232
# 5 0.001582 -0.000321 0.000041 0.000000 0.024382 0.000000
# 6 0.000000 0.000000 0.000000 -0.005232 0.000000 0.036642
#
#
# Mechanical properties :
#
#
# Convention : Reuss Voigt Hill
#
# Bulk Modulus (GPa) = 65.69044 73.16307 69.42676
# Shear Modulus (GPa) = 26.19347 30.32609 28.25978
#
# Velocity S-wave (km/s) = 3.69960 3.98076 3.84275
# Velocity P-wave (km/s) = 7.25086 7.70448 7.48111
#
# Compressibility (1/GPa) = 0.01522292
#
# Stress axis : x y z
#
# Youngs Moduli (GPa) = 42.82122 54.06981 78.92681
#
# Poissons Ratio (x) = 0.48291 0.79063
# Poissons Ratio (y) = 0.38245 0.05515
# Poissons Ratio (z) = 0.42895 0.03778
#
# Static dielectric constant tensor:
#      x y z
#    x 3.921990 0.000000 -0.483720 
#    y 0.000000 3.430050 0.000000 
#    z -0.483720 0.000000 4.610080 
# 
# 
# High freq. dielectric constant tensor:
#      x y z
#    x 1.743530 0.000000 -0.001890 
#    y 0.000000 1.739090 0.000000 
#    z -0.001890 0.000000 1.761880 
# 
# From -- ./inp_files/378496.got.cif
#   From: 2010.06.25/outbox.cif.g09.slc.cpg/sg12_190_cif.got.tgz:378496.got - 2010.06.28 00:19:55.
