data_PCOD8096329
_publ_section_title
;
Structure prediction by ZEFSAII (Michael W. Deem and Ramdas Pophale) SiO2 
 PCOD8096329
Probable space group: C 2/M
;
_chemical_formula_sum "Si O2"
_cell_formula_units_Z 56
_cell_length_a 28.427209
_cell_length_b 9.137957
_cell_length_c 13.275362
_cell_angle_alpha 90.000000
_cell_angle_beta 57.206009
_cell_angle_gamma 90.000000
_cell_volume 2898.886329
_symmetry_space_group_name_H-M "C 2/M"
_symmetry_group_IT_number 12
_symmetry_cell_setting 'monoclinic'
loop_
_space_group_symop_operation_xyz
x,y,z
-x,y,-z
-x,-y,-z
x,-y,z
1/2+x,1/2+y,z
1/2-x,1/2+y,-z
1/2-x,1/2-y,-z
1/2+x,1/2-y,z
loop_
_atom_site_type_symbol
_atom_site_label
_atom_site_fract_x
_atom_site_fract_y
_atom_site_fract_z
Si Si1 0.449750 0.671870 0.483936
Si Si2 0.666220 0.671356 0.283431
Si Si3 0.117366 0.171978 0.808086
Si Si4 0.274076 0.667934 0.198592
Si Si5 0.555980 0.832941 0.716546
Si Si6 0.849881 0.828441 0.925048
Si Si7 0.936907 0.667496 0.947163
O O1 0.500000 0.713423 0.500000
O O2 0.449629 0.500000 0.460122
O O3 0.391873 0.724110 0.601227
O O4 0.458960 0.759434 0.371307
O O5 0.672592 0.500000 0.286541
O O6 0.717887 0.741531 0.283455
O O7 0.668909 0.720223 0.163931
O O8 0.181603 0.202840 0.764515
O O9 0.106451 0.246029 0.712509
O O10 0.105075 0.000000 0.816636
O O11 0.075988 0.240849 0.938193
O O12 0.256710 0.500000 0.219507
O O13 0.300637 0.710908 0.059989
O O14 0.502615 0.824333 0.851032
O O15 0.574516 0.000000 0.677161
O O16 0.904975 0.737026 0.888912
O O17 0.865388 0.000000 0.912233
O O18 0.917424 0.500000 0.985203
#
# Coordination Sequence:
#
# PCOD8096329 Si02
#       7
#     8   8   8   8   8   8   8
#     4  10  22  40  60  81 107 142 183 223 263 315
#     4  10  20  34  55  81 107 141 184 225 267 317
#     4  10  21  37  57  81 109 143 182 220 264 322
#     4   9  19  34  53  80 111 141 175 219 270 323
#     4  11  23  37  55  81 111 143 180 224 273 320
#     4   9  18  33  53  80 112 145 182 219 263 322
#     4  10  20  33  52  82 115 143 176 220 271 323
#
# _framework density 19.317765000000001
#
# number of rings (size 3 to 8) (size 9 to 14) (size 15 to 20)
#    0.000    2.143    0.000    3.857    0.000    9.429 
#    0.000    0.714    0.000    0.000    0.000    0.000 
#    0.000    0.000    0.000    0.000    0.000    0.000 
#
# Total GULP energy -347286.338406 kJ/mol
# GULP energy per Si atom -12403.083515 kJ/mol
# Density = 1.927380 g / cm^3
# Si number density = 19.317765 Si / 1000 Ang^3
#
#
#
# Elastic Constant Matrix: (Units=GPa)
#
#
# Indices 1 2 3 4 5 6 
#
# 1 126.8175 59.9957 49.8537 0.0000 4.7603 0.0000
# 2 59.9957 85.3453 39.7128 0.0000 8.6607 0.0000
# 3 49.8537 39.7128 63.1557 0.0000 6.7116 0.0000
# 4 0.0000 0.0000 0.0000 24.6416 0.0000 -3.4442
# 5 4.7603 8.6607 6.7116 0.0000 32.3048 0.0000
# 6 0.0000 0.0000 0.0000 -3.4442 0.0000 30.4515
#
#
#
# Elastic Compliance Matrix: (Units=1/GPa)
#
#
# Indices 1 2 3 4 5 6 
#
# 1 0.013578 -0.006527 -0.006736 0.000000 0.001149 0.000000
# 2 -0.006527 0.019874 -0.007036 0.000000 -0.002905 0.000000
# 3 -0.006736 -0.007036 0.025840 0.000000 -0.002490 0.000000
# 4 0.000000 0.000000 0.000000 0.041234 0.000000 0.004664
# 5 0.001149 -0.002905 -0.002490 0.000000 0.032082 0.000000
# 6 0.000000 0.000000 0.000000 0.004664 0.000000 0.033367
#
#
# Mechanical properties :
#
#
# Convention : Reuss Voigt Hill
#
# Bulk Modulus (GPa) = 53.49302 63.82698 58.66000
# Shear Modulus (GPa) = 23.49575 25.86334 24.67954
#
# Velocity S-wave (km/s) = 3.49130 3.66298 3.57817
# Velocity P-wave (km/s) = 6.63351 7.14158 6.89223
#
# Compressibility (1/GPa) = 0.01869403
#
# Stress axis : x y z
#
# Youngs Moduli (GPa) = 73.64726 50.31600 38.69978
#
# Poissons Ratio (x) = 0.32843 0.26068
# Poissons Ratio (y) = 0.48072 0.27229
# Poissons Ratio (z) = 0.49609 0.35402
#
# Static dielectric constant tensor:
#      x y z
#    x 3.611540 0.000000 0.067550 
#    y 0.000000 3.525300 0.000000 
#    z 0.067550 0.000000 3.346040 
# 
# 
# High freq. dielectric constant tensor:
#      x y z
#    x 1.761050 0.000000 0.006250 
#    y 0.000000 1.752890 0.000000 
#    z 0.006250 0.000000 1.731870 
# 
# From -- ./inp_files/180770.got.cif
#   From: 2010.06.25/outbox.cif.g09.slc.cpg/sg12_91_cif.got.tgz:180770.got - 2010.06.28 00:19:55.
