data_PCOD8096294
_publ_section_title
;
Structure prediction by ZEFSAII (Michael W. Deem and Ramdas Pophale) SiO2 
 PCOD8096294
Probable space group: C 2/M
;
_chemical_formula_sum "Si O2"
_cell_formula_units_Z 56
_cell_length_a 26.116285
_cell_length_b 9.486812
_cell_length_c 13.089297
_cell_angle_alpha 90.000000
_cell_angle_beta 66.006250
_cell_angle_gamma 90.000000
_cell_volume 2962.779066
_symmetry_space_group_name_H-M "C 2/M"
_symmetry_group_IT_number 12
_symmetry_cell_setting 'monoclinic'
loop_
_space_group_symop_operation_xyz
x,y,z
-x,y,-z
-x,-y,-z
x,-y,z
1/2+x,1/2+y,z
1/2-x,1/2+y,-z
1/2-x,1/2-y,-z
1/2+x,1/2-y,z
loop_
_atom_site_type_symbol
_atom_site_label
_atom_site_fract_x
_atom_site_fract_y
_atom_site_fract_z
Si Si1 0.226723 0.334800 0.763875
Si Si2 0.946409 0.837593 0.816010
Si Si3 0.156179 0.338695 0.622773
Si Si4 0.133725 0.163292 0.939194
Si Si5 0.933435 0.838362 0.204877
Si Si6 0.172786 0.661928 0.380704
Si Si7 0.052116 0.663900 0.390788
O O1 0.231954 0.500000 0.783824
O O2 0.201563 0.303355 0.672565
O O3 0.187834 0.262350 0.881147
O O4 0.287845 0.263563 0.718401
O O5 0.944772 0.742988 0.718186
O O6 0.001096 0.803145 0.839362
O O7 0.946353 0.000000 0.781856
O O8 0.892366 0.803501 0.929205
O O9 0.136998 0.500000 0.643654
O O10 0.100107 0.249106 0.683243
O O11 0.182923 0.303562 0.491623
O O12 0.086973 0.200718 0.892211
O O13 0.151897 0.000000 0.915459
O O14 0.920960 0.000000 0.239699
O O15 0.188264 0.500000 0.343485
O O16 0.108478 0.694157 0.407514
O O17 0.044079 0.500000 0.372859
O O18 0.000000 0.720564 0.500000
#
# Coordination Sequence:
#
# PCOD8096294 Si02
#       7
#     8   8   8   8   8   8   8
#     4  10  20  33  52  80 108 132 167 216 261 301
#     4  10  20  34  54  79 105 136 174 215 257 300
#     4   9  18  32  51  77 107 137 170 209 255 308
#     4   9  18  34  54  76 106 140 171 206 254 312
#     4   9  17  30  51  79 108 137 169 207 255 310
#     4  10  20  35  54  74 101 140 177 207 251 309
#     4  10  22  39  57  77 103 137 174 210 251 303
#
# _framework density 18.901171999999999
#
# number of rings (size 3 to 8) (size 9 to 14) (size 15 to 20)
#    0.000    2.429    0.000    2.143    0.000    6.000 
#    0.000    0.714    0.000    4.286    0.000    0.000 
#    0.000    0.000    0.000    0.000    0.000    0.000 
#
# Total GULP energy -347261.194184 kJ/mol
# GULP energy per Si atom -12402.185507 kJ/mol
# Density = 1.885815 g / cm^3
# Si number density = 18.901172 Si / 1000 Ang^3
#
#
#
# Elastic Constant Matrix: (Units=GPa)
#
#
# Indices 1 2 3 4 5 6 
#
# 1 78.3739 46.8147 46.8463 0.0000 -24.4995 0.0000
# 2 46.8147 81.6151 60.5092 0.0000 -18.5603 0.0000
# 3 46.8463 60.5092 111.8784 0.0000 -17.0665 0.0000
# 4 0.0000 0.0000 0.0000 34.9027 0.0000 -3.1869
# 5 -24.4995 -18.5603 -17.0665 0.0000 29.4431 0.0000
# 6 0.0000 0.0000 0.0000 -3.1869 0.0000 27.4322
#
#
#
# Elastic Compliance Matrix: (Units=1/GPa)
#
#
# Indices 1 2 3 4 5 6 
#
# 1 0.023634 -0.007997 -0.003664 0.000000 0.012501 0.000000
# 2 -0.007997 0.024614 -0.009447 0.000000 0.003386 0.000000
# 3 -0.003664 -0.009447 0.015587 0.000000 0.000031 0.000000
# 4 0.000000 0.000000 0.000000 0.028958 0.000000 0.003364
# 5 0.012501 0.003386 0.000031 0.000000 0.046517 0.000000
# 6 0.000000 0.000000 0.000000 0.003364 0.000000 0.036844
#
#
# Mechanical properties :
#
#
# Convention : Reuss Voigt Hill
#
# Bulk Modulus (GPa) = 46.25851 64.46755 55.36303
# Shear Modulus (GPa) = 22.16529 26.20209 24.18369
#
# Velocity S-wave (km/s) = 3.42818 3.72730 3.58086
# Velocity P-wave (km/s) = 6.34010 7.25985 6.81551
#
# Compressibility (1/GPa) = 0.02161764
#
# Stress axis : x y z
#
# Youngs Moduli (GPa) = 42.31174 40.62719 64.15737
#
# Poissons Ratio (x) = 0.32491 0.23507
# Poissons Ratio (y) = 0.33838 0.60611
# Poissons Ratio (z) = 0.15503 0.38382
#
# Static dielectric constant tensor:
#      x y z
#    x 3.396560 0.000000 -0.077420 
#    y 0.000000 3.426400 0.000000 
#    z -0.077420 0.000000 3.433190 
# 
# 
# High freq. dielectric constant tensor:
#      x y z
#    x 1.727190 0.000000 -0.012020 
#    y 0.000000 1.730600 0.000000 
#    z -0.012020 0.000000 1.729480 
# 
# From -- ./inp_files/180771.got.cif
#   From: 2010.06.25/outbox.cif.g09.slc.cpg/sg12_91_cif.got.tgz:180771.got - 2010.06.28 00:19:55.
