data_PCOD8096847
_publ_section_title
;
Structure prediction by ZEFSAII (Michael W. Deem and Ramdas Pophale) SiO2 
 PCOD8096847
Probable space group: C 2/M
;
_chemical_formula_sum "Si O2"
_cell_formula_units_Z 48
_cell_length_a 20.128557
_cell_length_b 8.691985
_cell_length_c 21.314597
_cell_angle_alpha 90.000000
_cell_angle_beta 134.845057
_cell_angle_gamma 90.000000
_cell_volume 2644.021700
_symmetry_space_group_name_H-M "C 2/M"
_symmetry_group_IT_number 12
_symmetry_cell_setting 'monoclinic'
loop_
_space_group_symop_operation_xyz
x,y,z
-x,y,-z
-x,-y,-z
x,-y,z
1/2+x,1/2+y,z
1/2-x,1/2+y,-z
1/2-x,1/2-y,-z
1/2+x,1/2-y,z
loop_
_atom_site_type_symbol
_atom_site_label
_atom_site_fract_x
_atom_site_fract_y
_atom_site_fract_z
Si Si1 0.006508 0.181912 0.933042
Si Si2 0.502285 0.818209 0.603105
Si Si3 0.853025 0.682228 0.403783
Si Si4 0.490438 0.680868 0.256434
Si Si5 0.852547 0.318540 0.068383
Si Si6 0.854226 0.818875 0.734433
O O1 0.094137 0.262051 0.958287
O O2 0.910255 0.230899 0.834304
O O3 0.022600 0.000000 0.939457
O O4 0.000000 0.239568 0.000000
O O5 0.592683 0.766780 0.622911
O O6 0.409360 0.766558 0.503375
O O7 0.504387 0.723755 0.668004
O O8 0.502649 0.000000 0.617099
O O9 0.848306 0.500000 0.400659
O O10 0.749177 0.757825 0.335144
O O11 0.475353 0.500000 0.237502
O O12 0.403901 0.765446 0.166010
O O13 0.587163 0.734190 0.287517
O O14 0.846338 0.500000 0.063509
O O15 0.750000 0.250000 0.000000
O O16 0.840788 0.000000 0.724752
#
# Coordination Sequence:
#
# PCOD8096847 Si02
#       6
#     8   8   8   8   8   8
#     4   9  18  33  53  78 107 139 175 214 259 310
#     4   9  17  30  50  74  99 130 171 215 254 298
#     4   8  15  29  48  71  99 133 173 212 251 300
#     4  10  20  34  51  73 101 132 167 208 258 312
#     4  11  22  37  56  77 104 136 172 214 259 309
#     4   8  15  29  48  69  97 133 170 206 245 295
#
# _framework density 18.154160999999998
#
# number of rings (size 3 to 8) (size 9 to 14) (size 15 to 20)
#    0.000    2.833    0.000    4.000    0.000    2.333 
#    0.000    5.000    0.000    9.000    0.000    0.000 
#    0.000    0.000    0.000    0.000    0.000    0.000 
#
# Total GULP energy -297533.043245 kJ/mol
# GULP energy per Si atom -12397.210135 kJ/mol
# Density = 1.811284 g / cm^3
# Si number density = 18.154161 Si / 1000 Ang^3
#
#
#
# Elastic Constant Matrix: (Units=GPa)
#
#
# Indices 1 2 3 4 5 6 
#
# 1 139.8782 37.7424 119.6205 0.0000 5.8080 0.0000
# 2 37.7424 58.3452 35.2427 0.0000 1.8986 0.0000
# 3 119.6205 35.2427 141.4518 0.0000 5.8253 0.0000
# 4 0.0000 0.0000 0.0000 22.8965 0.0000 -6.1910
# 5 5.8080 1.8986 5.8253 0.0000 46.6358 0.0000
# 6 0.0000 0.0000 0.0000 -6.1910 0.0000 25.8152
#
#
#
# Elastic Compliance Matrix: (Units=1/GPa)
#
#
# Indices 1 2 3 4 5 6 
#
# 1 0.026714 -0.004275 -0.021507 0.000000 -0.000467 0.000000
# 2 -0.004275 0.020861 -0.001578 0.000000 -0.000120 0.000000
# 3 -0.021507 -0.001578 0.025669 0.000000 -0.000464 0.000000
# 4 0.000000 0.000000 0.000000 0.046703 0.000000 0.011200
# 5 -0.000467 -0.000120 -0.000464 0.000000 0.021564 0.000000
# 6 0.000000 0.000000 0.000000 0.011200 0.000000 0.041423
#
#
# Mechanical properties :
#
#
# Convention : Reuss Voigt Hill
#
# Bulk Modulus (GPa) = 53.97744 80.54294 67.26019
# Shear Modulus (GPa) = 20.50627 28.87414 24.69021
#
# Velocity S-wave (km/s) = 3.36454 3.99243 3.69186
# Velocity P-wave (km/s) = 6.70007 8.10648 7.43660
#
# Compressibility (1/GPa) = 0.01852626
#
# Stress axis : x y z
#
# Youngs Moduli (GPa) = 37.43383 47.93521 38.95735
#
# Poissons Ratio (x) = 0.20491 0.83784
# Poissons Ratio (y) = 0.16002 0.06147
# Poissons Ratio (z) = 0.80508 0.07563
#
# Static dielectric constant tensor:
#      x y z
#    x 3.951670 0.000000 -0.049450 
#    y 0.000000 3.022290 0.000000 
#    z -0.049450 0.000000 3.564550 
# 
# 
# High freq. dielectric constant tensor:
#      x y z
#    x 1.709140 0.000000 0.002210 
#    y 0.000000 1.672980 0.000000 
#    z 0.002210 0.000000 1.709950 
# 
# From -- ./inp_files/229887.got.cif
#   From: 2010.06.25/outbox.cif.g09.slc.cpg/sg12_115_cif.got.tgz:229887.got - 2010.06.28 00:19:55.
