data_PCOD8096351
_publ_section_title
;
Structure prediction by ZEFSAII (Michael W. Deem and Ramdas Pophale) SiO2 
 PCOD8096351
Probable space group: C 2/M
;
_chemical_formula_sum "Si O2"
_cell_formula_units_Z 56
_cell_length_a 19.044411
_cell_length_b 9.157132
_cell_length_c 19.561245
_cell_angle_alpha 90.000000
_cell_angle_beta 114.750230
_cell_angle_gamma 90.000000
_cell_volume 3097.968744
_symmetry_space_group_name_H-M "C 2/M"
_symmetry_group_IT_number 12
_symmetry_cell_setting 'monoclinic'
loop_
_space_group_symop_operation_xyz
x,y,z
-x,y,-z
-x,-y,-z
x,-y,z
1/2+x,1/2+y,z
1/2-x,1/2+y,-z
1/2-x,1/2-y,-z
1/2+x,1/2-y,z
loop_
_atom_site_type_symbol
_atom_site_label
_atom_site_fract_x
_atom_site_fract_y
_atom_site_fract_z
Si Si1 0.495487 0.169118 0.701184
Si Si2 0.919180 0.169932 0.000495
Si Si3 0.099913 0.165422 0.847197
Si Si4 0.563900 0.167225 0.581472
Si Si5 0.191524 0.169681 0.563832
Si Si6 0.845106 0.829485 0.604972
Si Si7 0.770214 0.331489 0.939423
O O1 0.552570 0.220288 0.783567
O O2 0.533910 0.198957 0.644294
O O3 0.417053 0.259972 0.673315
O O4 0.475982 0.000000 0.703805
O O5 0.918126 0.201512 0.080967
O O6 0.906692 0.000000 0.979387
O O7 0.846291 0.256480 0.936495
O O8 0.000000 0.224383 0.000000
O O9 0.190835 0.182101 0.863472
O O10 0.073120 0.000000 0.820421
O O11 0.500000 0.208600 0.500000
O O12 0.635178 0.275793 0.600137
O O13 0.590639 0.000000 0.582716
O O14 0.152207 0.204672 0.474759
O O15 0.269659 0.257991 0.606345
O O16 0.209699 0.000000 0.579659
O O17 0.843653 0.000000 0.619557
O O18 0.789597 0.500000 0.962257
O O19 0.750000 0.250000 0.000000
#
# Coordination Sequence:
#
# PCOD8096351 Si02
#       7
#     8   8   8   8   8   8   8
#     4  11  22  35  54  78 105 141 181 220 266 318
#     4   9  18  34  57  84 111 141 177 215 257 308
#     4   9  19  35  53  76 108 143 176 216 266 314
#     4  10  20  35  53  74 103 136 175 224 268 311
#     4  10  20  33  53  78 101 129 173 222 268 320
#     4  10  20  34  53  75 103 137 171 215 270 321
#     4   9  17  31  53  79 107 140 176 213 255 305
#
# _framework density 18.076360999999999
#
# number of rings (size 3 to 8) (size 9 to 14) (size 15 to 20)
#    0.000    2.286    1.429    2.571    0.000    5.714 
#    0.000    1.429    0.000    5.143    0.000    0.000 
#    0.000    0.000    0.000    0.000    0.000    0.000 
#
# Total GULP energy -347159.467696 kJ/mol
# GULP energy per Si atom -12398.552418 kJ/mol
# Density = 1.803522 g / cm^3
# Si number density = 18.076361 Si / 1000 Ang^3
#
#
#
# Elastic Constant Matrix: (Units=GPa)
#
#
# Indices 1 2 3 4 5 6 
#
# 1 122.8878 62.3912 42.4271 0.0000 21.1315 0.0000
# 2 62.3912 96.3535 43.0644 0.0000 16.8628 0.0000
# 3 42.4271 43.0644 70.3412 0.0000 16.7053 0.0000
# 4 0.0000 0.0000 0.0000 29.8479 0.0000 6.5972
# 5 21.1315 16.8628 16.7053 0.0000 23.6624 0.0000
# 6 0.0000 0.0000 0.0000 6.5972 0.0000 37.4803
#
#
#
# Elastic Compliance Matrix: (Units=1/GPa)
#
#
# Indices 1 2 3 4 5 6 
#
# 1 0.013277 -0.006406 -0.002829 0.000000 -0.005295 0.000000
# 2 -0.006406 0.017851 -0.006490 0.000000 -0.002418 0.000000
# 3 -0.002829 -0.006490 0.021863 0.000000 -0.008284 0.000000
# 4 0.000000 0.000000 0.000000 0.034859 0.000000 -0.006136
# 5 -0.005295 -0.002418 -0.008284 0.000000 0.054561 0.000000
# 6 0.000000 0.000000 0.000000 -0.006136 0.000000 0.027761
#
#
# Mechanical properties :
#
#
# Convention : Reuss Voigt Hill
#
# Bulk Modulus (GPa) = 46.42423 65.03865 55.73144
# Shear Modulus (GPa) = 23.94602 27.64477 25.79540
#
# Velocity S-wave (km/s) = 3.64361 3.91491 3.78170
# Velocity P-wave (km/s) = 6.59085 7.51621 7.06869
#
# Compressibility (1/GPa) = 0.02154048
#
# Stress axis : x y z
#
# Youngs Moduli (GPa) = 75.31743 56.02036 45.73855
#
# Poissons Ratio (x) = 0.35889 0.12938
# Poissons Ratio (y) = 0.48251 0.29685
# Poissons Ratio (z) = 0.21305 0.36359
#
# Static dielectric constant tensor:
#      x y z
#    x 3.516700 0.000000 0.241240 
#    y 0.000000 3.410700 0.000000 
#    z 0.241240 0.000000 3.057550 
# 
# 
# High freq. dielectric constant tensor:
#      x y z
#    x 1.703260 0.000000 0.019670 
#    y 0.000000 1.710710 0.000000 
#    z 0.019670 0.000000 1.670490 
# 
# From -- ./inp_files/313805.got.cif
#   From: 2010.06.25/outbox.cif.g09.slc.cpg/sg12_157_cif.got.tgz:313805.got - 2010.06.28 00:19:55.
