data_PCOD8096442
_publ_section_title
;
Structure prediction by ZEFSAII (Michael W. Deem and Ramdas Pophale) SiO2 
 PCOD8096442
Probable space group: C 2/M
;
_chemical_formula_sum "Si O2"
_cell_formula_units_Z 48
_cell_length_a 24.262241
_cell_length_b 10.492640
_cell_length_c 9.951234
_cell_angle_alpha 90.000000
_cell_angle_beta 92.109707
_cell_angle_gamma 90.000000
_cell_volume 2531.617834
_symmetry_space_group_name_H-M "C 2/M"
_symmetry_group_IT_number 12
_symmetry_cell_setting 'monoclinic'
loop_
_space_group_symop_operation_xyz
x,y,z
-x,y,-z
-x,-y,-z
x,-y,z
1/2+x,1/2+y,z
1/2-x,1/2+y,-z
1/2-x,1/2-y,-z
1/2+x,1/2-y,z
loop_
_atom_site_type_symbol
_atom_site_label
_atom_site_fract_x
_atom_site_fract_y
_atom_site_fract_z
Si Si1 0.075933 0.144900 0.391915
Si Si2 0.290897 0.863238 0.382310
Si Si3 0.878292 0.648769 0.186582
Si Si4 0.547055 0.352667 0.693152
Si Si5 0.292447 0.141327 0.958416
Si Si6 0.817459 0.288337 0.664563
O O1 0.069849 0.181030 0.547577
O O2 0.121862 0.228829 0.322541
O O3 0.018629 0.165435 0.309555
O O4 0.095316 0.000000 0.382164
O O5 0.334778 0.791414 0.291321
O O6 0.228977 0.815037 0.371475
O O7 0.313748 0.880475 0.535734
O O8 0.287875 0.000000 0.312516
O O9 0.896138 0.500000 0.216159
O O10 0.929310 0.747817 0.199942
O O11 0.850768 0.661614 0.037852
O O12 0.562033 0.500000 0.733112
O O13 0.304260 0.141407 0.801249
O O14 0.268640 0.000000 0.991400
O O15 0.250000 0.250000 0.000000
#
# Coordination Sequence:
#
# PCOD8096442 Si02
#       6
#     8   8   8   8   8   8
#     4   9  18  33  58  85 115 145 186 238 284 327
#     4  10  20  33  53  82 114 142 182 234 280 332
#     4  10  20  38  56  80 114 149 185 229 282 335
#     4   9  18  36  58  86 113 146 190 234 279 332
#     4  11  24  40  57  81 117 155 188 228 278 340
#     4  11  20  35  56  83 112 147 188 230 281 332
#
# _framework density 18.960208000000002
#
# number of rings (size 3 to 8) (size 9 to 14) (size 15 to 20)
#    0.000    2.000    3.333    2.000    0.000    1.333 
#    0.000    4.167    0.000    4.000    0.000    0.000 
#    0.000    0.000    0.000    0.000    0.000    0.000 
#
# Total GULP energy -297372.432497 kJ/mol
# GULP energy per Si atom -12390.518021 kJ/mol
# Density = 1.891705 g / cm^3
# Si number density = 18.960208 Si / 1000 Ang^3
#
#
#
# Elastic Constant Matrix: (Units=GPa)
#
#
# Indices 1 2 3 4 5 6 
#
# 1 86.4886 48.7892 20.5373 0.0000 11.1644 0.0000
# 2 48.7892 106.7913 25.7549 0.0000 18.4195 0.0000
# 3 20.5373 25.7549 102.2588 0.0000 10.5481 0.0000
# 4 0.0000 0.0000 0.0000 21.0872 0.0000 -0.7410
# 5 11.1644 18.4195 10.5481 0.0000 26.7324 0.0000
# 6 0.0000 0.0000 0.0000 -0.7410 0.0000 18.7809
#
#
#
# Elastic Compliance Matrix: (Units=1/GPa)
#
#
# Indices 1 2 3 4 5 6 
#
# 1 0.015825 -0.006646 -0.001350 0.000000 -0.001497 0.000000
# 2 -0.006646 0.013827 -0.001513 0.000000 -0.006155 0.000000
# 3 -0.001350 -0.001513 0.010701 0.000000 -0.002616 0.000000
# 4 0.000000 0.000000 0.000000 0.047488 0.000000 0.001874
# 5 -0.001497 -0.006155 -0.002616 0.000000 0.043306 0.000000
# 6 0.000000 0.000000 0.000000 0.001874 0.000000 0.053319
#
#
# Mechanical properties :
#
#
# Convention : Reuss Voigt Hill
#
# Bulk Modulus (GPa) = 46.87063 53.96684 50.41873
# Shear Modulus (GPa) = 23.74209 26.68391 25.21300
#
# Velocity S-wave (km/s) = 3.54249 3.75555 3.65058
# Velocity P-wave (km/s) = 6.44256 6.87972 6.66472
#
# Compressibility (1/GPa) = 0.02133532
#
# Stress axis : x y z
#
# Youngs Moduli (GPa) = 63.19020 72.32292 93.44823
#
# Poissons Ratio (x) = 0.48067 0.12615
# Poissons Ratio (y) = 0.41998 0.14137
# Poissons Ratio (z) = 0.08530 0.10941
#
# Static dielectric constant tensor:
#      x y z
#    x 3.348260 0.000000 0.052820 
#    y 0.000000 3.420740 0.000000 
#    z 0.052820 0.000000 3.490140 
# 
# 
# High freq. dielectric constant tensor:
#      x y z
#    x 1.725980 0.000000 0.008500 
#    y 0.000000 1.734000 0.000000 
#    z 0.008500 0.000000 1.728840 
# 
# From -- ./inp_files/94517.got.cif
#   From: 2010.06.25/outbox.cif.g09.slc.cpg/sg12_48_cif.got.tgz:94517.got - 2010.06.28 00:19:55.
