data_PCOD8096998
_publ_section_title
;
Structure prediction by ZEFSAII (Michael W. Deem and Ramdas Pophale) SiO2 
 PCOD8096998
Probable space group: C 2/M
;
_chemical_formula_sum "Si O2"
_cell_formula_units_Z 56
_cell_length_a 18.179189
_cell_length_b 9.100019
_cell_length_c 25.477840
_cell_angle_alpha 90.000000
_cell_angle_beta 44.450573
_cell_angle_gamma 90.000000
_cell_volume 2951.614494
_symmetry_space_group_name_H-M "C 2/M"
_symmetry_group_IT_number 12
_symmetry_cell_setting 'monoclinic'
loop_
_space_group_symop_operation_xyz
x,y,z
-x,y,-z
-x,-y,-z
x,-y,z
1/2+x,1/2+y,z
1/2-x,1/2+y,-z
1/2-x,1/2-y,-z
1/2+x,1/2-y,z
loop_
_atom_site_type_symbol
_atom_site_label
_atom_site_fract_x
_atom_site_fract_y
_atom_site_fract_z
Si Si1 0.307321 0.824907 0.274537
Si Si2 0.403599 0.668515 0.421410
Si Si3 0.461343 0.174281 0.867991
Si Si4 0.188795 0.325431 0.148621
Si Si5 0.863456 0.170594 0.720446
Si Si6 0.400709 0.828657 0.014003
Si Si7 0.233708 0.327179 0.589183
O O1 0.423390 0.761734 0.203756
O O2 0.228564 0.767456 0.269865
O O3 0.267428 0.764805 0.351067
O O4 0.307090 0.000000 0.274465
O O5 0.376823 0.500000 0.422575
O O6 0.527388 0.692609 0.366286
O O7 0.343436 0.717485 0.505321
O O8 0.364630 0.761730 0.391932
O O9 0.378194 0.229825 0.867281
O O10 0.468068 0.000000 0.864951
O O11 0.425041 0.231198 0.943358
O O12 0.193169 0.500000 0.148958
O O13 0.132233 0.264687 0.228989
O O14 0.305340 0.262268 0.086314
O O15 0.844973 0.000000 0.744231
O O16 0.370499 0.000000 0.028890
O O17 0.500000 0.799048 0.000000
O O18 0.216853 0.500000 0.598917
#
# Coordination Sequence:
#
# PCOD8096998 Si02
#       7
#     8   8   8   8   8   8   8
#     4   9  17  31  52  75  99 131 172 213 250 293
#     4   9  18  31  49  76 105 133 169 211 253 300
#     4   9  18  32  51  76 102 131 169 207 246 297
#     4  11  22  35  53  77 105 134 167 208 252 300
#     4  10  20  34  52  74 102 135 172 213 254 298
#     4  10  20  36  58  79 102 134 169 205 248 298
#     4   9  17  31  52  75 101 135 171 208 253 302
#
# _framework density 18.972667000000001
#
# number of rings (size 3 to 8) (size 9 to 14) (size 15 to 20)
#    0.000    2.429    0.000    2.571    0.000    4.857 
#    0.000    4.286    0.000    4.286    0.000    5.000 
#    0.000    0.000    0.000    0.000    0.000    0.000 
#
# Total GULP energy -347232.975950 kJ/mol
# GULP energy per Si atom -12401.177712 kJ/mol
# Density = 1.892948 g / cm^3
# Si number density = 18.972667 Si / 1000 Ang^3
#
#
#
# Elastic Constant Matrix: (Units=GPa)
#
#
# Indices 1 2 3 4 5 6 
#
# 1 103.2159 26.5014 42.3929 0.0000 -1.7946 0.0000
# 2 26.5014 32.5428 24.4755 0.0000 -3.4813 -0.0001
# 3 42.3929 24.4755 108.8301 0.0000 -2.9956 0.0000
# 4 0.0000 0.0000 0.0000 20.4409 0.0000 2.6005
# 5 -1.7946 -3.4813 -2.9956 0.0000 37.4158 0.0000
# 6 0.0000 -0.0001 0.0000 2.6005 0.0000 23.4299
#
#
#
# Elastic Compliance Matrix: (Units=1/GPa)
#
#
# Indices 1 2 3 4 5 6 
#
# 1 0.013154 -0.008297 -0.003269 0.000000 -0.000403 0.000000
# 2 -0.008297 0.042508 -0.006244 0.000000 0.003057 0.000000
# 3 -0.003269 -0.006244 0.011872 0.000000 0.000213 0.000000
# 4 0.000000 0.000000 0.000000 0.049622 0.000000 -0.005508
# 5 -0.000403 0.003057 0.000213 0.000000 0.027009 0.000000
# 6 0.000000 0.000000 0.000000 -0.005508 0.000000 0.043292
#
#
# Mechanical properties :
#
#
# Convention : Reuss Voigt Hill
#
# Bulk Modulus (GPa) = 31.33304 47.92536 39.62920
# Shear Modulus (GPa) = 21.39346 26.33859 23.86603
#
# Velocity S-wave (km/s) = 3.36161 3.72995 3.55056
# Velocity P-wave (km/s) = 5.62298 6.62307 6.14341
#
# Compressibility (1/GPa) = 0.03191520
#
# Stress axis : x y z
#
# Youngs Moduli (GPa) = 76.02016 23.52476 84.23017
#
# Poissons Ratio (x) = 0.19518 0.27537
# Poissons Ratio (y) = 0.63071 0.52593
# Poissons Ratio (z) = 0.24853 0.14689
#
# Static dielectric constant tensor:
#      x y z
#    x 3.593530 0.000000 0.066710 
#    y 0.000000 3.133790 0.000000 
#    z 0.066710 0.000000 3.687110 
# 
# 
# High freq. dielectric constant tensor:
#      x y z
#    x 1.742020 0.000000 0.000480 
#    y 0.000000 1.698370 0.000000 
#    z 0.000480 0.000000 1.754870 
# 
# From -- ./inp_files/362960.got.cif
#   From: 2010.06.25/outbox.cif.g09.slc.cpg/sg12_182_cif.got.tgz:362960.got - 2010.06.28 00:19:55.
