data_PCOD8096665
_publ_section_title
;
Structure prediction by ZEFSAII (Michael W. Deem and Ramdas Pophale) SiO2 
 PCOD8096665
Probable space group: C 2/M
;
_chemical_formula_sum "Si O2"
_cell_formula_units_Z 56
_cell_length_a 12.091059
_cell_length_b 14.241505
_cell_length_c 16.815444
_cell_angle_alpha 90.000000
_cell_angle_beta 121.188580
_cell_angle_gamma 90.000000
_cell_volume 2477.034630
_symmetry_space_group_name_H-M "C 2/M"
_symmetry_group_IT_number 12
_symmetry_cell_setting 'monoclinic'
loop_
_space_group_symop_operation_xyz
x,y,z
-x,y,-z
-x,-y,-z
x,-y,z
1/2+x,1/2+y,z
1/2-x,1/2+y,-z
1/2-x,1/2-y,-z
1/2+x,1/2-y,z
loop_
_atom_site_type_symbol
_atom_site_label
_atom_site_fract_x
_atom_site_fract_y
_atom_site_fract_z
Si Si1 0.875839 0.389595 0.997797
Si Si2 0.201398 0.836599 0.532663
Si Si3 0.394059 0.390112 0.184208
Si Si4 0.942858 0.801548 0.369783
Si Si5 0.026362 0.398586 0.367736
Si Si6 0.843636 0.392675 0.159334
Si Si7 0.569357 0.388569 0.105163
O O1 0.898972 0.500000 0.015943
O O2 0.748073 0.368476 0.900473
O O3 0.863775 0.343083 0.081245
O O4 0.000000 0.344244 0.000000
O O5 0.250000 0.750000 0.500000
O O6 0.178461 0.817454 0.617839
O O7 0.317996 0.910982 0.574363
O O8 0.065146 0.867204 0.441817
O O9 0.411518 0.500000 0.212154
O O10 0.409244 0.325147 0.267107
O O11 0.498620 0.353395 0.158997
O O12 0.979482 0.691673 0.399451
O O13 0.972321 0.500000 0.380172
O O14 0.973656 0.382572 0.258726
O O15 0.807243 0.500000 0.128190
O O16 0.718040 0.351530 0.159448
O O17 0.557442 0.500000 0.102311
O O18 0.500000 0.349382 0.000000
#
# Coordination Sequence:
#
# PCOD8096665 Si02
#       7
#     8   8   8   8   8   8   8
#     4   9  17  29  48  79 122 167 209 253 309 376
#     4   9  21  43  65  85 120 163 198 260 334 385
#     4  10  20  33  57  90 125 173 215 257 323 383
#     4  10  22  41  63  92 128 159 208 271 321 382
#     4  10  22  40  65  94 123 166 212 256 322 388
#     4   9  17  30  52  82 116 160 210 257 305 363
#     4   9  15  29  53  80 117 165 215 258 304 366
#
# _framework density 22.607679000000001
#
# number of rings (size 3 to 8) (size 9 to 14) (size 15 to 20)
#    0.000    2.571    1.429    0.000    2.000    3.429 
#    0.000    7.857    0.000    0.000    0.000    0.000 
#    0.000    0.000    0.000    0.000    0.000    0.000 
#
# Total GULP energy -346907.330867 kJ/mol
# GULP energy per Si atom -12389.547531 kJ/mol
# Density = 2.255622 g / cm^3
# Si number density = 22.607679 Si / 1000 Ang^3
#
#
#
# Elastic Constant Matrix: (Units=GPa)
#
#
# Indices 1 2 3 4 5 6 
#
# 1 145.1281 4.3569 44.2558 0.0000 -8.1716 0.0000
# 2 4.3569 54.6278 4.0211 0.0000 4.3232 0.0000
# 3 44.2558 4.0211 103.5449 0.0000 -2.5084 0.0000
# 4 0.0000 0.0000 0.0000 62.7114 0.0000 56.7112
# 5 -8.1716 4.3232 -2.5084 0.0000 43.9918 0.0000
# 6 0.0000 0.0000 0.0000 56.7112 0.0000 88.2857
#
#
#
# Elastic Compliance Matrix: (Units=1/GPa)
#
#
# Indices 1 2 3 4 5 6 
#
# 1 0.008009 -0.000497 -0.003371 0.000000 0.001344 0.000000
# 2 -0.000497 0.018540 -0.000555 0.000000 -0.001946 0.000000
# 3 -0.003371 -0.000555 0.011122 0.000000 0.000062 0.000000
# 4 0.000000 0.000000 0.000000 0.038048 0.000000 -0.024441
# 5 0.001344 -0.001946 0.000062 0.000000 0.023176 0.000000
# 6 0.000000 0.000000 0.000000 -0.024441 0.000000 0.027027
#
#
# Mechanical properties :
#
#
# Convention : Reuss Voigt Hill
#
# Bulk Modulus (GPa) = 34.69224 45.39649 40.04437
# Shear Modulus (GPa) = 34.63177 55.70890 45.17033
#
# Velocity S-wave (km/s) = 3.91814 4.96941 4.47476
# Velocity P-wave (km/s) = 5.98730 7.28358 6.66702
#
# Compressibility (1/GPa) = 0.02882489
#
# Stress axis : x y z
#
# Youngs Moduli (GPa) = 124.85748 53.93696 89.91499
#
# Poissons Ratio (x) = 0.02681 0.30313
# Poissons Ratio (y) = 0.06206 0.04988
# Poissons Ratio (z) = 0.42093 0.02992
#
# Static dielectric constant tensor:
#      x y z
#    x 4.390750 0.000000 0.159130 
#    y 0.000000 3.760710 0.000000 
#    z 0.159130 0.000000 4.057230 
# 
# 
# High freq. dielectric constant tensor:
#      x y z
#    x 1.894580 0.000000 0.006810 
#    y 0.000000 1.866400 0.000000 
#    z 0.006810 0.000000 1.890110 
# 
# From -- ./inp_files/263449.got.cif
#   From: 2010.06.25/outbox.cif.g09.slc.cpg/sg12_132_cif.got.tgz:263449.got - 2010.06.28 00:19:55.
