data_PCOD8096281
_publ_section_title
;
Structure prediction by ZEFSAII (Michael W. Deem and Ramdas Pophale) SiO2 
 PCOD8096281
Probable space group: C 2/M
;
_chemical_formula_sum "Si O2"
_cell_formula_units_Z 56
_cell_length_a 18.864334
_cell_length_b 8.599485
_cell_length_c 18.545869
_cell_angle_alpha 90.000000
_cell_angle_beta 111.075623
_cell_angle_gamma 90.000000
_cell_volume 2807.322951
_symmetry_space_group_name_H-M "C 2/M"
_symmetry_group_IT_number 12
_symmetry_cell_setting 'monoclinic'
loop_
_space_group_symop_operation_xyz
x,y,z
-x,y,-z
-x,-y,-z
x,-y,z
1/2+x,1/2+y,z
1/2-x,1/2+y,-z
1/2-x,1/2-y,-z
1/2+x,1/2-y,z
loop_
_atom_site_type_symbol
_atom_site_label
_atom_site_fract_x
_atom_site_fract_y
_atom_site_fract_z
Si Si1 0.825743 0.316159 0.991488
Si Si2 0.227350 0.684399 0.709419
Si Si3 0.867698 0.183924 0.853695
Si Si4 0.074220 0.314302 0.722908
Si Si5 0.463098 0.172320 0.563470
Si Si6 0.805352 0.685984 0.462059
Si Si7 0.528599 0.184159 0.864164
O O1 0.819259 0.500000 0.990212
O O2 0.834816 0.256928 0.914117
O O3 0.750000 0.250000 0.000000
O O4 0.900550 0.260875 0.061824
O O5 0.223331 0.500000 0.705253
O O6 0.309215 0.737784 0.769642
O O7 0.159243 0.746733 0.736087
O O8 0.216133 0.751950 0.624767
O O9 0.951853 0.241038 0.866206
O O10 0.868885 0.000000 0.863146
O O11 0.075180 0.500000 0.720365
O O12 0.046121 0.254556 0.790137
O O13 0.016838 0.242963 0.641747
O O14 0.500000 0.159273 0.500000
O O15 0.384140 0.259339 0.520005
O O16 0.447332 0.000000 0.588648
O O17 0.808548 0.500000 0.460334
O O18 0.750000 0.750000 0.500000
O O19 0.518284 0.000000 0.862661
#
# Coordination Sequence:
#
# PCOD8096281 Si02
#       7
#     8   8   8   8   8   8   8
#     4  11  23  41  64  89 116 148 187 231 282 338
#     4   9  18  34  53  77 111 148 186 230 283 337
#     4  11  23  38  58  84 116 155 192 230 280 337
#     4   9  16  30  53  78 106 139 182 232 278 328
#     4   9  15  27  50  80 104 133 184 235 271 317
#     4  10  20  33  52  79 110 144 183 231 284 336
#     4  10  22  38  58  85 115 147 184 233 287 336
#
# _framework density 19.947828999999999
#
# number of rings (size 3 to 8) (size 9 to 14) (size 15 to 20)
#    0.000    2.143    1.429    2.143    2.000    5.143 
#    0.000    0.714    0.000    1.286    0.000    0.000 
#    0.000    0.000    0.000    0.000    0.000    0.000 
#
# Total GULP energy -347040.595693 kJ/mol
# GULP energy per Si atom -12394.306989 kJ/mol
# Density = 1.990243 g / cm^3
# Si number density = 19.947829 Si / 1000 Ang^3
#
#
#
# Elastic Constant Matrix: (Units=GPa)
#
#
# Indices 1 2 3 4 5 6 
#
# 1 188.1709 28.1337 79.8481 0.0000 10.0775 0.0000
# 2 28.1337 26.5811 23.9649 0.0000 5.5056 0.0000
# 3 79.8481 23.9649 139.0746 0.0000 11.7958 0.0000
# 4 0.0000 0.0000 0.0000 16.5260 0.0000 -10.8601
# 5 10.0775 5.5056 11.7958 0.0000 46.3813 0.0000
# 6 0.0000 0.0000 0.0000 -10.8601 0.0000 13.9021
#
#
#
# Elastic Compliance Matrix: (Units=1/GPa)
#
#
# Indices 1 2 3 4 5 6 
#
# 1 0.007513 -0.004782 -0.003474 0.000000 -0.000181 0.000000
# 2 -0.004782 0.048118 -0.005263 0.000000 -0.003334 0.000000
# 3 -0.003474 -0.005263 0.010195 0.000000 -0.001213 0.000000
# 4 0.000000 0.000000 0.000000 0.124344 0.000000 0.097136
# 5 -0.000181 -0.003334 -0.001213 0.000000 0.022304 0.000000
# 6 0.000000 0.000000 0.000000 0.097136 0.000000 0.147813
#
#
# Mechanical properties :
#
#
# Convention : Reuss Voigt Hill
#
# Bulk Modulus (GPa) = 25.78184 68.63554 47.20869
# Shear Modulus (GPa) = 12.49202 30.15388 21.32295
#
# Velocity S-wave (km/s) = 2.50518 3.89220 3.27301
# Velocity P-wave (km/s) = 4.61743 7.39467 6.16449
#
# Compressibility (1/GPa) = 0.03878698
#
# Stress axis : x y z
#
# Youngs Moduli (GPa) = 133.09768 20.78227 98.08852
#
# Poissons Ratio (x) = 0.09939 0.34078
# Poissons Ratio (y) = 0.63652 0.51624
# Poissons Ratio (z) = 0.46241 0.10938
#
# Static dielectric constant tensor:
#      x y z
#    x 3.729960 0.000000 0.137430 
#    y 0.000000 3.189010 0.000000 
#    z 0.137430 0.000000 3.959390 
# 
# 
# High freq. dielectric constant tensor:
#      x y z
#    x 1.796100 0.000000 0.006590 
#    y 0.000000 1.726280 0.000000 
#    z 0.006590 0.000000 1.798620 
# 
# From -- ./inp_files/275611.got.cif
#   From: 2010.06.25/outbox.cif.g09.slc.cpg/sg12_138_cif.got.tgz:275611.got - 2010.06.28 00:19:55.
