data_PCOD8096095
_publ_section_title
;
Structure prediction by ZEFSAII (Michael W. Deem and Ramdas Pophale) SiO2 
 PCOD8096095
Probable space group: C 2/M
;
_chemical_formula_sum "Si O2"
_cell_formula_units_Z 48
_cell_length_a 13.242965
_cell_length_b 20.996213
_cell_length_c 15.804439
_cell_angle_alpha 90.000000
_cell_angle_beta 32.918289
_cell_angle_gamma 90.000000
_cell_volume 2388.134764
_symmetry_space_group_name_H-M "C 2/M"
_symmetry_group_IT_number 12
_symmetry_cell_setting 'monoclinic'
loop_
_space_group_symop_operation_xyz
x,y,z
-x,y,-z
-x,-y,-z
x,-y,z
1/2+x,1/2+y,z
1/2-x,1/2+y,-z
1/2-x,1/2-y,-z
1/2+x,1/2-y,z
loop_
_atom_site_type_symbol
_atom_site_label
_atom_site_fract_x
_atom_site_fract_y
_atom_site_fract_z
Si Si1 0.297419 0.072228 0.662809
Si Si2 0.462069 0.655735 0.865700
Si Si3 0.835743 0.572301 0.829440
Si Si4 0.391591 0.780757 0.155458
Si Si5 0.855478 0.664488 0.360093
Si Si6 0.019570 0.787904 0.323874
O O1 0.500000 0.101351 0.500000
O O2 0.142997 0.112406 0.722179
O O3 0.253493 0.074531 0.793191
O O4 0.288502 0.000000 0.634837
O O5 0.517860 0.711902 0.890431
O O6 0.396004 0.683043 0.821885
O O7 0.291870 0.616027 0.022207
O O8 0.835456 0.500000 0.863825
O O9 0.047841 0.598180 0.681098
O O10 0.409454 0.824784 0.224606
O O11 0.175606 0.775242 0.283876
O O12 0.500000 0.812023 0.000000
O O13 0.932563 0.719414 0.366654
O O14 0.633261 0.663543 0.529423
#
# Coordination Sequence:
#
# PCOD8096095 Si02
#       6
#     8   8   8   8   8   8
#     4  10  20  33  51  77 110 147 184 223 268 321
#     4  11  21  34  56  82 113 145 181 224 274 332
#     4  11  22  37  57  81 113 150 187 227 271 326
#     4  11  21  34  56  82 111 142 177 227 281 330
#     4  10  21  37  57  82 112 145 186 229 277 329
#     4  10  21  36  57  84 111 145 183 229 281 329
#
# _framework density 20.099367999999998
#
# number of rings (size 3 to 8) (size 9 to 14) (size 15 to 20)
#    0.000    1.500    0.000    6.500    0.000    6.667 
#    0.000    0.833    0.000    7.500    0.000    0.000 
#    0.000    0.000    0.000    0.000    0.000    0.000 
#
# Total GULP energy -297674.679649 kJ/mol
# GULP energy per Si atom -12403.111652 kJ/mol
# Density = 2.005362 g / cm^3
# Si number density = 20.099368 Si / 1000 Ang^3
#
#
#
# Elastic Constant Matrix: (Units=GPa)
#
#
# Indices 1 2 3 4 5 6 
#
# 1 65.6809 27.3502 -1.5195 -0.0392 -9.9265 0.0596
# 2 27.3502 74.3793 16.9331 -0.0069 -0.6434 0.0274
# 3 -1.5195 16.9331 76.9212 -0.0579 -6.1236 0.0591
# 4 -0.0392 -0.0069 -0.0579 31.7454 -0.0077 -7.1760
# 5 -9.9265 -0.6434 -6.1236 -0.0077 26.9446 -0.0068
# 6 0.0596 0.0274 0.0591 -7.1760 -0.0068 20.2617
#
#
#
# Elastic Compliance Matrix: (Units=1/GPa)
#
#
# Indices 1 2 3 4 5 6 
#
# 1 0.019695 -0.007794 0.002717 0.000019 0.007687 -0.000046
# 2 -0.007794 0.017242 -0.004222 -0.000013 -0.003419 0.000006
# 3 0.002717 -0.004222 0.014314 0.000022 0.004153 -0.000035
# 4 0.000019 -0.000013 0.000022 0.034242 0.000024 0.012127
# 5 0.007687 -0.003419 0.004153 0.000024 0.040807 -0.000008
# 6 -0.000046 0.000006 -0.000035 0.012127 -0.000008 0.053650
#
#
# Mechanical properties :
#
#
# Convention : Reuss Voigt Hill
#
# Bulk Modulus (GPa) = 30.62480 33.61211 32.11846
# Shear Modulus (GPa) = 23.87395 27.40486 25.63940
#
# Velocity S-wave (km/s) = 3.45018 3.69652 3.57547
# Velocity P-wave (km/s) = 5.58045 5.91425 5.74977
#
# Compressibility (1/GPa) = 0.03265327
#
# Stress axis : x y z
#
# Youngs Moduli (GPa) = 50.77326 57.99732 69.86159
#
# Poissons Ratio (x) = 0.45205 -0.18980
# Poissons Ratio (y) = 0.39574 0.29494
# Poissons Ratio (z) = -0.13794 0.24485
#
# Static dielectric constant tensor:
#      x y z
#    x 3.566600 -0.000060 -0.063600 
#    y -0.000060 3.498690 0.000100 
#    z -0.063600 0.000100 3.771460 
# 
# 
# High freq. dielectric constant tensor:
#      x y z
#    x 1.778080 -0.000010 -0.000480 
#    y -0.000010 1.756490 0.000010 
#    z -0.000480 0.000010 1.803110 
# 
# From -- ./inp_files/50647.got.cif
#   From: 2010.06.25/outbox.cif.g09.slc.cpg/sg12_26_cif.got.tgz:50647.got - 2010.06.28 00:19:55.
