data_PCOD8096363
_publ_section_title
;
Structure prediction by ZEFSAII (Michael W. Deem and Ramdas Pophale) SiO2 
 PCOD8096363
Probable space group: C 2/M
;
_chemical_formula_sum "Si O2"
_cell_formula_units_Z 64
_cell_length_a 24.901179
_cell_length_b 9.094463
_cell_length_c 22.767641
_cell_angle_alpha 90.000000
_cell_angle_beta 43.820472
_cell_angle_gamma 90.000000
_cell_volume 3570.036881
_symmetry_space_group_name_H-M "C 2/M"
_symmetry_group_IT_number 12
_symmetry_cell_setting 'monoclinic'
loop_
_space_group_symop_operation_xyz
x,y,z
-x,y,-z
-x,-y,-z
x,-y,z
1/2+x,1/2+y,z
1/2-x,1/2+y,-z
1/2-x,1/2-y,-z
1/2+x,1/2-y,z
loop_
_atom_site_type_symbol
_atom_site_label
_atom_site_fract_x
_atom_site_fract_y
_atom_site_fract_z
Si Si1 0.022405 0.330410 0.723726
Si Si2 0.551961 0.670569 0.320521
Si Si3 0.821286 0.332402 0.470791
Si Si4 0.677689 0.331405 0.312014
Si Si5 0.976626 0.173314 0.153217
Si Si6 0.572408 0.834569 0.985762
Si Si7 0.898733 0.167615 0.507760
Si Si8 0.335299 0.672538 0.180484
O O1 0.003323 0.500000 0.752215
O O2 0.105640 0.310191 0.628863
O O3 0.024253 0.238558 0.781499
O O4 0.957147 0.267144 0.731070
O O5 0.546794 0.500000 0.306794
O O6 0.634840 0.707287 0.284643
O O7 0.486012 0.710323 0.420544
O O8 0.797837 0.500000 0.497096
O O9 0.750000 0.250000 0.500000
O O10 0.837588 0.268451 0.522053
O O11 0.706762 0.500000 0.288943
O O12 0.613916 0.306795 0.413247
O O13 0.750477 0.226475 0.266147
O O14 0.895784 0.212250 0.184530
O O15 0.989949 0.000000 0.145456
O O16 0.049406 0.244875 0.061998
O O17 0.642831 0.753206 0.897526
O O18 0.597985 0.000000 0.982689
O O19 0.500000 0.837939 0.000000
O O20 0.881273 0.000000 0.503821
O O21 0.334690 0.500000 0.168790
#
# Coordination Sequence:
#
# PCOD8096363 Si02
#       8
#     8   8   8   8   8   8   8   8
#     4  10  21  35  52  75 101 134 176 218 257 306
#     4   9  18  35  55  74 100 136 178 220 263 308
#     4  10  21  34  48  69 101 138 173 213 261 308
#     4  10  20  33  53  78 104 136 175 219 262 309
#     4  10  20  34  54  79 107 139 172 209 253 310
#     4   9  17  32  54  78 105 137 169 207 254 307
#     4   9  18  33  52  74  99 133 176 219 261 307
#     4  10  21  34  50  78 111 140 170 209 258 309
#
# _framework density 17.926985999999999
#
# number of rings (size 3 to 8) (size 9 to 14) (size 15 to 20)
#    0.000    2.375    0.000    2.250    1.750    7.000 
#    0.000    0.000    0.000    4.500    0.000    0.000 
#    0.000    0.000    0.000    0.000    0.000    0.000 
#
# Total GULP energy -396827.233799 kJ/mol
# GULP energy per Si atom -12400.851056 kJ/mol
# Density = 1.788618 g / cm^3
# Si number density = 17.926986 Si / 1000 Ang^3
#
#
#
# Elastic Constant Matrix: (Units=GPa)
#
#
# Indices 1 2 3 4 5 6 
#
# 1 84.2517 48.3227 39.1332 -0.0025 15.9687 0.0039
# 2 48.3227 105.2412 44.4023 -0.0005 14.3003 0.0054
# 3 39.1332 44.4023 62.4067 0.0004 7.4524 0.0017
# 4 -0.0025 -0.0005 0.0004 32.4368 -0.0001 1.2925
# 5 15.9687 14.3003 7.4524 -0.0001 18.8119 -0.0010
# 6 0.0039 0.0054 0.0017 1.2925 -0.0010 27.9815
#
#
#
# Elastic Compliance Matrix: (Units=1/GPa)
#
#
# Indices 1 2 3 4 5 6 
#
# 1 0.020234 -0.004334 -0.008341 0.000002 -0.010577 -0.000002
# 2 -0.004334 0.015394 -0.007638 0.000000 -0.004997 -0.000002
# 3 -0.008341 -0.007638 0.026399 -0.000001 0.002429 0.000001
# 4 0.000002 0.000000 -0.000001 0.030886 -0.000001 -0.001427
# 5 -0.010577 -0.004997 0.002429 -0.000001 0.064972 0.000005
# 6 -0.000002 -0.000002 0.000001 -0.001427 0.000005 0.035804
#
#
# Mechanical properties :
#
#
# Convention : Reuss Voigt Hill
#
# Bulk Modulus (GPa) = 46.72999 57.29065 52.01032
# Shear Modulus (GPa) = 20.70830 23.84878 22.27854
#
# Velocity S-wave (km/s) = 3.40243 3.65132 3.52907
# Velocity P-wave (km/s) = 6.44661 7.05715 6.75878
#
# Compressibility (1/GPa) = 0.02139953
#
# Stress axis : x y z
#
# Youngs Moduli (GPa) = 49.42132 64.96197 37.88047
#
# Poissons Ratio (x) = 0.28157 0.31597
# Poissons Ratio (y) = 0.21421 0.28933
# Poissons Ratio (z) = 0.41224 0.49618
#
# Static dielectric constant tensor:
#      x y z
#    x 2.404740 0.000000 0.061730 
#    y 0.000000 3.438630 0.000000 
#    z 0.061730 0.000000 3.264490 
# 
# 
# High freq. dielectric constant tensor:
#      x y z
#    x 1.677850 0.000000 0.007770 
#    y 0.000000 1.702990 0.000000 
#    z 0.007770 0.000000 1.683140 
# 
# From -- ./inp_files/324190.got.cif
#   From: 2010.06.25/outbox.cif.g09.slc.cpg/sg12_163_cif.got.tgz:324190.got - 2010.06.28 00:19:55.
