data_PCOD8096833
_publ_section_title
;
Structure prediction by ZEFSAII (Michael W. Deem and Ramdas Pophale) SiO2 
 PCOD8096833
Probable space group: C 2/M
;
_chemical_formula_sum "Si O2"
_cell_formula_units_Z 64
_cell_length_a 14.050942
_cell_length_b 9.153519
_cell_length_c 28.620599
_cell_angle_alpha 90.000000
_cell_angle_beta 75.937603
_cell_angle_gamma 90.000000
_cell_volume 3570.739516
_symmetry_space_group_name_H-M "C 2/M"
_symmetry_group_IT_number 12
_symmetry_cell_setting 'monoclinic'
loop_
_space_group_symop_operation_xyz
x,y,z
-x,y,-z
-x,-y,-z
x,-y,z
1/2+x,1/2+y,z
1/2-x,1/2+y,-z
1/2-x,1/2-y,-z
1/2+x,1/2-y,z
loop_
_atom_site_type_symbol
_atom_site_label
_atom_site_fract_x
_atom_site_fract_y
_atom_site_fract_z
Si Si1 0.951616 0.170218 0.553098
Si Si2 0.661310 0.330533 0.199640
Si Si3 0.559347 0.670527 0.635018
Si Si4 0.218664 0.330351 0.381007
Si Si5 0.849795 0.668518 0.116128
Si Si6 0.254595 0.830403 0.950665
Si Si7 0.388111 0.829020 0.701710
Si Si8 0.557056 0.168873 0.132696
O O1 0.847682 0.247830 0.573277
O O2 0.000000 0.231735 0.500000
O O3 0.025680 0.204991 0.586435
O O4 0.929364 0.000000 0.551117
O O5 0.638274 0.500000 0.210615
O O6 0.768330 0.304987 0.165235
O O7 0.661487 0.246342 0.248229
O O8 0.578108 0.265711 0.175661
O O9 0.548507 0.500000 0.648437
O O10 0.670412 0.725372 0.627127
O O11 0.494905 0.760835 0.679563
O O12 0.210623 0.500000 0.393763
O O13 0.183196 0.295299 0.333037
O O14 0.852628 0.500000 0.099996
O O15 0.828435 0.765340 0.073291
O O16 0.953327 0.719564 0.124498
O O17 0.361747 0.803036 0.916443
O O18 0.232257 0.000000 0.960791
O O19 0.250000 0.750000 0.000000
O O20 0.400392 0.000000 0.709607
O O21 0.555196 0.000000 0.148403
#
# Coordination Sequence:
#
# PCOD8096833 Si02
#       8
#     8   8   8   8   8   8   8   8
#     4   9  18  32  50  73 101 132 165 203 248 298
#     4  10  20  34  53  76 101 129 162 203 249 295
#     4   9  18  34  52  71  99 131 165 205 248 294
#     4   9  19  34  51  72  98 130 166 206 249 292
#     4   9  19  36  55  75 101 132 168 207 248 296
#     4  10  20  34  53  76 104 136 170 209 252 297
#     4  10  20  34  51  72  99 129 164 203 244 294
#     4   9  19  36  55  75 101 134 169 206 248 295
#
# _framework density 17.923459000000001
#
# number of rings (size 3 to 8) (size 9 to 14) (size 15 to 20)
#    0.000    2.625    0.000    1.125    0.000    4.750 
#    0.000    5.000    0.000    0.000    0.000    0.000 
#    0.000    0.000    0.000    0.000    0.000    0.000 
#
# Total GULP energy -396924.141724 kJ/mol
# GULP energy per Si atom -12403.879429 kJ/mol
# Density = 1.788266 g / cm^3
# Si number density = 17.923459 Si / 1000 Ang^3
#
#
#
# Elastic Constant Matrix: (Units=GPa)
#
#
# Indices 1 2 3 4 5 6 
#
# 1 125.7971 37.6814 29.9871 0.0000 3.4818 0.0000
# 2 37.6814 74.7510 47.1267 0.0000 0.7941 0.0000
# 3 29.9871 47.1267 96.3721 0.0000 -0.6835 0.0000
# 4 0.0000 0.0000 0.0000 34.7355 0.0000 -1.8460
# 5 3.4818 0.7941 -0.6835 0.0000 13.5503 0.0000
# 6 0.0000 0.0000 0.0000 -1.8460 0.0000 28.2997
#
#
#
# Elastic Compliance Matrix: (Units=1/GPa)
#
#
# Indices 1 2 3 4 5 6 
#
# 1 0.009482 -0.004172 -0.000926 0.000000 -0.002239 0.000000
# 2 -0.004172 0.021211 -0.009079 0.000000 -0.000629 0.000000
# 3 -0.000926 -0.009079 0.015115 0.000000 0.001532 0.000000
# 4 0.000000 0.000000 0.000000 0.028889 0.000000 0.001884
# 5 -0.002239 -0.000629 0.001532 0.000000 0.074488 0.000000
# 6 0.000000 0.000000 0.000000 0.001884 0.000000 0.035459
#
#
# Mechanical properties :
#
#
# Convention : Reuss Voigt Hill
#
# Bulk Modulus (GPa) = 57.29244 58.50116 57.89680
# Shear Modulus (GPa) = 22.85022 27.45876 25.15449
#
# Velocity S-wave (km/s) = 3.57442 3.91832 3.75031
# Velocity P-wave (km/s) = 7.00498 7.29255 7.15021
#
# Compressibility (1/GPa) = 0.01745431
#
# Stress axis : x y z
#
# Youngs Moduli (GPa) = 105.46613 47.14490 66.15937
#
# Poissons Ratio (x) = 0.19669 0.06127
# Poissons Ratio (y) = 0.44001 0.60064
# Poissons Ratio (z) = 0.09766 0.42802
#
# Static dielectric constant tensor:
#      x y z
#    x 3.389230 0.000000 -0.012170 
#    y 0.000000 3.345320 0.000000 
#    z -0.012170 0.000000 3.295740 
# 
# 
# High freq. dielectric constant tensor:
#      x y z
#    x 1.694790 0.000000 -0.000430 
#    y 0.000000 1.696590 0.000000 
#    z -0.000430 0.000000 1.694460 
# 
# From -- ./inp_files/359821.got.cif
#   From: 2010.06.25/outbox.cif.g09.slc.cpg/sg12_180_cif.got.tgz:359821.got - 2010.06.28 00:19:55.
