data_PCOD8096278
_publ_section_title
;
Structure prediction by ZEFSAII (Michael W. Deem and Ramdas Pophale) SiO2 
 PCOD8096278
Probable space group: C 2/M
;
_chemical_formula_sum "Si O2"
_cell_formula_units_Z 64
_cell_length_a 19.022720
_cell_length_b 9.202453
_cell_length_c 33.864024
_cell_angle_alpha 90.000000
_cell_angle_beta 145.150332
_cell_angle_gamma 90.000000
_cell_volume 3387.459899
_symmetry_space_group_name_H-M "C 2/M"
_symmetry_group_IT_number 12
_symmetry_cell_setting 'monoclinic'
loop_
_space_group_symop_operation_xyz
x,y,z
-x,y,-z
-x,-y,-z
x,-y,z
1/2+x,1/2+y,z
1/2-x,1/2+y,-z
1/2-x,1/2-y,-z
1/2+x,1/2-y,z
loop_
_atom_site_type_symbol
_atom_site_label
_atom_site_fract_x
_atom_site_fract_y
_atom_site_fract_z
Si Si1 0.777141 0.668564 0.194311
Si Si2 0.357460 0.670385 0.722551
Si Si3 0.480914 0.337532 0.554678
Si Si4 0.039634 0.335661 0.060310
Si Si5 0.221458 0.333602 0.026480
Si Si6 0.800979 0.164127 0.407208
Si Si7 0.141539 0.331105 0.683654
Si Si8 0.891781 0.329263 0.164481
O O1 0.746244 0.500000 0.184750
O O2 0.647542 0.745414 0.129405
O O3 0.839692 0.727743 0.263260
O O4 0.869291 0.697556 0.200574
O O5 0.385284 0.500000 0.731869
O O6 0.305450 0.727159 0.656450
O O7 0.262201 0.706479 0.713603
O O8 0.480730 0.757037 0.789828
O O9 0.460140 0.500000 0.560760
O O10 0.590020 0.333799 0.573747
O O11 0.355887 0.283681 0.474943
O O12 0.517561 0.239856 0.608911
O O13 0.086840 0.500000 0.075142
O O14 0.000000 0.267371 0.000000
O O15 0.925066 0.331185 0.036971
O O16 0.269820 0.500000 0.047174
O O17 0.282155 0.249699 0.090970
O O18 0.250000 0.250000 0.000000
O O19 0.747606 0.000000 0.385946
O O20 0.114868 0.500000 0.670954
O O21 0.893326 0.500000 0.154693
#
# Coordination Sequence:
#
# PCOD8096278 Si02
#       8
#     8   8   8   8   8   8   8   8
#     4  10  22  38  57  79 106 144 183 219 265 319
#     4  10  20  33  52  79 110 142 178 221 271 321
#     4   8  14  26  47  75 105 138 174 215 263 314
#     4  10  21  39  60  82 107 137 177 223 266 312
#     4  11  24  41  60  84 112 140 175 220 270 320
#     4   8  14  27  47  73 106 140 175 215 262 317
#     4   9  19  34  51  78 109 138 174 219 268 316
#     4  11  23  39  57  78 107 145 184 220 265 320
#
# _framework density 18.893214
#
# number of rings (size 3 to 8) (size 9 to 14) (size 15 to 20)
#    0.000    2.375    1.250    1.875    1.750    3.250 
#    0.000    2.500    0.000    0.750    0.000    0.000 
#    0.000    0.000    0.000    0.000    0.000    0.000 
#
# Total GULP energy -396750.568881 kJ/mol
# GULP energy per Si atom -12398.455278 kJ/mol
# Density = 1.885021 g / cm^3
# Si number density = 18.893214 Si / 1000 Ang^3
#
#
#
# Elastic Constant Matrix: (Units=GPa)
#
#
# Indices 1 2 3 4 5 6 
#
# 1 52.2522 28.2356 20.2005 -0.0001 -17.6892 0.0001
# 2 28.2356 85.2763 39.1200 -0.0001 -10.9317 0.0002
# 3 20.2005 39.1200 88.9753 0.0001 -29.2544 -0.0001
# 4 -0.0001 -0.0001 0.0001 39.8304 0.0000 -0.2362
# 5 -17.6892 -10.9317 -29.2544 0.0000 29.9054 -0.0001
# 6 0.0001 0.0002 -0.0001 -0.2362 -0.0001 21.2547
#
#
#
# Elastic Compliance Matrix: (Units=1/GPa)
#
#
# Indices 1 2 3 4 5 6 
#
# 1 0.028155 -0.008462 0.002634 0.000000 0.016138 0.000000
# 2 -0.008462 0.017272 -0.007729 0.000000 -0.006252 0.000000
# 3 0.002634 -0.007729 0.020081 0.000000 0.018377 0.000000
# 4 0.000000 0.000000 0.000000 0.025108 0.000000 0.000279
# 5 0.016138 -0.006252 0.018377 0.000000 0.058676 0.000000
# 6 0.000000 0.000000 0.000000 0.000279 0.000000 0.047051
#
#
# Mechanical properties :
#
#
# Convention : Reuss Voigt Hill
#
# Bulk Modulus (GPa) = 26.04422 44.62400 35.33411
# Shear Modulus (GPa) = 21.16341 27.46129 24.31235
#
# Velocity S-wave (km/s) = 3.35051 3.81662 3.59113
# Velocity P-wave (km/s) = 5.36496 6.56448 5.99480
#
# Compressibility (1/GPa) = 0.03839624
#
# Stress axis : x y z
#
# Youngs Moduli (GPa) = 35.51707 57.89554 49.79745
#
# Poissons Ratio (x) = 0.48992 -0.13118
# Poissons Ratio (y) = 0.30055 0.38487
# Poissons Ratio (z) = -0.09356 0.44745
#
# Static dielectric constant tensor:
#      x y z
#    x 3.223180 0.000000 -0.182920 
#    y 0.000000 3.540130 0.000000 
#    z -0.182920 0.000000 3.835830 
# 
# 
# High freq. dielectric constant tensor:
#      x y z
#    x 1.705120 0.000000 -0.008160 
#    y 0.000000 1.733880 0.000000 
#    z -0.008160 0.000000 1.743990 
# 
# From -- ./inp_files/378480.got.cif
#   From: 2010.06.25/outbox.cif.g09.slc.cpg/sg12_190_cif.got.tgz:378480.got - 2010.06.28 00:19:55.
