data_PCOD8096682
_publ_section_title
;
Structure prediction by ZEFSAII (Michael W. Deem and Ramdas Pophale) SiO2 
 PCOD8096682
Probable space group: C 2/M
;
_chemical_formula_sum "Si O2"
_cell_formula_units_Z 48
_cell_length_a 14.741635
_cell_length_b 18.700085
_cell_length_c 9.429484
_cell_angle_alpha 90.000000
_cell_angle_beta 70.050952
_cell_angle_gamma 90.000000
_cell_volume 2443.449419
_symmetry_space_group_name_H-M "C 2/M"
_symmetry_group_IT_number 12
_symmetry_cell_setting 'monoclinic'
loop_
_space_group_symop_operation_xyz
x,y,z
-x,y,-z
-x,-y,-z
x,-y,z
1/2+x,1/2+y,z
1/2-x,1/2+y,-z
1/2-x,1/2-y,-z
1/2+x,1/2-y,z
loop_
_atom_site_type_symbol
_atom_site_label
_atom_site_fract_x
_atom_site_fract_y
_atom_site_fract_z
Si Si1 0.720951 0.322926 0.088182
Si Si2 0.609859 0.681624 0.423700
Si Si3 0.903924 0.337821 0.465576
Si Si4 0.213003 0.083071 0.579038
Si Si5 0.393985 0.645489 0.105741
Si Si6 0.592237 0.186108 0.859788
O O1 0.633492 0.310596 0.245044
O O2 0.815138 0.353337 0.118578
O O3 0.750000 0.250000 0.000000
O O4 0.679509 0.372536 0.984562
O O5 0.500000 0.656697 0.500000
O O6 0.629390 0.757169 0.487181
O O7 0.679995 0.623367 0.454614
O O8 0.819954 0.390520 0.563392
O O9 0.923426 0.345389 0.288041
O O10 0.000000 0.358139 0.500000
O O11 0.137699 0.098034 0.744825
O O12 0.215397 0.000000 0.543144
O O13 0.391658 0.728606 0.152680
O O14 0.500000 0.622054 0.000000
O O15 0.500000 0.164731 0.000000
#
# Coordination Sequence:
#
# PCOD8096682 Si02
#       6
#     8   8   8   8   8   8
#     4  10  20  33  59  88 126 152 192 255 313 362
#     4  11  22  39  65  94 121 157 206 261 313 364
#     4  11  23  38  66  93 122 156 209 265 308 353
#     4  12  25  42  61  87 129 172 205 246 304 373
#     4  10  21  37  58  90 124 156 199 250 308 370
#     4  10  20  34  60  95 121 149 197 261 317 356
#
# _framework density 19.644359999999999
#
# number of rings (size 3 to 8) (size 9 to 14) (size 15 to 20)
#    0.000    1.333    3.333    3.500   14.000    1.000 
#    0.000    0.833    0.000    0.500    0.000    0.000 
#    0.000    0.000    0.000    0.000    0.000    0.000 
#
# Total GULP energy -297640.060656 kJ/mol
# GULP energy per Si atom -12401.669194 kJ/mol
# Density = 1.959965 g / cm^3
# Si number density = 19.644360 Si / 1000 Ang^3
#
#
#
# Elastic Constant Matrix: (Units=GPa)
#
#
# Indices 1 2 3 4 5 6 
#
# 1 121.4375 30.7300 44.0664 0.0000 -2.1256 0.0000
# 2 30.7300 65.2948 15.0761 0.0000 -5.3830 0.0000
# 3 44.0664 15.0761 123.3214 0.0000 -1.4152 0.0000
# 4 0.0000 0.0000 0.0000 12.9341 0.0000 -4.7468
# 5 -2.1256 -5.3830 -1.4152 0.0000 41.2865 0.0000
# 6 0.0000 0.0000 0.0000 -4.7468 0.0000 8.6660
#
#
#
# Elastic Compliance Matrix: (Units=1/GPa)
#
#
# Indices 1 2 3 4 5 6 
#
# 1 0.010464 -0.004189 -0.003228 0.000000 -0.000118 0.000000
# 2 -0.004189 0.017602 -0.000631 0.000000 0.002058 0.000000
# 3 -0.003228 -0.000631 0.009340 0.000000 0.000072 0.000000
# 4 0.000000 0.000000 0.000000 0.096768 0.000000 0.053005
# 5 -0.000118 0.002058 0.000072 0.000000 0.024486 0.000000
# 6 0.000000 0.000000 0.000000 0.053005 0.000000 0.144426
#
#
# Mechanical properties :
#
#
# Convention : Reuss Voigt Hill
#
# Bulk Modulus (GPa) = 46.92843 54.42207 50.67525
# Shear Modulus (GPa) = 15.32391 27.25609 21.29000
#
# Velocity S-wave (km/s) = 2.79600 3.72893 3.29564
# Velocity P-wave (km/s) = 5.86211 6.80468 6.35091
#
# Compressibility (1/GPa) = 0.02130904
#
# Stress axis : x y z
#
# Youngs Moduli (GPa) = 95.56408 56.81138 107.06069
#
# Poissons Ratio (x) = 0.23799 0.34563
# Poissons Ratio (y) = 0.40033 0.06759
# Poissons Ratio (z) = 0.30852 0.03587
#
# Static dielectric constant tensor:
#      x y z
#    x 4.055870 0.000000 0.172950 
#    y 0.000000 3.030030 0.000000 
#    z 0.172950 0.000000 3.490680 
# 
# 
# High freq. dielectric constant tensor:
#      x y z
#    x 1.786690 0.000000 -0.000700 
#    y 0.000000 1.697470 0.000000 
#    z -0.000700 0.000000 1.787800 
# 
# From -- ./inp_files/63327.got.cif
#   From: 2010.06.25/outbox.cif.g09.slc.cpg/sg12_32_cif.got.tgz:63327.got - 2010.06.28 00:19:55.
