data_PCOD8096460
_publ_section_title
;
Structure prediction by ZEFSAII (Michael W. Deem and Ramdas Pophale) SiO2 
 PCOD8096460
Probable space group: C 2/M
;
_chemical_formula_sum "Si O2"
_cell_formula_units_Z 64
_cell_length_a 27.588752
_cell_length_b 8.905697
_cell_length_c 13.122551
_cell_angle_alpha 90.000000
_cell_angle_beta 82.813160
_cell_angle_gamma 90.000000
_cell_volume 3198.841447
_symmetry_space_group_name_H-M "C 2/M"
_symmetry_group_IT_number 12
_symmetry_cell_setting 'monoclinic'
loop_
_space_group_symop_operation_xyz
x,y,z
-x,y,-z
-x,-y,-z
x,-y,z
1/2+x,1/2+y,z
1/2-x,1/2+y,-z
1/2-x,1/2-y,-z
1/2+x,1/2-y,z
loop_
_atom_site_type_symbol
_atom_site_label
_atom_site_fract_x
_atom_site_fract_y
_atom_site_fract_z
Si Si1 0.414547 0.670318 0.036286
Si Si2 0.628867 0.174146 0.636176
Si Si3 0.844528 0.830947 0.730025
Si Si4 0.961407 0.673821 0.214220
Si Si5 0.242379 0.828478 0.108018
Si Si6 0.200377 0.176870 0.468614
Si Si7 0.427966 0.826039 0.817400
Si Si8 0.823773 0.170597 0.194411
O O1 0.431008 0.500000 0.013747
O O2 0.449632 0.735991 0.114493
O O3 0.358374 0.679436 0.086501
O O4 0.418782 0.755722 0.929652
O O5 0.572923 0.219261 0.680161
O O6 0.651148 0.273652 0.540247
O O7 0.659785 0.208427 0.728011
O O8 0.633656 0.000000 0.605122
O O9 0.813830 0.825562 0.842844
O O10 0.810726 0.773374 0.645017
O O11 0.893216 0.735289 0.736761
O O12 0.861382 0.000000 0.701113
O O13 0.952646 0.500000 0.189836
O O14 0.016741 0.706873 0.232848
O O15 0.270262 0.725296 0.181151
O O16 0.261952 0.000000 0.099389
O O17 0.250000 0.750000 0.000000
O O18 0.250000 0.250000 0.500000
O O19 0.207997 0.000000 0.476251
O O20 0.417300 0.000000 0.831988
O O21 0.822587 0.000000 0.238253
#
# Coordination Sequence:
#
# PCOD8096460 Si02
#       8
#     8   8   8   8   8   8   8   8
#     4  10  20  33  53  83 117 153 191 232 280 334
#     4  10  20  37  60  84 112 144 180 229 285 334
#     4  10  24  42  57  79 113 149 185 229 280 336
#     4   9  20  37  56  82 115 150 191 236 280 330
#     4  11  22  36  54  78 110 148 187 225 274 334
#     4  11  23  41  65  90 115 145 185 232 282 337
#     4  11  22  36  56  81 111 150 194 237 280 332
#     4  10  20  34  53  80 112 145 185 230 277 335
#
# _framework density 20.007242999999999
#
# number of rings (size 3 to 8) (size 9 to 14) (size 15 to 20)
#    0.000    1.750    0.000    4.125    0.000   10.500 
#    0.000    0.625    0.000    3.750    0.000    0.000 
#    0.000    0.000    0.000    0.000    0.000    0.000 
#
# Total GULP energy -396729.739863 kJ/mol
# GULP energy per Si atom -12397.804371 kJ/mol
# Density = 1.996171 g / cm^3
# Si number density = 20.007243 Si / 1000 Ang^3
#
#
#
# Elastic Constant Matrix: (Units=GPa)
#
#
# Indices 1 2 3 4 5 6 
#
# 1 114.5946 58.5835 46.4093 0.0000 10.4563 0.0000
# 2 58.5835 97.4891 43.0644 0.0000 5.0175 0.0000
# 3 46.4093 43.0644 102.7340 0.0000 -2.8102 0.0000
# 4 0.0000 0.0000 0.0000 32.5637 0.0000 1.6506
# 5 10.4563 5.0175 -2.8102 0.0000 22.5847 0.0000
# 6 0.0000 0.0000 0.0000 1.6506 0.0000 32.9229
#
#
#
# Elastic Compliance Matrix: (Units=1/GPa)
#
#
# Indices 1 2 3 4 5 6 
#
# 1 0.014097 -0.006511 -0.003791 0.000000 -0.005552 0.000000
# 2 -0.006511 0.015872 -0.003739 0.000000 -0.000977 0.000000
# 3 -0.003791 -0.003739 0.013129 0.000000 0.004219 0.000000
# 4 0.000000 0.000000 0.000000 0.030787 0.000000 -0.001544
# 5 -0.005552 -0.000977 0.004219 0.000000 0.047590 0.000000
# 6 0.000000 0.000000 0.000000 -0.001544 0.000000 0.030451
#
#
# Mechanical properties :
#
#
# Convention : Reuss Voigt Hill
#
# Bulk Modulus (GPa) = 66.59133 67.88133 67.23633
# Shear Modulus (GPa) = 27.02523 28.73163 27.87843
#
# Velocity S-wave (km/s) = 3.67927 3.79365 3.73690
# Velocity P-wave (km/s) = 7.16975 7.29322 7.23175
#
# Compressibility (1/GPa) = 0.01501697
#
# Stress axis : x y z
#
# Youngs Moduli (GPa) = 70.93885 63.00454 76.16770
#
# Poissons Ratio (x) = 0.41021 0.28873
# Poissons Ratio (y) = 0.46187 0.28477
# Poissons Ratio (z) = 0.26891 0.23556
#
# Static dielectric constant tensor:
#      x y z
#    x 3.807330 0.000000 -0.322610 
#    y 0.000000 3.725940 0.000000 
#    z -0.322610 0.000000 3.569990 
# 
# 
# High freq. dielectric constant tensor:
#      x y z
#    x 1.781110 0.000000 -0.009480 
#    y 0.000000 1.789440 0.000000 
#    z -0.009480 0.000000 1.770180 
# 
# From -- ./inp_files/243975.got.cif
#   From: 2010.06.25/outbox.cif.g09.slc.cpg/sg12_122_cif.got.tgz:243975.got - 2010.06.28 00:19:55.
