data_PCOD8096901
_publ_section_title
;
Structure prediction by ZEFSAII (Michael W. Deem and Ramdas Pophale) SiO2 
 PCOD8096901
Probable space group: C 2/M
;
_chemical_formula_sum "Si O2"
_cell_formula_units_Z 40
_cell_length_a 15.433523
_cell_length_b 28.429536
_cell_length_c 9.319402
_cell_angle_alpha 90.000000
_cell_angle_beta 30.247288
_cell_angle_gamma 90.000000
_cell_volume 2059.792013
_symmetry_space_group_name_H-M "C 2/M"
_symmetry_group_IT_number 12
_symmetry_cell_setting 'monoclinic'
loop_
_space_group_symop_operation_xyz
x,y,z
-x,y,-z
-x,-y,-z
x,-y,z
1/2+x,1/2+y,z
1/2-x,1/2+y,-z
1/2-x,1/2-y,-z
1/2+x,1/2-y,z
loop_
_atom_site_type_symbol
_atom_site_label
_atom_site_fract_x
_atom_site_fract_y
_atom_site_fract_z
Si Si1 0.683289 0.616660 0.308623
Si Si2 0.324446 0.947082 0.338531
Si Si3 0.051858 0.714232 0.582530
Si Si4 0.013035 0.606068 0.645129
Si Si5 0.828994 0.285113 0.158321
O O1 0.500000 0.609532 0.500000
O O2 0.689083 0.583106 0.440002
O O3 0.705377 0.669807 0.332123
O O4 0.825941 0.603974 0.985569
O O5 0.353638 0.925693 0.455586
O O6 0.253905 0.000000 0.457109
O O7 0.500000 0.946148 0.000000
O O8 0.088780 0.658787 0.537854
O O9 0.226684 0.741693 0.375958
O O10 0.000000 0.731577 0.500000
O O11 0.892583 0.729294 0.909401
O O12 0.000000 0.587392 0.500000
O O13 0.000000 0.299025 0.000000
#
# Coordination Sequence:
#
# PCOD8096901 Si02
#       5
#     8   8   8   8   8
#     4  10  20  35  55  78 106 140 177 216 258 308
#     4   9  18  35  58  80 104 137 176 215 261 318
#     4  10  20  34  51  75 107 139 173 211 254 308
#     4   9  19  36  55  80 108 137 173 216 262 309
#     4  11  21  34  52  76 106 139 177 215 256 306
#
# _framework density 19.419436000000001
#
# number of rings (size 3 to 8) (size 9 to 14) (size 15 to 20)
#    0.000    2.200    0.000    4.800    0.000    4.000 
#    0.000    1.000    0.000    1.200    0.000    0.000 
#    0.000    0.000    0.000    0.000    0.000    0.000 
#
# Total GULP energy -248003.144235 kJ/mol
# GULP energy per Si atom -12400.157212 kJ/mol
# Density = 1.937524 g / cm^3
# Si number density = 19.419436 Si / 1000 Ang^3
#
#
#
# Elastic Constant Matrix: (Units=GPa)
#
#
# Indices 1 2 3 4 5 6 
#
# 1 158.7011 73.7779 47.9733 0.0000 -3.5560 0.0000
# 2 73.7779 122.0164 52.7824 0.0000 -2.2121 0.0000
# 3 47.9733 52.7824 50.0988 0.0000 -3.3670 0.0001
# 4 0.0000 0.0000 0.0000 15.3725 0.0000 1.4352
# 5 -3.5560 -2.2121 -3.3670 0.0000 33.8418 0.0000
# 6 0.0000 0.0000 0.0001 1.4352 0.0000 21.4223
#
#
#
# Elastic Compliance Matrix: (Units=1/GPa)
#
#
# Indices 1 2 3 4 5 6 
#
# 1 0.009559 -0.003349 -0.005610 0.000000 0.000227 0.000000
# 2 -0.003349 0.016244 -0.013953 0.000000 -0.000678 0.000000
# 3 -0.005610 -0.013953 0.040200 0.000000 0.002498 0.000000
# 4 0.000000 0.000000 0.000000 0.065461 0.000000 -0.004385
# 5 0.000227 -0.000678 0.002498 0.000000 0.029777 0.000000
# 6 0.000000 0.000000 0.000000 -0.004385 0.000000 0.046974
#
#
# Mechanical properties :
#
#
# Convention : Reuss Voigt Hill
#
# Bulk Modulus (GPa) = 49.55334 75.54262 62.54798
# Shear Modulus (GPa) = 19.17433 24.54617 21.86025
#
# Velocity S-wave (km/s) = 3.14567 3.55914 3.35877
# Velocity P-wave (km/s) = 6.22627 7.47495 6.87900
#
# Compressibility (1/GPa) = 0.02018027
#
# Stress axis : x y z
#
# Youngs Moduli (GPa) = 104.61453 61.56059 24.87547
#
# Poissons Ratio (x) = 0.20617 0.13954
# Poissons Ratio (y) = 0.35037 0.34708
# Poissons Ratio (z) = 0.58684 0.85895
#
# Static dielectric constant tensor:
#      x y z
#    x 3.684340 0.000000 0.254890 
#    y 0.000000 3.550680 0.000000 
#    z 0.254890 0.000000 3.394510 
# 
# 
# High freq. dielectric constant tensor:
#      x y z
#    x 1.768710 0.000000 0.011970 
#    y 0.000000 1.750100 0.000000 
#    z 0.011970 0.000000 1.729020 
# 
# From -- ./inp_files/41411.got.cif
#   From: 2010.06.25/outbox.cif.g09.slc.cpg/sg12_21_cif.got.tgz:41411.got - 2010.06.28 00:19:55.
