data_PCOD8096239
_publ_section_title
;
Structure prediction by ZEFSAII (Michael W. Deem and Ramdas Pophale) SiO2 
 PCOD8096239
Probable space group: C 2/M
;
_chemical_formula_sum "Si O2"
_cell_formula_units_Z 48
_cell_length_a 14.243008
_cell_length_b 8.705183
_cell_length_c 20.576915
_cell_angle_alpha 90.000000
_cell_angle_beta 110.901179
_cell_angle_gamma 90.000000
_cell_volume 2383.408135
_symmetry_space_group_name_H-M "C 2/M"
_symmetry_group_IT_number 12
_symmetry_cell_setting 'monoclinic'
loop_
_space_group_symop_operation_xyz
x,y,z
-x,y,-z
-x,-y,-z
x,-y,z
1/2+x,1/2+y,z
1/2-x,1/2+y,-z
1/2-x,1/2-y,-z
1/2+x,1/2-y,z
loop_
_atom_site_type_symbol
_atom_site_label
_atom_site_fract_x
_atom_site_fract_y
_atom_site_fract_z
Si Si1 0.614945 0.330195 0.006251
Si Si2 0.354177 0.816485 0.500622
Si Si3 0.553503 0.681516 0.601795
Si Si4 0.641689 0.178458 0.749842
Si Si5 0.563477 0.178762 0.866957
Si Si6 0.643627 0.322601 0.151858
O O1 0.649155 0.500000 0.994892
O O2 0.675500 0.273425 0.085562
O O3 0.500000 0.324118 0.000000
O O4 0.630929 0.229553 0.945580
O O5 0.250000 0.750000 0.500000
O O6 0.442280 0.751691 0.568165
O O7 0.372021 0.760470 0.431474
O O8 0.353307 0.000000 0.502826
O O9 0.549742 0.500000 0.588322
O O10 0.593776 0.716217 0.683077
O O11 0.603162 0.246537 0.808862
O O12 0.762163 0.198476 0.777331
O O13 0.611910 0.000000 0.732053
O O14 0.446931 0.221280 0.844057
O O15 0.576748 0.000000 0.866218
O O16 0.607514 0.500000 0.140374
#
# Coordination Sequence:
#
# PCOD8096239 Si02
#       6
#     8   8   8   8   8   8
#     4   8  15  30  51  73 100 138 183 230 281 338
#     4  11  22  41  68  94 120 153 189 228 276 330
#     4  11  23  40  61  90 123 153 190 234 279 333
#     4  10  22  39  55  77 113 153 187 226 282 338
#     4  10  20  33  52  78 107 139 182 237 288 332
#     4   9  19  36  55  73 102 146 189 228 279 342
#
# _framework density 20.139227999999999
#
# number of rings (size 3 to 8) (size 9 to 14) (size 15 to 20)
#    0.000    2.167    0.000    5.500    0.000    7.000 
#    0.000    3.333    0.000    0.000    0.000    0.000 
#    0.000    0.000    0.000    0.000    0.000    0.000 
#
# Total GULP energy -297544.058592 kJ/mol
# GULP energy per Si atom -12397.669108 kJ/mol
# Density = 2.009339 g / cm^3
# Si number density = 20.139228 Si / 1000 Ang^3
#
#
#
# Elastic Constant Matrix: (Units=GPa)
#
#
# Indices 1 2 3 4 5 6 
#
# 1 66.4427 26.0315 29.3922 0.0000 -2.1945 0.0000
# 2 26.0315 98.7390 39.6121 0.0000 1.4344 0.0000
# 3 29.3922 39.6121 127.5993 0.0000 3.7063 0.0000
# 4 0.0000 0.0000 0.0000 34.6802 0.0000 -1.7087
# 5 -2.1945 1.4344 3.7063 0.0000 20.4213 0.0000
# 6 0.0000 0.0000 0.0000 -1.7087 0.0000 25.5628
#
#
#
# Elastic Compliance Matrix: (Units=1/GPa)
#
#
# Indices 1 2 3 4 5 6 
#
# 1 0.017892 -0.003508 -0.003112 0.000000 0.002734 0.000000
# 2 -0.003508 0.012257 -0.002977 0.000000 -0.000698 0.000000
# 3 -0.003112 -0.002977 0.009532 0.000000 -0.001855 0.000000
# 4 0.000000 0.000000 0.000000 0.028930 0.000000 0.001934
# 5 0.002734 -0.000698 -0.001855 0.000000 0.049648 0.000000
# 6 0.000000 0.000000 0.000000 0.001934 0.000000 0.039249
#
#
# Mechanical properties :
#
#
# Convention : Reuss Voigt Hill
#
# Bulk Modulus (GPa) = 48.81079 53.65031 51.23055
# Shear Modulus (GPa) = 27.24354 29.31587 28.27971
#
# Velocity S-wave (km/s) = 3.68198 3.81945 3.75134
# Velocity P-wave (km/s) = 6.50886 6.79327 6.65258
#
# Compressibility (1/GPa) = 0.02048727
#
# Stress axis : x y z
#
# Youngs Moduli (GPa) = 55.89120 81.58622 104.91254
#
# Poissons Ratio (x) = 0.28624 0.32645
# Poissons Ratio (y) = 0.19609 0.31229
# Poissons Ratio (z) = 0.17391 0.24285
#
# Static dielectric constant tensor:
#      x y z
#    x 3.775120 0.000000 0.009790 
#    y 0.000000 3.576990 0.000000 
#    z 0.009790 0.000000 3.856760 
# 
# 
# High freq. dielectric constant tensor:
#      x y z
#    x 1.783330 0.000000 0.002600 
#    y 0.000000 1.781490 0.000000 
#    z 0.002600 0.000000 1.792400 
# 
# From -- ./inp_files/308612.got.cif
#   From: 2010.06.25/outbox.cif.g09.slc.cpg/sg12_155_cif.got.tgz:308612.got - 2010.06.28 00:19:55.
