data_PCOD8096422
_publ_section_title
;
Structure prediction by ZEFSAII (Michael W. Deem and Ramdas Pophale) SiO2 
 PCOD8096422
Probable space group: C 2/M
;
_chemical_formula_sum "Si O2"
_cell_formula_units_Z 56
_cell_length_a 29.660609
_cell_length_b 8.968783
_cell_length_c 12.417579
_cell_angle_alpha 90.000000
_cell_angle_beta 105.773421
_cell_angle_gamma 90.000000
_cell_volume 3178.929849
_symmetry_space_group_name_H-M "C 2/M"
_symmetry_group_IT_number 12
_symmetry_cell_setting 'monoclinic'
loop_
_space_group_symop_operation_xyz
x,y,z
-x,y,-z
-x,-y,-z
x,-y,z
1/2+x,1/2+y,z
1/2-x,1/2+y,-z
1/2-x,1/2-y,-z
1/2+x,1/2-y,z
loop_
_atom_site_type_symbol
_atom_site_label
_atom_site_fract_x
_atom_site_fract_y
_atom_site_fract_z
Si Si1 0.458843 0.672120 0.755086
Si Si2 0.697779 0.673127 0.856118
Si Si3 0.046897 0.327159 0.471217
Si Si4 0.615183 0.171527 0.706690
Si Si5 0.946284 0.324514 0.128790
Si Si6 0.803863 0.673336 0.919061
Si Si7 0.109624 0.827745 0.098434
O O1 0.473114 0.500000 0.755975
O O2 0.444603 0.732159 0.629455
O O3 0.501717 0.759940 0.835268
O O4 0.413908 0.695862 0.801357
O O5 0.690568 0.500000 0.878672
O O6 0.661704 0.726822 0.741186
O O7 0.750429 0.703292 0.848542
O O8 0.686898 0.768551 0.954767
O O9 0.041096 0.500000 0.435348
O O10 0.091228 0.299952 0.576534
O O11 0.000000 0.271577 0.500000
O O12 0.579131 0.218906 0.776619
O O13 0.629917 0.000000 0.729687
O O14 0.949663 0.500000 0.115624
O O15 0.918916 0.257135 0.011332
O O16 0.816618 0.500000 0.925557
O O17 0.837966 0.760424 0.859744
O O18 0.112085 0.000000 0.067659
#
# Coordination Sequence:
#
# PCOD8096422 Si02
#       7
#     8   8   8   8   8   8   8
#     4  11  24  38  53  78 111 145 183 224 269 318
#     4  10  20  33  53  81 111 141 174 220 273 321
#     4  10  20  38  58  77 105 141 183 226 265 312
#     4  10  20  34  55  81 110 141 178 223 267 316
#     4  11  21  35  55  80 110 146 183 217 262 322
#     4  10  20  34  53  79 109 142 180 218 265 325
#     4  11  23  37  53  78 112 146 180 223 270 317
#
# _framework density 17.61599
#
# number of rings (size 3 to 8) (size 9 to 14) (size 15 to 20)
#    0.000    1.571    2.857    2.571    0.000    7.143 
#    0.000    0.000    0.000    0.857    0.000    0.000 
#    0.000    0.000    0.000    0.000    0.000    0.000 
#
# Total GULP energy -347329.340827 kJ/mol
# GULP energy per Si atom -12404.619315 kJ/mol
# Density = 1.757590 g / cm^3
# Si number density = 17.615990 Si / 1000 Ang^3
#
#
#
# Elastic Constant Matrix: (Units=GPa)
#
#
# Indices 1 2 3 4 5 6 
#
# 1 120.3833 64.7571 48.5580 0.0000 4.2258 0.0000
# 2 64.7571 100.6625 49.6837 0.0000 -3.3368 0.0000
# 3 48.5580 49.6837 67.0156 0.0000 -7.6300 0.0000
# 4 0.0000 0.0000 0.0000 30.4652 0.0000 2.1757
# 5 4.2258 -3.3368 -7.6300 0.0000 25.2563 0.0000
# 6 0.0000 0.0000 0.0000 2.1757 0.0000 33.0330
#
#
#
# Elastic Compliance Matrix: (Units=1/GPa)
#
#
# Indices 1 2 3 4 5 6 
#
# 1 0.014467 -0.006330 -0.006380 0.000000 -0.005184 0.000000
# 2 -0.006330 0.018491 -0.009034 0.000000 0.000773 0.000000
# 3 -0.006380 -0.009034 0.027163 0.000000 0.008080 0.000000
# 4 0.000000 0.000000 0.000000 0.032980 0.000000 -0.002172
# 5 -0.005184 0.000773 0.008080 0.000000 0.043005 0.000000
# 6 0.000000 0.000000 0.000000 -0.002172 0.000000 0.030416
#
#
# Mechanical properties :
#
#
# Convention : Reuss Voigt Hill
#
# Bulk Modulus (GPa) = 60.12426 68.22877 64.17652
# Shear Modulus (GPa) = 23.19616 26.08838 24.64227
#
# Velocity S-wave (km/s) = 3.63267 3.85248 3.74419
# Velocity P-wave (km/s) = 7.19719 7.65533 7.42979
#
# Compressibility (1/GPa) = 0.01663222
#
# Stress axis : x y z
#
# Youngs Moduli (GPa) = 69.12191 54.08100 36.81537
#
# Poissons Ratio (x) = 0.34232 0.23489
# Poissons Ratio (y) = 0.43752 0.33260
# Poissons Ratio (z) = 0.44101 0.48858
#
# Static dielectric constant tensor:
#      x y z
#    x 3.457800 0.000000 0.093410 
#    y 0.000000 3.397420 0.000000 
#    z 0.093410 0.000000 3.111420 
# 
# 
# High freq. dielectric constant tensor:
#      x y z
#    x 1.682590 0.000000 0.010310 
#    y 0.000000 1.694270 0.000000 
#    z 0.010310 0.000000 1.660440 
# 
# From -- ./inp_files/186848.got.cif
#   From: 2010.06.25/outbox.cif.g09.slc.cpg/sg12_94_cif.got.tgz:186848.got - 2010.06.28 00:19:55.
