data_PCOD8096419
_publ_section_title
;
Structure prediction by ZEFSAII (Michael W. Deem and Ramdas Pophale) SiO2 
 PCOD8096419
Probable space group: C 2/M
;
_chemical_formula_sum "Si O2"
_cell_formula_units_Z 48
_cell_length_a 20.573887
_cell_length_b 10.783694
_cell_length_c 17.876092
_cell_angle_alpha 90.000000
_cell_angle_beta 140.354878
_cell_angle_gamma 90.000000
_cell_volume 2530.451337
_symmetry_space_group_name_H-M "C 2/M"
_symmetry_group_IT_number 12
_symmetry_cell_setting 'monoclinic'
loop_
_space_group_symop_operation_xyz
x,y,z
-x,y,-z
-x,-y,-z
x,-y,z
1/2+x,1/2+y,z
1/2-x,1/2+y,-z
1/2-x,1/2-y,-z
1/2+x,1/2-y,z
loop_
_atom_site_type_symbol
_atom_site_label
_atom_site_fract_x
_atom_site_fract_y
_atom_site_fract_z
Si Si1 0.821037 0.728010 0.957482
Si Si2 0.131086 0.363824 0.843011
Si Si3 0.087846 0.731585 0.343295
Si Si4 0.978899 0.858969 0.859656
Si Si5 0.273379 0.635894 0.423637
Si Si6 0.645800 0.142726 0.175730
O O1 0.704929 0.770983 0.864685
O O2 0.826281 0.651227 0.886012
O O3 0.852025 0.638516 0.052835
O O4 0.898674 0.845006 0.028395
O O5 0.155503 0.500000 0.834737
O O6 0.014186 0.334982 0.720719
O O7 0.062251 0.841776 0.261576
O O8 0.165922 0.638186 0.372704
O O9 0.141360 0.775641 0.466899
O O10 0.936238 0.749314 0.875738
O O11 0.950394 0.000000 0.860369
O O12 0.320117 0.500000 0.470962
O O13 0.247816 0.669595 0.314760
O O14 0.606513 0.000000 0.156796
#
# Coordination Sequence:
#
# PCOD8096419 Si02
#       6
#     8   8   8   8   8   8
#     4  10  21  34  52  77 106 139 176 216 262 314
#     4  10  20  35  54  75 103 140 178 217 261 313
#     4   9  18  32  53  79 104 134 174 215 259 308
#     4  10  20  33  53  81 110 140 174 216 263 308
#     4   9  17  32  54  77 102 132 170 217 263 307
#     4  10  21  36  55  79 107 140 176 216 264 315
#
# _framework density 18.968948000000001
#
# number of rings (size 3 to 8) (size 9 to 14) (size 15 to 20)
#    0.000    2.333    0.000    2.500    0.000    7.333 
#    0.000    4.167    0.000    3.000    0.000    0.000 
#    0.000    0.000    0.000    0.000    0.000    0.000 
#
# Total GULP energy -297437.515871 kJ/mol
# GULP energy per Si atom -12393.229828 kJ/mol
# Density = 1.892577 g / cm^3
# Si number density = 18.968948 Si / 1000 Ang^3
#
#
#
# Elastic Constant Matrix: (Units=GPa)
#
#
# Indices 1 2 3 4 5 6 
#
# 1 64.1105 25.7852 39.2154 0.0000 1.6962 0.0000
# 2 25.7852 102.1061 24.7234 0.0000 0.9147 0.0000
# 3 39.2154 24.7234 108.8766 0.0000 5.6547 0.0000
# 4 0.0000 0.0000 0.0000 10.6278 0.0000 -3.3131
# 5 1.6962 0.9147 5.6547 0.0000 28.9924 0.0000
# 6 0.0000 0.0000 0.0000 -3.3131 0.0000 18.0692
#
#
#
# Elastic Compliance Matrix: (Units=1/GPa)
#
#
# Indices 1 2 3 4 5 6 
#
# 1 0.021263 -0.003719 -0.006825 0.000000 0.000204 0.000000
# 2 -0.003719 0.011015 -0.001167 0.000000 0.000098 0.000000
# 3 -0.006825 -0.001167 0.012007 0.000000 -0.001906 0.000000
# 4 0.000000 0.000000 0.000000 0.099797 0.000000 0.018299
# 5 0.000204 0.000098 -0.001906 0.000000 0.034848 0.000000
# 6 0.000000 0.000000 0.000000 0.018299 0.000000 0.058698
#
#
# Mechanical properties :
#
#
# Convention : Reuss Voigt Hill
#
# Bulk Modulus (GPa) = 47.93049 50.50460 49.21754
# Shear Modulus (GPa) = 18.65652 23.89585 21.27619
#
# Velocity S-wave (km/s) = 3.13953 3.55313 3.35271
# Velocity P-wave (km/s) = 6.20201 6.59664 6.40236
#
# Compressibility (1/GPa) = 0.02086355
#
# Stress axis : x y z
#
# Youngs Moduli (GPa) = 47.03013 90.78924 83.28654
#
# Poissons Ratio (x) = 0.33764 0.56840
# Poissons Ratio (y) = 0.17490 0.09717
# Poissons Ratio (z) = 0.32097 0.10593
#
# Static dielectric constant tensor:
#      x y z
#    x 3.242110 0.000000 -0.048280 
#    y 0.000000 3.295770 0.000000 
#    z -0.048280 0.000000 3.575590 
# 
# 
# High freq. dielectric constant tensor:
#      x y z
#    x 1.708150 0.000000 -0.002480 
#    y 0.000000 1.730960 0.000000 
#    z -0.002480 0.000000 1.745450 
# 
# From -- ./inp_files/164318.got.cif
#   From: 2010.06.25/outbox.cif.g09.slc.cpg/sg12_83_cif.got.tgz:164318.got - 2010.06.28 00:19:55.
