data_PCOD8096153
_publ_section_title
;
Structure prediction by ZEFSAII (Michael W. Deem and Ramdas Pophale) SiO2 
 PCOD8096153
Probable space group: C 2/M
;
_chemical_formula_sum "Si O2"
_cell_formula_units_Z 64
_cell_length_a 10.427175
_cell_length_b 26.389889
_cell_length_c 12.262160
_cell_angle_alpha 90.000000
_cell_angle_beta 101.427844
_cell_angle_gamma 90.000000
_cell_volume 3307.309417
_symmetry_space_group_name_H-M "C 2/M"
_symmetry_group_IT_number 12
_symmetry_cell_setting 'monoclinic'
loop_
_space_group_symop_operation_xyz
x,y,z
-x,y,-z
-x,-y,-z
x,-y,z
1/2+x,1/2+y,z
1/2-x,1/2+y,-z
1/2-x,1/2-y,-z
1/2+x,1/2-y,z
loop_
_atom_site_type_symbol
_atom_site_label
_atom_site_fract_x
_atom_site_fract_y
_atom_site_fract_z
Si Si1 0.184374 0.557181 0.860364
Si Si2 0.794930 0.558204 0.575096
Si Si3 0.721469 0.595709 0.339755
Si Si4 0.567696 0.115686 0.226189
Si Si5 0.243228 0.056797 0.890368
Si Si6 0.595349 0.786003 0.360136
Si Si7 0.049067 0.057532 0.675470
Si Si8 0.189134 0.295814 0.612540
O O1 0.125329 0.500000 0.853643
O O2 0.274292 0.562352 0.768910
O O3 0.075712 0.601050 0.839297
O O4 0.271509 0.566834 0.983175
O O5 0.817486 0.500000 0.603306
O O6 0.805986 0.569756 0.449385
O O7 0.911566 0.586701 0.656183
O O8 0.656406 0.575246 0.604977
O O9 0.571196 0.596349 0.354405
O O10 0.779254 0.651027 0.324613
O O11 0.663737 0.099037 0.146190
O O12 0.590002 0.174818 0.258131
O O13 0.103466 0.060851 0.808042
O O14 0.300839 0.000000 0.878837
O O15 0.683982 0.738411 0.339606
O O16 0.668547 0.807610 0.480356
O O17 0.444342 0.770952 0.361965
O O18 0.001791 0.000000 0.641249
#
# Coordination Sequence:
#
# PCOD8096153 Si02
#       8
#     8   8   8   8   8   8   8   8
#     4  11  22  34  55  86 121 158 194 233 288 349
#     4  10  20  33  51  81 121 156 186 228 285 361
#     4  12  21  34  54  84 117 151 189 236 297 355
#     4  11  19  35  58  82 112 150 193 240 291 344
#     4   9  20  37  55  82 116 156 205 242 274 340
#     4  10  21  40  60  83 115 153 195 249 300 357
#     4   9  19  35  53  77 114 155 196 236 278 343
#     4  10  22  40  58  85 119 149 194 247 301 365
#
# _framework density 19.351075000000002
#
# number of rings (size 3 to 8) (size 9 to 14) (size 15 to 20)
#    0.000    1.750    2.500    3.750    0.000    5.000 
#    4.500    3.125    0.000    0.750    3.250    0.000 
#    0.000    0.000    0.000    0.000    0.000    0.000 
#
# Total GULP energy -396678.722142 kJ/mol
# GULP energy per Si atom -12396.210067 kJ/mol
# Density = 1.930703 g / cm^3
# Si number density = 19.351075 Si / 1000 Ang^3
#
#
#
# Elastic Constant Matrix: (Units=GPa)
#
#
# Indices 1 2 3 4 5 6 
#
# 1 57.7784 22.3589 7.2081 0.0000 6.6387 0.0000
# 2 22.3589 60.4254 26.2369 0.0000 5.4325 0.0000
# 3 7.2081 26.2369 117.8569 0.0000 -4.5045 0.0000
# 4 0.0000 0.0000 0.0000 26.1471 0.0000 0.6031
# 5 6.6387 5.4325 -4.5045 0.0000 19.8643 0.0000
# 6 0.0000 0.0000 0.0000 0.6031 0.0000 29.0916
#
#
#
# Elastic Compliance Matrix: (Units=1/GPa)
#
#
# Indices 1 2 3 4 5 6 
#
# 1 0.020664 -0.007282 0.000171 0.000000 -0.004876 0.000000
# 2 -0.007282 0.021621 -0.004540 0.000000 -0.004509 0.000000
# 3 0.000171 -0.004540 0.009614 0.000000 0.003365 0.000000
# 4 0.000000 0.000000 0.000000 0.038264 0.000000 -0.000793
# 5 -0.004876 -0.004509 0.003365 0.000000 0.053967 0.000000
# 6 0.000000 0.000000 0.000000 -0.000793 0.000000 0.034391
#
#
# Mechanical properties :
#
#
# Convention : Reuss Voigt Hill
#
# Bulk Modulus (GPa) = 34.96981 38.62983 36.79982
# Shear Modulus (GPa) = 23.65692 27.03772 25.34732
#
# Velocity S-wave (km/s) = 3.50024 3.74200 3.62313
# Velocity P-wave (km/s) = 5.86907 6.21900 6.04657
#
# Compressibility (1/GPa) = 0.02859610
#
# Stress axis : x y z
#
# Youngs Moduli (GPa) = 48.39227 46.25222 104.01833
#
# Poissons Ratio (x) = 0.33682 -0.01778
# Poissons Ratio (y) = 0.35240 0.47225
# Poissons Ratio (z) = -0.00827 0.20999
#
# Static dielectric constant tensor:
#      x y z
#    x 3.430740 0.000000 0.060010 
#    y 0.000000 3.291150 0.000000 
#    z 0.060010 0.000000 3.611150 
# 
# 
# High freq. dielectric constant tensor:
#      x y z
#    x 1.747510 0.000000 0.004210 
#    y 0.000000 1.724290 0.000000 
#    z 0.004210 0.000000 1.747780 
# 
# From -- ./inp_files/135400.got.cif
#   From: 2010.06.25/outbox.cif.g09.slc.cpg/sg12_68_cif.got.tgz:135400.got - 2010.06.28 00:19:55.
