data_PCOD8096596
_publ_section_title
;
Structure prediction by ZEFSAII (Michael W. Deem and Ramdas Pophale) SiO2 
 PCOD8096596
Probable space group: C 2/M
;
_chemical_formula_sum "Si O2"
_cell_formula_units_Z 56
_cell_length_a 19.246006
_cell_length_b 9.134574
_cell_length_c 27.558462
_cell_angle_alpha 90.000000
_cell_angle_beta 141.561687
_cell_angle_gamma 90.000000
_cell_volume 3011.930740
_symmetry_space_group_name_H-M "C 2/M"
_symmetry_group_IT_number 12
_symmetry_cell_setting 'monoclinic'
loop_
_space_group_symop_operation_xyz
x,y,z
-x,y,-z
-x,-y,-z
x,-y,z
1/2+x,1/2+y,z
1/2-x,1/2+y,-z
1/2-x,1/2-y,-z
1/2+x,1/2-y,z
loop_
_atom_site_type_symbol
_atom_site_label
_atom_site_fract_x
_atom_site_fract_y
_atom_site_fract_z
Si Si1 0.744436 0.670734 0.146408
Si Si2 0.821982 0.172274 0.998073
Si Si3 0.360355 0.165379 0.547999
Si Si4 0.921711 0.170899 0.859722
Si Si5 0.919596 0.170371 0.304220
Si Si6 0.379051 0.835138 0.444382
Si Si7 0.749593 0.669324 0.702376
O O1 0.774145 0.500000 0.167232
O O2 0.635359 0.707145 0.119543
O O3 0.850013 0.764707 0.221392
O O4 0.722309 0.717119 0.079110
O O5 0.950506 0.223807 0.070352
O O6 0.812376 0.000000 0.000996
O O7 0.750000 0.250000 0.000000
O O8 0.250000 0.250000 0.500000
O O9 0.463668 0.247164 0.629033
O O10 0.364230 0.165244 0.492891
O O11 0.357481 0.000000 0.566734
O O12 0.861433 0.256446 0.783447
O O13 0.912276 0.000000 0.843241
O O14 0.852729 0.197696 0.317195
O O15 0.941379 0.000000 0.306530
O O16 0.500000 0.764735 0.500000
O O17 0.282562 0.739037 0.366769
O O18 0.373000 0.000000 0.419619
O O19 0.775341 0.500000 0.708831
#
# Coordination Sequence:
#
# PCOD8096596 Si02
#       7
#     8   8   8   8   8   8   8
#     4   9  18  35  60  84 106 140 188 232 271 321
#     4  10  21  37  57  83 113 146 180 222 276 331
#     4  11  23  39  58  81 112 149 188 231 278 330
#     4   9  18  35  59  82 108 143 186 230 270 323
#     4  10  20  35  56  84 115 145 183 229 280 330
#     4  10  20  36  59  83 109 145 188 228 273 329
#     4  10  20  33  55  87 116 142 180 233 281 321
#
# _framework density 18.592725999999999
#
# number of rings (size 3 to 8) (size 9 to 14) (size 15 to 20)
#    0.000    2.143    1.429    1.714    0.000    5.429 
#    2.571    0.000    0.000    4.286    0.000    0.000 
#    0.000    0.000    0.000    0.000    0.000    0.000 
#
# Total GULP energy -347261.039383 kJ/mol
# GULP energy per Si atom -12402.179978 kJ/mol
# Density = 1.855041 g / cm^3
# Si number density = 18.592726 Si / 1000 Ang^3
#
#
#
# Elastic Constant Matrix: (Units=GPa)
#
#
# Indices 1 2 3 4 5 6 
#
# 1 84.6540 46.4224 64.3278 0.0000 11.7017 -0.0001
# 2 46.4224 102.1820 82.5702 0.0000 10.9684 -0.0003
# 3 64.3278 82.5702 164.1867 0.0000 11.1696 0.0000
# 4 0.0000 0.0000 0.0000 30.6998 0.0000 2.5584
# 5 11.7017 10.9684 11.1696 0.0000 28.1007 0.0000
# 6 -0.0001 -0.0003 0.0000 2.5584 0.0000 29.9474
#
#
#
# Elastic Compliance Matrix: (Units=1/GPa)
#
#
# Indices 1 2 3 4 5 6 
#
# 1 0.018245 -0.003868 -0.004922 0.000000 -0.004131 0.000000
# 2 -0.003868 0.017596 -0.007170 0.000000 -0.002407 0.000000
# 3 -0.004922 -0.007170 0.011609 0.000000 0.000234 0.000000
# 4 0.000000 0.000000 0.000000 0.032807 0.000000 -0.002803
# 5 -0.004131 -0.002407 0.000234 0.000000 0.038153 0.000000
# 6 0.000000 0.000000 0.000000 -0.002803 0.000000 0.033631
#
#
# Mechanical properties :
#
#
# Convention : Reuss Voigt Hill
#
# Bulk Modulus (GPa) = 64.39110 81.96262 73.17686
# Shear Modulus (GPa) = 26.43563 28.26306 27.34935
#
# Velocity S-wave (km/s) = 3.77480 3.90309 3.83948
# Velocity P-wave (km/s) = 7.32847 8.03063 7.68757
#
# Compressibility (1/GPa) = 0.01553010
#
# Stress axis : x y z
#
# Youngs Moduli (GPa) = 54.80842 56.83150 86.14124
#
# Poissons Ratio (x) = 0.21984 0.42399
# Poissons Ratio (y) = 0.21201 0.61761
# Poissons Ratio (z) = 0.26977 0.40746
#
# Static dielectric constant tensor:
#      x y z
#    x 1.449550 0.000000 -0.953250 
#    y 0.000000 3.523220 0.000000 
#    z -0.953250 0.000000 2.937350 
# 
# 
# High freq. dielectric constant tensor:
#      x y z
#    x 1.705570 0.000000 0.000200 
#    y 0.000000 1.723000 0.000000 
#    z 0.000200 0.000000 1.733230 
# 
# From -- ./inp_files/362944.got.cif
#   From: 2010.06.25/outbox.cif.g09.slc.cpg/sg12_182_cif.got.tgz:362944.got - 2010.06.28 00:19:55.
