data_PCOD8096915
_publ_section_title
;
Structure prediction by ZEFSAII (Michael W. Deem and Ramdas Pophale) SiO2 
 PCOD8096915
Probable space group: C 2/M
;
_chemical_formula_sum "Si O2"
_cell_formula_units_Z 56
_cell_length_a 10.680903
_cell_length_b 20.550320
_cell_length_c 18.181267
_cell_angle_alpha 90.000000
_cell_angle_beta 128.855111
_cell_angle_gamma 90.000000
_cell_volume 3107.708959
_symmetry_space_group_name_H-M "C 2/M"
_symmetry_group_IT_number 12
_symmetry_cell_setting 'monoclinic'
loop_
_space_group_symop_operation_xyz
x,y,z
-x,y,-z
-x,-y,-z
x,-y,z
1/2+x,1/2+y,z
1/2-x,1/2+y,-z
1/2-x,1/2-y,-z
1/2+x,1/2-y,z
loop_
_atom_site_type_symbol
_atom_site_label
_atom_site_fract_x
_atom_site_fract_y
_atom_site_fract_z
Si Si1 0.397298 0.713692 0.020042
Si Si2 0.541870 0.634309 0.830177
Si Si3 0.717754 0.926510 0.722749
Si Si4 0.849251 0.363741 0.150821
Si Si5 0.610425 0.204200 0.611239
Si Si6 0.139161 0.427802 0.992889
Si Si7 0.532261 0.253636 0.291675
O O1 0.512671 0.686037 0.126494
O O2 0.500000 0.758252 0.000000
O O3 0.250000 0.750000 0.000000
O O4 0.329039 0.656962 0.941281
O O5 0.410534 0.577097 0.781339
O O6 0.717464 0.611326 0.916302
O O7 0.545260 0.675787 0.756017
O O8 0.667614 0.914383 0.788699
O O9 0.637265 0.871700 0.641686
O O10 0.663082 0.000000 0.681011
O O11 0.959862 0.302592 0.213185
O O12 0.927849 0.397182 0.107732
O O13 0.500000 0.206719 0.500000
O O14 0.513593 0.240056 0.640812
O O15 0.776213 0.241512 0.653049
O O16 0.201548 0.500000 0.998295
O O17 0.000000 0.429032 0.000000
#
# Coordination Sequence:
#
# PCOD8096915 Si02
#       7
#     8   8   8   8   8   8   8
#     4  11  20  30  47  73 112 145 178 218 251 301
#     4  10  20  34  51  77 106 144 185 213 262 308
#     4  10  20  36  58  78 105 139 183 225 264 318
#     4  10  20  34  51  77 106 144 185 213 262 308
#     4  10  22  39  59  85 110 133 169 221 287 344
#     4  10  22  34  46  71 110 150 186 220 250 291
#     4  10  21  35  58  82 110 138 172 219 277 330
#
# _framework density 18.019704000000001
#
# number of rings (size 3 to 8) (size 9 to 14) (size 15 to 20)
#    0.000    1.857    2.857    1.286    2.000    2.571 
#    0.000    2.143    0.000    0.000    0.000    0.000 
#    0.000   12.000    0.000    0.000    0.000    0.000 
#
# Total GULP energy -346922.126373 kJ/mol
# GULP energy per Si atom -12390.075942 kJ/mol
# Density = 1.797869 g / cm^3
# Si number density = 18.019704 Si / 1000 Ang^3
#
#
#
# Elastic Constant Matrix: (Units=GPa)
#
#
# Indices 1 2 3 4 5 6 
#
# 1 105.3860 43.0454 38.5218 0.0000 -15.0312 0.0000
# 2 43.0454 96.2450 39.2901 0.0000 -8.0962 0.0000
# 3 38.5218 39.2901 109.2365 0.0000 -8.3576 0.0000
# 4 0.0000 0.0000 0.0000 15.9061 0.0000 -1.0420
# 5 -15.0312 -8.0962 -8.3576 0.0000 25.7165 0.0000
# 6 0.0000 0.0000 0.0000 -1.0420 0.0000 25.4382
#
#
#
# Elastic Compliance Matrix: (Units=1/GPa)
#
#
# Indices 1 2 3 4 5 6 
#
# 1 0.012960 -0.004274 -0.002622 0.000000 0.005377 0.000000
# 2 -0.004274 0.013743 -0.003380 0.000000 0.000730 0.000000
# 3 -0.002622 -0.003380 0.011379 0.000000 0.001102 0.000000
# 4 0.000000 0.000000 0.000000 0.063038 0.000000 0.002582
# 5 0.005377 0.000730 0.001102 0.000000 0.042617 0.000000
# 6 0.000000 0.000000 0.000000 0.002582 0.000000 0.039417
#
#
# Mechanical properties :
#
#
# Convention : Reuss Voigt Hill
#
# Bulk Modulus (GPa) = 57.04222 61.39801 59.22012
# Shear Modulus (GPa) = 23.86095 26.07950 24.97023
#
# Velocity S-wave (km/s) = 3.64285 3.80844 3.72656
# Velocity P-wave (km/s) = 7.02979 7.31338 7.17299
#
# Compressibility (1/GPa) = 0.01753087
#
# Stress axis : x y z
#
# Youngs Moduli (GPa) = 77.16172 72.76544 87.88134
#
# Poissons Ratio (x) = 0.31097 0.23039
# Poissons Ratio (y) = 0.32976 0.29704
# Poissons Ratio (z) = 0.20229 0.24595
#
# Static dielectric constant tensor:
#      x y z
#    x 3.389230 0.000000 -0.218690 
#    y 0.000000 3.469400 0.000000 
#    z -0.218690 0.000000 3.235990 
# 
# 
# High freq. dielectric constant tensor:
#      x y z
#    x 1.705430 0.000000 -0.009860 
#    y 0.000000 1.689790 0.000000 
#    z -0.009860 0.000000 1.684840 
# 
# From -- ./inp_files/264861.got.cif
#   From: 2010.06.25/outbox.cif.g09.slc.cpg/sg12_133_cif.got.tgz:264861.got - 2010.06.28 00:19:55.
