data_PCOD8096642
_publ_section_title
;
Structure prediction by ZEFSAII (Michael W. Deem and Ramdas Pophale) SiO2 
 PCOD8096642
Probable space group: C 2/M
;
_chemical_formula_sum "Si O2"
_cell_formula_units_Z 48
_cell_length_a 17.888437
_cell_length_b 11.195725
_cell_length_c 13.497910
_cell_angle_alpha 90.000000
_cell_angle_beta 54.580181
_cell_angle_gamma 90.000000
_cell_volume 2202.977443
_symmetry_space_group_name_H-M "C 2/M"
_symmetry_group_IT_number 12
_symmetry_cell_setting 'monoclinic'
loop_
_space_group_symop_operation_xyz
x,y,z
-x,y,-z
-x,-y,-z
x,-y,z
1/2+x,1/2+y,z
1/2-x,1/2+y,-z
1/2-x,1/2-y,-z
1/2+x,1/2-y,z
loop_
_atom_site_type_symbol
_atom_site_label
_atom_site_fract_x
_atom_site_fract_y
_atom_site_fract_z
Si Si1 0.748985 0.000000 0.638687
Si Si2 0.447005 0.500000 0.862513
Si Si3 0.153542 0.000000 0.635838
Si Si4 0.785913 0.238679 0.299809
Si Si5 0.849400 0.630857 0.867575
Si Si6 0.889618 0.000000 0.694672
Si Si7 0.651846 0.303365 0.958439
Si Si8 0.582421 0.245802 0.374108
O O1 0.829210 0.000000 0.494795
O O2 0.693935 0.872257 0.668907
O O3 0.789388 0.000000 0.719521
O O4 0.453680 0.500000 0.261998
O O5 0.432989 0.385926 0.943848
O O6 0.374561 0.500000 0.825970
O O7 0.195682 0.875664 0.644750
O O8 0.852910 0.227682 0.153665
O O9 0.678726 0.228660 0.355091
O O10 0.889823 0.500000 0.845534
O O11 0.746014 0.627149 0.906898
O O12 0.914967 0.697117 0.739432
O O13 0.853189 0.683653 0.974221
O O14 0.944696 0.115939 0.617733
O O15 0.500000 0.184438 0.500000
#
# Coordination Sequence:
#
# PCOD8096642 Si02
#       8
#     4   4   4   8   8   4   8   8
#     4  10  24  44  69  92 129 167 213 273 326 384
#     4  12  23  39  70  95 129 161 217 268 317 371
#     4  12  27  45  67  90 129 177 224 264 308 388
#     4  10  24  42  65  96 125 173 217 259 323 383
#     4  10  20  33  56  92 134 161 192 254 329 382
#     4  10  21  37  63 104 116 155 207 268 325 358
#     4  10  21  36  61  94 126 161 208 258 315 385
#     4  10  21  36  63  93 132 161 205 265 322 381
#
# _framework density 21.788692999999999
#
# number of rings (size 3 to 8) (size 9 to 14) (size 15 to 20)
#    0.000    1.667    2.500    1.250   11.667    1.667 
#    0.000    0.000    1.833    1.000    0.000    0.000 
#    0.000    0.000    0.000    0.000    0.000    0.000 
#
# Total GULP energy -297428.810627 kJ/mol
# GULP energy per Si atom -12392.867109 kJ/mol
# Density = 2.173910 g / cm^3
# Si number density = 21.788693 Si / 1000 Ang^3
#
#
#
# Elastic Constant Matrix: (Units=GPa)
#
#
# Indices 1 2 3 4 5 6 
#
# 1 34.6357 31.7571 30.6329 0.0000 -2.4162 0.0000
# 2 31.7571 169.2152 44.5390 0.0000 1.6876 0.0000
# 3 30.6329 44.5390 138.7007 0.0000 -6.1869 0.0000
# 4 0.0000 0.0000 0.0000 24.5729 0.0000 3.8631
# 5 -2.4162 1.6876 -6.1869 0.0000 24.2007 0.0000
# 6 0.0000 0.0000 0.0000 3.8631 0.0000 15.0417
#
#
#
# Elastic Compliance Matrix: (Units=1/GPa)
#
#
# Indices 1 2 3 4 5 6 
#
# 1 0.040543 -0.005800 -0.006973 0.000000 0.002670 0.000000
# 2 -0.005800 0.007309 -0.001127 0.000000 -0.001377 0.000000
# 3 -0.006973 -0.001127 0.009189 0.000000 0.001732 0.000000
# 4 0.000000 0.000000 0.000000 0.042407 0.000000 -0.010891
# 5 0.002670 -0.001377 0.001732 0.000000 0.042126 0.000000
# 6 0.000000 0.000000 0.000000 -0.010891 0.000000 0.069279
#
#
# Mechanical properties :
#
#
# Convention : Reuss Voigt Hill
#
# Bulk Modulus (GPa) = 34.19921 61.82329 48.01125
# Shear Modulus (GPa) = 20.12878 28.47123 24.30001
#
# Velocity S-wave (km/s) = 3.04273 3.61875 3.34317
# Velocity P-wave (km/s) = 5.29851 6.77466 6.08154
#
# Compressibility (1/GPa) = 0.02924045
#
# Stress axis : x y z
#
# Youngs Moduli (GPa) = 24.66512 136.82451 108.82640
#
# Poissons Ratio (x) = 0.79361 0.75880
# Poissons Ratio (y) = 0.14306 0.12268
# Poissons Ratio (z) = 0.17198 0.15425
#
# Static dielectric constant tensor:
#      x y z
#    x 3.393310 0.000000 0.099940 
#    y 0.000000 4.179690 0.000000 
#    z 0.099940 0.000000 4.079350 
# 
# 
# High freq. dielectric constant tensor:
#      x y z
#    x 1.800590 0.000000 0.003770 
#    y 0.000000 1.868330 0.000000 
#    z 0.003770 0.000000 1.875400 
# 
# From -- ./inp_files/181903.got.cif
#   From: 2010.06.25/outbox.cif.g09.slc.cpg/sg12_91_cif.got.tgz:181903.got - 2010.06.28 00:19:55.
