data_PCOD8096316
_publ_section_title
;
Structure prediction by ZEFSAII (Michael W. Deem and Ramdas Pophale) SiO2 
 PCOD8096316
Probable space group: C 2/M
;
_chemical_formula_sum "Si O2"
_cell_formula_units_Z 56
_cell_length_a 30.557388
_cell_length_b 8.942459
_cell_length_c 18.841417
_cell_angle_alpha 90.000000
_cell_angle_beta 38.010387
_cell_angle_gamma 90.000000
_cell_volume 3170.512576
_symmetry_space_group_name_H-M "C 2/M"
_symmetry_group_IT_number 12
_symmetry_cell_setting 'monoclinic'
loop_
_space_group_symop_operation_xyz
x,y,z
-x,y,-z
-x,-y,-z
x,-y,z
1/2+x,1/2+y,z
1/2-x,1/2+y,-z
1/2-x,1/2-y,-z
1/2+x,1/2-y,z
loop_
_atom_site_type_symbol
_atom_site_label
_atom_site_fract_x
_atom_site_fract_y
_atom_site_fract_z
Si Si1 0.546214 0.174567 0.729855
Si Si2 0.209363 0.676918 0.737212
Si Si3 0.310000 0.171799 0.878641
Si Si4 0.909949 0.175584 0.846306
Si Si5 0.440856 0.822299 0.127611
Si Si6 0.291047 0.328831 0.113419
Si Si7 0.792291 0.324640 0.510558
O O1 0.489018 0.266023 0.758280
O O2 0.542132 0.234100 0.815524
O O3 0.624303 0.208682 0.601108
O O4 0.527614 0.000000 0.749025
O O5 0.218183 0.500000 0.718349
O O6 0.135537 0.736141 0.799221
O O7 0.212342 0.720015 0.815555
O O8 0.270500 0.757734 0.614289
O O9 0.383998 0.251983 0.804631
O O10 0.285618 0.187213 0.827845
O O11 0.315388 0.000000 0.894298
O O12 0.250000 0.250000 0.000000
O O13 0.911257 0.000000 0.834048
O O14 0.856417 0.220634 0.978819
O O15 0.441285 0.000000 0.124126
O O16 0.500000 0.753571 0.000000
O O17 0.302432 0.500000 0.123341
O O18 0.776454 0.500000 0.527413
O O19 0.750000 0.250000 0.500000
#
# Coordination Sequence:
#
# PCOD8096316 Si02
#       7
#     8   8   8   8   8   8   8
#     4  10  20  35  53  74 103 141 180 216 263 317
#     4  11  21  34  54  78 104 139 181 221 264 313
#     4   9  17  31  52  77 109 144 178 215 260 318
#     4  10  20  33  52  81 113 141 176 219 266 319
#     4   9  17  30  48  73 104 135 170 210 253 310
#     4   9  19  34  51  78 112 142 173 212 263 318
#     4  11  22  38  57  75 102 139 183 228 266 313
#
# _framework density 17.662759999999999
#
# number of rings (size 3 to 8) (size 9 to 14) (size 15 to 20)
#    0.000    2.143    1.429    3.429    0.000    5.714 
#    0.000    0.000    0.000    3.857    0.000    6.000 
#    0.000    0.000    0.000    0.000    0.000    0.000 
#
# Total GULP energy -347156.348550 kJ/mol
# GULP energy per Si atom -12398.441020 kJ/mol
# Density = 1.762256 g / cm^3
# Si number density = 17.662760 Si / 1000 Ang^3
#
#
#
# Elastic Constant Matrix: (Units=GPa)
#
#
# Indices 1 2 3 4 5 6 
#
# 1 115.6958 49.9006 30.1139 0.0007 -25.4709 0.0017
# 2 49.9006 84.2052 37.0881 0.0187 -13.9182 -0.0048
# 3 30.1139 37.0881 78.1701 0.0029 -17.4050 -0.0004
# 4 0.0007 0.0187 0.0029 26.3904 0.0011 0.3838
# 5 -25.4709 -13.9182 -17.4050 0.0011 14.9026 -0.0017
# 6 0.0017 -0.0048 -0.0004 0.3838 -0.0017 33.2678
#
#
#
# Elastic Compliance Matrix: (Units=1/GPa)
#
#
# Indices 1 2 3 4 5 6 
#
# 1 0.016243 -0.006625 0.002283 0.000003 0.024242 0.000000
# 2 -0.006625 0.018400 -0.006585 -0.000012 -0.001829 0.000003
# 3 0.002283 -0.006585 0.019646 0.000002 0.020697 0.000000
# 4 0.000003 -0.000012 0.000002 0.037899 -0.000007 -0.000437
# 5 0.024242 -0.001829 0.020697 -0.000007 0.131000 0.000006
# 6 0.000000 0.000003 0.000000 -0.000437 0.000006 0.030064
#
#
# Mechanical properties :
#
#
# Convention : Reuss Voigt Hill
#
# Bulk Modulus (GPa) = 30.83024 56.91960 43.87492
# Shear Modulus (GPa) = 17.48767 25.64339 21.56553
#
# Velocity S-wave (km/s) = 3.14998 3.81443 3.49801
# Velocity P-wave (km/s) = 5.54280 7.18996 6.41943
#
# Compressibility (1/GPa) = 0.03243569
#
# Stress axis : x y z
#
# Youngs Moduli (GPa) = 61.56385 54.34908 50.90207
#
# Poissons Ratio (x) = 0.36004 -0.11622
# Poissons Ratio (y) = 0.40784 0.33519
# Poissons Ratio (z) = -0.14056 0.35789
#
# Static dielectric constant tensor:
#      x y z
#    x 3.559230 0.000000 -0.065530 
#    y 0.000000 3.295420 0.000010 
#    z -0.065530 0.000010 3.203590 
# 
# 
# High freq. dielectric constant tensor:
#      x y z
#    x 1.690940 0.000000 -0.005680 
#    y 0.000000 1.681710 0.000000 
#    z -0.005680 0.000000 1.659170 
# 
# From -- ./inp_files/280858.got.cif
#   From: 2010.06.25/outbox.cif.g09.slc.cpg/sg12_141_cif.got.tgz:280858.got - 2010.06.28 00:19:55.
