data_PCOD8096979
_publ_section_title
;
Structure prediction by ZEFSAII (Michael W. Deem and Ramdas Pophale) SiO2 
 PCOD8096979
Probable space group: C 2/M
;
_chemical_formula_sum "Si O2"
_cell_formula_units_Z 64
_cell_length_a 8.589023
_cell_length_b 12.304416
_cell_length_c 33.733127
_cell_angle_alpha 90.000000
_cell_angle_beta 78.503692
_cell_angle_gamma 90.000000
_cell_volume 3493.492154
_symmetry_space_group_name_H-M "C 2/M"
_symmetry_group_IT_number 12
_symmetry_cell_setting 'monoclinic'
loop_
_space_group_symop_operation_xyz
x,y,z
-x,y,-z
-x,-y,-z
x,-y,z
1/2+x,1/2+y,z
1/2-x,1/2+y,-z
1/2-x,1/2-y,-z
1/2+x,1/2-y,z
loop_
_atom_site_type_symbol
_atom_site_label
_atom_site_fract_x
_atom_site_fract_y
_atom_site_fract_z
Si Si1 0.343398 0.624744 0.074699
Si Si2 0.530336 0.238250 0.782805
Si Si3 0.903842 0.874898 0.641724
Si Si4 0.930090 0.626277 0.545802
Si Si5 0.228519 0.127577 0.832516
Si Si6 0.669843 0.374705 0.265320
Si Si7 0.166256 0.729020 0.594067
Si Si8 0.401527 0.795366 0.970659
O O1 0.400318 0.500000 0.069258
O O2 0.315458 0.663205 0.120905
O O3 0.484335 0.698290 0.050149
O O4 0.170555 0.633632 0.061499
O O5 0.400883 0.171347 0.813269
O O6 0.598749 0.326258 0.809348
O O7 0.463364 0.301149 0.748267
O O8 0.658822 0.152396 0.761123
O O9 0.829742 0.848628 0.688166
O O10 0.774398 0.848524 0.615084
O O11 0.061459 0.803980 0.628095
O O12 0.953734 0.000000 0.635487
O O13 0.884713 0.500000 0.549319
O O14 0.770596 0.694802 0.560323
O O15 0.000000 0.660501 0.500000
O O16 0.058060 0.650883 0.573178
O O17 0.229019 0.000000 0.827778
O O18 0.630740 0.500000 0.258796
O O19 0.500000 0.861710 0.000000
O O20 0.250000 0.750000 0.000000
#
# Coordination Sequence:
#
# PCOD8096979 Si02
#       8
#     8   8   8   8   8   8   8   8
#     4  10  20  35  54  75 102 134 166 205 250 293
#     4  10  20  34  53  75 103 133 165 207 249 291
#     4  10  20  34  52  74 101 132 167 206 247 295
#     4  10  20  34  52  74 100 130 165 206 251 299
#     4  10  20  34  53  76 101 132 168 204 247 296
#     4  10  20  34  52  75 102 133 168 205 248 296
#     4  10  20  34  52  74 100 131 167 205 250 298
#     4   9  19  34  52  75 101 129 166 204 242 293
#
# _framework density 18.319776999999998
#
# number of rings (size 3 to 8) (size 9 to 14) (size 15 to 20)
#    0.000    2.125    0.000    3.375    0.000    2.500 
#    0.000    1.875    0.000   28.500    0.000    0.000 
#    0.000    0.000    0.000    0.000    0.000    0.000 
#
# Total GULP energy -396774.128956 kJ/mol
# GULP energy per Si atom -12399.191530 kJ/mol
# Density = 1.827808 g / cm^3
# Si number density = 18.319777 Si / 1000 Ang^3
#
#
#
# Elastic Constant Matrix: (Units=GPa)
#
#
# Indices 1 2 3 4 5 6 
#
# 1 73.7102 14.2517 21.5749 0.0000 -5.6572 0.0000
# 2 14.2517 58.0608 30.6255 0.0000 -10.8645 0.0000
# 3 21.5749 30.6255 98.7245 0.0000 -7.5702 0.0000
# 4 0.0000 0.0000 0.0000 -23.2674 0.0000 -4.1104
# 5 -5.6572 -10.8645 -7.5702 0.0000 21.8408 0.0000
# 6 0.0000 0.0000 0.0000 -4.1104 0.0000 17.8472
#
#
#
# Elastic Compliance Matrix: (Units=1/GPa)
#
#
# Indices 1 2 3 4 5 6 
#
# 1 0.014824 -0.001955 -0.002479 0.000000 0.002008 0.000000
# 2 -0.001955 0.022407 -0.005864 0.000000 0.008607 0.000000
# 3 -0.002479 -0.005864 0.012551 0.000000 0.000791 0.000000
# 4 0.000000 0.000000 0.000000 -0.041298 0.000000 -0.009511
# 5 0.002008 0.008607 0.000791 0.000000 0.050862 0.000000
# 6 0.000000 0.000000 0.000000 -0.009511 0.000000 0.053841
#
#
# Mechanical properties :
#
#
# Convention : Reuss Voigt Hill
#
# Bulk Modulus (GPa) = 34.26342 40.37775 37.32058
# Shear Modulus (GPa) = 34.84064 14.22035 24.53050
#
# Velocity S-wave (km/s) = 4.36570 2.78911 3.66323
# Velocity P-wave (km/s) = 6.64500 5.69742 6.18937
#
# Compressibility (1/GPa) = 0.02918565
#
# Stress axis : x y z
#
# Youngs Moduli (GPa) = 67.45608 44.62942 79.67765
#
# Poissons Ratio (x) = 0.08727 0.19753
# Poissons Ratio (y) = 0.13191 0.46719
# Poissons Ratio (z) = 0.16723 0.26168
#
# Static dielectric constant tensor:
#      x y z
#    x 3.572140 0.000000 0.172650 
#    y 0.000000 3.905890 0.000000 
#    z 0.172650 0.000000 3.710960 
# 
# 
# High freq. dielectric constant tensor:
#      x y z
#    x 1.718750 0.000000 0.001280 
#    y 0.000000 1.706820 0.000000 
#    z 0.001280 0.000000 1.726920 
# 
# From -- ./inp_files/372159.got.cif
#   From: 2010.06.25/outbox.cif.g09.slc.cpg/sg12_187_cif.got.tgz:372159.got - 2010.06.28 00:19:55.
