data_PCOD8096985
_publ_section_title
;
Structure prediction by ZEFSAII (Michael W. Deem and Ramdas Pophale) SiO2 
 PCOD8096985
Probable space group: C 2/M
;
_chemical_formula_sum "Si O2"
_cell_formula_units_Z 32
_cell_length_a 28.378524
_cell_length_b 8.663102
_cell_length_c 22.215548
_cell_angle_alpha 90.000000
_cell_angle_beta 161.386447
_cell_angle_gamma 90.000000
_cell_volume 1743.254042
_symmetry_space_group_name_H-M "C 2/M"
_symmetry_group_IT_number 12
_symmetry_cell_setting 'monoclinic'
loop_
_space_group_symop_operation_xyz
x,y,z
-x,y,-z
-x,-y,-z
x,-y,z
1/2+x,1/2+y,z
1/2-x,1/2+y,-z
1/2-x,1/2-y,-z
1/2+x,1/2-y,z
loop_
_atom_site_type_symbol
_atom_site_label
_atom_site_fract_x
_atom_site_fract_y
_atom_site_fract_z
Si Si1 0.709412 0.316896 0.284086
Si Si2 0.963664 0.317738 0.289605
Si Si3 0.807641 0.682178 0.980564
Si Si4 0.072850 0.683069 0.002704
O O1 0.691988 0.500000 0.268305
O O2 0.679267 0.264985 0.179449
O O3 0.871239 0.258535 0.498718
O O4 0.595373 0.235736 0.191341
O O5 0.956574 0.500000 0.285440
O O6 0.856411 0.250052 0.210947
O O7 0.911957 0.258797 0.161249
O O8 0.795258 0.500000 0.966340
O O9 0.877204 0.740255 0.002458
O O10 0.084762 0.500000 0.024907
#
# Coordination Sequence:
#
# PCOD8096985 Si02
#       4
#     8   8   8   8
#     4  10  20  34  52  74 101 131 165 204 245 292
#     4   9  19  35  53  74 100 130 165 204 245 291
#     4   9  19  35  53  74 100 130 165 204 245 291
#     4  10  20  34  52  74 101 131 165 204 245 292
#
# _framework density 18.356473999999999
#
# number of rings (size 3 to 8) (size 9 to 14) (size 15 to 20)
#    0.000    2.500    0.000    3.000    0.000    6.000 
#    0.000    5.000    0.000    0.000    0.000    0.000 
#    0.000    0.000    0.000    0.000    0.000    0.000 
#
# Total GULP energy -198422.179351 kJ/mol
# GULP energy per Si atom -12401.386209 kJ/mol
# Density = 1.831469 g / cm^3
# Si number density = 18.356474 Si / 1000 Ang^3
#
#
#
# Elastic Constant Matrix: (Units=GPa)
#
#
# Indices 1 2 3 4 5 6 
#
# 1 157.8129 13.2692 64.2609 0.0001 12.4732 0.0000
# 2 13.2692 18.3560 10.2809 0.0000 2.0802 0.0000
# 3 64.2609 10.2809 143.9574 0.0001 15.1440 0.0001
# 4 0.0001 0.0000 0.0001 28.2526 0.0001 4.3451
# 5 12.4732 2.0802 15.1440 0.0001 15.3698 0.0000
# 6 0.0000 0.0000 0.0001 4.3451 0.0000 28.6851
#
#
#
# Elastic Compliance Matrix: (Units=1/GPa)
#
#
# Indices 1 2 3 4 5 6 
#
# 1 0.008139 -0.003833 -0.003034 0.000000 -0.003097 0.000000
# 2 -0.003833 0.058788 -0.002206 0.000000 -0.002672 0.000000
# 3 -0.003034 -0.002206 0.009112 0.000000 -0.006218 0.000000
# 4 0.000000 0.000000 0.000000 0.036239 0.000000 -0.005489
# 5 -0.003097 -0.002672 -0.006218 0.000000 0.074064 0.000000
# 6 0.000000 0.000000 0.000000 -0.005489 0.000000 0.035693
#
#
# Mechanical properties :
#
#
# Convention : Reuss Voigt Hill
#
# Bulk Modulus (GPa) = 17.27330 55.08316 36.17823
# Shear Modulus (GPa) = 19.26934 29.94918 24.60926
#
# Velocity S-wave (km/s) = 3.24347 4.04361 3.66544
# Velocity P-wave (km/s) = 4.84326 7.20233 6.13721
#
# Compressibility (1/GPa) = 0.05789283
#
# Stress axis : x y z
#
# Youngs Moduli (GPa) = 122.86509 17.01032 109.74163
#
# Poissons Ratio (x) = 0.06521 0.33291
# Poissons Ratio (y) = 0.47100 0.24210
# Poissons Ratio (z) = 0.37272 0.03753
#
# Static dielectric constant tensor:
#      x y z
#    x 3.542450 0.000000 -0.018950 
#    y 0.000000 3.302320 0.000000 
#    z -0.018950 0.000000 3.557780 
# 
# 
# High freq. dielectric constant tensor:
#      x y z
#    x 1.714570 0.000000 0.004500 
#    y 0.000000 1.711880 0.000000 
#    z 0.004500 0.000000 1.714140 
# 
# From -- ./inp_files/37492.got.cif
#   From: 2010.06.25/outbox.cif.g09.slc.cpg/sg12_19_cif.got.tgz:37492.got - 2010.06.28 00:19:55.
