data_PCOD8096361
_publ_section_title
;
Structure prediction by ZEFSAII (Michael W. Deem and Ramdas Pophale) SiO2 
 PCOD8096361
Probable space group: C 2/M
;
_chemical_formula_sum "Si O2"
_cell_formula_units_Z 64
_cell_length_a 21.143475
_cell_length_b 12.779541
_cell_length_c 14.418910
_cell_angle_alpha 90.000000
_cell_angle_beta 64.456234
_cell_angle_gamma 90.000000
_cell_volume 3515.231361
_symmetry_space_group_name_H-M "C 2/M"
_symmetry_group_IT_number 12
_symmetry_cell_setting 'monoclinic'
loop_
_space_group_symop_operation_xyz
x,y,z
-x,y,-z
-x,-y,-z
x,-y,z
1/2+x,1/2+y,z
1/2-x,1/2+y,-z
1/2-x,1/2-y,-z
1/2+x,1/2-y,z
loop_
_atom_site_type_symbol
_atom_site_label
_atom_site_fract_x
_atom_site_fract_y
_atom_site_fract_z
Si Si1 0.139982 0.259795 0.597397
Si Si2 0.074377 0.883718 0.982905
Si Si3 0.231201 0.879700 0.409774
Si Si4 0.989219 0.380480 0.401383
Si Si5 0.840567 0.884854 0.256994
Si Si6 0.866863 0.381636 0.797753
Si Si7 0.175574 0.723359 0.001372
Si Si8 0.243218 0.766346 0.226219
O O1 0.174737 0.194214 0.493491
O O2 0.191165 0.349778 0.604107
O O3 0.070033 0.310987 0.605608
O O4 0.116972 0.179158 0.692435
O O5 0.116503 0.894808 0.862716
O O6 0.119434 0.818606 0.029651
O O7 0.061782 0.000000 0.033619
O O8 0.000000 0.831547 0.000000
O O9 0.222062 0.863951 0.304182
O O10 0.216648 0.000000 0.442864
O O11 0.963994 0.500000 0.419246
O O12 0.000000 0.341557 0.500000
O O13 0.056841 0.367526 0.293528
O O14 0.769229 0.823056 0.280908
O O15 0.821204 0.000000 0.307592
O O16 0.839111 0.500000 0.794349
O O17 0.820828 0.287682 0.786069
O O18 0.863498 0.365549 0.912346
O O19 0.196304 0.691154 0.882764
O O20 0.250000 0.750000 0.000000
#
# Coordination Sequence:
#
# PCOD8096361 Si02
#       8
#     8   8   8   8   8   8   8   8
#     4  10  20  33  53  78 103 135 168 214 260 306
#     4   9  18  32  52  77 106 143 181 221 267 318
#     4  10  20  34  54  78 105 135 170 211 260 313
#     4  10  21  36  54  75 100 133 171 213 261 312
#     4   9  17  30  51  78 104 133 171 214 258 305
#     4  10  20  34  55  78 103 138 178 217 260 312
#     4   9  19  33  52  80 109 141 181 225 269 311
#     4   9  18  34  53  78 106 139 174 216 261 302
#
# _framework density 18.206482999999999
#
# number of rings (size 3 to 8) (size 9 to 14) (size 15 to 20)
#    0.000    2.500    0.000    1.875    1.750    3.500 
#    0.000    5.625    0.000    7.125    0.000    0.000 
#    0.000    0.000    0.000    0.000    0.000    0.000 
#
# Total GULP energy -396514.335007 kJ/mol
# GULP energy per Si atom -12391.072969 kJ/mol
# Density = 1.816504 g / cm^3
# Si number density = 18.206483 Si / 1000 Ang^3
#
#
#
# Elastic Constant Matrix: (Units=GPa)
#
#
# Indices 1 2 3 4 5 6 
#
# 1 94.1976 38.6556 25.3233 0.0000 4.4117 0.0000
# 2 38.6556 71.0848 43.0936 0.0000 3.8729 0.0000
# 3 25.3233 43.0936 85.7489 0.0000 8.4770 0.0000
# 4 0.0000 0.0000 0.0000 31.5882 0.0000 3.6102
# 5 4.4117 3.8729 8.4770 0.0000 23.3480 0.0000
# 6 0.0000 0.0000 0.0000 3.6102 0.0000 25.8614
#
#
#
# Elastic Compliance Matrix: (Units=1/GPa)
#
#
# Indices 1 2 3 4 5 6 
#
# 1 0.013714 -0.007204 -0.000302 0.000000 -0.001286 0.000000
# 2 -0.007204 0.024019 -0.010044 0.000000 0.001024 0.000000
# 3 -0.000302 -0.010044 0.017248 0.000000 -0.004539 0.000000
# 4 0.000000 0.000000 0.000000 0.032171 0.000000 -0.004491
# 5 -0.001286 0.001024 -0.004539 0.000000 0.044551 0.000000
# 6 0.000000 0.000000 0.000000 -0.004491 0.000000 0.039295
#
#
# Mechanical properties :
#
#
# Convention : Reuss Voigt Hill
#
# Bulk Modulus (GPa) = 50.30532 51.68625 50.99579
# Shear Modulus (GPa) = 23.50448 25.75675 24.63062
#
# Velocity S-wave (km/s) = 3.59694 3.76533 3.68210
# Velocity P-wave (km/s) = 6.70381 6.88144 6.79320
#
# Compressibility (1/GPa) = 0.01987861
#
# Stress axis : x y z
#
# Youngs Moduli (GPa) = 72.91886 41.63407 57.97829
#
# Poissons Ratio (x) = 0.29994 0.01752
# Poissons Ratio (y) = 0.52532 0.58236
# Poissons Ratio (z) = 0.02204 0.41819
#
# Static dielectric constant tensor:
#      x y z
#    x 3.276530 0.000000 0.066990 
#    y 0.000000 3.545410 0.000000 
#    z 0.066990 0.000000 3.726710 
# 
# 
# High freq. dielectric constant tensor:
#      x y z
#    x 1.690050 0.000000 0.001450 
#    y 0.000000 1.692650 0.000000 
#    z 0.001450 0.000000 1.719840 
# 
# From -- ./inp_files/232447.got.cif
#   From: 2010.06.25/outbox.cif.g09.slc.cpg/sg12_117_cif.got.tgz:232447.got - 2010.06.28 00:19:55.
