data_PCOD8096307
_publ_section_title
;
Structure prediction by ZEFSAII (Michael W. Deem and Ramdas Pophale) SiO2 
 PCOD8096307
Probable space group: C 2/M
;
_chemical_formula_sum "Si O2"
_cell_formula_units_Z 40
_cell_length_a 14.792951
_cell_length_b 9.279080
_cell_length_c 29.994506
_cell_angle_alpha 90.000000
_cell_angle_beta 150.631671
_cell_angle_gamma 90.000000
_cell_volume 2019.163501
_symmetry_space_group_name_H-M "C 2/M"
_symmetry_group_IT_number 12
_symmetry_cell_setting 'monoclinic'
loop_
_space_group_symop_operation_xyz
x,y,z
-x,y,-z
-x,-y,-z
x,-y,z
1/2+x,1/2+y,z
1/2-x,1/2+y,-z
1/2-x,1/2-y,-z
1/2+x,1/2-y,z
loop_
_atom_site_type_symbol
_atom_site_label
_atom_site_fract_x
_atom_site_fract_y
_atom_site_fract_z
Si Si1 0.649496 0.159895 0.598348
Si Si2 0.804811 0.667046 0.896124
Si Si3 0.222416 0.165477 0.760469
Si Si4 0.452124 0.168835 0.772066
Si Si5 0.923683 0.659509 0.589797
O O1 0.500000 0.227863 0.500000
O O2 0.826342 0.263056 0.678504
O O3 0.561188 0.144913 0.608266
O O4 0.710319 0.000000 0.607404
O O5 0.760777 0.500000 0.886625
O O6 0.813187 0.699336 0.847017
O O7 0.652920 0.761458 0.856034
O O8 0.000000 0.713270 0.000000
O O9 0.370507 0.203733 0.785842
O O10 0.034956 0.258726 0.676509
O O11 0.161713 0.000000 0.729808
O O12 0.465957 0.000000 0.768970
O O13 0.862884 0.500000 0.580089
O O14 0.750000 0.750000 0.500000
#
# Coordination Sequence:
#
# PCOD8096307 Si02
#       5
#     8   8   8   8   8
#     4   9  19  35  54  77 107 148 189 223 270 334
#     4  10  22  40  62  85 110 149 196 235 282 345
#     4   9  20  39  58  79 114 152 186 230 285 340
#     4  10  21  37  57  84 116 147 183 236 290 334
#     4  10  20  33  52  80 112 147 186 227 276 332
#
# _framework density 19.810184
#
# number of rings (size 3 to 8) (size 9 to 14) (size 15 to 20)
#    0.000    2.400    0.000    1.200    2.800    4.000 
#    0.000    0.000    0.000    0.000    0.000    0.000 
#    0.000    0.000    0.000    0.000    0.000    0.000 
#
# Total GULP energy -248004.714408 kJ/mol
# GULP energy per Si atom -12400.235720 kJ/mol
# Density = 1.976510 g / cm^3
# Si number density = 19.810184 Si / 1000 Ang^3
#
#
#
# Elastic Constant Matrix: (Units=GPa)
#
#
# Indices 1 2 3 4 5 6 
#
# 1 61.8315 49.0544 53.2980 -0.0001 1.1839 0.0000
# 2 49.0544 128.5394 91.9379 0.0001 11.7542 0.0000
# 3 53.2980 91.9379 188.6138 -0.0005 1.5808 0.0000
# 4 -0.0001 0.0001 -0.0005 27.4629 0.0000 7.2433
# 5 1.1839 11.7542 1.5808 0.0000 33.1533 0.0000
# 6 0.0000 0.0000 0.0000 7.2433 0.0000 26.6161
#
#
#
# Elastic Compliance Matrix: (Units=1/GPa)
#
#
# Indices 1 2 3 4 5 6 
#
# 1 0.024847 -0.007083 -0.003584 0.000000 0.001795 0.000000
# 2 -0.007083 0.014506 -0.005030 0.000000 -0.004650 0.000000
# 3 -0.003584 -0.005030 0.008754 0.000000 0.001494 0.000000
# 4 0.000000 0.000000 0.000000 0.039228 0.000000 -0.010676
# 5 0.001795 -0.004650 0.001494 0.000000 0.031676 0.000000
# 6 0.000000 0.000000 0.000000 -0.010676 0.000000 0.040477
#
#
# Mechanical properties :
#
#
# Convention : Reuss Voigt Hill
#
# Bulk Modulus (GPa) = 59.83458 85.28505 72.55981
# Shear Modulus (GPa) = 25.45124 29.75940 27.60532
#
# Velocity S-wave (km/s) = 3.58824 3.88006 3.73700
# Velocity P-wave (km/s) = 6.88744 7.95096 7.43823
#
# Compressibility (1/GPa) = 0.01671274
#
# Stress axis : x y z
#
# Youngs Moduli (GPa) = 40.24583 68.93654 114.23474
#
# Poissons Ratio (x) = 0.48831 0.40937
# Poissons Ratio (y) = 0.28508 0.57463
# Poissons Ratio (z) = 0.14422 0.34677
#
# Static dielectric constant tensor:
#      x y z
#    x 3.115160 0.000000 -0.272770 
#    y 0.000000 3.925950 0.000000 
#    z -0.272770 0.000000 3.515590 
# 
# 
# High freq. dielectric constant tensor:
#      x y z
#    x 1.766300 0.000000 -0.003320 
#    y 0.000000 1.774160 0.000000 
#    z -0.003320 0.000000 1.770340 
# 
# From -- ./inp_files/151708.got.cif
#   From: 2010.06.25/outbox.cif.g09.slc.cpg/sg12_76_cif.got.tgz:151708.got - 2010.06.28 00:19:55.
