data_PCOD8096375
_publ_section_title
;
Structure prediction by ZEFSAII (Michael W. Deem and Ramdas Pophale) SiO2 
 PCOD8096375
Probable space group: C 2/M
;
_chemical_formula_sum "Si O2"
_cell_formula_units_Z 48
_cell_length_a 14.088696
_cell_length_b 8.923234
_cell_length_c 29.990485
_cell_angle_alpha 90.000000
_cell_angle_beta 43.926194
_cell_angle_gamma 90.000000
_cell_volume 2615.578617
_symmetry_space_group_name_H-M "C 2/M"
_symmetry_group_IT_number 12
_symmetry_cell_setting 'monoclinic'
loop_
_space_group_symop_operation_xyz
x,y,z
-x,y,-z
-x,-y,-z
x,-y,z
1/2+x,1/2+y,z
1/2-x,1/2+y,-z
1/2-x,1/2-y,-z
1/2+x,1/2-y,z
loop_
_atom_site_type_symbol
_atom_site_label
_atom_site_fract_x
_atom_site_fract_y
_atom_site_fract_z
Si Si1 0.901413 0.173827 0.162596
Si Si2 0.085004 0.330076 0.269842
Si Si3 0.907683 0.323386 0.491146
Si Si4 0.884892 0.326692 0.075651
Si Si5 0.394764 0.824609 0.839129
Si Si6 0.404140 0.675195 0.402046
O O1 0.743052 0.195897 0.228496
O O2 0.931588 0.235023 0.103169
O O3 0.986571 0.267925 0.169104
O O4 0.943780 0.000000 0.149847
O O5 0.041753 0.500000 0.295240
O O6 0.058942 0.292177 0.227036
O O7 0.993000 0.218886 0.329450
O O8 0.923214 0.500000 0.481726
O O9 0.752044 0.273904 0.553413
O O10 0.962416 0.253785 0.426595
O O11 0.000000 0.259951 0.500000
O O12 0.864902 0.500000 0.095350
O O13 0.744481 0.262972 0.102808
O O14 0.000000 0.304552 0.000000
O O15 0.367672 0.000000 0.855749
O O16 0.414293 0.500000 0.406173
#
# Coordination Sequence:
#
# PCOD8096375 Si02
#       6
#     8   8   8   8   8   8
#     4  10  21  37  57  80 107 142 181 221 268 319
#     4   9  20  37  54  75 106 141 174 213 263 316
#     4   9  19  36  54  73 102 138 173 211 258 312
#     4  10  21  37  57  81 109 142 180 222 267 316
#     4  10  21  37  57  81 109 142 179 221 269 318
#     4  10  20  33  53  79 103 133 173 216 261 308
#
# _framework density 18.351580999999999
#
# number of rings (size 3 to 8) (size 9 to 14) (size 15 to 20)
#    0.000    2.333    0.000    3.000    0.000    8.333 
#    0.000    5.000    0.000    0.000    0.000    0.000 
#    0.000    0.000    0.000    0.000    0.000    0.000 
#
# Total GULP energy -297690.129702 kJ/mol
# GULP energy per Si atom -12403.755404 kJ/mol
# Density = 1.830981 g / cm^3
# Si number density = 18.351581 Si / 1000 Ang^3
#
#
#
# Elastic Constant Matrix: (Units=GPa)
#
#
# Indices 1 2 3 4 5 6 
#
# 1 113.8531 17.8717 35.0923 -0.0002 6.0592 -0.0007
# 2 17.8717 50.3183 39.8188 -0.0006 2.1520 -0.0012
# 3 35.0923 39.8188 95.1960 -0.0001 3.8171 -0.0003
# 4 -0.0002 -0.0006 -0.0001 34.5277 -0.0001 1.7333
# 5 6.0592 2.1520 3.8171 -0.0001 13.0691 -0.0002
# 6 -0.0007 -0.0012 -0.0003 1.7333 -0.0002 34.4302
#
#
#
# Elastic Compliance Matrix: (Units=1/GPa)
#
#
# Indices 1 2 3 4 5 6 
#
# 1 0.010104 -0.000899 -0.003204 0.000000 -0.003600 0.000000
# 2 -0.000899 0.029808 -0.012098 0.000000 -0.000958 0.000001
# 3 -0.003204 -0.012098 0.016804 0.000000 -0.001430 0.000000
# 4 0.000000 0.000000 0.000000 0.029036 0.000000 -0.001462
# 5 -0.003600 -0.000958 -0.001430 0.000000 0.078761 0.000000
# 6 0.000000 0.000001 0.000000 -0.001462 0.000000 0.029118
#
#
# Mechanical properties :
#
#
# Convention : Reuss Voigt Hill
#
# Bulk Modulus (GPa) = 41.13171 49.43700 45.28436
# Shear Modulus (GPa) = 21.35510 27.51102 24.43306
#
# Velocity S-wave (km/s) = 3.41495 3.87603 3.65278
# Velocity P-wave (km/s) = 6.16531 6.85776 6.52073
#
# Compressibility (1/GPa) = 0.02431214
#
# Stress axis : x y z
#
# Youngs Moduli (GPa) = 98.97508 33.54857 59.51118
#
# Poissons Ratio (x) = 0.03016 0.19068
# Poissons Ratio (y) = 0.08898 0.71998
# Poissons Ratio (z) = 0.31712 0.40588
#
# Static dielectric constant tensor:
#      x y z
#    x 3.483080 0.000000 -0.010810 
#    y 0.000000 3.453780 0.000000 
#    z -0.010810 0.000000 3.271290 
# 
# 
# High freq. dielectric constant tensor:
#      x y z
#    x 1.715760 0.000000 0.003000 
#    y 0.000000 1.722080 0.000000 
#    z 0.003000 0.000000 1.708370 
# 
# From -- ./inp_files/308307.got.cif
#   From: 2010.06.25/outbox.cif.g09.slc.cpg/sg12_155_cif.got.tgz:308307.got - 2010.06.28 00:19:55.
