data_PCOD8096527
_publ_section_title
;
Structure prediction by ZEFSAII (Michael W. Deem and Ramdas Pophale) SiO2 
 PCOD8096527
Probable space group: C 2/M
;
_chemical_formula_sum "Si O2"
_cell_formula_units_Z 48
_cell_length_a 18.737714
_cell_length_b 13.737151
_cell_length_c 22.043679
_cell_angle_alpha 90.000000
_cell_angle_beta 153.656624
_cell_angle_gamma 90.000000
_cell_volume 2517.882619
_symmetry_space_group_name_H-M "C 2/M"
_symmetry_group_IT_number 12
_symmetry_cell_setting 'monoclinic'
loop_
_space_group_symop_operation_xyz
x,y,z
-x,y,-z
-x,-y,-z
x,-y,z
1/2+x,1/2+y,z
1/2-x,1/2+y,-z
1/2-x,1/2-y,-z
1/2+x,1/2-y,z
loop_
_atom_site_type_symbol
_atom_site_label
_atom_site_fract_x
_atom_site_fract_y
_atom_site_fract_z
Si Si1 0.157629 0.107397 0.158917
Si Si2 0.372668 0.244472 0.245737
Si Si3 0.989188 0.386217 0.225182
Si Si4 0.719386 0.385805 0.923573
Si Si5 0.789593 0.769651 0.461614
Si Si6 0.108587 0.887783 0.259261
O O1 0.269804 0.192022 0.218935
O O2 0.098596 0.135275 0.180853
O O3 0.242346 0.000000 0.223261
O O4 0.000000 0.100948 0.000000
O O5 0.432032 0.164185 0.243252
O O6 0.272774 0.327893 0.134199
O O7 0.520820 0.294991 0.395517
O O8 0.982028 0.500000 0.231909
O O9 0.172092 0.355034 0.347187
O O10 0.872032 0.356647 0.080689
O O11 0.719047 0.500000 0.908720
O O12 0.557569 0.353772 0.835841
O O13 0.750000 0.750000 0.500000
O O14 0.757992 0.671156 0.400189
O O15 0.141588 0.000000 0.298254
#
# Coordination Sequence:
#
# PCOD8096527 Si02
#       6
#     8   8   8   8   8   8
#     4  10  22  37  58  89 122 155 187 232 293 348
#     4  11  21  36  56  86 117 152 193 235 286 346
#     4  10  20  33  54  84 115 146 191 246 289 334
#     4  10  20  35  60  87 111 148 197 243 286 333
#     4  10  21  34  52  84 115 152 193 230 288 339
#     4  10  20  36  57  85 121 152 188 235 288 345
#
# _framework density 19.063637
#
# number of rings (size 3 to 8) (size 9 to 14) (size 15 to 20)
#    0.000    1.833    3.333    2.000    2.333    7.333 
#    0.000    1.667    0.000    1.500    0.000    2.333 
#    0.000    0.000    0.000    0.000    0.000    0.000 
#
# Total GULP energy -297535.206239 kJ/mol
# GULP energy per Si atom -12397.300260 kJ/mol
# Density = 1.902025 g / cm^3
# Si number density = 19.063637 Si / 1000 Ang^3
#
#
#
# Elastic Constant Matrix: (Units=GPa)
#
#
# Indices 1 2 3 4 5 6 
#
# 1 49.4720 16.4674 7.6579 0.0071 -7.2230 0.0029
# 2 16.4674 59.0126 28.4797 0.0080 -4.9025 0.0040
# 3 7.6579 28.4797 115.0928 -0.0019 -1.9938 -0.0002
# 4 0.0071 0.0080 -0.0019 20.8683 0.0005 -2.7597
# 5 -7.2230 -4.9025 -1.9938 0.0005 29.0883 0.0011
# 6 0.0029 0.0040 -0.0002 -2.7597 0.0011 35.3231
#
#
#
# Elastic Compliance Matrix: (Units=1/GPa)
#
#
# Indices 1 2 3 4 5 6 
#
# 1 0.022893 -0.006023 0.000048 -0.000006 0.004673 -0.000002
# 2 -0.006023 0.021079 -0.004785 -0.000007 0.001729 -0.000002
# 3 0.000048 -0.004785 0.009868 0.000003 -0.000118 0.000001
# 4 -0.000006 -0.000007 0.000003 0.048420 -0.000003 0.003783
# 5 0.004673 0.001729 -0.000118 -0.000003 0.035822 -0.000002
# 6 -0.000002 -0.000002 0.000001 0.003783 -0.000002 0.028606
#
#
# Mechanical properties :
#
#
# Convention : Reuss Voigt Hill
#
# Bulk Modulus (GPa) = 30.94153 36.53193 33.73673
# Shear Modulus (GPa) = 25.12795 28.45409 26.79102
#
# Velocity S-wave (km/s) = 3.63452 3.86759 3.75286
# Velocity P-wave (km/s) = 5.82055 6.25692 6.04268
#
# Compressibility (1/GPa) = 0.03231902
#
# Stress axis : x y z
#
# Youngs Moduli (GPa) = 43.68112 47.43956 101.34245
#
# Poissons Ratio (x) = 0.28575 -0.00489
# Poissons Ratio (y) = 0.26311 0.48496
# Poissons Ratio (z) = -0.00211 0.22702
#
# Static dielectric constant tensor:
#      x y z
#    x 3.616890 0.000010 0.506930 
#    y 0.000010 3.612670 0.000010 
#    z 0.506930 0.000010 4.225950 
# 
# 
# High freq. dielectric constant tensor:
#      x y z
#    x 1.704480 0.000000 -0.004530 
#    y 0.000000 1.741650 0.000000 
#    z -0.004530 0.000000 1.757850 
# 
# From -- ./inp_files/105035.got.cif
#   From: 2010.06.25/outbox.cif.g09.slc.cpg/sg12_53_cif.got.tgz:105035.got - 2010.06.28 00:19:55.
