data_PCOD8096989
_publ_section_title
;
Structure prediction by ZEFSAII (Michael W. Deem and Ramdas Pophale) SiO2 
 PCOD8096989
Probable space group: C 2/M
;
_chemical_formula_sum "Si O2"
_cell_formula_units_Z 56
_cell_length_a 25.063795
_cell_length_b 9.587408
_cell_length_c 15.465295
_cell_angle_alpha 90.000000
_cell_angle_beta 53.246048
_cell_angle_gamma 90.000000
_cell_volume 2977.515194
_symmetry_space_group_name_H-M "C 2/M"
_symmetry_group_IT_number 12
_symmetry_cell_setting 'monoclinic'
loop_
_space_group_symop_operation_xyz
x,y,z
-x,y,-z
-x,-y,-z
x,-y,z
1/2+x,1/2+y,z
1/2-x,1/2+y,-z
1/2-x,1/2-y,-z
1/2+x,1/2-y,z
loop_
_atom_site_type_symbol
_atom_site_label
_atom_site_fract_x
_atom_site_fract_y
_atom_site_fract_z
Si Si1 0.797570 0.660504 0.012223
Si Si2 0.156270 0.662786 0.532937
Si Si3 0.825952 0.846992 0.133093
Si Si4 0.949043 0.658514 0.810585
Si Si5 0.974126 0.153796 0.936324
Si Si6 0.694347 0.660575 0.653780
Si Si7 0.976889 0.335511 0.430353
O O1 0.774792 0.500000 0.038055
O O2 0.788642 0.725107 0.116982
O O3 0.750000 0.750000 0.000000
O O4 0.870692 0.674309 0.900627
O O5 0.147019 0.500000 0.563211
O O6 0.226820 0.694422 0.419311
O O7 0.153972 0.745286 0.625554
O O8 0.096845 0.715985 0.527579
O O9 0.834617 0.802400 0.224061
O O10 0.789505 0.000000 0.163651
O O11 0.895744 0.863515 0.018504
O O12 0.972207 0.500000 0.802555
O O13 0.991380 0.749533 0.838015
O O14 0.968903 0.707976 0.694922
O O15 0.007406 0.000000 0.891505
O O16 0.000000 0.223755 0.000000
O O17 0.682399 0.500000 0.640125
O O18 0.974500 0.500000 0.444276
O O19 0.000000 0.268273 0.500000
#
# Coordination Sequence:
#
# PCOD8096989 Si02
#       7
#     8   8   8   8   8   8   8
#     4  10  20  34  52  74 101 132 167 207 253 301
#     4   9  18  32  51  75 101 132 170 213 261 305
#     4   9  18  32  49  72 101 131 167 204 246 303
#     4   9  19  34  51  74 100 129 167 209 250 294
#     4   9  18  31  48  72 101 133 165 197 245 304
#     4   9  18  32  51  75 103 134 169 210 258 309
#     4   9  18  33  53  76 102 133 173 216 257 305
#
# _framework density 18.807628999999999
#
# number of rings (size 3 to 8) (size 9 to 14) (size 15 to 20)
#    0.000    2.857    0.000    0.429    2.000    2.571 
#    0.000    4.286    0.000    1.714    0.000    0.000 
#    0.000    0.000    0.000    0.000    0.000    0.000 
#
# Total GULP energy -347038.058130 kJ/mol
# GULP energy per Si atom -12394.216362 kJ/mol
# Density = 1.876482 g / cm^3
# Si number density = 18.807629 Si / 1000 Ang^3
#
#
#
# Elastic Constant Matrix: (Units=GPa)
#
#
# Indices 1 2 3 4 5 6 
#
# 1 112.9295 52.1305 40.4222 0.0000 31.2639 0.0000
# 2 52.1305 84.7249 41.1441 -0.0001 23.8280 0.0000
# 3 40.4222 41.1441 99.6660 0.0000 31.6958 0.0000
# 4 0.0000 -0.0001 0.0000 21.9968 0.0000 10.8936
# 5 31.2639 23.8280 31.6958 0.0000 33.7075 0.0000
# 6 0.0000 0.0000 0.0000 10.8936 0.0000 27.3027
#
#
#
# Elastic Compliance Matrix: (Units=1/GPa)
#
#
# Indices 1 2 3 4 5 6 
#
# 1 0.014178 -0.006107 -0.000599 0.000000 -0.008270 0.000000
# 2 -0.006107 0.018540 -0.004009 0.000000 -0.003672 0.000000
# 3 -0.000599 -0.004009 0.015484 0.000000 -0.011170 0.000000
# 4 0.000000 0.000000 0.000000 0.056656 0.000000 -0.022606
# 5 -0.008270 -0.003672 -0.011170 0.000000 0.050436 0.000000
# 6 0.000000 0.000000 0.000000 -0.022606 0.000000 0.045646
#
#
# Mechanical properties :
#
#
# Convention : Reuss Voigt Hill
#
# Bulk Modulus (GPa) = 37.35331 62.74598 50.04965
# Shear Modulus (GPa) = 21.61748 27.50967 24.56357
#
# Velocity S-wave (km/s) = 3.39396 3.82866 3.61784
# Velocity P-wave (km/s) = 5.93822 7.27868 6.64235
#
# Compressibility (1/GPa) = 0.02677139
#
# Stress axis : x y z
#
# Youngs Moduli (GPa) = 70.53148 53.93749 64.58350
#
# Poissons Ratio (x) = 0.32939 0.03871
# Poissons Ratio (y) = 0.43072 0.25892
# Poissons Ratio (z) = 0.04227 0.21624
#
# Static dielectric constant tensor:
#      x y z
#    x 3.508150 0.000000 0.057760 
#    y 0.000000 3.649660 0.000000 
#    z 0.057760 0.000000 3.813440 
# 
# 
# High freq. dielectric constant tensor:
#      x y z
#    x 1.725990 0.000000 0.005540 
#    y 0.000000 1.711490 0.000000 
#    z 0.005540 0.000000 1.727850 
# 
# From -- ./inp_files/238359.got.cif
#   From: 2010.06.25/outbox.cif.g09.slc.cpg/sg12_120_cif.got.tgz:238359.got - 2010.06.28 00:19:55.
