data_PCOD8096151
_publ_section_title
;
Structure prediction by ZEFSAII (Michael W. Deem and Ramdas Pophale) SiO2 
 PCOD8096151
Probable space group: C 2/M
;
_chemical_formula_sum "Si O2"
_cell_formula_units_Z 56
_cell_length_a 13.988422
_cell_length_b 13.946153
_cell_length_c 21.699600
_cell_angle_alpha 90.000000
_cell_angle_beta 140.665382
_cell_angle_gamma 90.000000
_cell_volume 2683.244303
_symmetry_space_group_name_H-M "C 2/M"
_symmetry_group_IT_number 12
_symmetry_cell_setting 'monoclinic'
loop_
_space_group_symop_operation_xyz
x,y,z
-x,y,-z
-x,-y,-z
x,-y,z
1/2+x,1/2+y,z
1/2-x,1/2+y,-z
1/2-x,1/2-y,-z
1/2+x,1/2-y,z
loop_
_atom_site_type_symbol
_atom_site_label
_atom_site_fract_x
_atom_site_fract_y
_atom_site_fract_z
Si Si1 0.920545 0.606811 0.026216
Si Si2 0.324867 0.387995 0.402284
Si Si3 0.192121 0.298690 0.214758
Si Si4 0.322946 0.890990 0.300270
Si Si5 0.185066 0.109685 0.359022
Si Si6 0.145082 0.886014 0.818745
Si Si7 0.160397 0.386449 0.444127
O O1 0.913260 0.500000 0.051600
O O2 0.015743 0.673459 0.120276
O O3 0.752567 0.649916 0.928976
O O4 0.000000 0.602542 0.000000
O O5 0.500000 0.365184 0.500000
O O6 0.299803 0.500000 0.375279
O O7 0.256282 0.324643 0.313779
O O8 0.234819 0.353551 0.417686
O O9 0.205114 0.183571 0.211146
O O10 0.294016 0.354089 0.216894
O O11 0.309984 0.883668 0.367926
O O12 0.486971 0.854619 0.361304
O O13 0.287347 0.000000 0.260456
O O14 0.247602 0.160163 0.452426
O O15 0.024625 0.155182 0.257344
O O16 0.148813 0.000000 0.357174
O O17 0.152681 0.000000 0.824005
O O18 0.166109 0.500000 0.454226
#
# Coordination Sequence:
#
# PCOD8096151 Si02
#       7
#     8   8   8   8   8   8   8
#     4   8  15  30  54  83 110 132 161 207 268 332
#     4  10  20  33  51  81 116 141 166 207 267 335
#     4  11  20  32  53  79 108 141 170 211 266 320
#     4  10  22  37  51  70 100 145 195 228 249 287
#     4   9  17  33  56  77 102 138 179 223 263 299
#     4   9  17  32  58  88 109 128 162 215 275 326
#     4   9  18  34  54  74 105 147 181 213 255 306
#
# _framework density 20.870258
#
# number of rings (size 3 to 8) (size 9 to 14) (size 15 to 20)
#    0.000    2.571    0.000    3.429    0.000    6.286 
#    0.000    2.857    0.000    5.571    0.000    8.000 
#    0.000    0.000    0.000    0.000    0.000    0.000 
#
# Total GULP energy -347044.421118 kJ/mol
# GULP energy per Si atom -12394.443611 kJ/mol
# Density = 2.082276 g / cm^3
# Si number density = 20.870258 Si / 1000 Ang^3
#
#
#
# Elastic Constant Matrix: (Units=GPa)
#
#
# Indices 1 2 3 4 5 6 
#
# 1 106.6069 16.2934 48.8995 0.0000 13.1862 0.0000
# 2 16.2934 66.0529 60.3141 0.0000 13.3138 0.0000
# 3 48.8995 60.3141 141.7194 0.0000 14.8025 0.0000
# 4 0.0000 0.0000 0.0000 15.7741 0.0000 7.1164
# 5 13.1862 13.3138 14.8025 0.0000 19.5774 0.0000
# 6 0.0000 0.0000 0.0000 7.1164 0.0000 3.3133
#
#
#
# Elastic Compliance Matrix: (Units=1/GPa)
#
#
# Indices 1 2 3 4 5 6 
#
# 1 0.011826 0.002406 -0.004453 0.000000 -0.006235 0.000000
# 2 0.002406 0.027046 -0.011129 0.000000 -0.011599 0.000000
# 3 -0.004453 -0.011129 0.013274 0.000000 0.000532 0.000000
# 4 0.000000 0.000000 0.000000 2.043645 0.000000 -4.389407
# 5 -0.006235 -0.011599 0.000532 0.000000 0.062764 -0.000001
# 6 0.000000 0.000000 0.000000 -4.389407 -0.000001 9.729530
#
#
# Mechanical properties :
#
#
# Convention : Reuss Voigt Hill
#
# Bulk Modulus (GPa) = 38.77044 62.82143 50.79594
# Shear Modulus (GPa) = 0.41936 20.32443 10.37190
#
# Velocity S-wave (km/s) = 0.44874 3.12404 2.23170
# Velocity P-wave (km/s) = 4.34577 6.57108 5.57067
#
# Compressibility (1/GPa) = 0.02579285
#
# Stress axis : x y z
#
# Youngs Moduli (GPa) = 84.55655 36.97409 75.33713
#
# Poissons Ratio (x) = -0.08895 0.33550
# Poissons Ratio (y) = -0.20343 0.83843
# Poissons Ratio (z) = 0.37656 0.41149
#
# Static dielectric constant tensor:
#      x y z
#    x 3.764860 0.000000 0.308180 
#    y 0.000000 3.680280 0.000000 
#    z 0.308180 0.000000 4.137860 
# 
# 
# High freq. dielectric constant tensor:
#      x y z
#    x 1.803970 0.000000 0.014710 
#    y 0.000000 1.807910 0.000000 
#    z 0.014710 0.000000 1.807760 
# 
# From -- ./inp_files/310830.got.cif
#   From: 2010.06.25/outbox.cif.g09.slc.cpg/sg12_156_cif.got.tgz:310830.got - 2010.06.28 00:19:55.
