data_PCOD8096792
_publ_section_title
;
Structure prediction by ZEFSAII (Michael W. Deem and Ramdas Pophale) SiO2 
 PCOD8096792
Probable space group: C 2/M
;
_chemical_formula_sum "Si O2"
_cell_formula_units_Z 64
_cell_length_a 18.024687
_cell_length_b 9.118929
_cell_length_c 20.839506
_cell_angle_alpha 90.000000
_cell_angle_beta 90.630884
_cell_angle_gamma 90.000000
_cell_volume 3425.095286
_symmetry_space_group_name_H-M "C 2/M"
_symmetry_group_IT_number 12
_symmetry_cell_setting 'monoclinic'
loop_
_space_group_symop_operation_xyz
x,y,z
-x,y,-z
-x,-y,-z
x,-y,z
1/2+x,1/2+y,z
1/2-x,1/2+y,-z
1/2-x,1/2-y,-z
1/2+x,1/2-y,z
loop_
_atom_site_type_symbol
_atom_site_label
_atom_site_fract_x
_atom_site_fract_y
_atom_site_fract_z
Si Si1 0.586415 0.325250 0.735650
Si Si2 0.671998 0.326198 0.612396
Si Si3 0.085925 0.170001 0.487021
Si Si4 0.673795 0.330935 0.994805
Si Si5 0.322356 0.672876 0.143436
Si Si6 0.666525 0.669592 0.132983
Si Si7 0.081317 0.828026 0.257356
Si Si8 0.840402 0.325836 0.628445
O O1 0.587322 0.500000 0.736729
O O2 0.628842 0.262179 0.673749
O O3 0.626463 0.262032 0.799608
O O4 0.501961 0.269415 0.733221
O O5 0.666662 0.500000 0.614607
O O6 0.633019 0.268331 0.547438
O O7 0.756716 0.272602 0.613575
O O8 0.105615 0.263889 0.425210
O O9 0.000000 0.193128 0.500000
O O10 0.103946 0.000000 0.473514
O O11 0.693521 0.500000 0.992026
O O12 0.630637 0.295680 0.061365
O O13 0.750000 0.250000 0.000000
O O14 0.637563 0.288363 0.925281
O O15 0.313772 0.500000 0.152864
O O16 0.240283 0.738579 0.147373
O O17 0.689702 0.500000 0.137621
O O18 0.603773 0.706742 0.184316
O O19 0.136448 0.738480 0.303059
O O20 0.087772 0.000000 0.273669
O O21 0.846190 0.500000 0.630405
#
# Coordination Sequence:
#
# PCOD8096792 Si02
#       8
#     8   8   8   8   8   8   8   8
#     4   9  17  31  50  71  95 126 166 205 240 285
#     4   9  18  32  51  75 100 127 162 202 239 279
#     4  10  20  36  58  79 101 133 166 193 231 288
#     4   8  14  25  42  67  96 124 158 199 242 288
#     4   9  16  28  49  72  94 126 165 202 243 291
#     4   9  17  29  46  70  99 128 161 203 246 288
#     4  10  20  34  51  70  96 132 168 201 243 295
#     4  11  22  35  53  77 103 128 159 204 247 281
#
# _framework density 18.685611999999999
#
# number of rings (size 3 to 8) (size 9 to 14) (size 15 to 20)
#    0.000    2.625    0.000    2.250    0.000    3.750 
#    0.000    1.875    0.000    7.500    0.000    0.000 
#    0.000   11.000    0.000    0.000    0.000    0.000 
#
# Total GULP energy -396571.619305 kJ/mol
# GULP energy per Si atom -12392.863103 kJ/mol
# Density = 1.864308 g / cm^3
# Si number density = 18.685612 Si / 1000 Ang^3
#
#
#
# Elastic Constant Matrix: (Units=GPa)
#
#
# Indices 1 2 3 4 5 6 
#
# 1 77.8598 20.6334 30.2477 0.0000 -9.3666 0.0000
# 2 20.6334 29.9649 25.3001 0.0000 -5.2333 0.0000
# 3 30.2477 25.3001 129.3057 0.0000 -14.6306 0.0000
# 4 0.0000 0.0000 0.0000 19.8563 0.0000 2.1806
# 5 -9.3666 -5.2333 -14.6306 0.0000 26.9041 0.0000
# 6 0.0000 0.0000 0.0000 2.1806 0.0000 19.0011
#
#
#
# Elastic Compliance Matrix: (Units=1/GPa)
#
#
# Indices 1 2 3 4 5 6 
#
# 1 0.016313 -0.009315 -0.001658 0.000000 0.002966 0.000000
# 2 -0.009315 0.045655 -0.006517 0.000000 0.002094 0.000000
# 3 -0.001658 -0.006517 0.009790 0.000000 0.003479 0.000000
# 4 0.000000 0.000000 0.000000 0.051005 0.000000 -0.005853
# 5 0.002966 0.002094 0.003479 0.000000 0.040501 0.000000
# 6 0.000000 0.000000 0.000000 -0.005853 0.000000 0.053300
#
#
# Mechanical properties :
#
#
# Convention : Reuss Voigt Hill
#
# Bulk Modulus (GPa) = 27.19012 43.27697 35.23354
# Shear Modulus (GPa) = 18.95352 23.88224 21.41788
#
# Velocity S-wave (km/s) = 3.18832 3.57894 3.38926
# Velocity P-wave (km/s) = 5.30442 6.34739 5.84919
#
# Compressibility (1/GPa) = 0.03677807
#
# Stress axis : x y z
#
# Youngs Moduli (GPa) = 61.30071 21.90351 102.14323
#
# Poissons Ratio (x) = 0.20404 0.16933
# Poissons Ratio (y) = 0.57103 0.66566
# Poissons Ratio (z) = 0.10162 0.14274
#
# Static dielectric constant tensor:
#      x y z
#    x 3.299890 0.000000 0.003890 
#    y 0.000000 3.128220 0.000000 
#    z 0.003890 0.000000 4.069350 
# 
# 
# High freq. dielectric constant tensor:
#      x y z
#    x 1.707210 0.000000 -0.002230 
#    y 0.000000 1.691960 0.000000 
#    z -0.002230 0.000000 1.754780 
# 
# From -- ./inp_files/314212.got.cif
#   From: 2010.06.25/outbox.cif.g09.slc.cpg/sg12_158_cif.got.tgz:314212.got - 2010.06.28 00:19:55.
