data_PCOD8096029
_publ_section_title
;
Structure prediction by ZEFSAII (Michael W. Deem and Ramdas Pophale) SiO2 
 PCOD8096029
Probable space group: C 2/M
;
_chemical_formula_sum "Si O2"
_cell_formula_units_Z 48
_cell_length_a 17.948580
_cell_length_b 9.135441
_cell_length_c 32.210515
_cell_angle_alpha 90.000000
_cell_angle_beta 151.487527
_cell_angle_gamma 90.000000
_cell_volume 2521.124339
_symmetry_space_group_name_H-M "C 2/M"
_symmetry_group_IT_number 12
_symmetry_cell_setting 'monoclinic'
loop_
_space_group_symop_operation_xyz
x,y,z
-x,y,-z
-x,-y,-z
x,-y,z
1/2+x,1/2+y,z
1/2-x,1/2+y,-z
1/2-x,1/2-y,-z
1/2+x,1/2-y,z
loop_
_atom_site_type_symbol
_atom_site_label
_atom_site_fract_x
_atom_site_fract_y
_atom_site_fract_z
Si Si1 0.651208 0.333121 0.827604
Si Si2 0.398435 0.837777 0.664070
Si Si3 0.602826 0.162201 0.681179
Si Si4 0.685137 0.831753 0.007892
Si Si5 0.633086 0.673788 0.130872
Si Si6 0.642684 0.329310 0.480476
O O1 0.666382 0.500000 0.819269
O O2 0.473320 0.277443 0.732865
O O3 0.772864 0.232114 0.862730
O O4 0.684004 0.321988 0.892456
O O5 0.494876 0.834862 0.668777
O O6 0.217831 0.800257 0.563156
O O7 0.407079 0.000000 0.688202
O O8 0.774934 0.210455 0.781088
O O9 0.533900 0.267308 0.611198
O O10 0.608955 0.000000 0.665041
O O11 0.530795 0.753931 0.948711
O O12 0.648211 0.000000 0.978751
O O13 0.750000 0.750000 0.000000
O O14 0.611062 0.500000 0.114912
O O15 0.640798 0.500000 0.469352
O O16 0.750000 0.250000 0.500000
#
# Coordination Sequence:
#
# PCOD8096029 Si02
#       6
#     8   8   8   8   8   8
#     4  10  20  33  51  76 102 129 166 208 246 291
#     4   8  15  26  40  63  95 129 163 197 238 288
#     4   8  15  26  40  63  94 126 160 195 234 283
#     4  11  24  39  54  74  99 128 165 207 251 300
#     4  10  20  34  53  76 102 133 167 203 246 295
#     4   9  15  22  35  59  92 127 160 194 234 281
#
# _framework density 19.039124000000001
#
# number of rings (size 3 to 8) (size 9 to 14) (size 15 to 20)
#    0.000    2.667    0.000    4.500    0.000   12.000 
#    0.000    0.000    0.000    0.000    0.000    1.167 
#    0.000    9.333    0.000    0.000    0.000    0.000 
#
# Total GULP energy -297409.431577 kJ/mol
# GULP energy per Si atom -12392.059649 kJ/mol
# Density = 1.899579 g / cm^3
# Si number density = 19.039124 Si / 1000 Ang^3
#
#
#
# Elastic Constant Matrix: (Units=GPa)
#
#
# Indices 1 2 3 4 5 6 
#
# 1 30.7223 26.4319 16.3056 0.0000 -11.4077 0.0000
# 2 26.4319 136.5980 72.9527 0.0001 -14.8863 -0.0001
# 3 16.3056 72.9527 130.8753 -0.0003 -18.0548 -0.0001
# 4 0.0000 0.0001 -0.0003 40.7700 -0.0001 -0.6477
# 5 -11.4077 -14.8863 -18.0548 -0.0001 8.6416 0.0000
# 6 0.0000 -0.0001 -0.0001 -0.6477 0.0000 18.6223
#
#
#
# Elastic Compliance Matrix: (Units=1/GPa)
#
#
# Indices 1 2 3 4 5 6 
#
# 1 0.071768 -0.007915 0.009356 0.000000 0.100654 0.000000
# 2 -0.007915 0.011725 -0.005907 0.000000 -0.002593 0.000000
# 3 0.009356 -0.005907 0.014145 0.000000 0.031728 0.000000
# 4 0.000000 0.000000 0.000000 0.024541 0.000001 0.000854
# 5 0.100654 -0.002593 0.031728 0.000001 0.310415 0.000000
# 6 0.000000 0.000000 0.000000 0.000854 0.000000 0.053729
#
#
# Mechanical properties :
#
#
# Convention : Reuss Voigt Hill
#
# Bulk Modulus (GPa) = 11.27325 58.84179 35.05752
# Shear Modulus (GPa) = 9.52701 25.77380 17.65040
#
# Velocity S-wave (km/s) = 2.23937 3.68330 3.04807
# Velocity P-wave (km/s) = 3.55251 7.00441 5.55347
#
# Compressibility (1/GPa) = 0.08870558
#
# Stress axis : x y z
#
# Youngs Moduli (GPa) = 13.93379 85.29144 70.69655
#
# Poissons Ratio (x) = 0.67507 -0.66144
# Poissons Ratio (y) = 0.11028 0.41761
# Poissons Ratio (z) = -0.13036 0.50382
#
# Static dielectric constant tensor:
#      x y z
#    x 2.836850 0.000000 0.091970 
#    y 0.000000 3.625320 0.000000 
#    z 0.091970 0.000000 4.656660 
# 
# 
# High freq. dielectric constant tensor:
#      x y z
#    x 1.660040 0.000000 -0.005170 
#    y 0.000000 1.752130 0.000000 
#    z -0.005170 0.000000 1.767960 
# 
# From -- ./inp_files/274085.got.cif
#   From: 2010.06.25/outbox.cif.g09.slc.cpg/sg12_138_cif.got.tgz:274085.got - 2010.06.28 00:19:55.
