data_PCOD8096647
_publ_section_title
;
Structure prediction by ZEFSAII (Michael W. Deem and Ramdas Pophale) SiO2 
 PCOD8096647
Probable space group: C 2/M
;
_chemical_formula_sum "Si O2"
_cell_formula_units_Z 64
_cell_length_a 17.327912
_cell_length_b 31.577500
_cell_length_c 8.740885
_cell_angle_alpha 90.000000
_cell_angle_beta 42.896392
_cell_angle_gamma 90.000000
_cell_volume 3255.509875
_symmetry_space_group_name_H-M "C 2/M"
_symmetry_group_IT_number 12
_symmetry_cell_setting 'monoclinic'
loop_
_space_group_symop_operation_xyz
x,y,z
-x,y,-z
-x,-y,-z
x,-y,z
1/2+x,1/2+y,z
1/2-x,1/2+y,-z
1/2-x,1/2-y,-z
1/2+x,1/2-y,z
loop_
_atom_site_type_symbol
_atom_site_label
_atom_site_fract_x
_atom_site_fract_y
_atom_site_fract_z
Si Si1 0.254010 0.874621 0.990575
Si Si2 0.834746 0.394306 0.540245
Si Si3 0.674516 0.715609 0.022441
Si Si4 0.706965 0.952092 0.657147
Si Si5 0.235945 0.695378 0.436787
Si Si6 0.557813 0.260579 0.753528
Si Si7 0.559652 0.887000 0.053271
Si Si8 0.867554 0.047203 0.690090
O O1 0.318122 0.889526 0.744402
O O2 0.341309 0.862704 0.000465
O O3 0.180914 0.832065 0.079992
O O4 0.180224 0.915643 0.135060
O O5 0.774561 0.433654 0.541588
O O6 0.777714 0.354461 0.538868
O O7 0.968566 0.398931 0.315144
O O8 0.541424 0.729104 0.225083
O O9 0.750000 0.750000 0.000000
O O10 0.723392 0.714849 0.781879
O O11 0.824934 0.948001 0.577557
O O12 0.666628 0.000000 0.698228
O O13 0.609522 0.928335 0.895447
O O14 0.333647 0.707487 0.418661
O O15 0.110637 0.714001 0.653897
O O16 0.500000 0.265150 0.000000
O O17 0.500000 0.860136 0.000000
O O18 0.000000 0.052567 0.500000
O O19 0.832493 0.000000 0.802300
#
# Coordination Sequence:
#
# PCOD8096647 Si02
#       8
#     8   8   8   8   8   8   8   8
#     4  10  21  38  56  85 116 145 191 241 288 348
#     4  10  20  33  57  83 114 147 183 231 292 337
#     4  10  22  38  54  81 115 147 183 239 294 335
#     4   9  19  36  56  85 119 148 189 234 282 345
#     4   9  20  38  55  78 108 147 187 234 281 338
#     4   9  19  38  57  77 106 146 189 233 282 339
#     4   9  19  35  55  82 109 154 188 223 277 340
#     4   9  19  39  61  81 112 153 193 241 289 341
#
# _framework density 19.658978999999999
#
# number of rings (size 3 to 8) (size 9 to 14) (size 15 to 20)
#    0.000    2.625    0.000    0.375    1.750    5.750 
#   18.000    1.875    0.000    8.250    0.000    0.000 
#    0.000    0.000    0.000    0.000    0.000    0.000 
#
# Total GULP energy -396454.692662 kJ/mol
# GULP energy per Si atom -12389.209146 kJ/mol
# Density = 1.961423 g / cm^3
# Si number density = 19.658979 Si / 1000 Ang^3
#
#
#
# Elastic Constant Matrix: (Units=GPa)
#
#
# Indices 1 2 3 4 5 6 
#
# 1 133.2070 47.8090 45.6528 0.0000 -21.8244 0.0000
# 2 47.8090 100.3296 35.9861 0.0000 -4.4022 0.0000
# 3 45.6528 35.9861 59.7680 0.0000 -12.8782 0.0000
# 4 0.0000 0.0000 0.0000 24.6005 0.0000 9.4131
# 5 -21.8244 -4.4022 -12.8782 0.0000 29.7810 0.0000
# 6 0.0000 0.0000 0.0000 9.4131 0.0000 23.7345
#
#
#
# Elastic Compliance Matrix: (Units=1/GPa)
#
#
# Indices 1 2 3 4 5 6 
#
# 1 0.011503 -0.003206 -0.005670 0.000000 0.005504 0.000000
# 2 -0.003206 0.013674 -0.006456 0.000000 -0.003120 0.000000
# 3 -0.005670 -0.006456 0.026299 0.000000 0.006263 0.000000
# 4 0.000000 0.000000 0.000000 0.047922 0.000000 -0.019006
# 5 0.005504 -0.003120 0.006263 0.000000 0.039859 0.000000
# 6 0.000000 0.000000 0.000000 -0.019006 0.000000 0.049670
#
#
# Mechanical properties :
#
#
# Convention : Reuss Voigt Hill
#
# Bulk Modulus (GPa) = 48.05164 61.35560 54.70362
# Shear Modulus (GPa) = 22.07229 26.54697 24.30963
#
# Velocity S-wave (km/s) = 3.35439 3.67873 3.52030
# Velocity P-wave (km/s) = 6.28476 7.02295 6.66408
#
# Compressibility (1/GPa) = 0.02081094
#
# Stress axis : x y z
#
# Youngs Moduli (GPa) = 86.93587 73.13284 38.02420
#
# Poissons Ratio (x) = 0.23447 0.21559
# Poissons Ratio (y) = 0.27873 0.24549
# Poissons Ratio (z) = 0.49292 0.47217
#
# Static dielectric constant tensor:
#      x y z
#    x 4.044800 0.000000 -0.153540 
#    y 0.000000 3.579030 0.000000 
#    z -0.153540 0.000000 3.590510 
# 
# 
# High freq. dielectric constant tensor:
#      x y z
#    x 1.778260 0.000000 -0.008200 
#    y 0.000000 1.761320 0.000000 
#    z -0.008200 0.000000 1.751800 
# 
# From -- ./inp_files/80713.got.cif
#   From: 2010.06.25/outbox.cif.g09.slc.cpg/sg12_41_cif.got.tgz:80713.got - 2010.06.28 00:19:55.
