data_PCOD8096014
_publ_section_title
;
Structure prediction by ZEFSAII (Michael W. Deem and Ramdas Pophale) SiO2 
 PCOD8096014
Probable space group: C 2/M
;
_chemical_formula_sum "Si O2"
_cell_formula_units_Z 64
_cell_length_a 31.020580
_cell_length_b 8.627490
_cell_length_c 15.472264
_cell_angle_alpha 90.000000
_cell_angle_beta 56.231261
_cell_angle_gamma 90.000000
_cell_volume 3442.228420
_symmetry_space_group_name_H-M "C 2/M"
_symmetry_group_IT_number 12
_symmetry_cell_setting 'monoclinic'
loop_
_space_group_symop_operation_xyz
x,y,z
-x,y,-z
-x,-y,-z
x,-y,z
1/2+x,1/2+y,z
1/2-x,1/2+y,-z
1/2-x,1/2-y,-z
1/2+x,1/2-y,z
loop_
_atom_site_type_symbol
_atom_site_label
_atom_site_fract_x
_atom_site_fract_y
_atom_site_fract_z
Si Si1 0.541224 0.680034 0.145983
Si Si2 0.057803 0.319770 0.821143
Si Si3 0.347167 0.319267 0.369167
Si Si4 0.981346 0.681223 0.646717
Si Si5 0.575010 0.318068 0.446923
Si Si6 0.114852 0.319416 0.933554
Si Si7 0.316283 0.681476 0.592833
Si Si8 0.209501 0.179667 0.741777
O O1 0.540961 0.500000 0.169416
O O2 0.493838 0.721441 0.135649
O O3 0.537956 0.777951 0.236845
O O4 0.594489 0.724112 0.038452
O O5 0.043722 0.500000 0.830111
O O6 0.100102 0.277344 0.701481
O O7 0.079894 0.274813 0.890013
O O8 0.362195 0.500000 0.354093
O O9 0.321588 0.266702 0.487293
O O10 0.306890 0.279343 0.338021
O O11 0.992484 0.500000 0.627245
O O12 0.936923 0.728030 0.628137
O O13 0.034494 0.771557 0.566792
O O14 0.570157 0.500000 0.435457
O O15 0.632290 0.271151 0.412918
O O16 0.111517 0.500000 0.958250
O O17 0.174205 0.273410 0.848818
O O18 0.305021 0.500000 0.611727
O O19 0.268865 0.772119 0.689141
O O20 0.202167 0.000000 0.769985
#
# Coordination Sequence:
#
# PCOD8096014 Si02
#       8
#     8   8   8   8   8   8   8   8
#     4  12  23  35  54  78 105 138 177 218 261 313
#     4  10  20  33  51  77 108 141 176 215 260 310
#     4   9  18  32  49  74 108 144 179 214 257 307
#     4  11  22  37  57  81 109 139 172 213 263 316
#     4  10  20  36  57  82 111 141 173 212 262 316
#     4  10  21  37  54  74 105 141 178 219 261 308
#     4  10  20  33  52  76 104 140 178 216 260 309
#     4  10  20  33  51  75 105 141 181 221 258 302
#
# _framework density 18.592607000000001
#
# number of rings (size 3 to 8) (size 9 to 14) (size 15 to 20)
#    0.000    1.750    0.000    6.000    0.000    6.000 
#    0.000    0.000    0.000    0.750    0.000    0.000 
#    0.000    0.000    0.000    0.000    0.000    0.000 
#
# Total GULP energy -396972.104917 kJ/mol
# GULP energy per Si atom -12405.378279 kJ/mol
# Density = 1.855029 g / cm^3
# Si number density = 18.592607 Si / 1000 Ang^3
#
#
#
# Elastic Constant Matrix: (Units=GPa)
#
#
# Indices 1 2 3 4 5 6 
#
# 1 83.0200 21.5965 42.7161 0.0000 -16.0655 0.0000
# 2 21.5965 54.1168 17.3024 -0.0001 -2.9831 -0.0001
# 3 42.7161 17.3024 101.7583 0.0000 -8.9359 0.0000
# 4 0.0000 -0.0001 0.0000 33.1199 0.0000 -3.8929
# 5 -16.0655 -2.9831 -8.9359 0.0000 23.2093 0.0000
# 6 0.0000 -0.0001 0.0000 -3.8929 0.0000 28.4657
#
#
#
# Elastic Compliance Matrix: (Units=1/GPa)
#
#
# Indices 1 2 3 4 5 6 
#
# 1 0.018267 -0.004839 -0.005992 0.000000 0.009716 0.000000
# 2 -0.004839 0.020859 -0.001629 0.000000 -0.001296 0.000000
# 3 -0.005992 -0.001629 0.012665 0.000000 0.000519 0.000000
# 4 0.000000 0.000000 0.000000 0.030687 0.000000 0.004197
# 5 0.009716 -0.001296 0.000519 0.000000 0.049845 0.000000
# 6 0.000000 0.000000 0.000000 0.004197 0.000000 0.035704
#
#
# Mechanical properties :
#
#
# Convention : Reuss Voigt Hill
#
# Bulk Modulus (GPa) = 37.21476 44.68058 40.94767
# Shear Modulus (GPa) = 24.76422 27.44433 26.10427
#
# Velocity S-wave (km/s) = 3.65353 3.84616 3.75108
# Velocity P-wave (km/s) = 6.15281 6.61872 6.39001
#
# Compressibility (1/GPa) = 0.02687106
#
# Stress axis : x y z
#
# Youngs Moduli (GPa) = 54.74267 47.94088 78.95585
#
# Poissons Ratio (x) = 0.23196 0.47313
# Poissons Ratio (y) = 0.26487 0.12865
# Poissons Ratio (z) = 0.32804 0.07811
#
# Static dielectric constant tensor:
#      x y z
#    x 3.316520 0.000000 -0.054570 
#    y 0.000000 3.422340 0.000000 
#    z -0.054570 0.000000 3.375650 
# 
# 
# High freq. dielectric constant tensor:
#      x y z
#    x 1.703100 0.000000 -0.009400 
#    y 0.000000 1.730530 0.000000 
#    z -0.009400 0.000000 1.717540 
# 
# From -- ./inp_files/249040.got.cif
#   From: 2010.06.25/outbox.cif.g09.slc.cpg/sg12_125_cif.got.tgz:249040.got - 2010.06.28 00:19:55.
