data_PCOD8096200
_publ_section_title
;
Structure prediction by ZEFSAII (Michael W. Deem and Ramdas Pophale) SiO2 
 PCOD8096200
Probable space group: C 2/M
;
_chemical_formula_sum "Si O2"
_cell_formula_units_Z 64
_cell_length_a 15.749697
_cell_length_b 9.050430
_cell_length_c 32.768806
_cell_angle_alpha 90.000000
_cell_angle_beta 136.967341
_cell_angle_gamma 90.000000
_cell_volume 3187.503561
_symmetry_space_group_name_H-M "C 2/M"
_symmetry_group_IT_number 12
_symmetry_cell_setting 'monoclinic'
loop_
_space_group_symop_operation_xyz
x,y,z
-x,y,-z
-x,-y,-z
x,-y,z
1/2+x,1/2+y,z
1/2-x,1/2+y,-z
1/2-x,1/2-y,-z
1/2+x,1/2-y,z
loop_
_atom_site_type_symbol
_atom_site_label
_atom_site_fract_x
_atom_site_fract_y
_atom_site_fract_z
Si Si1 0.846476 0.175907 0.004665
Si Si2 0.617607 0.325518 0.633101
Si Si3 0.214190 0.666124 0.877925
Si Si4 0.899458 0.166914 0.871399
Si Si5 0.161508 0.327482 0.350549
Si Si6 0.637558 0.824079 0.437088
Si Si7 0.280910 0.663740 0.749651
Si Si8 0.501590 0.339364 0.234691
O O1 0.981097 0.241924 0.064967
O O2 0.845276 0.000000 0.007661
O O3 0.750000 0.250000 0.000000
O O4 0.809064 0.225253 0.945859
O O5 0.593279 0.500000 0.625193
O O6 0.708078 0.282121 0.626411
O O7 0.486513 0.240642 0.585137
O O8 0.675544 0.275312 0.696913
O O9 0.171862 0.500000 0.873929
O O10 0.282568 0.673469 0.859370
O O11 0.092777 0.764905 0.830414
O O12 0.853338 0.241232 0.813090
O O13 0.938413 0.000000 0.874385
O O14 0.143176 0.500000 0.338276
O O15 0.158369 0.281162 0.396826
O O16 0.037420 0.255617 0.287020
O O17 0.750000 0.750000 0.500000
O O18 0.637521 0.000000 0.442741
O O19 0.225824 0.500000 0.742434
O O20 0.372248 0.637915 0.744774
O O21 0.448962 0.500000 0.229663
#
# Coordination Sequence:
#
# PCOD8096200 Si02
#       8
#     8   8   8   8   8   8   8   8
#     4  10  20  35  54  74 100 138 184 231 281 337
#     4  10  21  39  62  89 121 156 198 246 291 342
#     4  10  20  33  52  77 105 141 184 229 280 344
#     4   9  18  33  53  75 102 140 184 226 273 337
#     4   9  21  41  63  86 120 164 201 236 288 355
#     4  11  24  42  64  91 123 160 200 240 287 346
#     4   9  18  34  55  79 108 146 187 230 283 342
#     4  10  20  34  55  83 114 144 183 236 287 333
#
# _framework density 20.078408
#
# number of rings (size 3 to 8) (size 9 to 14) (size 15 to 20)
#    0.000    2.250    0.000    2.250    1.750    5.500 
#    0.000    3.750    0.000    1.500    0.000    0.000 
#    0.000    0.000    0.000    0.000    0.000    0.000 
#
# Total GULP energy -396546.255294 kJ/mol
# GULP energy per Si atom -12392.070478 kJ/mol
# Density = 2.003271 g / cm^3
# Si number density = 20.078408 Si / 1000 Ang^3
#
#
#
# Elastic Constant Matrix: (Units=GPa)
#
#
# Indices 1 2 3 4 5 6 
#
# 1 55.1223 21.7782 21.0810 0.0000 0.6116 0.0000
# 2 21.7782 62.9474 37.8538 0.0000 3.9468 0.0000
# 3 21.0810 37.8538 119.0781 0.0000 0.3499 0.0000
# 4 0.0000 0.0000 0.0000 30.0824 0.0000 2.0315
# 5 0.6116 3.9468 0.3499 0.0000 37.3757 0.0000
# 6 0.0000 0.0000 0.0000 2.0315 0.0000 25.5371
#
#
#
# Elastic Compliance Matrix: (Units=1/GPa)
#
#
# Indices 1 2 3 4 5 6 
#
# 1 0.021315 -0.006337 -0.001760 0.000000 0.000337 0.000000
# 2 -0.006337 0.021678 -0.005763 0.000000 -0.002132 0.000000
# 3 -0.001760 -0.005763 0.010540 0.000000 0.000539 0.000000
# 4 0.000000 0.000000 0.000000 0.033422 0.000000 -0.002659
# 5 0.000337 -0.002132 0.000539 0.000000 0.026970 0.000000
# 6 0.000000 0.000000 0.000000 -0.002659 0.000000 0.039370
#
#
# Mechanical properties :
#
#
# Convention : Reuss Voigt Hill
#
# Bulk Modulus (GPa) = 38.74128 44.28599 41.51364
# Shear Modulus (GPa) = 26.36874 29.02801 27.69837
#
# Velocity S-wave (km/s) = 3.62786 3.80640 3.71821
# Velocity P-wave (km/s) = 6.07334 6.43605 6.25732
#
# Compressibility (1/GPa) = 0.02581226
#
# Stress axis : x y z
#
# Youngs Moduli (GPa) = 46.91642 46.12957 94.87776
#
# Poissons Ratio (x) = 0.29233 0.16698
# Poissons Ratio (y) = 0.29731 0.54679
# Poissons Ratio (z) = 0.08257 0.26585
#
# Static dielectric constant tensor:
#      x y z
#    x 3.606870 0.000000 -0.038570 
#    y 0.000000 3.744470 0.000000 
#    z -0.038570 0.000000 4.108190 
# 
# 
# High freq. dielectric constant tensor:
#      x y z
#    x 1.778560 0.000000 -0.000720 
#    y 0.000000 1.764590 0.000000 
#    z -0.000720 0.000000 1.795360 
# 
# From -- ./inp_files/375655.got.cif
#   From: 2010.06.25/outbox.cif.g09.slc.cpg/sg12_188_cif.got.tgz:375655.got - 2010.06.28 00:19:55.
