data_PCOD8096816
_publ_section_title
;
Structure prediction by ZEFSAII (Michael W. Deem and Ramdas Pophale) SiO2 
 PCOD8096816
Probable space group: C 2/M
;
_chemical_formula_sum "Si O2"
_cell_formula_units_Z 48
_cell_length_a 15.227110
_cell_length_b 9.217754
_cell_length_c 18.851182
_cell_angle_alpha 90.000000
_cell_angle_beta 90.329304
_cell_angle_gamma 90.000000
_cell_volume 2645.903568
_symmetry_space_group_name_H-M "C 2/M"
_symmetry_group_IT_number 12
_symmetry_cell_setting 'monoclinic'
loop_
_space_group_symop_operation_xyz
x,y,z
-x,y,-z
-x,-y,-z
x,-y,z
1/2+x,1/2+y,z
1/2-x,1/2+y,-z
1/2-x,1/2-y,-z
1/2+x,1/2-y,z
loop_
_atom_site_type_symbol
_atom_site_label
_atom_site_fract_x
_atom_site_fract_y
_atom_site_fract_z
Si Si1 0.852657 0.667423 0.065765
Si Si2 0.001786 0.327830 0.671090
Si Si3 0.152070 0.169427 0.077585
Si Si4 0.011904 0.329704 0.168076
Si Si5 0.838986 0.330420 0.580680
Si Si6 0.663867 0.169667 0.582069
O O1 0.861456 0.500000 0.042395
O O2 0.754807 0.699228 0.094376
O O3 0.922272 0.708172 0.126541
O O4 0.874715 0.765434 0.998348
O O5 0.002740 0.500000 0.666175
O O6 0.001188 0.274376 0.751949
O O7 0.916800 0.268018 0.629672
O O8 0.087852 0.267344 0.632140
O O9 0.095355 0.245792 0.137732
O O10 0.130387 0.000000 0.076595
O O11 0.032590 0.500000 0.164798
O O12 0.824291 0.500000 0.592545
O O13 0.751930 0.249869 0.605397
O O14 0.861955 0.295954 0.499160
O O15 0.678833 0.000000 0.593776
#
# Coordination Sequence:
#
# PCOD8096816 Si02
#       6
#     8   8   8   8   8   8
#     4   9  19  35  53  72  96 128 163 198 239 289
#     4   9  18  32  50  71  97 132 167 196 235 291
#     4  10  20  34  53  76  99 124 159 203 245 284
#     4  10  20  34  51  71  98 132 165 196 237 291
#     4   9  17  31  51  74  98 125 162 206 245 281
#     4   9  17  31  52  74  96 127 166 203 239 284
#
# _framework density 18.141251
#
# number of rings (size 3 to 8) (size 9 to 14) (size 15 to 20)
#    0.000    2.667    0.000    1.500    0.000    6.667 
#    0.000    4.167    0.000    4.000    0.000    0.000 
#    0.000    0.000    0.000    0.000    0.000    0.000 
#
# Total GULP energy -297643.366684 kJ/mol
# GULP energy per Si atom -12401.806945 kJ/mol
# Density = 1.809996 g / cm^3
# Si number density = 18.141251 Si / 1000 Ang^3
#
#
#
# Elastic Constant Matrix: (Units=GPa)
#
#
# Indices 1 2 3 4 5 6 
#
# 1 151.7788 48.8350 98.6361 0.0000 -13.1988 0.0000
# 2 48.8350 46.4504 43.8135 0.0000 -7.3846 0.0000
# 3 98.6361 43.8135 136.4180 0.0000 -12.5953 0.0000
# 4 0.0000 0.0000 0.0000 19.3549 0.0000 -4.3748
# 5 -13.1988 -7.3846 -12.5953 0.0000 19.9161 0.0000
# 6 0.0000 0.0000 0.0000 -4.3748 0.0000 31.8765
#
#
#
# Elastic Compliance Matrix: (Units=1/GPa)
#
#
# Indices 1 2 3 4 5 6 
#
# 1 0.014069 -0.007272 -0.007673 0.000000 0.001775 0.000000
# 2 -0.007272 0.035220 -0.005622 0.000000 0.004685 0.000000
# 3 -0.007673 -0.005622 0.014892 0.000000 0.002248 0.000000
# 4 0.000000 0.000000 0.000000 0.053321 0.000000 0.007318
# 5 0.001775 0.004685 0.002248 0.000000 0.054546 0.000000
# 6 0.000000 0.000000 0.000000 0.007318 0.000000 0.032375
#
#
# Mechanical properties :
#
#
# Convention : Reuss Voigt Hill
#
# Bulk Modulus (GPa) = 43.38710 79.69072 61.53891
# Shear Modulus (GPa) = 19.74423 23.78700 21.76562
#
# Velocity S-wave (km/s) = 3.30261 3.62499 3.46755
# Velocity P-wave (km/s) = 6.20574 7.84500 7.07302
#
# Compressibility (1/GPa) = 0.02304833
#
# Stress axis : x y z
#
# Youngs Moduli (GPa) = 71.07748 28.39263 67.15194
#
# Poissons Ratio (x) = 0.20646 0.51528
# Poissons Ratio (y) = 0.51684 0.37750
# Poissons Ratio (z) = 0.54540 0.15961
#
# Static dielectric constant tensor:
#      x y z
#    x 3.533590 0.000000 -0.009580 
#    y 0.000000 3.149620 0.000000 
#    z -0.009580 0.000000 3.378690 
# 
# 
# High freq. dielectric constant tensor:
#      x y z
#    x 1.715980 0.000000 -0.000850 
#    y 0.000000 1.681110 0.000000 
#    z -0.000850 0.000000 1.699090 
# 
# From -- ./inp_files/267663.got.cif
#   From: 2010.06.25/outbox.cif.g09.slc.cpg/sg12_134_cif.got.tgz:267663.got - 2010.06.28 00:19:55.
