data_PCOD8096961
_publ_section_title
;
Structure prediction by ZEFSAII (Michael W. Deem and Ramdas Pophale) SiO2 
 PCOD8096961
Probable space group: C 2/M
;
_chemical_formula_sum "Si O2"
_cell_formula_units_Z 56
_cell_length_a 14.820317
_cell_length_b 9.533282
_cell_length_c 23.045635
_cell_angle_alpha 90.000000
_cell_angle_beta 108.756263
_cell_angle_gamma 90.000000
_cell_volume 3083.120008
_symmetry_space_group_name_H-M "C 2/M"
_symmetry_group_IT_number 12
_symmetry_cell_setting 'monoclinic'
loop_
_space_group_symop_operation_xyz
x,y,z
-x,y,-z
-x,-y,-z
x,-y,z
1/2+x,1/2+y,z
1/2-x,1/2+y,-z
1/2-x,1/2-y,-z
1/2+x,1/2-y,z
loop_
_atom_site_type_symbol
_atom_site_label
_atom_site_fract_x
_atom_site_fract_y
_atom_site_fract_z
Si Si1 0.345231 0.833088 0.500000
Si Si2 0.490759 0.833751 0.810597
Si Si3 0.615265 0.158191 0.944384
Si Si4 0.829120 0.841809 0.944385
Si Si5 0.045884 0.666123 0.591768
Si Si6 0.180162 0.833751 0.189403
Si Si7 0.114277 0.666273 0.728554
O O1 0.250000 0.750000 0.500000
O O2 0.377943 0.787504 0.441784
O O3 0.436158 0.787503 0.558215
O O4 0.324881 0.000000 0.500000
O O5 0.545541 0.785769 0.880052
O O6 0.393108 0.750000 0.786216
O O7 0.546667 0.781363 0.765823
O O8 0.474224 0.000000 0.806763
O O9 0.720601 0.168987 0.941202
O O10 0.589802 0.000000 0.956400
O O11 0.603400 0.250000 1.000000
O O12 0.834511 0.785768 0.880053
O O13 0.866598 0.000000 0.956400
O O14 0.046470 0.500000 0.592942
O O15 0.080071 0.730833 0.660141
O O16 0.280844 0.781362 0.234177
O O17 0.167461 0.000000 0.193237
O O18 0.112560 0.500000 0.725119
#
# Coordination Sequence:
#
# PCOD8096961 Si02
#       7
#     8   8   8   8   8   8   8
#     4   9  17  31  52  80 108 133 167 207 242 284
#     4  10  20  34  52  73  97 127 166 207 249 297
#     4   9  17  31  50  70  92 122 160 202 248 299
#     4   9  17  31  50  70  92 122 160 202 248 299
#     4   8  16  31  52  75 101 138 175 199 234 294
#     4  10  20  34  52  73  97 127 166 207 249 297
#     4   9  17  34  55  71  97 138 173 201 239 294
#
# _framework density 18.163419000000001
#
# number of rings (size 3 to 8) (size 9 to 14) (size 15 to 20)
#    0.000    2.857    1.429    0.857    0.000    2.857 
#    0.000    5.000    0.000    1.714    0.000    0.000 
#    0.000    0.000    0.000    0.000    0.000    0.000 
#
# Total GULP energy -347066.138061 kJ/mol
# GULP energy per Si atom -12395.219216 kJ/mol
# Density = 1.812208 g / cm^3
# Si number density = 18.163419 Si / 1000 Ang^3
#
#
#
# Elastic Constant Matrix: (Units=GPa)
#
#
# Indices 1 2 3 4 5 6 
#
# 1 129.3064 40.4505 91.4342 0.0000 6.3443 0.0000
# 2 40.4505 36.6167 43.5153 0.0000 -0.3256 0.0000
# 3 91.4342 43.5153 160.7847 0.0000 -9.6864 0.0000
# 4 0.0000 0.0000 0.0000 14.8364 0.0000 1.8675
# 5 6.3443 -0.3256 -9.6864 0.0000 -9.2589 0.0000
# 6 0.0000 0.0000 0.0000 1.8675 0.0000 32.4318
#
#
#
# Elastic Compliance Matrix: (Units=1/GPa)
#
#
# Indices 1 2 3 4 5 6 
#
# 1 0.012797 -0.009315 -0.003959 0.000000 0.013238 0.000000
# 2 -0.009315 0.046188 -0.007230 0.000000 -0.000443 0.000000
# 3 -0.003959 -0.007230 0.009670 0.000000 -0.012575 0.000000
# 4 0.000000 0.000000 0.000000 0.067894 0.000000 -0.003910
# 5 0.013238 -0.000443 -0.012575 0.000000 -0.085762 0.000000
# 6 0.000000 0.000000 0.000000 -0.003910 0.000000 0.031059
#
#
# Mechanical properties :
#
#
# Convention : Reuss Voigt Hill
#
# Bulk Modulus (GPa) = 36.16899 75.27863 55.72381
# Shear Modulus (GPa) = 37.85847 17.68906 27.77376
#
# Velocity S-wave (km/s) = 4.57039 3.12410 3.91462
# Velocity P-wave (km/s) = 6.91431 7.38569 7.15388
#
# Compressibility (1/GPa) = 0.02764799
#
# Stress axis : x y z
#
# Youngs Moduli (GPa) = 78.14065 21.65049 103.41095
#
# Poissons Ratio (x) = 0.20167 0.40941
# Poissons Ratio (y) = 0.72785 0.74768
# Poissons Ratio (z) = 0.30937 0.15654
#
# Static dielectric constant tensor:
#      x y z
#    x 3.305680 0.000000 -0.047830 
#    y 0.000000 3.030330 0.000000 
#    z -0.047830 0.000000 3.756380 
# 
# 
# High freq. dielectric constant tensor:
#      x y z
#    x 1.708140 0.000000 -0.000130 
#    y 0.000000 1.664420 0.000000 
#    z -0.000130 0.000000 1.709360 
# 
# From -- ./inp_files/338155.got.cif
#   From: 2010.06.25/outbox.cif.g09.slc.cpg/sg12_170_cif.got.tgz:338155.got - 2010.06.28 00:19:55.
