data_PCOD8096581
_publ_section_title
;
Structure prediction by ZEFSAII (Michael W. Deem and Ramdas Pophale) SiO2 
 PCOD8096581
Probable space group: C 2/M
;
_chemical_formula_sum "Si O2"
_cell_formula_units_Z 48
_cell_length_a 29.022139
_cell_length_b 8.910058
_cell_length_c 9.843987
_cell_angle_alpha 90.000000
_cell_angle_beta 80.244867
_cell_angle_gamma 90.000000
_cell_volume 2508.739832
_symmetry_space_group_name_H-M "C 2/M"
_symmetry_group_IT_number 12
_symmetry_cell_setting 'monoclinic'
loop_
_space_group_symop_operation_xyz
x,y,z
-x,y,-z
-x,-y,-z
x,-y,z
1/2+x,1/2+y,z
1/2-x,1/2+y,-z
1/2-x,1/2-y,-z
1/2+x,1/2-y,z
loop_
_atom_site_type_symbol
_atom_site_label
_atom_site_fract_x
_atom_site_fract_y
_atom_site_fract_z
Si Si1 0.211273 0.323813 0.698222
Si Si2 0.880295 0.824089 0.753047
Si Si3 0.460818 0.678256 0.119549
Si Si4 0.138535 0.176333 0.929560
Si Si5 0.692712 0.823717 0.401861
Si Si6 0.515045 0.321825 0.348789
O O1 0.216394 0.500000 0.714029
O O2 0.180480 0.260466 0.835489
O O3 0.262380 0.253385 0.687255
O O4 0.188841 0.281845 0.563405
O O5 0.853105 0.735749 0.650027
O O6 0.933775 0.766338 0.722251
O O7 0.877255 0.000000 0.722096
O O8 0.859111 0.788231 0.911457
O O9 0.459662 0.500000 0.103832
O O10 0.409889 0.741457 0.107448
O O11 0.475341 0.730405 0.262813
O O12 0.500000 0.745284 0.000000
O O13 0.143059 0.000000 0.899245
O O14 0.697534 0.000000 0.378411
O O15 0.500000 0.251179 0.500000
O O16 0.516021 0.500000 0.355585
#
# Coordination Sequence:
#
# PCOD8096581 Si02
#       6
#     8   8   8   8   8   8
#     4  10  22  40  60  82 107 139 182 228 276 331
#     4  10  20  34  54  84 117 146 182 226 272 323
#     4   9  15  28  48  74 111 147 180 222 264 309
#     4  10  20  33  55  85 114 147 185 224 271 323
#     4  10  22  40  60  81 108 141 180 226 278 332
#     4   9  17  28  46  78 113 145 183 224 266 312
#
# _framework density 19.133112000000001
#
# number of rings (size 3 to 8) (size 9 to 14) (size 15 to 20)
#    0.000    2.333    1.667    1.000    2.333    3.333 
#    0.000    0.000    0.000    2.000    0.000    0.000 
#    0.000    0.000    0.000    0.000    0.000    0.000 
#
# Total GULP energy -297605.668169 kJ/mol
# GULP energy per Si atom -12400.236174 kJ/mol
# Density = 1.908956 g / cm^3
# Si number density = 19.133112 Si / 1000 Ang^3
#
#
#
# Elastic Constant Matrix: (Units=GPa)
#
#
# Indices 1 2 3 4 5 6 
#
# 1 61.6084 19.9938 20.0902 0.0000 -0.2248 0.0000
# 2 19.9938 42.6215 23.4517 0.0000 -3.0407 0.0000
# 3 20.0902 23.4517 92.4445 0.0000 -7.0347 0.0000
# 4 0.0000 0.0000 0.0000 23.6766 0.0000 0.9821
# 5 -0.2248 -3.0407 -7.0347 0.0000 41.2933 0.0000
# 6 0.0000 0.0000 0.0000 0.9821 0.0000 19.8181
#
#
#
# Elastic Compliance Matrix: (Units=1/GPa)
#
#
# Indices 1 2 3 4 5 6 
#
# 1 0.019566 -0.007978 -0.002295 0.000000 -0.000872 0.000000
# 2 -0.007978 0.030550 -0.005925 0.000000 0.001197 0.000000
# 3 -0.002295 -0.005925 0.012953 0.000000 0.001758 0.000000
# 4 0.000000 0.000000 0.000000 0.042323 0.000000 -0.002097
# 5 -0.000872 0.001197 0.001758 0.000000 0.024600 0.000000
# 6 0.000000 0.000000 0.000000 -0.002097 0.000000 0.050563
#
#
# Mechanical properties :
#
#
# Convention : Reuss Voigt Hill
#
# Bulk Modulus (GPa) = 32.60148 35.97173 34.28661
# Shear Modulus (GPa) = 22.40398 25.83351 24.11874
#
# Velocity S-wave (km/s) = 3.42563 3.67849 3.55431
# Velocity P-wave (km/s) = 5.72039 6.07316 5.89942
#
# Compressibility (1/GPa) = 0.03067345
#
# Stress axis : x y z
#
# Youngs Moduli (GPa) = 51.10986 32.73275 77.20300
#
# Poissons Ratio (x) = 0.26114 0.17714
# Poissons Ratio (y) = 0.40775 0.45745
# Poissons Ratio (z) = 0.11727 0.19395
#
# Static dielectric constant tensor:
#      x y z
#    x 3.571410 0.000000 0.026220 
#    y 0.000000 3.077820 0.000000 
#    z 0.026220 0.000000 3.648200 
# 
# 
# High freq. dielectric constant tensor:
#      x y z
#    x 1.751310 0.000000 0.001890 
#    y 0.000000 1.701900 0.000000 
#    z 0.001890 0.000000 1.754870 
# 
# From -- ./inp_files/108762.got.cif
#   From: 2010.06.25/outbox.cif.g09.slc.cpg/sg12_55_cif.got.tgz:108762.got - 2010.06.28 00:19:55.
