data_PCOD8096381
_publ_section_title
;
Structure prediction by ZEFSAII (Michael W. Deem and Ramdas Pophale) SiO2 
 PCOD8096381
Probable space group: C 2/M
;
_chemical_formula_sum "Si O2"
_cell_formula_units_Z 36
_cell_length_a 24.107083
_cell_length_b 13.079175
_cell_length_c 6.567217
_cell_angle_alpha 90.000000
_cell_angle_beta 117.059815
_cell_angle_gamma 90.000000
_cell_volume 1843.978924
_symmetry_space_group_name_H-M "C 2/M"
_symmetry_group_IT_number 12
_symmetry_cell_setting 'monoclinic'
loop_
_space_group_symop_operation_xyz
x,y,z
-x,y,-z
-x,-y,-z
x,-y,z
1/2+x,1/2+y,z
1/2-x,1/2+y,-z
1/2-x,1/2-y,-z
1/2+x,1/2-y,z
loop_
_atom_site_type_symbol
_atom_site_label
_atom_site_fract_x
_atom_site_fract_y
_atom_site_fract_z
Si Si1 0.963916 0.889685 0.734586
Si Si2 0.629539 0.884609 0.672874
Si Si3 0.500000 0.219275 0.500000
Si Si4 0.666649 0.293710 0.433518
Si Si5 0.282067 0.804630 0.865648
O O1 0.891196 0.868382 0.646595
O O2 0.997761 0.795169 0.686387
O O3 0.967830 0.000000 0.624902
O O4 0.000000 0.903459 0.000000
O O5 0.560032 0.851778 0.618525
O O6 0.655912 0.812584 0.538086
O O7 0.628712 0.000000 0.586730
O O8 0.670273 0.883826 0.949827
O O9 0.678894 0.271754 0.215500
O O10 0.726722 0.351961 0.632976
O O11 0.250000 0.750000 0.000000
#
# Coordination Sequence:
#
# PCOD8096381 Si02
#       5
#     8   8   4   8   8
#     4  10  20  34  54  78 102 133 173 215 262 314
#     4  10  20  33  53  79 106 140 177 211 254 311
#     4  10  20  36  54  74 106 138 170 216 262 306
#     4   9  19  35  53  77 109 138 170 217 264 306
#     4   9  18  35  55  74 103 139 173 212 260 307
#
# _framework density 19.523001000000001
#
# number of rings (size 3 to 8) (size 9 to 14) (size 15 to 20)
#    0.000    2.444    0.000    2.000    0.000    1.778 
#    0.000    8.889    0.000    8.667    0.000    0.000 
#    0.000    0.000    0.000    0.000    0.000    0.000 
#
# Total GULP energy -222998.042850 kJ/mol
# GULP energy per Si atom -12388.780158 kJ/mol
# Density = 1.947857 g / cm^3
# Si number density = 19.523001 Si / 1000 Ang^3
#
#
#
# Elastic Constant Matrix: (Units=GPa)
#
#
# Indices 1 2 3 4 5 6 
#
# 1 97.5830 32.0627 42.3308 0.0000 5.7518 0.0000
# 2 32.0627 102.3395 38.7058 0.0000 14.5339 0.0000
# 3 42.3308 38.7058 86.4229 0.0000 1.6068 0.0000
# 4 0.0000 0.0000 0.0000 30.9818 0.0000 15.4147
# 5 5.7518 14.5339 1.6068 0.0000 38.5525 0.0000
# 6 0.0000 0.0000 0.0000 15.4147 0.0000 -52.8731
#
#
#
# Elastic Compliance Matrix: (Units=1/GPa)
#
#
# Indices 1 2 3 4 5 6 
#
# 1 0.013404 -0.001896 -0.005697 0.000000 -0.001048 0.000000
# 2 -0.001896 0.012760 -0.004706 0.000000 -0.004332 0.000000
# 3 -0.005697 -0.004706 0.016433 0.000000 0.001939 0.000000
# 4 0.000000 0.000000 0.000000 0.028188 0.000000 0.008218
# 5 -0.001048 -0.004332 0.001939 0.000000 0.027647 0.000000
# 6 0.000000 0.000000 0.000000 0.008218 0.000000 -0.016517
#
#
# Mechanical properties :
#
#
# Convention : Reuss Voigt Hill
#
# Bulk Modulus (GPa) = 55.55545 56.94932 56.25239
# Shear Modulus (GPa) = 44.44015 14.88199 29.66107
#
# Velocity S-wave (km/s) = 4.77623 2.76394 3.90203
# Velocity P-wave (km/s) = 7.67689 6.27849 7.01264
#
# Compressibility (1/GPa) = 0.01800003
#
# Stress axis : x y z
#
# Youngs Moduli (GPa) = 74.60728 78.36810 60.85443
#
# Poissons Ratio (x) = 0.14859 0.34666
# Poissons Ratio (y) = 0.14146 0.28636
# Poissons Ratio (z) = 0.42500 0.36877
#
# Static dielectric constant tensor:
#      x y z
#    x 3.980720 0.000000 0.257830 
#    y 0.000000 3.338990 0.000000 
#    z 0.257830 0.000000 3.806910 
# 
# 
# High freq. dielectric constant tensor:
#      x y z
#    x 1.778190 0.000000 0.009730 
#    y 0.000000 1.733790 0.000000 
#    z 0.009730 0.000000 1.765240 
# 
# From -- ./inp_files/19716.got.cif
#   From: 2010.06.25/outbox.cif.g09.slc.cpg/sg12_10_cif.got.tgz:19716.got - 2010.06.28 00:19:55.
