data_PCOD8096991
_publ_section_title
;
Structure prediction by ZEFSAII (Michael W. Deem and Ramdas Pophale) SiO2 
 PCOD8096991
Probable space group: C 2/M
;
_chemical_formula_sum "Si O2"
_cell_formula_units_Z 60
_cell_length_a 21.481740
_cell_length_b 12.408538
_cell_length_c 14.737002
_cell_angle_alpha 90.000000
_cell_angle_beta 119.039117
_cell_angle_gamma 90.000000
_cell_volume 3434.424600
_symmetry_space_group_name_H-M "C 2/M"
_symmetry_group_IT_number 12
_symmetry_cell_setting 'monoclinic'
loop_
_space_group_symop_operation_xyz
x,y,z
-x,y,-z
-x,-y,-z
x,-y,z
1/2+x,1/2+y,z
1/2-x,1/2+y,-z
1/2-x,1/2-y,-z
1/2+x,1/2-y,z
loop_
_atom_site_type_symbol
_atom_site_label
_atom_site_fract_x
_atom_site_fract_y
_atom_site_fract_z
Si Si1 0.866708 0.255149 0.099698
Si Si2 0.273567 0.124971 0.699694
Si Si3 0.740858 0.874113 0.099982
Si Si4 0.372735 0.626729 0.499758
Si Si5 0.025237 0.372788 0.698825
Si Si6 0.000000 0.251886 0.500000
Si Si7 0.992322 0.873296 0.099301
Si Si8 0.599369 0.747009 0.300067
O O1 0.811620 0.182458 0.115073
O O2 0.906465 0.331200 0.198834
O O3 0.919974 0.176604 0.085539
O O4 0.828731 0.331194 0.000022
O O5 0.267816 0.152450 0.801001
O O6 0.200396 0.158668 0.600342
O O7 0.335846 0.194890 0.702027
O O8 0.290960 0.000000 0.695692
O O9 0.748765 0.000000 0.086861
O O10 0.384520 0.500000 0.511690
O O11 0.436856 0.675825 0.488011
O O12 0.370469 0.671520 0.599659
O O13 0.027533 0.500000 0.695949
O O14 0.029038 0.327050 0.600295
O O15 0.953147 0.337146 0.697490
O O16 0.060355 0.827609 0.199584
O O17 0.988881 0.000000 0.112626
O O18 0.000000 0.842255 0.000000
#
# Coordination Sequence:
#
# PCOD8096991 Si02
#       8
#     8   8   8   8   8   4   8   8
#     4  10  20  34  53  76 103 135 170 210 254 301
#     4  10  20  34  52  74 101 133 169 209 253 301
#     4  10  20  34  53  76 103 135 170 210 254 301
#     4  10  20  34  54  78 104 134 168 208 252 300
#     4  10  20  34  52  74 101 133 169 209 253 301
#     4  10  20  34  54  78 104 134 168 208 252 300
#     4  10  20  34  53  76 103 135 170 210 254 301
#     4  10  20  34  52  74 101 133 169 209 253 301
#
# _framework density 17.470175000000001
#
# number of rings (size 3 to 8) (size 9 to 14) (size 15 to 20)
#    0.000    2.000    0.000    4.000    0.000    0.000 
#    0.000    4.000    0.000   17.600    0.000    0.000 
#    0.000    0.000    0.000    0.000    0.000    0.000 
#
# Total GULP energy -372127.815960 kJ/mol
# GULP energy per Si atom -12404.260532 kJ/mol
# Density = 1.743041 g / cm^3
# Si number density = 17.470175 Si / 1000 Ang^3
#
#
#
# Elastic Constant Matrix: (Units=GPa)
#
#
# Indices 1 2 3 4 5 6 
#
# 1 72.8883 42.7749 46.3968 0.0000 12.7688 0.0000
# 2 42.7749 93.3167 60.4681 0.0000 6.6739 0.0000
# 3 46.3968 60.4681 125.7150 0.0000 14.1431 0.0000
# 4 0.0000 0.0000 0.0000 40.1850 0.0000 10.0632
# 5 12.7688 6.6739 14.1431 0.0000 24.6403 0.0000
# 6 0.0000 0.0000 0.0000 10.0632 0.0000 32.1746
#
#
#
# Elastic Compliance Matrix: (Units=1/GPa)
#
#
# Indices 1 2 3 4 5 6 
#
# 1 0.021391 -0.006827 -0.003818 0.000000 -0.007044 0.000000
# 2 -0.006827 0.017748 -0.006280 0.000000 0.002335 0.000000
# 3 -0.003818 -0.006280 0.012796 0.000000 -0.003666 0.000000
# 4 0.000000 0.000000 0.000000 0.027000 0.000000 -0.008445
# 5 -0.007044 0.002335 -0.003666 0.000000 0.045706 0.000000
# 6 0.000000 0.000000 0.000000 -0.008445 0.000000 0.033722
#
#
# Mechanical properties :
#
#
# Convention : Reuss Voigt Hill
#
# Bulk Modulus (GPa) = 55.29482 65.68884 60.49183
# Shear Modulus (GPa) = 25.22193 28.88532 27.05363
#
# Velocity S-wave (km/s) = 3.80375 4.07062 3.93944
# Velocity P-wave (km/s) = 7.14220 7.73146 7.44266
#
# Compressibility (1/GPa) = 0.01808488
#
# Stress axis : x y z
#
# Youngs Moduli (GPa) = 46.74935 56.34505 78.14642
#
# Poissons Ratio (x) = 0.38468 0.29838
# Poissons Ratio (y) = 0.31917 0.49073
# Poissons Ratio (z) = 0.17850 0.35383
#
# Static dielectric constant tensor:
#      x y z
#    x 3.238660 0.000000 0.017110 
#    y 0.000000 3.243460 0.000000 
#    z 0.017110 0.000000 3.447350 
# 
# 
# High freq. dielectric constant tensor:
#      x y z
#    x 1.682670 0.000000 0.000550 
#    y 0.000000 1.682860 0.000000 
#    z 0.000550 0.000000 1.695970 
# 
# From -- ./inp_files/223858.got.cif
#   From: 2010.06.25/outbox.cif.g09.slc.cpg/sg12_112_cif.got.tgz:223858.got - 2010.06.28 00:19:55.
