data_PCOD8096768
_publ_section_title
;
Structure prediction by ZEFSAII (Michael W. Deem and Ramdas Pophale) SiO2 
 PCOD8096768
Probable space group: C 2/M
;
_chemical_formula_sum "Si O2"
_cell_formula_units_Z 56
_cell_length_a 19.589919
_cell_length_b 8.912601
_cell_length_c 18.881234
_cell_angle_alpha 90.000000
_cell_angle_beta 113.227322
_cell_angle_gamma 90.000000
_cell_volume 3029.410478
_symmetry_space_group_name_H-M "C 2/M"
_symmetry_group_IT_number 12
_symmetry_cell_setting 'monoclinic'
loop_
_space_group_symop_operation_xyz
x,y,z
-x,y,-z
-x,-y,-z
x,-y,z
1/2+x,1/2+y,z
1/2-x,1/2+y,-z
1/2-x,1/2-y,-z
1/2+x,1/2-y,z
loop_
_atom_site_type_symbol
_atom_site_label
_atom_site_fract_x
_atom_site_fract_y
_atom_site_fract_z
Si Si1 0.624552 0.177068 0.866937
Si Si2 0.078991 0.678460 0.001787
Si Si3 0.551490 0.670191 0.453099
Si Si4 0.719402 0.321869 0.130105
Si Si5 0.203045 0.676162 0.541075
Si Si6 0.944437 0.677484 0.306242
Si Si7 0.789258 0.322840 0.300779
O O1 0.592280 0.241253 0.927500
O O2 0.708779 0.234716 0.885819
O O3 0.567318 0.221704 0.781097
O O4 0.630187 0.000000 0.872583
O O5 0.081203 0.500000 0.004032
O O6 0.145048 0.739658 0.076767
O O7 0.000000 0.736741 0.000000
O O8 0.500000 0.678833 0.500000
O O9 0.578243 0.500000 0.449932
O O10 0.618531 0.779234 0.497457
O O11 0.513019 0.730502 0.365911
O O12 0.709169 0.500000 0.118627
O O13 0.731520 0.270618 0.216907
O O14 0.210623 0.500000 0.537821
O O15 0.250000 0.750000 0.500000
O O16 0.233976 0.732379 0.630383
O O17 0.958319 0.500000 0.321099
O O18 0.871860 0.735694 0.318129
O O19 0.794453 0.500000 0.299414
#
# Coordination Sequence:
#
# PCOD8096768 Si02
#       7
#     8   8   8   8   8   8   8
#     4   8  16  32  55  78 102 134 176 219 256 307
#     4  10  20  34  50  74 111 143 165 204 264 319
#     4  11  22  35  54  82 114 142 177 227 273 314
#     4   9  17  33  57  79  97 129 178 221 254 301
#     4  11  22  38  57  78 108 146 185 223 270 325
#     4   9  16  32  57  80 100 135 185 224 262 314
#     4   8  16  32  55  78 102 134 174 221 267 313
#
# _framework density 18.485444999999999
#
# number of rings (size 3 to 8) (size 9 to 14) (size 15 to 20)
#    0.000    2.571    1.429    3.000    0.000    0.857 
#    2.571    5.000    0.000    0.000    0.000    0.000 
#    0.000    0.000    0.000    0.000    0.000    0.000 
#
# Total GULP energy -347042.690849 kJ/mol
# GULP energy per Si atom -12394.381816 kJ/mol
# Density = 1.844337 g / cm^3
# Si number density = 18.485445 Si / 1000 Ang^3
#
#
#
# Elastic Constant Matrix: (Units=GPa)
#
#
# Indices 1 2 3 4 5 6 
#
# 1 103.6888 25.7612 77.1291 0.0000 -13.7703 0.0000
# 2 25.7612 31.6662 35.2291 0.0000 -5.1894 0.0000
# 3 77.1291 35.2291 166.9988 0.0000 -9.8428 0.0000
# 4 0.0000 0.0000 0.0000 26.3386 0.0000 2.5183
# 5 -13.7703 -5.1894 -9.8428 0.0000 29.4426 0.0000
# 6 0.0000 0.0000 0.0000 2.5183 0.0000 19.6893
#
#
#
# Elastic Compliance Matrix: (Units=1/GPa)
#
#
# Indices 1 2 3 4 5 6 
#
# 1 0.016103 -0.005725 -0.005963 0.000000 0.004529 0.000000
# 2 -0.005725 0.043878 -0.006441 0.000000 0.002903 0.000000
# 3 -0.005963 -0.006441 0.010068 0.000000 -0.000558 0.000000
# 4 0.000000 0.000000 0.000000 0.038437 0.000000 -0.004916
# 5 0.004529 0.002903 -0.000558 0.000000 0.036408 0.000000
# 6 0.000000 0.000000 0.000000 -0.004916 0.000000 0.051418
#
#
# Mechanical properties :
#
#
# Convention : Reuss Voigt Hill
#
# Bulk Modulus (GPa) = 29.59255 64.28805 46.94030
# Shear Modulus (GPa) = 20.50577 26.04307 23.27442
#
# Velocity S-wave (km/s) = 3.33422 3.75753 3.55218
# Velocity P-wave (km/s) = 5.55572 7.32656 6.50171
#
# Compressibility (1/GPa) = 0.03379229
#
# Stress axis : x y z
#
# Youngs Moduli (GPa) = 62.09835 22.79031 99.32492
#
# Poissons Ratio (x) = 0.13046 0.59226
# Poissons Ratio (y) = 0.35548 0.63978
# Poissons Ratio (z) = 0.37029 0.14680
#
# Static dielectric constant tensor:
#      x y z
#    x 3.331510 0.000000 -0.245420 
#    y 0.000000 3.136800 0.000000 
#    z -0.245420 0.000000 3.877100 
# 
# 
# High freq. dielectric constant tensor:
#      x y z
#    x 1.700820 0.000000 -0.003430 
#    y 0.000000 1.687810 0.000000 
#    z -0.003430 0.000000 1.735860 
# 
# From -- ./inp_files/281629.got.cif
#   From: 2010.06.25/outbox.cif.g09.slc.cpg/sg12_141_cif.got.tgz:281629.got - 2010.06.28 00:19:55.
