data_PCOD8096466
_publ_section_title
;
Structure prediction by ZEFSAII (Michael W. Deem and Ramdas Pophale) SiO2 
 PCOD8096466
Probable space group: C 2/M
;
_chemical_formula_sum "Si O2"
_cell_formula_units_Z 64
_cell_length_a 15.412111
_cell_length_b 8.882185
_cell_length_c 24.003508
_cell_angle_alpha 90.000000
_cell_angle_beta 90.364773
_cell_angle_gamma 90.000000
_cell_volume 3285.850936
_symmetry_space_group_name_H-M "C 2/M"
_symmetry_group_IT_number 12
_symmetry_cell_setting 'monoclinic'
loop_
_space_group_symop_operation_xyz
x,y,z
-x,y,-z
-x,-y,-z
x,-y,z
1/2+x,1/2+y,z
1/2-x,1/2+y,-z
1/2-x,1/2-y,-z
1/2+x,1/2-y,z
loop_
_atom_site_type_symbol
_atom_site_label
_atom_site_fract_x
_atom_site_fract_y
_atom_site_fract_z
Si Si1 0.156127 0.321788 0.863538
Si Si2 0.753373 0.178215 0.560154
Si Si3 0.394601 0.325624 0.370149
Si Si4 0.501784 0.179043 0.062614
Si Si5 0.353131 0.329957 0.748720
Si Si6 0.660994 0.177669 0.137031
Si Si7 0.911826 0.824022 0.632977
Si Si8 0.650722 0.831232 0.738589
O O1 0.169524 0.500000 0.866817
O O2 0.247533 0.248457 0.880232
O O3 0.127136 0.276647 0.800867
O O4 0.082873 0.260649 0.905116
O O5 0.750000 0.250000 0.500000
O O6 0.668297 0.221813 0.594344
O O7 0.839172 0.243545 0.591319
O O8 0.757101 0.000000 0.553840
O O9 0.369872 0.500000 0.378127
O O10 0.492754 0.293202 0.391400
O O11 0.391164 0.284691 0.304885
O O12 0.589408 0.235047 0.092713
O O13 0.498779 0.000000 0.062549
O O14 0.500000 0.243935 0.000000
O O15 0.383084 0.500000 0.763311
O O16 0.370888 0.226381 0.801994
O O17 0.403952 0.258902 0.695927
O O18 0.253261 0.329401 0.730901
O O19 0.670537 0.000000 0.136162
O O20 0.892625 0.000000 0.638987
O O21 0.615083 0.000000 0.727441
#
# Coordination Sequence:
#
# PCOD8096466 Si02
#       8
#     8   8   8   8   8   8   8   8
#     4   9  19  36  56  77 108 151 188 221 282 350
#     4  11  23  44  65  83 114 154 193 232 275 330
#     4  11  22  36  58  89 115 146 189 231 277 330
#     4   9  19  36  56  78 109 151 194 231 278 343
#     4   9  17  35  58  79 111 155 188 217 278 350
#     4  10  20  33  53  84 112 139 184 242 284 320
#     4   9  20  38  59  82 114 154 187 219 276 344
#     4   9  17  32  55  80 112 149 184 225 278 339
#
# _framework density 19.477452
#
# number of rings (size 3 to 8) (size 9 to 14) (size 15 to 20)
#    0.000    2.375    1.250    1.875    1.750    3.000 
#    0.000    6.875    0.000    2.625    0.000    0.000 
#    0.000    0.000    0.000    0.000    0.000    0.000 
#
# Total GULP energy -396780.435763 kJ/mol
# GULP energy per Si atom -12399.388618 kJ/mol
# Density = 1.943312 g / cm^3
# Si number density = 19.477452 Si / 1000 Ang^3
#
#
#
# Elastic Constant Matrix: (Units=GPa)
#
#
# Indices 1 2 3 4 5 6 
#
# 1 125.8125 35.7359 81.8352 0.0000 1.8113 0.0000
# 2 35.7359 49.1325 31.6897 0.0000 2.0773 0.0000
# 3 81.8352 31.6897 141.8919 0.0000 2.1245 0.0000
# 4 0.0000 0.0000 0.0000 26.4860 0.0000 0.3742
# 5 1.8113 2.0773 2.1245 0.0000 23.8529 0.0000
# 6 0.0000 0.0000 0.0000 0.3742 0.0000 24.3976
#
#
#
# Elastic Compliance Matrix: (Units=1/GPa)
#
#
# Indices 1 2 3 4 5 6 
#
# 1 0.014012 -0.005819 -0.006783 0.000000 0.000047 0.000000
# 2 -0.005819 0.026256 -0.002484 0.000000 -0.001624 0.000000
# 3 -0.006783 -0.002484 0.011519 0.000000 -0.000295 0.000000
# 4 0.000000 0.000000 0.000000 0.037764 0.000000 -0.000579
# 5 0.000047 -0.001624 -0.000295 0.000000 0.042088 0.000000
# 6 0.000000 0.000000 0.000000 -0.000579 0.000000 0.040997
#
#
# Mechanical properties :
#
#
# Convention : Reuss Voigt Hill
#
# Bulk Modulus (GPa) = 46.26093 68.37319 57.31706
# Shear Modulus (GPa) = 23.80830 26.11902 24.96366
#
# Velocity S-wave (km/s) = 3.50001 3.66592 3.58393
# Velocity P-wave (km/s) = 6.33530 7.28688 6.82769
#
# Compressibility (1/GPa) = 0.02161651
#
# Stress axis : x y z
#
# Youngs Moduli (GPa) = 71.36618 38.08653 86.81677
#
# Poissons Ratio (x) = 0.22162 0.58884
# Poissons Ratio (y) = 0.41528 0.21562
# Poissons Ratio (z) = 0.48405 0.09459
#
# Static dielectric constant tensor:
#      x y z
#    x 3.651910 0.000000 -0.061140 
#    y 0.000000 3.273230 0.000000 
#    z -0.061140 0.000000 3.765960 
# 
# 
# High freq. dielectric constant tensor:
#      x y z
#    x 1.763910 0.000000 -0.002870 
#    y 0.000000 1.731360 0.000000 
#    z -0.002870 0.000000 1.759380 
# 
# From -- ./inp_files/338867.got.cif
#   From: 2010.06.25/outbox.cif.g09.slc.cpg/sg12_170_cif.got.tgz:338867.got - 2010.06.28 00:19:55.
