data_PCOD8096957
_publ_section_title
;
Structure prediction by ZEFSAII (Michael W. Deem and Ramdas Pophale) SiO2 
 PCOD8096957
Probable space group: C 2/M
;
_chemical_formula_sum "Si O2"
_cell_formula_units_Z 56
_cell_length_a 8.747137
_cell_length_b 28.628597
_cell_length_c 15.635741
_cell_angle_alpha 90.000000
_cell_angle_beta 56.003724
_cell_angle_gamma 90.000000
_cell_volume 3246.218238
_symmetry_space_group_name_H-M "C 2/M"
_symmetry_group_IT_number 12
_symmetry_cell_setting 'monoclinic'
loop_
_space_group_symop_operation_xyz
x,y,z
-x,y,-z
-x,-y,-z
x,-y,z
1/2+x,1/2+y,z
1/2-x,1/2+y,-z
1/2-x,1/2-y,-z
1/2+x,1/2-y,z
loop_
_atom_site_type_symbol
_atom_site_label
_atom_site_fract_x
_atom_site_fract_y
_atom_site_fract_z
Si Si1 0.204689 0.447760 0.113738
Si Si2 0.677340 0.555109 0.499950
Si Si3 0.490925 0.108237 0.690834
Si Si4 0.567556 0.447762 0.113904
Si Si5 0.559089 0.701276 0.619762
Si Si6 0.201552 0.701254 0.619760
Si Si7 0.872176 0.891729 0.309290
O O1 0.119948 0.500000 0.136072
O O2 0.056220 0.412647 0.200929
O O3 0.382982 0.448825 0.116961
O O4 0.262972 0.431166 0.999891
O O5 0.500000 0.569361 0.500000
O O6 0.702182 0.500000 0.500135
O O7 0.654473 0.576158 0.600388
O O8 0.855238 0.576023 0.399281
O O9 0.558334 0.160636 0.685583
O O10 0.316859 0.108825 0.683288
O O11 0.607563 0.500000 0.136290
O O12 0.541516 0.412665 0.201168
O O13 0.358468 0.702272 0.641625
O O14 0.715614 0.691987 0.500001
O O15 0.593487 0.750018 0.656568
O O16 0.570865 0.660686 0.685595
#
# Coordination Sequence:
#
# PCOD8096957 Si02
#       7
#     8   8   8   8   8   8   8
#     4   8  15  29  49  74 103 134 170 211 251 292
#     4  11  23  35  46  67 104 143 171 203 251 301
#     4  11  20  31  52  78 103 132 169 210 253 304
#     4   8  15  29  49  74 103 134 170 211 251 292
#     4  10  20  34  52  73 102 135 168 207 253 302
#     4  10  20  34  52  73 102 135 168 207 253 302
#     4  11  20  31  52  78 103 132 169 210 253 304
#
# _framework density 17.250841999999999
#
# number of rings (size 3 to 8) (size 9 to 14) (size 15 to 20)
#    0.000    2.143    1.429    3.857    0.000    3.429 
#    0.000    0.000    0.000    4.286    0.000   10.000 
#    0.000    0.000    0.000    0.000    0.000    0.000 
#
# Total GULP energy -347197.164917 kJ/mol
# GULP energy per Si atom -12399.898747 kJ/mol
# Density = 1.721158 g / cm^3
# Si number density = 17.250842 Si / 1000 Ang^3
#
#
#
# Elastic Constant Matrix: (Units=GPa)
#
#
# Indices 1 2 3 4 5 6 
#
# 1 68.3059 52.9375 44.0535 0.0000 1.0037 0.0000
# 2 52.9375 146.3241 90.8818 0.0000 -2.4559 0.0000
# 3 44.0535 90.8818 143.0112 0.0000 -5.8288 0.0000
# 4 0.0000 0.0000 0.0000 26.3447 0.0000 0.2854
# 5 1.0037 -2.4559 -5.8288 0.0000 2.0791 0.0000
# 6 0.0000 0.0000 0.0000 0.2854 0.0000 31.0852
#
#
#
# Elastic Compliance Matrix: (Units=1/GPa)
#
#
# Indices 1 2 3 4 5 6 
#
# 1 0.022509 -0.005913 -0.004407 0.000000 -0.030206 0.000000
# 2 -0.005913 0.012953 -0.006401 0.000000 0.000208 0.000000
# 3 -0.004407 -0.006401 0.013770 0.000000 0.033171 0.000000
# 4 0.000000 0.000000 0.000000 0.037962 0.000000 -0.000349
# 5 -0.030206 0.000208 0.033171 0.000000 0.588800 0.000000
# 6 0.000000 0.000000 0.000000 -0.000349 0.000000 0.032173
#
#
# Mechanical properties :
#
#
# Convention : Reuss Voigt Hill
#
# Bulk Modulus (GPa) = 63.33718 81.48741 72.41230
# Shear Modulus (GPa) = 6.69459 23.21970 14.95714
#
# Velocity S-wave (km/s) = 1.97209 3.67277 2.94775
# Velocity P-wave (km/s) = 6.47925 8.08239 7.32481
#
# Compressibility (1/GPa) = 0.01578851
#
# Stress axis : x y z
#
# Youngs Moduli (GPa) = 44.42694 77.20377 72.62162
#
# Poissons Ratio (x) = 0.45651 0.32006
# Poissons Ratio (y) = 0.26270 0.46488
# Poissons Ratio (z) = 0.19580 0.49421
#
# Static dielectric constant tensor:
#      x y z
#    x 3.111330 0.000000 -0.033810 
#    y 0.000000 3.370530 0.000000 
#    z -0.033810 0.000000 3.646130 
# 
# 
# High freq. dielectric constant tensor:
#      x y z
#    x 1.656630 0.000000 0.000170 
#    y 0.000000 1.671990 0.000000 
#    z 0.000170 0.000000 1.653030 
# 
# From -- ./inp_files/199678.got.cif
#   From: 2010.06.25/outbox.cif.g09.slc.cpg/sg12_100_cif.got.tgz:199678.got - 2010.06.28 00:19:55.
