data_PCOD8096659
_publ_section_title
;
Structure prediction by ZEFSAII (Michael W. Deem and Ramdas Pophale) SiO2 
 PCOD8096659
Probable space group: C 2/M
;
_chemical_formula_sum "Si O2"
_cell_formula_units_Z 56
_cell_length_a 9.419365
_cell_length_b 16.693221
_cell_length_c 19.418796
_cell_angle_alpha 90.000000
_cell_angle_beta 120.043081
_cell_angle_gamma 90.000000
_cell_volume 2643.175522
_symmetry_space_group_name_H-M "C 2/M"
_symmetry_group_IT_number 12
_symmetry_cell_setting 'monoclinic'
loop_
_space_group_symop_operation_xyz
x,y,z
-x,y,-z
-x,-y,-z
x,-y,z
1/2+x,1/2+y,z
1/2-x,1/2+y,-z
1/2-x,1/2-y,-z
1/2+x,1/2-y,z
loop_
_atom_site_type_symbol
_atom_site_label
_atom_site_fract_x
_atom_site_fract_y
_atom_site_fract_z
Si Si1 0.882713 0.406847 0.151723
Si Si2 0.926734 0.090830 0.185557
Si Si3 0.760768 0.338101 0.255535
Si Si4 0.172195 0.405935 0.015149
Si Si5 0.003932 0.337337 0.427606
Si Si6 0.768027 0.346063 0.742785
Si Si7 0.340026 0.670111 0.429348
O O1 0.932095 0.500000 0.166376
O O2 0.757864 0.384091 0.181863
O O3 0.038030 0.350477 0.201269
O O4 0.799678 0.386147 0.058266
O O5 0.824601 0.128358 0.096328
O O6 0.812716 0.091338 0.224989
O O7 0.080577 0.146524 0.241630
O O8 0.983018 0.000000 0.184268
O O9 0.897960 0.377127 0.340173
O O10 0.792556 0.243712 0.254699
O O11 0.167262 0.500000 0.028908
O O12 0.000000 0.368372 0.000000
O O13 0.904771 0.256831 0.422320
O O14 0.000000 0.386749 0.500000
O O15 0.191203 0.323788 0.448221
O O16 0.722821 0.373995 0.654423
O O17 0.500000 0.624159 0.500000
#
# Coordination Sequence:
#
# PCOD8096659 Si02
#       7
#     8   8   8   8   8   8   8
#     4  11  21  40  64  85 116 160 202 242 292 357
#     4  11  23  40  63  88 117 159 204 244 293 358
#     4  11  24  38  58  93 126 150 192 252 306 346
#     4   9  18  36  61  86 112 154 208 245 279 351
#     4  10  20  34  57  86 120 159 198 243 291 351
#     4  11  22  38  62  90 120 156 198 246 296 351
#     4  10  20  33  57  88 119 156 202 243 289 350
#
# _framework density 21.186637000000001
#
# number of rings (size 3 to 8) (size 9 to 14) (size 15 to 20)
#    0.000    1.571    2.857    3.429    8.000    0.571 
#    0.000    6.429    0.000    5.143    0.000    0.000 
#    0.000    0.000    0.000    0.000    0.000    0.000 
#
# Total GULP energy -347054.619338 kJ/mol
# GULP energy per Si atom -12394.807834 kJ/mol
# Density = 2.113842 g / cm^3
# Si number density = 21.186637 Si / 1000 Ang^3
#
#
#
# Elastic Constant Matrix: (Units=GPa)
#
#
# Indices 1 2 3 4 5 6 
#
# 1 111.6124 10.7249 62.5983 0.0000 3.0867 0.0000
# 2 10.7249 33.3738 25.2104 0.0000 -1.9032 0.0000
# 3 62.5983 25.2104 161.0949 0.0000 -7.1222 0.0000
# 4 0.0000 0.0000 0.0000 10.6117 0.0000 -2.4234
# 5 3.0867 -1.9032 -7.1222 0.0000 45.9540 0.0000
# 6 0.0000 0.0000 0.0000 -2.4234 0.0000 27.7993
#
#
#
# Elastic Compliance Matrix: (Units=1/GPa)
#
#
# Indices 1 2 3 4 5 6 
#
# 1 0.011561 -0.000405 -0.004495 0.000000 -0.001490 0.000000
# 2 -0.000405 0.034010 -0.005137 0.000000 0.000640 0.000000
# 3 -0.004495 -0.005137 0.008822 0.000000 0.001457 0.000000
# 4 0.000000 0.000000 0.000000 0.096150 0.000000 0.008382
# 5 -0.001490 0.000640 0.001457 0.000000 0.022113 0.000000
# 6 0.000000 0.000000 0.000000 0.008382 0.000000 0.036703
#
#
# Mechanical properties :
#
#
# Convention : Reuss Voigt Hill
#
# Bulk Modulus (GPa) = 29.13692 55.90536 42.52114
# Shear Modulus (GPa) = 20.75787 30.70948 25.73368
#
# Velocity S-wave (km/s) = 3.13351 3.81133 3.48892
# Velocity P-wave (km/s) = 5.18403 6.76850 6.02855
#
# Compressibility (1/GPa) = 0.03432072
#
# Stress axis : x y z
#
# Youngs Moduli (GPa) = 86.50087 29.40270 113.34812
#
# Poissons Ratio (x) = 0.01190 0.50947
# Poissons Ratio (y) = 0.03501 0.58226
# Poissons Ratio (z) = 0.38880 0.15104
#
# Static dielectric constant tensor:
#      x y z
#    x 3.747560 0.000000 -0.084480 
#    y 0.000000 3.173990 0.000000 
#    z -0.084480 0.000000 4.823910 
# 
# 
# High freq. dielectric constant tensor:
#      x y z
#    x 1.838270 0.000000 -0.002950 
#    y 0.000000 1.772000 0.000000 
#    z -0.002950 0.000000 1.856660 
# 
# From -- ./inp_files/258256.got.cif
#   From: 2010.06.25/outbox.cif.g09.slc.cpg/sg12_130_cif.got.tgz:258256.got - 2010.06.28 00:19:55.
