data_PCOD8096567
_publ_section_title
;
Structure prediction by ZEFSAII (Michael W. Deem and Ramdas Pophale) SiO2 
 PCOD8096567
Probable space group: C 2/M
;
_chemical_formula_sum "Si O2"
_cell_formula_units_Z 56
_cell_length_a 19.066593
_cell_length_b 9.000271
_cell_length_c 30.956460
_cell_angle_alpha 90.000000
_cell_angle_beta 35.249470
_cell_angle_gamma 90.000000
_cell_volume 3065.909775
_symmetry_space_group_name_H-M "C 2/M"
_symmetry_group_IT_number 12
_symmetry_cell_setting 'monoclinic'
loop_
_space_group_symop_operation_xyz
x,y,z
-x,y,-z
-x,-y,-z
x,-y,z
1/2+x,1/2+y,z
1/2-x,1/2+y,-z
1/2-x,1/2-y,-z
1/2+x,1/2-y,z
loop_
_atom_site_type_symbol
_atom_site_label
_atom_site_fract_x
_atom_site_fract_y
_atom_site_fract_z
Si Si1 0.284858 0.670900 0.044379
Si Si2 0.360925 0.326904 0.420714
Si Si3 0.114098 0.326823 0.307629
Si Si4 0.856787 0.670137 0.804009
Si Si5 0.102001 0.170947 0.696248
Si Si6 0.186510 0.676506 0.736189
Si Si7 0.937973 0.325973 0.903146
O O1 0.311815 0.500000 0.021568
O O2 0.262535 0.702062 0.106619
O O3 0.162709 0.722884 0.081117
O O4 0.402102 0.759226 0.967980
O O5 0.369071 0.500000 0.428982
O O6 0.250000 0.250000 0.500000
O O7 0.482161 0.245926 0.375449
O O8 0.340932 0.305641 0.379694
O O9 0.102246 0.500000 0.324840
O O10 0.175713 0.302256 0.229608
O O11 0.194882 0.246303 0.302378
O O12 0.900745 0.500000 0.789423
O O13 0.962845 0.777578 0.766369
O O14 0.180453 0.268079 0.689982
O O15 0.106059 0.000000 0.708519
O O16 0.196703 0.500000 0.731608
O O17 0.068028 0.734465 0.821821
O O18 0.944982 0.500000 0.904987
#
# Coordination Sequence:
#
# PCOD8096567 Si02
#       7
#     8   8   8   8   8   8   8
#     4   9  16  29  48  72 100 134 180 227 270 317
#     4  10  21  39  62  88 114 141 173 213 259 313
#     4  10  21  36  57  82 110 143 179 220 268 320
#     4   9  17  33  53  75 104 140 181 225 271 319
#     4  10  20  33  55  84 109 137 179 221 259 311
#     4  11  21  36  54  76 111 147 181 222 271 322
#     4   9  18  30  46  71 102 138 178 224 272 316
#
# _framework density 18.265377999999998
#
# number of rings (size 3 to 8) (size 9 to 14) (size 15 to 20)
#    0.000    2.286    1.429    1.714    0.000    4.000 
#    0.000    1.429    0.000    8.571    0.000    0.000 
#    0.000    0.000    0.000    0.000    0.000    0.000 
#
# Total GULP energy -347203.892069 kJ/mol
# GULP energy per Si atom -12400.139002 kJ/mol
# Density = 1.822380 g / cm^3
# Si number density = 18.265378 Si / 1000 Ang^3
#
#
#
# Elastic Constant Matrix: (Units=GPa)
#
#
# Indices 1 2 3 4 5 6 
#
# 1 99.2684 52.3415 39.7715 0.0031 0.5958 0.0379
# 2 52.3415 93.7162 51.2107 -0.0001 0.4811 0.0115
# 3 39.7715 51.2107 109.4695 -0.0012 2.1529 0.0027
# 4 0.0031 -0.0001 -0.0012 32.7157 -0.0005 -1.0229
# 5 0.5958 0.4811 2.1529 -0.0005 18.6080 0.0043
# 6 0.0379 0.0115 0.0027 -1.0229 0.0043 28.2437
#
#
#
# Elastic Compliance Matrix: (Units=1/GPa)
#
#
# Indices 1 2 3 4 5 6 
#
# 1 0.014598 -0.007060 -0.002000 -0.000002 -0.000054 -0.000017
# 2 -0.007060 0.017752 -0.005748 0.000001 0.000432 0.000003
# 3 -0.002000 -0.005748 0.012575 0.000001 -0.001242 0.000004
# 4 -0.000002 0.000001 0.000001 0.030601 0.000001 0.001108
# 5 -0.000054 0.000432 -0.001242 0.000001 0.053875 -0.000008
# 6 -0.000017 0.000003 0.000004 0.001108 -0.000008 0.035446
#
#
# Mechanical properties :
#
#
# Convention : Reuss Voigt Hill
#
# Bulk Modulus (GPa) = 65.32008 65.45571 65.38790
# Shear Modulus (GPa) = 25.05432 26.52216 25.78824
#
# Velocity S-wave (km/s) = 3.70764 3.81471 3.76156
# Velocity P-wave (km/s) = 7.35990 7.43750 7.39880
#
# Compressibility (1/GPa) = 0.01530923
#
# Stress axis : x y z
#
# Youngs Moduli (GPa) = 68.50376 56.33013 79.52273
#
# Poissons Ratio (x) = 0.39769 0.15903
# Poissons Ratio (y) = 0.48363 0.45712
# Poissons Ratio (z) = 0.13699 0.32380
#
# Static dielectric constant tensor:
#      x y z
#    x 3.130740 -0.000080 0.228030 
#    y -0.000080 3.430420 0.000040 
#    z 0.228030 0.000040 3.414140 
# 
# 
# High freq. dielectric constant tensor:
#      x y z
#    x 1.684880 0.000000 0.013910 
#    y 0.000000 1.715830 0.000000 
#    z 0.013910 0.000000 1.705400 
# 
# From -- ./inp_files/275207.got.cif
#   From: 2010.06.25/outbox.cif.g09.slc.cpg/sg12_138_cif.got.tgz:275207.got - 2010.06.28 00:19:55.
