data_PCOD8096787
_publ_section_title
;
Structure prediction by ZEFSAII (Michael W. Deem and Ramdas Pophale) SiO2 
 PCOD8096787
Probable space group: C 2/M
;
_chemical_formula_sum "Si O2"
_cell_formula_units_Z 40
_cell_length_a 34.794982
_cell_length_b 8.735810
_cell_length_c 13.820771
_cell_angle_alpha 90.000000
_cell_angle_beta 143.812328
_cell_angle_gamma 90.000000
_cell_volume 2480.401427
_symmetry_space_group_name_H-M "C 2/M"
_symmetry_group_IT_number 12
_symmetry_cell_setting 'monoclinic'
loop_
_space_group_symop_operation_xyz
x,y,z
-x,y,-z
-x,-y,-z
x,-y,z
1/2+x,1/2+y,z
1/2-x,1/2+y,-z
1/2-x,1/2-y,-z
1/2+x,1/2-y,z
loop_
_atom_site_type_symbol
_atom_site_label
_atom_site_fract_x
_atom_site_fract_y
_atom_site_fract_z
Si Si1 0.063924 0.180460 0.239035
Si Si2 0.759610 0.172727 0.917358
Si Si3 0.808310 0.680101 0.839363
Si Si4 0.820932 0.327197 0.422984
Si Si5 0.572434 0.818766 0.050861
O O1 0.116856 0.224085 0.427053
O O2 0.088609 0.239311 0.185438
O O3 0.053447 0.000000 0.214558
O O4 0.996222 0.260570 0.130064
O O5 0.813645 0.262219 0.962122
O O6 0.691233 0.175676 0.718247
O O7 0.783977 0.000000 0.982717
O O8 0.750000 0.250000 0.000000
O O9 0.798756 0.500000 0.817717
O O10 0.744571 0.757975 0.659985
O O11 0.872432 0.731469 0.912676
O O12 0.831972 0.500000 0.483261
O O13 0.569888 0.000000 0.060906
#
# Coordination Sequence:
#
# PCOD8096787 Si02
#       5
#     8   8   8   8   8
#     4  11  21  32  50  72  99 134 169 205 240 288
#     4   9  18  31  52  75  99 128 158 201 248 294
#     4   9  18  32  51  75  98 127 165 203 244 288
#     4   9  19  33  50  73  99 130 163 202 246 289
#     4  10  20  34  51  70 100 136 166 201 243 293
#
# _framework density 16.126422000000002
#
# number of rings (size 3 to 8) (size 9 to 14) (size 15 to 20)
#    1.200    1.200    0.000    4.800    0.000    4.000 
#    0.000    0.000    0.000    1.200    0.000    8.400 
#    0.000    0.000    0.000    0.000    0.000    0.000 
#
# Total GULP energy -247844.172900 kJ/mol
# GULP energy per Si atom -12392.208645 kJ/mol
# Density = 1.608972 g / cm^3
# Si number density = 16.126422 Si / 1000 Ang^3
#
#
#
# Elastic Constant Matrix: (Units=GPa)
#
#
# Indices 1 2 3 4 5 6 
#
# 1 58.7614 17.6518 41.7116 0.0000 -2.8808 0.0000
# 2 17.6518 78.0664 23.4944 0.0000 -2.2822 0.0000
# 3 41.7116 23.4944 79.7465 0.0000 4.4985 0.0000
# 4 0.0000 0.0000 0.0000 29.2103 0.0000 -0.7992
# 5 -2.8808 -2.2822 4.4985 0.0000 13.3755 0.0000
# 6 0.0000 0.0000 0.0000 -0.7992 0.0000 27.8884
#
#
#
# Elastic Compliance Matrix: (Units=1/GPa)
#
#
# Indices 1 2 3 4 5 6 
#
# 1 0.028871 -0.001615 -0.015250 0.000000 0.011071 0.000000
# 2 -0.001615 0.014345 -0.003568 0.000000 0.003300 0.000000
# 3 -0.015250 -0.003568 0.022208 0.000000 -0.011362 0.000000
# 4 0.000000 0.000000 0.000000 0.034261 0.000000 0.000982
# 5 0.011071 0.003300 -0.011362 0.000000 0.081533 0.000000
# 6 0.000000 0.000000 0.000000 0.000982 0.000000 0.035885
#
#
# Mechanical properties :
#
#
# Convention : Reuss Voigt Hill
#
# Bulk Modulus (GPa) = 40.71773 42.47665 41.59719
# Shear Modulus (GPa) = 18.78610 23.00928 20.89769
#
# Velocity S-wave (km/s) = 3.41680 3.78141 3.60372
# Velocity P-wave (km/s) = 6.39296 6.74258 6.57010
#
# Compressibility (1/GPa) = 0.02455933
#
# Stress axis : x y z
#
# Youngs Moduli (GPa) = 34.63709 69.71108 45.02852
#
# Poissons Ratio (x) = 0.11258 0.68667
# Poissons Ratio (y) = 0.05594 0.16065
# Poissons Ratio (z) = 0.52820 0.24871
#
# Static dielectric constant tensor:
#      x y z
#    x 2.901670 0.000000 0.061000 
#    y 0.000000 3.188320 0.000000 
#    z 0.061000 0.000000 2.912440 
# 
# 
# High freq. dielectric constant tensor:
#      x y z
#    x 1.597360 0.000000 0.002750 
#    y 0.000000 1.643140 0.000000 
#    z 0.002750 0.000000 1.603830 
# 
# From -- ./inp_files/243380.got.cif
#   From: 2010.06.25/outbox.cif.g09.slc.cpg/sg12_122_cif.got.tgz:243380.got - 2010.06.28 00:19:55.
