data_PCOD8096149
_publ_section_title
;
Structure prediction by ZEFSAII (Michael W. Deem and Ramdas Pophale) SiO2 
 PCOD8096149
Probable space group: C 2/M
;
_chemical_formula_sum "Si O2"
_cell_formula_units_Z 64
_cell_length_a 12.931495
_cell_length_b 18.864757
_cell_length_c 17.920269
_cell_angle_alpha 90.000000
_cell_angle_beta 50.408983
_cell_angle_gamma 90.000000
_cell_volume 3368.844021
_symmetry_space_group_name_H-M "C 2/M"
_symmetry_group_IT_number 12
_symmetry_cell_setting 'monoclinic'
loop_
_space_group_symop_operation_xyz
x,y,z
-x,y,-z
-x,-y,-z
x,-y,z
1/2+x,1/2+y,z
1/2-x,1/2+y,-z
1/2-x,1/2-y,-z
1/2+x,1/2-y,z
loop_
_atom_site_type_symbol
_atom_site_label
_atom_site_fract_x
_atom_site_fract_y
_atom_site_fract_z
Si Si1 0.427436 0.080543 0.792355
Si Si2 0.481852 0.420827 0.799880
Si Si3 0.868597 0.307337 0.089882
Si Si4 0.390302 0.772581 0.612109
Si Si5 0.578517 0.716732 0.242534
Si Si6 0.217081 0.419085 0.295047
Si Si7 0.293982 0.080733 0.006168
Si Si8 0.379423 0.808266 0.255765
O O1 0.329453 0.092767 0.767960
O O2 0.566012 0.125306 0.720511
O O3 0.473550 0.000000 0.777456
O O4 0.344004 0.107297 0.902484
O O5 0.477095 0.500000 0.767935
O O6 0.449002 0.368100 0.745459
O O7 0.623832 0.407000 0.774288
O O8 0.367677 0.410361 0.915547
O O9 0.730916 0.262777 0.148258
O O10 0.864878 0.376292 0.039382
O O11 0.882189 0.331980 0.168905
O O12 0.000000 0.263537 0.000000
O O13 0.500000 0.756255 0.500000
O O14 0.453930 0.751746 0.662858
O O15 0.351469 0.856295 0.624946
O O16 0.266101 0.719858 0.652219
O O17 0.483975 0.744983 0.220608
O O18 0.179261 0.500000 0.339598
O O19 0.336877 0.000000 0.998560
#
# Coordination Sequence:
#
# PCOD8096149 Si02
#       8
#     8   8   8   8   8   8   8   8
#     4  10  20  35  57  84 119 156 192 237 280 335
#     4   9  18  36  59  84 118 156 194 233 275 333
#     4  10  20  33  51  81 114 152 193 234 269 323
#     4  11  24  41  63  87 110 143 191 243 294 355
#     4  10  21  38  58  82 116 150 192 233 286 347
#     4  10  20  37  60  87 117 149 188 238 291 337
#     4   9  18  33  54  82 114 158 203 229 269 331
#     4  11  21  38  57  81 117 150 191 232 291 341
#
# _framework density 18.997613999999999
#
# number of rings (size 3 to 8) (size 9 to 14) (size 15 to 20)
#    0.000    2.000    3.750    0.000    0.000    2.500 
#    0.000    4.375    0.000    1.500    0.000    0.000 
#    0.000    0.000    0.000    0.000    0.000    0.000 
#
# Total GULP energy -396525.354731 kJ/mol
# GULP energy per Si atom -12391.417335 kJ/mol
# Density = 1.895437 g / cm^3
# Si number density = 18.997614 Si / 1000 Ang^3
#
#
#
# Elastic Constant Matrix: (Units=GPa)
#
#
# Indices 1 2 3 4 5 6 
#
# 1 102.9003 39.6921 48.5379 -0.0001 -15.3602 0.0000
# 2 39.6921 102.7603 48.7306 -0.0001 -3.5936 0.0000
# 3 48.5379 48.7306 113.8744 -0.0003 -13.9133 0.0001
# 4 -0.0001 -0.0001 -0.0003 20.8784 0.0001 -0.1363
# 5 -15.3602 -3.5936 -13.9133 0.0001 16.8114 0.0000
# 6 0.0000 0.0000 0.0001 -0.1363 0.0000 32.6493
#
#
#
# Elastic Compliance Matrix: (Units=1/GPa)
#
#
# Indices 1 2 3 4 5 6 
#
# 1 0.014040 -0.003512 -0.003344 0.000000 0.009310 0.000000
# 2 -0.003512 0.013143 -0.004646 0.000000 -0.004244 0.000000
# 3 -0.003344 -0.004646 0.013017 0.000000 0.006724 0.000000
# 4 0.000000 0.000000 0.000000 0.047898 0.000000 0.000200
# 5 0.009310 -0.004244 0.006724 0.000000 0.072647 0.000000
# 6 0.000000 0.000000 0.000000 0.000200 0.000000 0.030629
#
#
# Mechanical properties :
#
#
# Convention : Reuss Voigt Hill
#
# Bulk Modulus (GPa) = 58.15385 65.93957 62.04671
# Shear Modulus (GPa) = 22.71610 26.23946 24.47778
#
# Velocity S-wave (km/s) = 3.46169 3.72048 3.59341
# Velocity P-wave (km/s) = 6.83047 7.29662 7.06739
#
# Compressibility (1/GPa) = 0.01719577
#
# Stress axis : x y z
#
# Youngs Moduli (GPa) = 71.22618 76.08902 76.82447
#
# Poissons Ratio (x) = 0.26719 0.25691
# Poissons Ratio (y) = 0.25012 0.35692
# Poissons Ratio (z) = 0.23819 0.35350
#
# Static dielectric constant tensor:
#      x y z
#    x 3.656920 0.000000 -0.171330 
#    y 0.000000 3.692340 0.000000 
#    z -0.171330 0.000000 3.185540 
# 
# 
# High freq. dielectric constant tensor:
#      x y z
#    x 1.750930 0.000000 -0.013740 
#    y 0.000000 1.743550 0.000000 
#    z -0.013740 0.000000 1.701390 
# 
# From -- ./inp_files/265055.got.cif
#   From: 2010.06.25/outbox.cif.g09.slc.cpg/sg12_133_cif.got.tgz:265055.got - 2010.06.28 00:19:55.
