data_PCOD8096879
_publ_section_title
;
Structure prediction by ZEFSAII (Michael W. Deem and Ramdas Pophale) SiO2 
 PCOD8096879
Probable space group: C 2/M
;
_chemical_formula_sum "Si O2"
_cell_formula_units_Z 64
_cell_length_a 27.858050
_cell_length_b 9.085628
_cell_length_c 14.130888
_cell_angle_alpha 90.000000
_cell_angle_beta 74.502733
_cell_angle_gamma 90.000000
_cell_volume 3446.603937
_symmetry_space_group_name_H-M "C 2/M"
_symmetry_group_IT_number 12
_symmetry_cell_setting 'monoclinic'
loop_
_space_group_symop_operation_xyz
x,y,z
-x,y,-z
-x,-y,-z
x,-y,z
1/2+x,1/2+y,z
1/2-x,1/2+y,-z
1/2-x,1/2-y,-z
1/2+x,1/2-y,z
loop_
_atom_site_type_symbol
_atom_site_label
_atom_site_fract_x
_atom_site_fract_y
_atom_site_fract_z
Si Si1 0.209534 0.827558 0.346958
Si Si2 0.944148 0.671804 0.522209
Si Si3 0.130859 0.670106 0.273722
Si Si4 0.685757 0.673703 0.718823
Si Si5 0.421740 0.830096 0.889692
Si Si6 0.888626 0.672803 0.116158
Si Si7 0.483784 0.665009 0.116554
Si Si8 0.365472 0.670187 0.448256
O O1 0.177971 0.771588 0.273525
O O2 0.260265 0.739160 0.327039
O O3 0.179426 0.788469 0.457649
O O4 0.220379 0.000000 0.330259
O O5 0.946299 0.500000 0.500215
O O6 0.915860 0.708796 0.634645
O O7 0.915560 0.743136 0.448507
O O8 0.000000 0.736749 0.500000
O O9 0.146166 0.500000 0.278126
O O10 0.116512 0.706626 0.173663
O O11 0.690186 0.500000 0.731912
O O12 0.661978 0.748685 0.823952
O O13 0.651117 0.713967 0.647951
O O14 0.471728 0.736222 0.846382
O O15 0.438071 0.000000 0.880099
O O16 0.394869 0.790105 0.002159
O O17 0.885396 0.500000 0.136851
O O18 0.934218 0.738173 0.153380
O O19 0.473070 0.500000 0.159421
O O20 0.500000 0.663058 0.000000
O O21 0.378492 0.500000 0.450167
#
# Coordination Sequence:
#
# PCOD8096879 Si02
#       8
#     8   8   8   8   8   8   8   8
#     4  10  20  36  56  78 102 130 168 210 255 309
#     4   9  18  32  51  78 110 139 168 204 247 298
#     4   9  18  34  54  75 102 137 174 211 253 301
#     4  11  22  36  54  77 104 133 167 211 264 311
#     4   9  18  33  53  75 102 139 179 214 251 300
#     4  10  20  34  51  74 104 136 174 218 258 299
#     4   9  17  30  49  73 102 135 170 209 253 300
#     4   9  20  36  54  77 104 134 168 206 251 307
#
# _framework density 18.569002999999999
#
# number of rings (size 3 to 8) (size 9 to 14) (size 15 to 20)
#    0.000    2.500    0.000    1.875    0.000    5.250 
#    0.000    1.875    0.000    0.000    0.000    0.000 
#    0.000    0.000    0.000    0.000    0.000    0.000 
#
# Total GULP energy -396878.120432 kJ/mol
# GULP energy per Si atom -12402.441264 kJ/mol
# Density = 1.852674 g / cm^3
# Si number density = 18.569003 Si / 1000 Ang^3
#
#
#
# Elastic Constant Matrix: (Units=GPa)
#
#
# Indices 1 2 3 4 5 6 
#
# 1 116.7468 58.6082 44.4235 0.0000 -4.2446 0.0000
# 2 58.6082 89.7104 37.4794 0.0000 -0.1739 0.0000
# 3 44.4235 37.4794 64.6730 0.0000 5.3403 0.0000
# 4 0.0000 0.0000 0.0000 24.6557 0.0000 -1.4362
# 5 -4.2446 -0.1739 5.3403 0.0000 25.2803 0.0000
# 6 0.0000 0.0000 0.0000 -1.4362 0.0000 38.0596
#
#
#
# Elastic Compliance Matrix: (Units=1/GPa)
#
#
# Indices 1 2 3 4 5 6 
#
# 1 0.014551 -0.006854 -0.006331 0.000000 0.003733 0.000000
# 2 -0.006854 0.018030 -0.005756 0.000000 0.000189 0.000000
# 3 -0.006331 -0.005756 0.023651 0.000000 -0.006099 0.000000
# 4 0.000000 0.000000 0.000000 0.040648 0.000000 0.001534
# 5 0.003733 0.000189 -0.006099 0.000000 0.041473 0.000000
# 6 0.000000 0.000000 0.000000 0.001534 0.000000 0.026332
#
#
# Mechanical properties :
#
#
# Convention : Reuss Voigt Hill
#
# Bulk Modulus (GPa) = 54.50020 61.35026 57.92523
# Shear Modulus (GPa) = 23.95948 26.30705 25.13326
#
# Velocity S-wave (km/s) = 3.59596 3.76802 3.68299
# Velocity P-wave (km/s) = 6.83045 7.21397 7.02483
#
# Compressibility (1/GPa) = 0.01834856
#
# Stress axis : x y z
#
# Youngs Moduli (GPa) = 68.72259 55.46292 42.28152
#
# Poissons Ratio (x) = 0.38014 0.26770
# Poissons Ratio (y) = 0.47103 0.24339
# Poissons Ratio (z) = 0.43511 0.31927
#
# Static dielectric constant tensor:
#      x y z
#    x 3.426280 0.000000 0.024050 
#    y 0.000000 3.462410 0.000000 
#    z 0.024050 0.000000 3.337180 
# 
# 
# High freq. dielectric constant tensor:
#      x y z
#    x 1.719450 0.000000 -0.000600 
#    y 0.000000 1.724790 0.000000 
#    z -0.000600 0.000000 1.707770 
# 
# From -- ./inp_files/243875.got.cif
#   From: 2010.06.25/outbox.cif.g09.slc.cpg/sg12_122_cif.got.tgz:243875.got - 2010.06.28 00:19:55.
