data_PCOD8096601
_publ_section_title
;
Structure prediction by ZEFSAII (Michael W. Deem and Ramdas Pophale) SiO2 
 PCOD8096601
Probable space group: C 2/M
;
_chemical_formula_sum "Si O2"
_cell_formula_units_Z 48
_cell_length_a 24.573156
_cell_length_b 9.152502
_cell_length_c 18.713749
_cell_angle_alpha 90.000000
_cell_angle_beta 33.808033
_cell_angle_gamma 90.000000
_cell_volume 2341.845009
_symmetry_space_group_name_H-M "C 2/M"
_symmetry_group_IT_number 12
_symmetry_cell_setting 'monoclinic'
loop_
_space_group_symop_operation_xyz
x,y,z
-x,y,-z
-x,-y,-z
x,-y,z
1/2+x,1/2+y,z
1/2-x,1/2+y,-z
1/2-x,1/2-y,-z
1/2+x,1/2-y,z
loop_
_atom_site_type_symbol
_atom_site_label
_atom_site_fract_x
_atom_site_fract_y
_atom_site_fract_z
Si Si1 0.142255 0.832137 0.278144
Si Si2 0.817009 0.827095 0.485986
Si Si3 0.539911 0.667786 0.251714
Si Si4 0.151389 0.330489 0.014688
Si Si5 0.584296 0.665705 0.958383
Si Si6 0.794340 0.332965 0.659180
O O1 0.050156 0.801650 0.326135
O O2 0.134035 0.733246 0.358010
O O3 0.145634 0.000000 0.300207
O O4 0.237466 0.793170 0.126925
O O5 0.750000 0.750000 0.500000
O O6 0.795070 0.761905 0.587215
O O7 0.930703 0.794458 0.344776
O O8 0.795738 0.000000 0.509488
O O9 0.565892 0.500000 0.208245
O O10 0.621856 0.761739 0.122364
O O11 0.131353 0.500000 0.041616
O O12 0.080035 0.263954 0.033093
O O13 0.561620 0.500000 0.006498
O O14 0.685332 0.677106 0.806842
O O15 0.500000 0.728008 0.000000
O O16 0.825554 0.500000 0.609290
#
# Coordination Sequence:
#
# PCOD8096601 Si02
#       6
#     8   8   8   8   8   8
#     4   9  19  38  61  87 118 152 190 233 286 344
#     4  11  25  43  61  82 113 154 197 241 285 338
#     4  10  22  39  60  83 114 159 198 229 281 350
#     4  10  20  33  55  89 121 146 183 239 290 332
#     4   9  19  35  56  80 110 152 193 229 279 345
#     4  10  21  38  60  86 116 150 190 239 288 336
#
# _framework density 20.496659000000001
#
# number of rings (size 3 to 8) (size 9 to 14) (size 15 to 20)
#    0.000    2.167    0.000    2.000    2.333    4.333 
#    0.000    3.333    0.000    0.000    0.000    0.000 
#    0.000    0.000    0.000    0.000    0.000    0.000 
#
# Total GULP energy -297610.526001 kJ/mol
# GULP energy per Si atom -12400.438583 kJ/mol
# Density = 2.045001 g / cm^3
# Si number density = 20.496659 Si / 1000 Ang^3
#
#
#
# Elastic Constant Matrix: (Units=GPa)
#
#
# Indices 1 2 3 4 5 6 
#
# 1 146.1360 68.8998 35.4725 0.0051 2.9405 -0.0015
# 2 68.8998 108.3317 36.4361 0.0025 8.3071 -0.0010
# 3 35.4725 36.4361 34.7461 0.0065 11.3195 -0.0025
# 4 0.0051 0.0025 0.0065 26.1555 -0.0022 9.0871
# 5 2.9405 8.3071 11.3195 -0.0022 30.7321 0.0004
# 6 -0.0015 -0.0010 -0.0025 9.0871 0.0004 40.8510
#
#
#
# Elastic Compliance Matrix: (Units=1/GPa)
#
#
# Indices 1 2 3 4 5 6 
#
# 1 0.010665 -0.004680 -0.006886 0.000000 0.002781 0.000000
# 2 -0.004680 0.016411 -0.012649 0.000003 0.000671 -0.000001
# 3 -0.006886 -0.012649 0.054257 -0.000014 -0.015906 0.000006
# 4 0.000000 0.000003 -0.000014 0.041435 0.000007 -0.009217
# 5 0.002781 0.000671 -0.015906 0.000007 0.037951 -0.000003
# 6 0.000000 -0.000001 0.000006 -0.009217 -0.000003 0.026530
#
#
# Mechanical properties :
#
#
# Convention : Reuss Voigt Hill
#
# Bulk Modulus (GPa) = 30.39416 63.42562 46.90989
# Shear Modulus (GPa) = 20.27197 29.44141 24.85669
#
# Velocity S-wave (km/s) = 3.14831 3.79410 3.48619
# Velocity P-wave (km/s) = 5.29876 7.08556 6.25628
#
# Compressibility (1/GPa) = 0.03290106
#
# Stress axis : x y z
#
# Youngs Moduli (GPa) = 93.76316 60.93644 18.43091
#
# Poissons Ratio (x) = 0.28520 0.12692
# Poissons Ratio (y) = 0.43884 0.23314
# Poissons Ratio (z) = 0.64567 0.77080
#
# Static dielectric constant tensor:
#      x y z
#    x 3.940400 0.000000 -0.096770 
#    y 0.000000 3.803290 0.000000 
#    z -0.096770 0.000000 3.539020 
# 
# 
# High freq. dielectric constant tensor:
#      x y z
#    x 1.815970 0.000000 0.000380 
#    y 0.000000 1.801520 0.000000 
#    z 0.000380 0.000000 1.790170 
# 
# From -- ./inp_files/327152.got.cif
#   From: 2010.06.25/outbox.cif.g09.slc.cpg/sg12_164_cif.got.tgz:327152.got - 2010.06.28 00:19:55.
