data_PCOD8096638
_publ_section_title
;
Structure prediction by ZEFSAII (Michael W. Deem and Ramdas Pophale) SiO2 
 PCOD8096638
Probable space group: C 2/M
;
_chemical_formula_sum "Si O2"
_cell_formula_units_Z 56
_cell_length_a 28.321400
_cell_length_b 14.678534
_cell_length_c 11.403048
_cell_angle_alpha 90.000000
_cell_angle_beta 142.732616
_cell_angle_gamma 90.000000
_cell_volume 2870.502593
_symmetry_space_group_name_H-M "C 2/M"
_symmetry_group_IT_number 12
_symmetry_cell_setting 'monoclinic'
loop_
_space_group_symop_operation_xyz
x,y,z
-x,y,-z
-x,-y,-z
x,-y,z
1/2+x,1/2+y,z
1/2-x,1/2+y,-z
1/2-x,1/2-y,-z
1/2+x,1/2-y,z
loop_
_atom_site_type_symbol
_atom_site_label
_atom_site_fract_x
_atom_site_fract_y
_atom_site_fract_z
Si Si1 0.238641 0.148062 0.012680
Si Si2 0.980941 0.107062 0.594876
Si Si3 0.976183 0.605264 0.319317
Si Si4 0.113034 0.781402 0.929685
Si Si5 0.644381 0.897235 0.558674
Si Si6 0.689006 0.599584 0.672831
Si Si7 0.249360 0.741875 0.636601
O O1 0.158767 0.152998 0.928290
O O2 0.234472 0.089433 0.886133
O O3 0.250000 0.250000 0.000000
O O4 0.311394 0.110523 0.229674
O O5 0.894990 0.139274 0.459195
O O6 0.000000 0.138516 0.500000
O O7 0.033645 0.162812 0.791235
O O8 0.993386 0.000000 0.635203
O O9 0.948282 0.500000 0.243396
O O10 0.907131 0.676891 0.149790
O O11 0.000000 0.620183 0.500000
O O12 0.053132 0.626561 0.393605
O O13 0.163488 0.782455 0.148405
O O14 0.684440 0.832042 0.542766
O O15 0.653051 0.000000 0.529172
O O16 0.683619 0.500000 0.604209
O O17 0.729981 0.663013 0.659906
O O18 0.250000 0.750000 0.500000
#
# Coordination Sequence:
#
# PCOD8096638 Si02
#       7
#     8   8   8   8   8   8   8
#     4  11  19  33  54  92 121 154 185 227 296 355
#     4  10  20  33  56  92 125 149 176 224 297 369
#     4  10  21  34  55  92 127 152 178 223 294 369
#     4  11  21  34  61  83 119 154 185 241 289 348
#     4  10  21  38  61  85 120 156 191 238 291 352
#     4  11  22  38  60  86 121 154 190 240 292 350
#     4  11  26  44  59  81 111 157 215 252 284 325
#
# _framework density 19.508779000000001
#
# number of rings (size 3 to 8) (size 9 to 14) (size 15 to 20)
#    0.000    1.429    4.286    2.571    0.000    3.429 
#    0.000    2.857    0.000    3.429    0.000    0.000 
#    0.000    0.000    0.000    0.000    0.000    0.000 
#
# Total GULP energy -347049.972300 kJ/mol
# GULP energy per Si atom -12394.641868 kJ/mol
# Density = 1.946438 g / cm^3
# Si number density = 19.508779 Si / 1000 Ang^3
#
#
#
# Elastic Constant Matrix: (Units=GPa)
#
#
# Indices 1 2 3 4 5 6 
#
# 1 87.3072 22.2123 42.4636 0.0000 -21.9114 0.0000
# 2 22.2123 61.4271 16.1787 0.0000 -5.9613 0.0000
# 3 42.4636 16.1787 77.9764 0.0000 -11.0717 0.0000
# 4 0.0000 0.0000 0.0000 15.3756 0.0000 4.7932
# 5 -21.9114 -5.9613 -11.0717 0.0000 27.7150 0.0000
# 6 0.0000 0.0000 0.0000 4.7932 0.0000 6.0145
#
#
#
# Elastic Compliance Matrix: (Units=1/GPa)
#
#
# Indices 1 2 3 4 5 6 
#
# 1 0.019097 -0.003708 -0.008057 0.000000 0.011082 0.000000
# 2 -0.003708 0.018094 -0.001695 0.000000 0.000283 0.000000
# 3 -0.008057 -0.001695 0.017606 0.000000 0.000299 0.000000
# 4 0.000000 0.000000 0.000000 0.086538 0.000000 -0.068966
# 5 0.011082 0.000283 0.000299 0.000000 0.045023 0.000000
# 6 0.000000 0.000000 0.000000 -0.068966 0.000000 0.221227
#
#
# Mechanical properties :
#
#
# Convention : Reuss Voigt Hill
#
# Bulk Modulus (GPa) = 35.87055 43.15776 39.51416
# Shear Modulus (GPa) = 11.26642 19.54477 15.40559
#
# Velocity S-wave (km/s) = 2.40574 3.16863 2.81316
# Velocity P-wave (km/s) = 5.11308 5.96298 5.55431
#
# Compressibility (1/GPa) = 0.02787802
#
# Stress axis : x y z
#
# Youngs Moduli (GPa) = 52.36426 55.26646 56.79900
#
# Poissons Ratio (x) = 0.20493 0.45762
# Poissons Ratio (y) = 0.19417 0.09625
# Poissons Ratio (z) = 0.42189 0.09366
#
# Static dielectric constant tensor:
#      x y z
#    x 3.141120 0.000000 0.282600 
#    y 0.000000 3.502880 0.000000 
#    z 0.282600 0.000000 3.522060 
# 
# 
# High freq. dielectric constant tensor:
#      x y z
#    x 1.728060 0.000000 0.034520 
#    y 0.000000 1.776100 0.000000 
#    z 0.034520 0.000000 1.750610 
# 
# From -- ./inp_files/183556.got.cif
#   From: 2010.06.25/outbox.cif.g09.slc.cpg/sg12_92_cif.got.tgz:183556.got - 2010.06.28 00:19:55.
