data_PCOD8096068
_publ_section_title
;
Structure prediction by ZEFSAII (Michael W. Deem and Ramdas Pophale) SiO2 
 PCOD8096068
Probable space group: C 2/M
;
_chemical_formula_sum "Si O2"
_cell_formula_units_Z 48
_cell_length_a 20.625513
_cell_length_b 8.669572
_cell_length_c 23.373339
_cell_angle_alpha 90.000000
_cell_angle_beta 38.956779
_cell_angle_gamma 90.000000
_cell_volume 2627.786653
_symmetry_space_group_name_H-M "C 2/M"
_symmetry_group_IT_number 12
_symmetry_cell_setting 'monoclinic'
loop_
_space_group_symop_operation_xyz
x,y,z
-x,y,-z
-x,-y,-z
x,-y,z
1/2+x,1/2+y,z
1/2-x,1/2+y,-z
1/2-x,1/2-y,-z
1/2+x,1/2-y,z
loop_
_atom_site_type_symbol
_atom_site_label
_atom_site_fract_x
_atom_site_fract_y
_atom_site_fract_z
Si Si1 0.754906 0.818329 0.933684
Si Si2 0.070901 0.677576 0.260202
Si Si3 0.890640 0.315427 0.554040
Si Si4 0.145725 0.317062 0.547574
Si Si5 0.716227 0.177323 0.263802
Si Si6 0.385312 0.684172 0.064748
O O1 0.864833 0.776877 0.829440
O O2 0.657804 0.751802 0.964905
O O3 0.744273 0.000000 0.944325
O O4 0.750000 0.750000 0.000000
O O5 0.079138 0.500000 0.235041
O O6 0.115546 0.697737 0.293348
O O7 0.951679 0.733134 0.345993
O O8 0.892037 0.500000 0.552987
O O9 0.865563 0.249749 0.508730
O O10 0.806240 0.251792 0.658022
O O11 0.000000 0.251343 0.500000
O O12 0.151369 0.500000 0.541706
O O13 0.250000 0.250000 0.500000
O O14 0.815097 0.252042 0.164659
O O15 0.742868 0.000000 0.254133
O O16 0.378425 0.500000 0.064678
O O17 0.500000 0.741591 0.000000
#
# Coordination Sequence:
#
# PCOD8096068 Si02
#       6
#     8   8   8   8   8   8
#     4  11  22  37  58  81 106 139 182 228 273 330
#     4   9  17  33  55  76 102 139 179 222 270 318
#     4   9  14  25  49  77  97 126 176 219 248 294
#     4  10  20  33  51  76 110 143 174 218 270 317
#     4   8  13  25  49  76  99 128 172 219 255 295
#     4   9  18  34  55  80 112 143 174 218 269 321
#
# _framework density 18.266324000000001
#
# number of rings (size 3 to 8) (size 9 to 14) (size 15 to 20)
#    0.000    2.667    1.667    2.500    0.000    1.000 
#    3.000    0.000    0.000    4.500    0.000    0.000 
#    0.000    0.000    0.000    0.000    0.000    0.000 
#
# Total GULP energy -297433.743992 kJ/mol
# GULP energy per Si atom -12393.072666 kJ/mol
# Density = 1.822475 g / cm^3
# Si number density = 18.266324 Si / 1000 Ang^3
#
#
#
# Elastic Constant Matrix: (Units=GPa)
#
#
# Indices 1 2 3 4 5 6 
#
# 1 137.2372 30.8797 91.3101 0.0001 -3.8820 -0.0002
# 2 30.8797 44.3558 33.5284 0.0007 0.3688 -0.0010
# 3 91.3101 33.5284 139.8728 0.0002 -2.4166 -0.0004
# 4 0.0001 0.0007 0.0002 19.9910 -0.0001 -2.4838
# 5 -3.8820 0.3688 -2.4166 -0.0001 40.0829 0.0001
# 6 -0.0002 -0.0010 -0.0004 -2.4838 0.0001 23.7609
#
#
#
# Elastic Compliance Matrix: (Units=1/GPa)
#
#
# Indices 1 2 3 4 5 6 
#
# 1 0.013290 -0.003313 -0.007868 0.000000 0.000843 0.000000
# 2 -0.003313 0.028377 -0.004654 -0.000001 -0.000863 0.000001
# 3 -0.007868 -0.004654 0.013403 0.000000 0.000089 0.000000
# 4 0.000000 -0.000001 0.000000 0.050681 0.000000 0.005298
# 5 0.000843 -0.000863 0.000089 0.000000 0.025043 0.000000
# 6 0.000000 0.000001 0.000000 0.005298 0.000000 0.042640
#
#
# Mechanical properties :
#
#
# Convention : Reuss Voigt Hill
#
# Bulk Modulus (GPa) = 42.73407 70.32247 56.52827
# Shear Modulus (GPa) = 23.48492 27.81681 25.65086
#
# Velocity S-wave (km/s) = 3.58955 3.90660 3.75143
# Velocity P-wave (km/s) = 6.37382 7.67663 7.05536
#
# Compressibility (1/GPa) = 0.02340053
#
# Stress axis : x y z
#
# Youngs Moduli (GPa) = 75.24174 35.24027 74.61244
#
# Poissons Ratio (x) = 0.11674 0.58702
# Poissons Ratio (y) = 0.24924 0.34728
# Poissons Ratio (z) = 0.59197 0.16403
#
# Static dielectric constant tensor:
#      x y z
#    x -15.909960 0.000020 2.643030 
#    y 0.000020 2.955020 0.000000 
#    z 2.643030 0.000000 3.427630 
# 
# 
# High freq. dielectric constant tensor:
#      x y z
#    x 1.694210 0.000000 0.003880 
#    y 0.000000 1.665230 0.000000 
#    z 0.003880 0.000000 1.725600 
# 
# From -- ./inp_files/345412.got.cif
#   From: 2010.06.25/outbox.cif.g09.slc.cpg/sg12_173_cif.got.tgz:345412.got - 2010.06.28 00:19:55.
