data_PCOD8096880
_publ_section_title
;
Structure prediction by ZEFSAII (Michael W. Deem and Ramdas Pophale) SiO2 
 PCOD8096880
Probable space group: C 2/M
;
_chemical_formula_sum "Si O2"
_cell_formula_units_Z 64
_cell_length_a 24.603868
_cell_length_b 9.230114
_cell_length_c 15.302625
_cell_angle_alpha 90.000000
_cell_angle_beta 81.061255
_cell_angle_gamma 90.000000
_cell_volume 3432.966776
_symmetry_space_group_name_H-M "C 2/M"
_symmetry_group_IT_number 12
_symmetry_cell_setting 'monoclinic'
loop_
_space_group_symop_operation_xyz
x,y,z
-x,y,-z
-x,-y,-z
x,-y,z
1/2+x,1/2+y,z
1/2-x,1/2+y,-z
1/2-x,1/2-y,-z
1/2+x,1/2-y,z
loop_
_atom_site_type_symbol
_atom_site_label
_atom_site_fract_x
_atom_site_fract_y
_atom_site_fract_z
Si Si1 0.449135 0.835540 0.949847
Si Si2 0.570046 0.167468 0.236003
Si Si3 0.668485 0.168701 0.476806
Si Si4 0.949587 0.328183 0.569768
Si Si5 0.792775 0.334834 0.198101
Si Si6 0.785371 0.831198 0.371737
Si Si7 0.326089 0.660801 0.839929
Si Si8 0.344734 0.332821 0.026568
O O1 0.465303 0.802992 0.843700
O O2 0.425367 0.000000 0.961550
O O3 0.500000 0.817331 0.000000
O O4 0.406727 0.716141 0.992444
O O5 0.542410 0.229402 0.331937
O O6 0.631015 0.227669 0.209452
O O7 0.579134 0.000000 0.250715
O O8 0.610763 0.221385 0.449175
O O9 0.719725 0.195636 0.398317
O O10 0.679248 0.264333 0.559038
O O11 0.665865 0.000000 0.504322
O O12 0.953163 0.500000 0.564021
O O13 0.000000 0.261602 0.500000
O O14 0.813234 0.500000 0.202935
O O15 0.808517 0.245124 0.279540
O O16 0.727678 0.326655 0.204433
O O17 0.820993 0.266589 0.107383
O O18 0.798896 0.000000 0.362884
O O19 0.351925 0.500000 0.827777
O O20 0.310982 0.693138 0.945206
O O21 0.343572 0.500000 0.056500
#
# Coordination Sequence:
#
# PCOD8096880 Si02
#       8
#     8   8   8   8   8   8   8   8
#     4   9  18  34  53  75 104 138 180 223 259 305
#     4   9  17  31  53  77 101 135 177 218 261 308
#     4   9  18  34  54  76 102 136 177 220 267 318
#     4   9  17  31  52  79 107 134 175 225 270 314
#     4  11  21  33  50  76 107 137 172 212 260 315
#     4  10  20  34  53  76 105 139 176 218 264 322
#     4   9  19  33  51  75 104 137 172 212 258 312
#     4  10  20  34  51  74 105 138 172 212 263 314
#
# _framework density 18.642768
#
# number of rings (size 3 to 8) (size 9 to 14) (size 15 to 20)
#    0.000    2.500    0.000    2.250    0.000    3.250 
#    2.250    0.625    0.000    1.500    0.000    0.000 
#    0.000    0.000    0.000    0.000    0.000    0.000 
#
# Total GULP energy -396641.345304 kJ/mol
# GULP energy per Si atom -12395.042041 kJ/mol
# Density = 1.860034 g / cm^3
# Si number density = 18.642768 Si / 1000 Ang^3
#
#
#
# Elastic Constant Matrix: (Units=GPa)
#
#
# Indices 1 2 3 4 5 6 
#
# 1 67.0333 19.6285 38.2977 0.0000 7.7556 0.0000
# 2 19.6285 68.5348 49.3682 0.0000 6.3469 0.0000
# 3 38.2977 49.3682 139.9113 0.0000 1.6936 0.0000
# 4 0.0000 0.0000 0.0000 26.5820 0.0000 2.0344
# 5 7.7556 6.3469 1.6936 0.0000 20.8128 0.0000
# 6 0.0000 0.0000 0.0000 2.0344 0.0000 20.3955
#
#
#
# Elastic Compliance Matrix: (Units=1/GPa)
#
#
# Indices 1 2 3 4 5 6 
#
# 1 0.018638 -0.001542 -0.004484 0.000000 -0.006110 0.000000
# 2 -0.001542 0.020319 -0.006686 0.000000 -0.005078 0.000000
# 3 -0.004484 -0.006686 0.010699 0.000000 0.002839 0.000000
# 4 0.000000 0.000000 0.000000 0.037909 0.000000 -0.003781
# 5 -0.006110 -0.005078 0.002839 0.000000 0.051642 0.000000
# 6 0.000000 0.000000 0.000000 -0.003781 0.000000 0.049408
#
#
# Mechanical properties :
#
#
# Convention : Reuss Voigt Hill
#
# Bulk Modulus (GPa) = 41.26650 54.45202 47.85926
# Shear Modulus (GPa) = 22.51070 24.77040 23.64055
#
# Velocity S-wave (km/s) = 3.47865 3.64907 3.56488
# Velocity P-wave (km/s) = 6.19016 6.85754 6.53238
#
# Compressibility (1/GPa) = 0.02423273
#
# Stress axis : x y z
#
# Youngs Moduli (GPa) = 53.65357 49.21422 93.46238
#
# Poissons Ratio (x) = 0.07591 0.41904
# Poissons Ratio (y) = 0.08276 0.62489
# Poissons Ratio (z) = 0.24056 0.32905
#
# Static dielectric constant tensor:
#      x y z
#    x 3.261600 0.000000 0.101630 
#    y 0.000000 3.408870 0.000000 
#    z 0.101630 0.000000 3.672730 
# 
# 
# High freq. dielectric constant tensor:
#      x y z
#    x 1.700120 0.000000 0.012280 
#    y 0.000000 1.714780 0.000000 
#    z 0.012280 0.000000 1.735360 
# 
# From -- ./inp_files/243784.got.cif
#   From: 2010.06.25/outbox.cif.g09.slc.cpg/sg12_122_cif.got.tgz:243784.got - 2010.06.28 00:19:55.
