data_PCOD8096377
_publ_section_title
;
Structure prediction by ZEFSAII (Michael W. Deem and Ramdas Pophale) SiO2 
 PCOD8096377
Probable space group: C 2/M
;
_chemical_formula_sum "Si O2"
_cell_formula_units_Z 64
_cell_length_a 14.083654
_cell_length_b 8.979951
_cell_length_c 28.867995
_cell_angle_alpha 90.000000
_cell_angle_beta 105.980845
_cell_angle_gamma 90.000000
_cell_volume 3509.855034
_symmetry_space_group_name_H-M "C 2/M"
_symmetry_group_IT_number 12
_symmetry_cell_setting 'monoclinic'
loop_
_space_group_symop_operation_xyz
x,y,z
-x,y,-z
-x,-y,-z
x,-y,z
1/2+x,1/2+y,z
1/2-x,1/2+y,-z
1/2-x,1/2-y,-z
1/2+x,1/2-y,z
loop_
_atom_site_type_symbol
_atom_site_label
_atom_site_fract_x
_atom_site_fract_y
_atom_site_fract_z
Si Si1 0.216845 0.674459 0.120174
Si Si2 0.581722 0.173130 0.878789
Si Si3 0.850974 0.173161 0.699607
Si Si4 0.759339 0.675012 0.550545
Si Si5 0.615252 0.831510 0.201834
Si Si6 0.547504 0.825826 0.367247
Si Si7 0.531898 0.671963 0.056830
Si Si8 0.842380 0.674870 0.381715
O O1 0.212183 0.500000 0.107801
O O2 0.325040 0.736895 0.126679
O O3 0.188824 0.704580 0.169639
O O4 0.140727 0.758958 0.076505
O O5 0.496834 0.194483 0.829233
O O6 0.546911 0.238991 0.923003
O O7 0.607758 0.000000 0.889341
O O8 0.858453 0.221109 0.753530
O O9 0.935015 0.251012 0.680114
O O10 0.742709 0.215976 0.666354
O O11 0.870696 0.000000 0.698848
O O12 0.744673 0.500000 0.543504
O O13 0.750000 0.750000 0.500000
O O14 0.866165 0.717083 0.585462
O O15 0.674576 0.739226 0.572535
O O16 0.629921 0.000000 0.221173
O O17 0.445017 0.766967 0.374438
O O18 0.542725 0.000000 0.357437
O O19 0.533770 0.500000 0.072687
O O20 0.500000 0.689878 0.000000
O O21 0.845577 0.500000 0.393111
#
# Coordination Sequence:
#
# PCOD8096377 Si02
#       8
#     8   8   8   8   8   8   8   8
#     4  10  21  37  57  81 109 142 179 222 270 319
#     4  10  21  37  57  80 107 142 181 222 267 315
#     4  10  20  33  53  79 104 132 169 215 260 301
#     4  10  20  34  53  76 102 134 169 209 256 304
#     4   9  20  37  54  75 106 141 175 212 259 315
#     4   9  19  36  55  73 100 138 173 207 254 310
#     4  10  21  37  57  81 109 142 180 222 267 317
#     4   9  19  36  54  74 101 133 171 211 251 302
#
# _framework density 18.234369999999998
#
# number of rings (size 3 to 8) (size 9 to 14) (size 15 to 20)
#    0.000    2.375    0.000    2.625    0.000    7.500 
#    0.000    6.250    0.000    0.000    0.000    0.000 
#    0.000    0.000    0.000    0.000    0.000    0.000 
#
# Total GULP energy -396919.034035 kJ/mol
# GULP energy per Si atom -12403.719814 kJ/mol
# Density = 1.819287 g / cm^3
# Si number density = 18.234370 Si / 1000 Ang^3
#
#
#
# Elastic Constant Matrix: (Units=GPa)
#
#
# Indices 1 2 3 4 5 6 
#
# 1 116.1416 23.7070 37.7659 0.0000 -12.9882 0.0000
# 2 23.7070 57.6550 44.6055 0.0000 -3.5327 0.0000
# 3 37.7659 44.6055 101.2825 0.0000 -6.1219 0.0000
# 4 0.0000 0.0000 0.0000 36.6768 0.0000 -2.9149
# 5 -12.9882 -3.5327 -6.1219 0.0000 14.3577 0.0000
# 6 0.0000 0.0000 0.0000 -2.9149 0.0000 33.6132
#
#
#
# Elastic Compliance Matrix: (Units=1/GPa)
#
#
# Indices 1 2 3 4 5 6 
#
# 1 0.010779 -0.001827 -0.002722 0.000000 0.008140 0.000000
# 2 -0.001827 0.026653 -0.011045 0.000000 0.000196 0.000000
# 3 -0.002722 -0.011045 0.015848 0.000000 0.001577 0.000000
# 4 0.000000 0.000000 0.000000 0.027454 0.000000 0.002381
# 5 0.008140 0.000196 0.001577 0.000000 0.077734 0.000000
# 6 0.000000 0.000000 0.000000 0.002381 0.000000 0.029957
#
#
# Mechanical properties :
#
#
# Convention : Reuss Voigt Hill
#
# Bulk Modulus (GPa) = 45.26790 54.13730 49.70260
# Shear Modulus (GPa) = 22.02867 28.19624 25.11245
#
# Velocity S-wave (km/s) = 3.47952 3.93660 3.71510
# Velocity P-wave (km/s) = 6.40486 7.10046 6.76161
#
# Compressibility (1/GPa) = 0.02209071
#
# Stress axis : x y z
#
# Youngs Moduli (GPa) = 92.77550 37.51939 63.09887
#
# Poissons Ratio (x) = 0.06855 0.17178
# Poissons Ratio (y) = 0.16950 0.69693
# Poissons Ratio (z) = 0.25258 0.41440
#
# Static dielectric constant tensor:
#      x y z
#    x 3.492090 0.000000 -0.029890 
#    y 0.000000 3.454610 0.000000 
#    z -0.029890 0.000000 3.278030 
# 
# 
# High freq. dielectric constant tensor:
#      x y z
#    x 1.710270 0.000000 -0.004630 
#    y 0.000000 1.717070 0.000000 
#    z -0.004630 0.000000 1.705410 
# 
# From -- ./inp_files/359804.got.cif
#   From: 2010.06.25/outbox.cif.g09.slc.cpg/sg12_180_cif.got.tgz:359804.got - 2010.06.28 00:19:55.
