data_PCOD8096268
_publ_section_title
;
Structure prediction by ZEFSAII (Michael W. Deem and Ramdas Pophale) SiO2 
 PCOD8096268
Probable space group: C 2/M
;
_chemical_formula_sum "Si O2"
_cell_formula_units_Z 64
_cell_length_a 27.535695
_cell_length_b 9.351188
_cell_length_c 19.072096
_cell_angle_alpha 90.000000
_cell_angle_beta 137.133891
_cell_angle_gamma 90.000000
_cell_volume 3340.824871
_symmetry_space_group_name_H-M "C 2/M"
_symmetry_group_IT_number 12
_symmetry_cell_setting 'monoclinic'
loop_
_space_group_symop_operation_xyz
x,y,z
-x,y,-z
-x,-y,-z
x,-y,z
1/2+x,1/2+y,z
1/2-x,1/2+y,-z
1/2-x,1/2-y,-z
1/2+x,1/2-y,z
loop_
_atom_site_type_symbol
_atom_site_label
_atom_site_fract_x
_atom_site_fract_y
_atom_site_fract_z
Si Si1 0.736778 0.338537 0.591187
Si Si2 0.857589 0.661979 0.602427
Si Si3 0.006174 0.835594 0.208498
Si Si4 0.558726 0.668439 0.006216
Si Si5 0.440251 0.161058 0.496003
Si Si6 0.539696 0.336628 0.691169
Si Si7 0.847502 0.836358 0.300935
Si Si8 0.301223 0.164293 0.806183
O O1 0.707756 0.500000 0.570624
O O2 0.795817 0.333941 0.593963
O O3 0.669960 0.238339 0.498230
O O4 0.771987 0.282551 0.700149
O O5 0.879209 0.500000 0.606447
O O6 0.924082 0.742374 0.706360
O O7 0.951248 0.818572 0.215654
O O8 0.030491 0.000000 0.225161
O O9 0.966013 0.781247 0.096784
O O10 0.570392 0.500000 0.022498
O O11 0.633499 0.740043 0.101713
O O12 0.500000 0.719864 0.000000
O O13 0.500000 0.164627 0.500000
O O14 0.472346 0.239124 0.598147
O O15 0.371948 0.244305 0.393907
O O16 0.418482 0.000000 0.493060
O O17 0.521314 0.500000 0.652007
O O18 0.612799 0.288854 0.729089
O O19 0.762231 0.816423 0.203477
O O20 0.866206 0.000000 0.338433
O O21 0.326378 0.000000 0.828199
#
# Coordination Sequence:
#
# PCOD8096268 Si02
#       8
#     8   8   8   8   8   8   8   8
#     4   9  19  35  52  75 109 142 171 210 267 330
#     4  10  20  33  52  79 108 138 173 217 268 321
#     4  10  21  36  55  77 104 141 181 220 269 322
#     4  10  22  40  60  81 105 136 178 227 276 326
#     4   9  17  29  47  74 108 142 176 218 264 306
#     4   9  18  33  52  73 104 145 183 217 256 314
#     4   9  18  33  52  76 106 142 183 217 255 314
#     4  10  21  36  57  81 105 138 180 222 266 317
#
# _framework density 19.156946000000001
#
# number of rings (size 3 to 8) (size 9 to 14) (size 15 to 20)
#    0.000    2.500    0.000    1.500    1.750    4.250 
#    0.000    0.625    0.000    0.000    0.000    0.000 
#    0.000    0.000    0.000    0.000    0.000    0.000 
#
# Total GULP energy -396797.797484 kJ/mol
# GULP energy per Si atom -12399.931171 kJ/mol
# Density = 1.911334 g / cm^3
# Si number density = 19.156946 Si / 1000 Ang^3
#
#
#
# Elastic Constant Matrix: (Units=GPa)
#
#
# Indices 1 2 3 4 5 6 
#
# 1 67.2790 33.0798 60.2796 0.0000 -3.1521 0.0000
# 2 33.0798 88.7742 70.0710 0.0000 5.6343 0.0000
# 3 60.2796 70.0710 154.6346 0.0000 -1.8162 0.0000
# 4 0.0000 0.0000 0.0000 33.4075 0.0000 6.2359
# 5 -3.1521 5.6343 -1.8162 0.0000 32.0381 0.0000
# 6 0.0000 0.0000 0.0000 6.2359 0.0000 17.5857
#
#
#
# Elastic Compliance Matrix: (Units=1/GPa)
#
#
# Indices 1 2 3 4 5 6 
#
# 1 0.023315 -0.002618 -0.007875 0.000000 0.002308 0.000000
# 2 -0.002618 0.018241 -0.007291 0.000000 -0.003879 0.000000
# 3 -0.007875 -0.007291 0.012855 0.000000 0.001236 0.000000
# 4 0.000000 0.000000 0.000000 0.032055 0.000000 -0.011367
# 5 0.002308 -0.003879 0.001236 0.000000 0.032192 0.000000
# 6 0.000000 0.000000 0.000000 -0.011367 0.000000 0.060895
#
#
# Mechanical properties :
#
#
# Convention : Reuss Voigt Hill
#
# Bulk Modulus (GPa) = 53.07088 70.83872 61.95480
# Shear Modulus (GPa) = 22.58342 26.42343 24.50342
#
# Velocity S-wave (km/s) = 3.43718 3.71794 3.58031
# Velocity P-wave (km/s) = 6.59664 7.44910 7.03579
#
# Compressibility (1/GPa) = 0.01884273
#
# Stress axis : x y z
#
# Youngs Moduli (GPa) = 42.89155 54.82166 77.79189
#
# Poissons Ratio (x) = 0.14354 0.61260
# Poissons Ratio (y) = 0.11231 0.56715
# Poissons Ratio (z) = 0.33777 0.39968
#
# Static dielectric constant tensor:
#      x y z
#    x 3.710280 0.000000 -0.161390 
#    y 0.000000 3.584930 0.000000 
#    z -0.161390 0.000000 3.337540 
# 
# 
# High freq. dielectric constant tensor:
#      x y z
#    x 1.760760 0.000000 -0.006980 
#    y 0.000000 1.741320 0.000000 
#    z -0.006980 0.000000 1.721310 
# 
# From -- ./inp_files/295831.got.cif
#   From: 2010.06.25/outbox.cif.g09.slc.cpg/sg12_148_cif.got.tgz:295831.got - 2010.06.28 00:19:55.
