data_PCOD8096779
_publ_section_title
;
Structure prediction by ZEFSAII (Michael W. Deem and Ramdas Pophale) SiO2 
 PCOD8096779
Probable space group: C 2/M
;
_chemical_formula_sum "Si O2"
_cell_formula_units_Z 56
_cell_length_a 9.761247
_cell_length_b 27.599602
_cell_length_c 11.852433
_cell_angle_alpha 90.000000
_cell_angle_beta 117.018110
_cell_angle_gamma 90.000000
_cell_volume 2844.634967
_symmetry_space_group_name_H-M "C 2/M"
_symmetry_group_IT_number 12
_symmetry_cell_setting 'monoclinic'
loop_
_space_group_symop_operation_xyz
x,y,z
-x,y,-z
-x,-y,-z
x,-y,z
1/2+x,1/2+y,z
1/2-x,1/2+y,-z
1/2-x,1/2-y,-z
1/2+x,1/2-y,z
loop_
_atom_site_type_symbol
_atom_site_label
_atom_site_fract_x
_atom_site_fract_y
_atom_site_fract_z
Si Si1 0.351370 0.943806 0.019948
Si Si2 0.127258 0.121685 0.807557
Si Si3 0.223967 0.343973 0.350835
Si Si4 0.713204 0.358843 0.364433
Si Si5 0.175317 0.741822 0.589248
Si Si6 0.836803 0.201299 0.997599
Si Si7 0.880803 0.368785 0.219219
O O1 0.383501 0.918363 0.150755
O O2 0.323249 0.000000 0.031698
O O3 0.500000 0.933580 0.000000
O O4 0.197493 0.922665 0.904825
O O5 0.207635 0.119125 0.714764
O O6 0.151375 0.172073 0.881149
O O7 0.945917 0.115113 0.723704
O O8 0.263385 0.361397 0.492333
O O9 0.301907 0.292961 0.339130
O O10 0.041629 0.340556 0.272504
O O11 0.730929 0.303224 0.323378
O O12 0.841082 0.385093 0.333639
O O13 0.250000 0.750000 0.500000
O O14 0.000000 0.727193 0.500000
O O15 0.750000 0.250000 0.000000
O O16 0.742529 0.169024 0.874310
O O17 0.000000 0.213188 0.000000
#
# Coordination Sequence:
#
# PCOD8096779 Si02
#       7
#     8   8   8   8   8   8   8
#     4  10  22  45  71  93 116 154 212 269 319 387
#     4  11  23  39  63  91 119 162 208 255 318 368
#     4  11  22  36  61  91 126 171 215 245 296 376
#     4  11  22  38  57  87 136 165 201 256 299 365
#     4  10  20  34  50  79 120 176 214 234 272 339
#     4  11  26  40  56  84 125 170 210 264 307 352
#     4  11  23  39  63  91 121 163 209 255 324 366
#
# _framework density 19.686181999999999
#
# number of rings (size 3 to 8) (size 9 to 14) (size 15 to 20)
#    0.000    1.286    2.857    4.286    6.000    0.000 
#    0.000    1.429    0.000    5.143    0.000    0.000 
#    0.000    0.000    0.000    0.000    0.000    0.000 
#
# Total GULP energy -346962.153081 kJ/mol
# GULP energy per Si atom -12391.505467 kJ/mol
# Density = 1.964138 g / cm^3
# Si number density = 19.686182 Si / 1000 Ang^3
#
#
#
# Elastic Constant Matrix: (Units=GPa)
#
#
# Indices 1 2 3 4 5 6 
#
# 1 127.7732 37.3232 39.2975 0.0000 3.4311 0.0000
# 2 37.3232 95.8761 42.2073 0.0000 -2.2794 0.0000
# 3 39.2975 42.2073 91.5726 0.0000 -6.6979 0.0000
# 4 0.0000 0.0000 0.0000 19.0198 0.0000 1.7510
# 5 3.4311 -2.2794 -6.6979 0.0000 49.8712 0.0000
# 6 0.0000 0.0000 0.0000 1.7510 0.0000 24.3191
#
#
#
# Elastic Compliance Matrix: (Units=1/GPa)
#
#
# Indices 1 2 3 4 5 6 
#
# 1 0.009494 -0.002374 -0.003066 0.000000 -0.001173 0.000000
# 2 -0.002374 0.013681 -0.005281 0.000000 0.000079 0.000000
# 3 -0.003066 -0.005281 0.014814 0.000000 0.001959 0.000000
# 4 0.000000 0.000000 0.000000 0.052928 0.000000 -0.003811
# 5 -0.001173 0.000079 0.001959 0.000000 0.020399 0.000000
# 6 0.000000 0.000000 0.000000 -0.003811 0.000000 0.041394
#
#
# Mechanical properties :
#
#
# Convention : Reuss Voigt Hill
#
# Bulk Modulus (GPa) = 60.43633 61.43089 60.93361
# Shear Modulus (GPa) = 27.82908 31.73494 29.78201
#
# Velocity S-wave (km/s) = 3.76391 4.01938 3.89374
# Velocity P-wave (km/s) = 7.04669 7.26728 7.15784
#
# Compressibility (1/GPa) = 0.01654634
#
# Stress axis : x y z
#
# Youngs Moduli (GPa) = 105.32580 73.09299 67.50593
#
# Poissons Ratio (x) = 0.17354 0.20697
# Poissons Ratio (y) = 0.25007 0.35651
# Poissons Ratio (z) = 0.32292 0.38602
#
# Static dielectric constant tensor:
#      x y z
#    x 3.784920 0.000000 -0.109280 
#    y 0.000000 2.860190 0.000000 
#    z -0.109280 0.000000 3.777420 
# 
# 
# High freq. dielectric constant tensor:
#      x y z
#    x 1.791230 0.000000 -0.007230 
#    y 0.000000 1.722420 0.000000 
#    z -0.007230 0.000000 1.776910 
# 
# From -- ./inp_files/125162.got.cif
#   From: 2010.06.25/outbox.cif.g09.slc.cpg/sg12_63_cif.got.tgz:125162.got - 2010.06.28 00:19:55.
