data_PCOD8096129
_publ_section_title
;
Structure prediction by ZEFSAII (Michael W. Deem and Ramdas Pophale) SiO2 
 PCOD8096129
Probable space group: C 2/M
;
_chemical_formula_sum "Si O2"
_cell_formula_units_Z 64
_cell_length_a 19.721730
_cell_length_b 8.733204
_cell_length_c 19.946964
_cell_angle_alpha 90.000000
_cell_angle_beta 84.754198
_cell_angle_gamma 90.000000
_cell_volume 3421.153901
_symmetry_space_group_name_H-M "C 2/M"
_symmetry_group_IT_number 12
_symmetry_cell_setting 'monoclinic'
loop_
_space_group_symop_operation_xyz
x,y,z
-x,y,-z
-x,-y,-z
x,-y,z
1/2+x,1/2+y,z
1/2-x,1/2+y,-z
1/2-x,1/2-y,-z
1/2+x,1/2-y,z
loop_
_atom_site_type_symbol
_atom_site_label
_atom_site_fract_x
_atom_site_fract_y
_atom_site_fract_z
Si Si1 0.322950 0.680507 0.480913
Si Si2 0.310458 0.324693 0.082107
Si Si3 0.328049 0.321525 0.940183
Si Si4 0.626662 0.322849 0.206168
Si Si5 0.228522 0.182861 0.775826
Si Si6 0.370200 0.319113 0.332058
Si Si7 0.485824 0.819773 0.694467
Si Si8 0.561716 0.820204 0.446506
O O1 0.316205 0.500000 0.479481
O O2 0.250000 0.750000 0.500000
O O3 0.352757 0.742930 0.407758
O O4 0.371245 0.731091 0.537032
O O5 0.324514 0.500000 0.093247
O O6 0.233150 0.294104 0.067691
O O7 0.317580 0.253108 0.156431
O O8 0.356928 0.274857 0.012831
O O9 0.303373 0.500000 0.944458
O O10 0.380600 0.300659 0.874106
O O11 0.621522 0.500000 0.226507
O O12 0.697335 0.259312 0.229295
O O13 0.563588 0.232242 0.242082
O O14 0.190362 0.233745 0.711873
O O15 0.238663 0.000000 0.777834
O O16 0.378007 0.500000 0.330829
O O17 0.440256 0.249581 0.299508
O O18 0.455793 0.763226 0.626298
O O19 0.493054 0.000000 0.693978
O O20 0.500000 0.772867 0.500000
O O21 0.576766 0.000000 0.448426
#
# Coordination Sequence:
#
# PCOD8096129 Si02
#       8
#     8   8   8   8   8   8   8   8
#     4  11  24  39  58  83 111 141 174 214 260 311
#     4   8  13  24  45  71  99 134 172 208 252 305
#     4   8  14  25  43  70 103 134 167 211 256 299
#     4  10  20  33  51  79 111 139 173 217 262 310
#     4   9  18  33  53  78 108 140 175 215 261 311
#     4  10  22  39  56  77 107 140 173 214 262 311
#     4  11  23  38  58  78 102 138 178 219 263 315
#     4  10  21  40  61  80 103 134 175 221 265 310
#
# _framework density 18.707138
#
# number of rings (size 3 to 8) (size 9 to 14) (size 15 to 20)
#    0.000    2.375    1.250    1.125    1.750    2.750 
#    0.000    0.000    0.000    0.750    0.000    5.250 
#    0.000    0.000    0.000    0.000    0.000    0.000 
#
# Total GULP energy -396454.225671 kJ/mol
# GULP energy per Si atom -12389.194552 kJ/mol
# Density = 1.866456 g / cm^3
# Si number density = 18.707138 Si / 1000 Ang^3
#
#
#
# Elastic Constant Matrix: (Units=GPa)
#
#
# Indices 1 2 3 4 5 6 
#
# 1 88.8332 18.0634 28.7803 0.0000 -12.6750 0.0000
# 2 18.0634 19.7455 15.4941 0.0000 2.1673 0.0000
# 3 28.7803 15.4941 80.3503 0.0000 -21.1505 0.0000
# 4 0.0000 0.0000 0.0000 23.3244 0.0000 -3.1963
# 5 -12.6750 2.1673 -21.1505 0.0000 23.1876 0.0000
# 6 0.0000 0.0000 0.0000 -3.1963 0.0000 29.7411
#
#
#
# Elastic Compliance Matrix: (Units=1/GPa)
#
#
# Indices 1 2 3 4 5 6 
#
# 1 0.015886 -0.015643 -0.000004 0.000000 0.010142 0.000000
# 2 -0.015643 0.084161 -0.019670 0.000000 -0.034359 0.000000
# 3 -0.000004 -0.019670 0.022007 0.000000 0.021910 0.000000
# 4 0.000000 0.000000 0.000000 0.043514 0.000000 0.004676
# 5 0.010142 -0.034359 0.021910 0.000000 0.071868 0.000000
# 6 0.000000 0.000000 0.000000 0.004676 0.000000 0.034126
#
#
# Mechanical properties :
#
#
# Convention : Reuss Voigt Hill
#
# Bulk Modulus (GPa) = 19.44757 34.84494 27.14626
# Shear Modulus (GPa) = 13.91448 23.69004 18.80226
#
# Velocity S-wave (km/s) = 2.73024 3.56246 3.17375
# Velocity P-wave (km/s) = 4.51191 5.96561 5.28894
#
# Compressibility (1/GPa) = 0.05142030
#
# Stress axis : x y z
#
# Youngs Moduli (GPa) = 62.94705 11.88196 45.43913
#
# Poissons Ratio (x) = 0.18587 0.00018
# Poissons Ratio (y) = 0.98469 0.89380
# Poissons Ratio (z) = 0.00025 0.23372
#
# Static dielectric constant tensor:
#      x y z
#    x 3.061700 0.000000 -0.134470 
#    y 0.000000 3.355350 0.000000 
#    z -0.134470 0.000000 4.019390 
# 
# 
# High freq. dielectric constant tensor:
#      x y z
#    x 1.688460 0.000000 -0.010640 
#    y 0.000000 1.719910 0.000000 
#    z -0.010640 0.000000 1.752330 
# 
# From -- ./inp_files/313987.got.cif
#   From: 2010.06.25/outbox.cif.g09.slc.cpg/sg12_157_cif.got.tgz:313987.got - 2010.06.28 00:19:55.
