data_PCOD8096934
_publ_section_title
;
Structure prediction by ZEFSAII (Michael W. Deem and Ramdas Pophale) SiO2 
 PCOD8096934
Probable space group: C 2/M
;
_chemical_formula_sum "Si O2"
_cell_formula_units_Z 56
_cell_length_a 19.368916
_cell_length_b 9.261063
_cell_length_c 30.275035
_cell_angle_alpha 90.000000
_cell_angle_beta 36.834005
_cell_angle_gamma 90.000000
_cell_volume 3255.660220
_symmetry_space_group_name_H-M "C 2/M"
_symmetry_group_IT_number 12
_symmetry_cell_setting 'monoclinic'
loop_
_space_group_symop_operation_xyz
x,y,z
-x,y,-z
-x,-y,-z
x,-y,z
1/2+x,1/2+y,z
1/2-x,1/2+y,-z
1/2-x,1/2-y,-z
1/2+x,1/2-y,z
loop_
_atom_site_type_symbol
_atom_site_label
_atom_site_fract_x
_atom_site_fract_y
_atom_site_fract_z
Si Si1 0.217727 0.168096 0.787326
Si Si2 0.181311 0.334724 0.499316
Si Si3 0.119600 0.168638 0.660094
Si Si4 0.977257 0.669413 0.658500
Si Si5 0.629717 0.830526 0.062053
Si Si6 0.963810 0.667643 0.066745
Si Si7 0.055252 0.168591 0.790567
O O1 0.347955 0.227144 0.718602
O O2 0.151047 0.248861 0.860511
O O3 0.160399 0.201493 0.769582
O O4 0.213539 0.000000 0.800693
O O5 0.201309 0.500000 0.500559
O O6 0.250000 0.250000 0.500000
O O7 0.243186 0.300300 0.420560
O O8 0.045758 0.298263 0.576742
O O9 0.095987 0.220872 0.721697
O O10 0.036184 0.252273 0.669579
O O11 0.091697 0.000000 0.669463
O O12 0.977024 0.500000 0.669109
O O13 0.567848 0.800654 0.047080
O O14 0.554879 0.763461 0.139963
O O15 0.647611 0.000000 0.061542
O O16 0.750000 0.750000 0.000000
O O17 0.931937 0.500000 0.081976
O O18 0.000000 0.723787 0.000000
O O19 0.020925 0.000000 0.809245
#
# Coordination Sequence:
#
# PCOD8096934 Si02
#       7
#     8   8   8   8   8   8   8
#     4   9  18  32  48  67  93 123 151 183 228 275
#     4   8  14  26  43  64  91 120 151 188 229 269
#     4   9  17  29  47  69  91 121 159 193 226 267
#     4   9  17  29  46  69  95 121 152 192 233 272
#     4  10  20  34  52  72  94 121 152 187 229 274
#     4   9  19  35  52  69  90 118 152 188 225 267
#     4   9  18  33  49  66  93 125 155 188 226 271
#
# _framework density 17.200813
#
# number of rings (size 3 to 8) (size 9 to 14) (size 15 to 20)
#    0.000    3.000    0.000    0.429    0.000    3.143 
#    0.000    5.000    0.000    4.286    0.000    0.000 
#    0.000   16.000    0.000    0.000    0.000    0.000 
#
# Total GULP energy -346967.308479 kJ/mol
# GULP energy per Si atom -12391.689589 kJ/mol
# Density = 1.716166 g / cm^3
# Si number density = 17.200813 Si / 1000 Ang^3
#
#
#
# Elastic Constant Matrix: (Units=GPa)
#
#
# Indices 1 2 3 4 5 6 
#
# 1 72.0808 33.6885 88.9781 0.0001 0.4675 -0.0037
# 2 33.6885 48.2801 62.8626 0.0000 -2.1537 -0.0035
# 3 88.9781 62.8626 204.1534 0.0000 -1.5859 0.0000
# 4 0.0001 0.0000 0.0000 26.2094 0.0003 0.3992
# 5 0.4675 -2.1537 -1.5859 0.0003 32.8926 -0.0001
# 6 -0.0037 -0.0035 0.0000 0.3992 -0.0001 21.7862
#
#
#
# Elastic Compliance Matrix: (Units=1/GPa)
#
#
# Indices 1 2 3 4 5 6 
#
# 1 0.031385 -0.006910 -0.011563 0.000000 -0.001456 0.000004
# 2 -0.006910 0.036196 -0.008118 0.000000 0.002077 0.000005
# 3 -0.011563 -0.008118 0.012439 0.000000 0.000233 -0.000003
# 4 0.000000 0.000000 0.000000 0.038165 0.000000 -0.000699
# 5 -0.001456 0.002077 0.000233 0.000000 0.030570 0.000000
# 6 0.000004 0.000005 -0.000003 -0.000699 0.000000 0.045913
#
#
# Mechanical properties :
#
#
# Convention : Reuss Voigt Hill
#
# Bulk Modulus (GPa) = 37.25734 77.28585 57.27159
# Shear Modulus (GPa) = 19.47070 25.44332 22.45701
#
# Velocity S-wave (km/s) = 3.36812 3.85020 3.61720
# Velocity P-wave (km/s) = 6.06901 8.04950 7.12837
#
# Compressibility (1/GPa) = 0.02684035
#
# Stress axis : x y z
#
# Youngs Moduli (GPa) = 31.86198 27.62717 80.39120
#
# Poissons Ratio (x) = 0.19090 0.92954
# Poissons Ratio (y) = 0.22016 0.65260
# Poissons Ratio (z) = 0.36841 0.22427
#
# Static dielectric constant tensor:
#      x y z
#    x 2.983640 0.000010 0.018290 
#    y 0.000010 3.133510 0.000000 
#    z 0.018290 0.000000 3.827750 
# 
# 
# High freq. dielectric constant tensor:
#      x y z
#    x 1.635780 0.000000 -0.000100 
#    y 0.000000 1.662460 0.000000 
#    z -0.000100 0.000000 1.684580 
# 
# From -- ./inp_files/320202.got.cif
#   From: 2010.06.25/outbox.cif.g09.slc.cpg/sg12_161_cif.got.tgz:320202.got - 2010.06.28 00:19:55.
