data_PCOD8096592
_publ_section_title
;
Structure prediction by ZEFSAII (Michael W. Deem and Ramdas Pophale) SiO2 
 PCOD8096592
Probable space group: C 2/M
;
_chemical_formula_sum "Si O2"
_cell_formula_units_Z 56
_cell_length_a 16.689037
_cell_length_b 17.990910
_cell_length_c 14.083577
_cell_angle_alpha 90.000000
_cell_angle_beta 38.476329
_cell_angle_gamma 90.000000
_cell_volume 2631.002657
_symmetry_space_group_name_H-M "C 2/M"
_symmetry_group_IT_number 12
_symmetry_cell_setting 'monoclinic'
loop_
_space_group_symop_operation_xyz
x,y,z
-x,y,-z
-x,-y,-z
x,-y,z
1/2+x,1/2+y,z
1/2-x,1/2+y,-z
1/2-x,1/2-y,-z
1/2+x,1/2-y,z
loop_
_atom_site_type_symbol
_atom_site_label
_atom_site_fract_x
_atom_site_fract_y
_atom_site_fract_z
Si Si1 0.134748 0.917719 0.104226
Si Si2 0.270851 0.717676 0.628255
Si Si3 0.111896 0.657957 0.126577
Si Si4 0.128987 0.329687 0.333386
Si Si5 0.862562 0.080677 0.115699
Si Si6 0.419896 0.086255 0.168867
Si Si7 0.055845 0.206431 0.713242
O O1 0.995511 0.878053 0.238416
O O2 0.127758 0.000000 0.159436
O O3 0.248585 0.866487 0.045152
O O4 0.173527 0.928873 0.960135
O O5 0.335131 0.745207 0.667635
O O6 0.208817 0.636636 0.703747
O O7 0.164319 0.776910 0.690707
O O8 0.387317 0.718853 0.444456
O O9 0.113147 0.656837 0.238102
O O10 0.007098 0.600926 0.180878
O O11 0.067614 0.741928 0.143321
O O12 0.245684 0.376217 0.272004
O O13 0.000000 0.359431 0.500000
O O14 0.875397 0.000000 0.153928
O O15 0.000000 0.123364 0.000000
O O16 0.377872 0.000000 0.205623
O O17 0.500000 0.107899 0.000000
#
# Coordination Sequence:
#
# PCOD8096592 Si02
#       7
#     8   8   8   8   8   8   8
#     4  10  20  33  55  86 120 156 203 256 314 371
#     4  10  22  38  60  89 123 164 216 252 305 376
#     4  10  21  39  63  90 119 158 203 262 315 371
#     4  11  21  37  62  91 127 162 200 262 318 376
#     4   9  19  35  53  80 121 164 206 252 306 377
#     4  10  23  44  67  90 122 165 215 263 309 370
#     4  10  20  37  58  84 122 167 209 255 302 368
#
# _framework density 21.284661
#
# number of rings (size 3 to 8) (size 9 to 14) (size 15 to 20)
#    0.000    2.000    1.429    1.714    0.000    7.714 
#    0.000    0.000    0.000    0.429    0.000    0.000 
#    0.000    0.000    0.000    0.000    0.000    0.000 
#
# Total GULP energy -346903.903083 kJ/mol
# GULP energy per Si atom -12389.425110 kJ/mol
# Density = 2.123622 g / cm^3
# Si number density = 21.284661 Si / 1000 Ang^3
#
#
#
# Elastic Constant Matrix: (Units=GPa)
#
#
# Indices 1 2 3 4 5 6 
#
# 1 87.8632 41.4425 39.5315 0.0000 -3.9623 0.0000
# 2 41.4425 115.4968 62.3250 0.0000 -18.8883 0.0000
# 3 39.5315 62.3250 81.6260 0.0000 -24.6340 0.0000
# 4 0.0000 0.0000 0.0000 14.9015 -0.0001 3.3177
# 5 -3.9623 -18.8883 -24.6340 -0.0001 37.8298 0.0000
# 6 0.0000 0.0000 0.0000 3.3177 0.0000 21.6601
#
#
#
# Elastic Compliance Matrix: (Units=1/GPa)
#
#
# Indices 1 2 3 4 5 6 
#
# 1 0.015443 -0.002565 -0.006744 0.000000 -0.004055 0.000000
# 2 -0.002565 0.015152 -0.010112 0.000000 0.000712 0.000000
# 3 -0.006744 -0.010112 0.026760 0.000000 0.011670 0.000000
# 4 0.000000 0.000000 0.000000 0.069477 0.000000 -0.010642
# 5 -0.004055 0.000712 0.011670 0.000000 0.033964 0.000000
# 6 0.000000 0.000000 0.000000 -0.010642 0.000000 0.047798
#
#
# Mechanical properties :
#
#
# Convention : Reuss Voigt Hill
#
# Bulk Modulus (GPa) = 54.01793 63.50932 58.76362
# Shear Modulus (GPa) = 19.71560 24.32407 22.01984
#
# Velocity S-wave (km/s) = 3.04679 3.38420 3.21992
# Velocity P-wave (km/s) = 6.14908 6.72110 6.44144
#
# Compressibility (1/GPa) = 0.01851237
#
# Stress axis : x y z
#
# Youngs Moduli (GPa) = 64.75589 65.99928 37.36904
#
# Poissons Ratio (x) = 0.16928 0.25202
# Poissons Ratio (y) = 0.16609 0.37787
# Poissons Ratio (z) = 0.43672 0.66738
#
# Static dielectric constant tensor:
#      x y z
#    x 3.938280 0.000000 -0.269640 
#    y 0.000000 4.016650 0.000000 
#    z -0.269640 0.000000 3.773770 
# 
# 
# High freq. dielectric constant tensor:
#      x y z
#    x 1.841590 0.000000 -0.018870 
#    y 0.000000 1.825650 0.000000 
#    z -0.018870 0.000000 1.816260 
# 
# From -- ./inp_files/226553.got.cif
#   From: 2010.06.25/outbox.cif.g09.slc.cpg/sg12_114_cif.got.tgz:226553.got - 2010.06.28 00:19:55.
