data_PCOD8096028
_publ_section_title
;
Structure prediction by ZEFSAII (Michael W. Deem and Ramdas Pophale) SiO2 
 PCOD8096028
Probable space group: C 2/M
;
_chemical_formula_sum "Si O2"
_cell_formula_units_Z 64
_cell_length_a 28.267295
_cell_length_b 9.261695
_cell_length_c 13.507182
_cell_angle_alpha 90.000000
_cell_angle_beta 96.029099
_cell_angle_gamma 90.000000
_cell_volume 3516.661670
_symmetry_space_group_name_H-M "C 2/M"
_symmetry_group_IT_number 12
_symmetry_cell_setting 'monoclinic'
loop_
_space_group_symop_operation_xyz
x,y,z
-x,y,-z
-x,-y,-z
x,-y,z
1/2+x,1/2+y,z
1/2-x,1/2+y,-z
1/2-x,1/2-y,-z
1/2+x,1/2-y,z
loop_
_atom_site_type_symbol
_atom_site_label
_atom_site_fract_x
_atom_site_fract_y
_atom_site_fract_z
Si Si1 0.077973 0.329769 0.684661
Si Si2 0.580084 0.834866 0.458865
Si Si3 0.655231 0.168518 0.036132
Si Si4 0.846884 0.662065 0.679576
Si Si5 0.672333 0.169941 0.819410
Si Si6 0.763728 0.663091 0.787454
Si Si7 0.485268 0.669014 0.709035
Si Si8 0.407025 0.333830 0.841207
O O1 0.069064 0.500000 0.693718
O O2 0.080510 0.280480 0.571129
O O3 0.126668 0.281987 0.747058
O O4 0.036219 0.243769 0.729856
O O5 0.634656 0.822800 0.429353
O O6 0.543867 0.739670 0.387532
O O7 0.562109 0.000000 0.448860
O O8 0.699040 0.206407 0.117982
O O9 0.606346 0.243501 0.063515
O O10 0.644474 0.000000 0.029200
O O11 0.667557 0.229007 0.930247
O O12 0.860740 0.500000 0.722572
O O13 0.790210 0.680574 0.685861
O O14 0.872475 0.786597 0.745762
O O15 0.718641 0.234541 0.777795
O O16 0.679004 0.000000 0.820363
O O17 0.746070 0.500000 0.799950
O O18 0.490382 0.500000 0.686668
O O19 0.460183 0.693409 0.810703
O O20 0.398349 0.500000 0.864229
#
# Coordination Sequence:
#
# PCOD8096028 Si02
#       8
#     8   8   8   8   8   8   8   8
#     4  10  21  35  50  70  97 132 170 201 235 283
#     4   9  17  32  54  75  97 128 164 200 237 282
#     4   9  18  33  52  73  97 127 162 199 241 288
#     4   8  15  29  49  73  99 125 156 196 239 285
#     4  10  21  35  49  69  99 131 165 204 240 280
#     4   9  17  30  50  74  96 123 161 200 243 292
#     4  10  20  33  51  76 102 126 156 199 248 291
#     4   9  17  29  48  75 100 121 153 198 244 289
#
# _framework density 18.199079000000001
#
# number of rings (size 3 to 8) (size 9 to 14) (size 15 to 20)
#    0.000    2.750    0.000    2.250    0.000    6.500 
#    0.000    1.250    0.000    3.750    0.000    0.000 
#    0.000    0.000    0.000    0.000    0.000    0.000 
#
# Total GULP energy -396592.869747 kJ/mol
# GULP energy per Si atom -12393.527180 kJ/mol
# Density = 1.815766 g / cm^3
# Si number density = 18.199079 Si / 1000 Ang^3
#
#
#
# Elastic Constant Matrix: (Units=GPa)
#
#
# Indices 1 2 3 4 5 6 
#
# 1 140.2024 55.3950 51.7923 0.0000 -17.1346 0.0000
# 2 55.3950 56.2098 23.6836 0.0000 -5.0711 0.0000
# 3 51.7923 23.6836 33.4092 0.0000 -4.0233 0.0000
# 4 0.0000 0.0000 0.0000 14.6968 0.0000 -6.5124
# 5 -17.1346 -5.0711 -4.0233 0.0000 24.7428 0.0000
# 6 0.0000 0.0000 0.0000 -6.5124 0.0000 33.7543
#
#
#
# Elastic Compliance Matrix: (Units=1/GPa)
#
#
# Indices 1 2 3 4 5 6 
#
# 1 0.021257 -0.009585 -0.025115 0.000000 0.008672 0.000000
# 2 -0.009585 0.029820 -0.006471 0.000000 -0.001578 0.000000
# 3 -0.025115 -0.006471 0.072621 0.000000 -0.006910 0.000000
# 4 0.000000 0.000000 0.000000 0.074403 0.000000 0.014355
# 5 0.008672 -0.001578 -0.006910 0.000000 0.044975 0.000000
# 6 0.000000 0.000000 0.000000 0.014355 0.000000 0.032396
#
#
# Mechanical properties :
#
#
# Convention : Reuss Voigt Hill
#
# Bulk Modulus (GPa) = 24.17941 54.61814 39.39877
# Shear Modulus (GPa) = 13.45545 21.23549 17.34547
#
# Velocity S-wave (km/s) = 2.72204 3.41962 3.09057
# Velocity P-wave (km/s) = 4.81604 6.75783 5.86782
#
# Compressibility (1/GPa) = 0.04135751
#
# Stress axis : x y z
#
# Youngs Moduli (GPa) = 47.04346 33.53419 13.77021
#
# Poissons Ratio (x) = 0.32141 0.34583
# Poissons Ratio (y) = 0.45089 0.08911
# Poissons Ratio (z) = 1.18147 0.21700
#
# Static dielectric constant tensor:
#      x y z
#    x 3.487370 0.000000 -0.419460 
#    y 0.000000 3.289590 0.000000 
#    z -0.419460 0.000000 3.323070 
# 
# 
# High freq. dielectric constant tensor:
#      x y z
#    x 1.704960 0.000000 -0.034970 
#    y 0.000000 1.702210 0.000000 
#    z -0.034970 0.000000 1.680440 
# 
# From -- ./inp_files/244071.got.cif
#   From: 2010.06.25/outbox.cif.g09.slc.cpg/sg12_123_cif.got.tgz:244071.got - 2010.06.28 00:19:55.
