data_PCOD8096169
_publ_section_title
;
Structure prediction by ZEFSAII (Michael W. Deem and Ramdas Pophale) SiO2 
 PCOD8096169
Probable space group: C 2/M
;
_chemical_formula_sum "Si O2"
_cell_formula_units_Z 40
_cell_length_a 23.366769
_cell_length_b 18.468367
_cell_length_c 13.504468
_cell_angle_alpha 90.000000
_cell_angle_beta 20.938741
_cell_angle_gamma 90.000000
_cell_volume 2082.678494
_symmetry_space_group_name_H-M "C 2/M"
_symmetry_group_IT_number 12
_symmetry_cell_setting 'monoclinic'
loop_
_space_group_symop_operation_xyz
x,y,z
-x,y,-z
-x,-y,-z
x,-y,z
1/2+x,1/2+y,z
1/2-x,1/2+y,-z
1/2-x,1/2-y,-z
1/2+x,1/2-y,z
loop_
_atom_site_type_symbol
_atom_site_label
_atom_site_fract_x
_atom_site_fract_y
_atom_site_fract_z
Si Si1 0.284719 0.081026 0.538353
Si Si2 0.646982 0.218985 0.078132
Si Si3 0.163502 0.579170 0.944299
Si Si4 0.689662 0.150660 0.704226
Si Si5 0.777659 0.286008 0.674264
O O1 0.228756 0.115576 0.524357
O O2 0.227194 0.133451 0.720116
O O3 0.212170 0.000000 0.668658
O O4 0.474788 0.077467 0.232813
O O5 0.708167 0.137279 0.956764
O O6 0.333406 0.266613 0.052999
O O7 0.750000 0.250000 0.000000
O O8 0.462640 0.217959 0.408493
O O9 0.227301 0.500000 0.873531
O O10 0.242528 0.601567 0.712316
O O11 0.752325 0.231994 0.622394
O O12 0.500000 0.153717 0.000000
#
# Coordination Sequence:
#
# PCOD8096169 Si02
#       5
#     8   8   8   8   8
#     4   9  16  27  46  73 102 129 158 194 238 290
#     4  10  20  35  54  72  95 129 167 210 250 283
#     4   8  15  28  48  74  96 121 166 210 236 274
#     4   9  16  28  50  75 100 130 161 197 239 288
#     4  10  20  33  52  75  99 128 166 205 240 290
#
# _framework density 19.206036999999998
#
# number of rings (size 3 to 8) (size 9 to 14) (size 15 to 20)
#    0.000    2.800    0.000    3.000    0.000    2.400 
#    0.000    1.000    0.000   25.800    0.000    0.000 
#    0.000    0.000    0.000    0.000    0.000    0.000 
#
# Total GULP energy -247909.804216 kJ/mol
# GULP energy per Si atom -12395.490211 kJ/mol
# Density = 1.916232 g / cm^3
# Si number density = 19.206037 Si / 1000 Ang^3
#
#
#
# Elastic Constant Matrix: (Units=GPa)
#
#
# Indices 1 2 3 4 5 6 
#
# 1 82.4276 53.6071 2.8859 0.0011 -7.4468 0.0003
# 2 53.6071 162.7833 3.4087 -0.0015 -3.8121 0.0007
# 3 2.8859 3.4087 19.5496 0.0014 1.5263 0.0025
# 4 0.0011 -0.0015 0.0014 19.8025 0.0006 -1.9605
# 5 -7.4468 -3.8121 1.5263 0.0006 20.0271 -0.0009
# 6 0.0003 0.0007 0.0025 -1.9605 -0.0009 25.5481
#
#
#
# Elastic Compliance Matrix: (Units=1/GPa)
#
#
# Indices 1 2 3 4 5 6 
#
# 1 0.015978 -0.005103 -0.001868 -0.000001 0.005112 0.000000
# 2 -0.005103 0.007827 -0.000583 0.000001 -0.000363 0.000000
# 3 -0.001868 -0.000583 0.051901 -0.000004 -0.004761 -0.000006
# 4 -0.000001 0.000001 -0.000004 0.050885 -0.000001 0.003905
# 5 0.005112 -0.000363 -0.004761 -0.000001 0.052127 0.000002
# 6 0.000000 0.000000 -0.000006 0.003905 0.000002 0.039442
#
#
# Mechanical properties :
#
#
# Convention : Reuss Voigt Hill
#
# Bulk Modulus (GPa) = 16.50217 42.72932 29.61575
# Shear Modulus (GPa) = 19.72640 26.73279 23.22959
#
# Velocity S-wave (km/s) = 3.20831 3.73486 3.48155
# Velocity P-wave (km/s) = 4.72601 6.39492 5.62273
#
# Compressibility (1/GPa) = 0.06059809
#
# Stress axis : x y z
#
# Youngs Moduli (GPa) = 62.58676 127.75775 19.26743
#
# Poissons Ratio (x) = 0.65194 0.03599
# Poissons Ratio (y) = 0.31937 0.01124
# Poissons Ratio (z) = 0.11691 0.07450
#
# Static dielectric constant tensor:
#      x y z
#    x 3.363960 0.000000 0.084440 
#    y 0.000000 4.019110 0.000010 
#    z 0.084440 0.000010 3.094550 
# 
# 
# High freq. dielectric constant tensor:
#      x y z
#    x 1.732510 0.000000 0.007700 
#    y 0.000000 1.757450 0.000000 
#    z 0.007700 0.000000 1.708330 
# 
# From -- ./inp_files/60216.got.cif
#   From: 2010.06.25/outbox.cif.g09.slc.cpg/sg12_31_cif.got.tgz:60216.got - 2010.06.28 00:19:55.
