data_PCOD8096209
_publ_section_title
;
Structure prediction by ZEFSAII (Michael W. Deem and Ramdas Pophale) SiO2 
 PCOD8096209
Probable space group: C 2/M
;
_chemical_formula_sum "Si O2"
_cell_formula_units_Z 64
_cell_length_a 20.728432
_cell_length_b 8.905501
_cell_length_c 24.640496
_cell_angle_alpha 90.000000
_cell_angle_beta 128.128727
_cell_angle_gamma 90.000000
_cell_volume 3578.016210
_symmetry_space_group_name_H-M "C 2/M"
_symmetry_group_IT_number 12
_symmetry_cell_setting 'monoclinic'
loop_
_space_group_symop_operation_xyz
x,y,z
-x,y,-z
-x,-y,-z
x,-y,z
1/2+x,1/2+y,z
1/2-x,1/2+y,-z
1/2-x,1/2-y,-z
1/2+x,1/2-y,z
loop_
_atom_site_type_symbol
_atom_site_label
_atom_site_fract_x
_atom_site_fract_y
_atom_site_fract_z
Si Si1 0.098414 0.323783 0.141439
Si Si2 0.479169 0.677663 0.706642
Si Si3 0.304952 0.821250 0.912683
Si Si4 0.847459 0.676304 0.713997
Si Si5 0.368971 0.178670 0.163316
Si Si6 0.221546 0.833589 0.564994
Si Si7 0.918374 0.678023 0.069997
Si Si8 0.622933 0.167031 0.432562
O O1 0.088201 0.500000 0.128585
O O2 0.142858 0.260076 0.111364
O O3 0.153660 0.286054 0.222874
O O4 0.007499 0.253407 0.101073
O O5 0.486565 0.500000 0.711306
O O6 0.419864 0.730852 0.723940
O O7 0.567686 0.751366 0.761085
O O8 0.445918 0.728677 0.630468
O O9 0.219590 0.736712 0.866133
O O10 0.291397 0.000000 0.903532
O O11 0.352311 0.769998 0.991398
O O12 0.865649 0.500000 0.712484
O O13 0.758679 0.720685 0.642345
O O14 0.390403 0.238232 0.114082
O O15 0.372473 0.000000 0.168499
O O16 0.297328 0.833595 0.563301
O O17 0.148708 0.727640 0.505578
O O18 0.184281 0.000000 0.550759
O O19 0.924810 0.500000 0.074979
O O20 0.587335 0.000000 0.421170
#
# Coordination Sequence:
#
# PCOD8096209 Si02
#       8
#     8   8   8   8   8   8   8   8
#     4   9  16  30  53  77 101 131 169 209 249 296
#     4  11  20  30  47  71  97 126 166 212 250 291
#     4  10  20  33  52  78 102 127 168 215 252 293
#     4   9  16  29  48  70  98 133 168 201 247 299
#     4  11  21  35  52  70 100 137 169 204 253 309
#     4   8  14  23  38  63  95 128 162 199 237 286
#     4   9  17  31  54  77  97 129 170 209 251 300
#     4   9  16  26  41  63  95 131 162 196 245 298
#
# _framework density 17.887006
#
# number of rings (size 3 to 8) (size 9 to 14) (size 15 to 20)
#    0.000    2.500    1.250    3.375    0.000    4.500 
#    0.000    1.250    0.000    0.750    0.000    0.875 
#    0.000    7.000    0.000    0.000    0.000    0.000 
#
# Total GULP energy -396702.651719 kJ/mol
# GULP energy per Si atom -12396.957866 kJ/mol
# Density = 1.784629 g / cm^3
# Si number density = 17.887006 Si / 1000 Ang^3
#
#
#
# Elastic Constant Matrix: (Units=GPa)
#
#
# Indices 1 2 3 4 5 6 
#
# 1 77.1448 23.3198 35.4800 0.0000 13.3067 0.0000
# 2 23.3198 70.6937 37.7125 0.0000 9.7587 0.0000
# 3 35.4800 37.7125 124.4159 0.0000 23.8921 0.0000
# 4 0.0000 0.0000 0.0000 23.2399 0.0000 6.2470
# 5 13.3067 9.7587 23.8921 0.0000 12.8472 0.0000
# 6 0.0000 0.0000 0.0000 6.2470 0.0000 18.8915
#
#
#
# Elastic Compliance Matrix: (Units=1/GPa)
#
#
# Indices 1 2 3 4 5 6 
#
# 1 0.016665 -0.003016 -0.001499 0.000000 -0.012183 0.000000
# 2 -0.003016 0.017641 -0.003910 0.000000 -0.003004 0.000000
# 3 -0.001499 -0.003910 0.013660 0.000000 -0.020881 0.000000
# 4 0.000000 0.000000 0.000000 0.047227 0.000000 -0.015617
# 5 -0.012183 -0.003004 -0.020881 0.000000 0.131572 0.000000
# 6 0.000000 0.000000 0.000000 -0.015617 0.000000 0.058098
#
#
# Mechanical properties :
#
#
# Convention : Reuss Voigt Hill
#
# Bulk Modulus (GPa) = 32.13752 51.69769 41.91761
# Shear Modulus (GPa) = 16.02123 22.71186 19.36655
#
# Velocity S-wave (km/s) = 2.99606 3.56721 3.29403
# Velocity P-wave (km/s) = 5.47489 6.77730 6.16061
#
# Compressibility (1/GPa) = 0.03111627
#
# Stress axis : x y z
#
# Youngs Moduli (GPa) = 60.00592 56.68561 73.20566
#
# Poissons Ratio (x) = 0.17097 0.10971
# Poissons Ratio (y) = 0.18098 0.28626
# Poissons Ratio (z) = 0.08993 0.22166
#
# Static dielectric constant tensor:
#      x y z
#    x 3.002740 0.000000 0.029630 
#    y 0.000000 3.115930 0.000000 
#    z 0.029630 0.000000 3.735230 
# 
# 
# High freq. dielectric constant tensor:
#      x y z
#    x 1.644100 0.000000 0.009700 
#    y 0.000000 1.668840 0.000000 
#    z 0.009700 0.000000 1.714620 
# 
# From -- ./inp_files/345623.got.cif
#   From: 2010.06.25/outbox.cif.g09.slc.cpg/sg12_173_cif.got.tgz:345623.got - 2010.06.28 00:19:55.
