data_PCOD8096773
_publ_section_title
;
Structure prediction by ZEFSAII (Michael W. Deem and Ramdas Pophale) SiO2 
 PCOD8096773
Probable space group: C 2/M
;
_chemical_formula_sum "Si O2"
_cell_formula_units_Z 48
_cell_length_a 24.857670
_cell_length_b 9.119644
_cell_length_c 19.467388
_cell_angle_alpha 90.000000
_cell_angle_beta 33.759614
_cell_angle_gamma 90.000000
_cell_volume 2452.415199
_symmetry_space_group_name_H-M "C 2/M"
_symmetry_group_IT_number 12
_symmetry_cell_setting 'monoclinic'
loop_
_space_group_symop_operation_xyz
x,y,z
-x,y,-z
-x,-y,-z
x,-y,z
1/2+x,1/2+y,z
1/2-x,1/2+y,-z
1/2-x,1/2-y,-z
1/2+x,1/2-y,z
loop_
_atom_site_type_symbol
_atom_site_label
_atom_site_fract_x
_atom_site_fract_y
_atom_site_fract_z
Si Si1 0.131246 0.325761 0.687787
Si Si2 0.398333 0.829620 0.576362
Si Si3 0.182360 0.669399 0.481775
Si Si4 0.077035 0.667073 0.080050
Si Si5 0.163015 0.331682 0.128111
Si Si6 0.720885 0.325084 0.191292
O O1 0.136442 0.500000 0.688505
O O2 0.137694 0.275910 0.601049
O O3 0.217916 0.255842 0.639484
O O4 0.028210 0.266884 0.828306
O O5 0.500000 0.774780 0.500000
O O6 0.394232 0.802684 0.498567
O O7 0.310627 0.733923 0.701140
O O8 0.382148 0.000000 0.611548
O O9 0.210484 0.500000 0.456113
O O10 0.080470 0.500000 0.052737
O O11 0.077176 0.676929 0.163533
O O12 0.171106 0.737748 0.942657
O O13 0.188470 0.500000 0.118227
O O14 0.142900 0.245185 0.220361
O O15 0.250000 0.250000 0.000000
O O16 0.715696 0.500000 0.192646
#
# Coordination Sequence:
#
# PCOD8096773 Si02
#       6
#     8   8   8   8   8   8
#     4   9  17  33  58  80 102 135 173 217 264 311
#     4  10  22  38  57  77 102 143 184 214 260 327
#     4   9  19  35  54  79 106 132 174 223 262 311
#     4   8  16  30  52  78 103 136 177 214 257 315
#     4   9  16  28  48  73 106 141 176 216 259 308
#     4  10  20  34  50  76 110 140 176 222 267 316
#
# _framework density 19.572544000000001
#
# number of rings (size 3 to 8) (size 9 to 14) (size 15 to 20)
#    0.000    2.833    0.000    2.000    2.333    1.000 
#    0.000    5.833    0.000    5.000    0.000    0.000 
#    0.000    0.000    0.000    0.000    0.000    0.000 
#
# Total GULP energy -297329.010847 kJ/mol
# GULP energy per Si atom -12388.708785 kJ/mol
# Density = 1.952800 g / cm^3
# Si number density = 19.572544 Si / 1000 Ang^3
#
#
#
# Elastic Constant Matrix: (Units=GPa)
#
#
# Indices 1 2 3 4 5 6 
#
# 1 84.8380 21.0615 34.5723 -0.0004 -11.1279 -0.0001
# 2 21.0615 54.2669 22.0664 -0.0002 -3.7035 0.0004
# 3 34.5723 22.0664 87.1553 -0.0001 -16.4730 0.0001
# 4 -0.0004 -0.0002 -0.0001 25.2104 -0.0001 2.8942
# 5 -11.1279 -3.7035 -16.4730 -0.0001 30.5465 0.0002
# 6 -0.0001 0.0004 0.0001 2.8942 0.0002 27.5705
#
#
#
# Elastic Compliance Matrix: (Units=1/GPa)
#
#
# Indices 1 2 3 4 5 6 
#
# 1 0.014880 -0.003787 -0.004461 0.000000 0.002556 0.000000
# 2 -0.003787 0.021509 -0.004133 0.000000 -0.001000 0.000000
# 3 -0.004461 -0.004133 0.015464 0.000000 0.006213 0.000000
# 4 0.000000 0.000000 0.000000 0.040150 0.000000 -0.004215
# 5 0.002556 -0.001000 0.006213 0.000000 0.036897 0.000000
# 6 0.000000 0.000000 0.000000 -0.004215 0.000000 0.036713
#
#
# Mechanical properties :
#
#
# Convention : Reuss Voigt Hill
#
# Bulk Modulus (GPa) = 36.91010 42.40674 39.65842
# Shear Modulus (GPa) = 25.07447 26.56949 25.82198
#
# Velocity S-wave (km/s) = 3.58313 3.68841 3.63615
# Velocity P-wave (km/s) = 6.00146 6.31289 6.15914
#
# Compressibility (1/GPa) = 0.02709285
#
# Stress axis : x y z
#
# Youngs Moduli (GPa) = 67.20267 46.49131 64.66656
#
# Poissons Ratio (x) = 0.17606 0.28846
# Poissons Ratio (y) = 0.25449 0.26725
# Poissons Ratio (z) = 0.29977 0.19214
#
# Static dielectric constant tensor:
#      x y z
#    x 3.816270 0.000000 -0.084580 
#    y 0.000000 3.401320 0.000000 
#    z -0.084580 0.000000 3.576660 
# 
# 
# High freq. dielectric constant tensor:
#      x y z
#    x 1.748480 0.000000 -0.005160 
#    y 0.000000 1.739810 0.000000 
#    z -0.005160 0.000000 1.756360 
# 
# From -- ./inp_files/327154.got.cif
#   From: 2010.06.25/outbox.cif.g09.slc.cpg/sg12_164_cif.got.tgz:327154.got - 2010.06.28 00:19:55.
