data_PCOD8096914
_publ_section_title
;
Structure prediction by ZEFSAII (Michael W. Deem and Ramdas Pophale) SiO2 
 PCOD8096914
Probable space group: C 2/M
;
_chemical_formula_sum "Si O2"
_cell_formula_units_Z 56
_cell_length_a 23.482875
_cell_length_b 9.201549
_cell_length_c 14.975239
_cell_angle_alpha 90.000000
_cell_angle_beta 119.029867
_cell_angle_gamma 90.000000
_cell_volume 2829.304332
_symmetry_space_group_name_H-M "C 2/M"
_symmetry_group_IT_number 12
_symmetry_cell_setting 'monoclinic'
loop_
_space_group_symop_operation_xyz
x,y,z
-x,y,-z
-x,-y,-z
x,-y,z
1/2+x,1/2+y,z
1/2-x,1/2+y,-z
1/2-x,1/2-y,-z
1/2+x,1/2-y,z
loop_
_atom_site_type_symbol
_atom_site_label
_atom_site_fract_x
_atom_site_fract_y
_atom_site_fract_z
Si Si1 0.190235 0.667722 0.500528
Si Si2 0.444408 0.167886 0.684094
Si Si3 0.249280 0.835199 0.274593
Si Si4 0.372491 0.164555 0.805739
Si Si5 0.067630 0.842797 0.003131
Si Si6 0.292685 0.825527 0.110724
Si Si7 0.570852 0.329481 0.801659
O O1 0.195848 0.500000 0.474565
O O2 0.250000 0.750000 0.500000
O O3 0.119439 0.727068 0.416456
O O4 0.191524 0.683455 0.609811
O O5 0.430848 0.185906 0.779842
O O6 0.507423 0.262976 0.703269
O O7 0.458687 0.000000 0.671072
O O8 0.191242 0.746467 0.276584
O O9 0.264403 0.782046 0.185935
O O10 0.226112 0.000000 0.252640
O O11 0.389285 0.221818 0.916917
O O12 0.352634 0.000000 0.802288
O O13 0.103617 0.000000 0.036261
O O14 0.056459 0.800249 0.893597
O O15 0.000000 0.854605 0.000000
O O16 0.364858 0.760859 0.171272
O O17 0.294279 0.000000 0.097048
O O18 0.250000 0.750000 0.000000
O O19 0.579000 0.500000 0.783849
#
# Coordination Sequence:
#
# PCOD8096914 Si02
#       7
#     8   8   8   8   8   8   8
#     4  10  20  37  60  88 121 156 196 242 293 352
#     4  10  21  36  55  85 121 152 187 237 296 352
#     4  10  22  39  61  85 115 157 200 238 290 356
#     4  11  21  32  53  86 119 149 187 238 293 345
#     4  10  20  34  51  76 111 149 188 230 284 354
#     4  11  24  43  64  88 118 157 202 247 294 349
#     4  11  23  39  60  84 114 157 201 243 295 351
#
# _framework density 19.792853000000001
#
# number of rings (size 3 to 8) (size 9 to 14) (size 15 to 20)
#    0.000    1.571    2.857    2.143    0.000    7.143 
#    0.000    0.714    0.000    4.286    0.000    0.000 
#    0.000    0.000    0.000    0.000    0.000    0.000 
#
# Total GULP energy -347043.377425 kJ/mol
# GULP energy per Si atom -12394.406337 kJ/mol
# Density = 1.974780 g / cm^3
# Si number density = 19.792853 Si / 1000 Ang^3
#
#
#
# Elastic Constant Matrix: (Units=GPa)
#
#
# Indices 1 2 3 4 5 6 
#
# 1 88.8453 51.4228 32.8186 0.0000 23.3265 0.0000
# 2 51.4228 92.8934 43.4909 0.0000 11.9645 0.0000
# 3 32.8186 43.4909 103.7821 0.0000 17.0427 0.0000
# 4 0.0000 0.0000 0.0000 30.8245 0.0000 11.9497
# 5 23.3265 11.9645 17.0427 0.0000 36.8212 0.0000
# 6 0.0000 0.0000 0.0000 11.9497 0.0000 34.8274
#
#
#
# Elastic Compliance Matrix: (Units=1/GPa)
#
#
# Indices 1 2 3 4 5 6 
#
# 1 0.019109 -0.009073 -0.000797 0.000000 -0.008788 0.000000
# 2 -0.009073 0.017824 -0.004971 0.000000 0.002257 0.000000
# 3 -0.000797 -0.004971 0.012579 0.000000 -0.003702 0.000000
# 4 0.000000 0.000000 0.000000 0.037419 0.000000 -0.012839
# 5 -0.008788 0.002257 -0.003702 0.000000 0.033706 0.000000
# 6 0.000000 0.000000 0.000000 -0.012839 0.000000 0.033118
#
#
# Mechanical properties :
#
#
# Convention : Reuss Voigt Hill
#
# Bulk Modulus (GPa) = 50.43041 60.10949 55.26995
# Shear Modulus (GPa) = 26.30940 31.01385 28.66162
#
# Velocity S-wave (km/s) = 3.64983 3.96273 3.80949
# Velocity P-wave (km/s) = 6.57997 7.16749 6.88000
#
# Compressibility (1/GPa) = 0.01982930
#
# Stress axis : x y z
#
# Youngs Moduli (GPa) = 52.33224 56.10422 79.49930
#
# Poissons Ratio (x) = 0.50901 0.06340
# Poissons Ratio (y) = 0.47479 0.39518
# Poissons Ratio (z) = 0.04173 0.27889
#
# Static dielectric constant tensor:
#      x y z
#    x 3.633110 0.000000 -0.083530 
#    y 0.000000 3.762750 0.000000 
#    z -0.083530 0.000000 4.129500 
# 
# 
# High freq. dielectric constant tensor:
#      x y z
#    x 1.757410 0.000000 0.012260 
#    y 0.000000 1.773910 0.000000 
#    z 0.012260 0.000000 1.776050 
# 
# From -- ./inp_files/238949.got.cif
#   From: 2010.06.25/outbox.cif.g09.slc.cpg/sg12_120_cif.got.tgz:238949.got - 2010.06.28 00:19:55.
