data_PCOD8096539
_publ_section_title
;
Structure prediction by ZEFSAII (Michael W. Deem and Ramdas Pophale) SiO2 
 PCOD8096539
Probable space group: C 2/M
;
_chemical_formula_sum "Si O2"
_cell_formula_units_Z 56
_cell_length_a 12.214700
_cell_length_b 20.937665
_cell_length_c 11.329507
_cell_angle_alpha 90.000000
_cell_angle_beta 93.912404
_cell_angle_gamma 90.000000
_cell_volume 2890.738275
_symmetry_space_group_name_H-M "C 2/M"
_symmetry_group_IT_number 12
_symmetry_cell_setting 'monoclinic'
loop_
_space_group_symop_operation_xyz
x,y,z
-x,y,-z
-x,-y,-z
x,-y,z
1/2+x,1/2+y,z
1/2-x,1/2+y,-z
1/2-x,1/2-y,-z
1/2+x,1/2-y,z
loop_
_atom_site_type_symbol
_atom_site_label
_atom_site_fract_x
_atom_site_fract_y
_atom_site_fract_z
Si Si1 0.570791 0.157271 0.745763
Si Si2 0.689147 0.335907 0.725254
Si Si3 0.836473 0.571349 0.449897
Si Si4 0.122882 0.572288 0.275557
Si Si5 0.965468 0.204847 0.751550
Si Si6 0.235917 0.779491 0.126884
Si Si7 0.882153 0.867630 0.528179
O O1 0.615633 0.127582 0.627221
O O2 0.479989 0.108755 0.791769
O O3 0.510728 0.224841 0.723216
O O4 0.672560 0.165416 0.845058
O O5 0.761887 0.397992 0.759619
O O6 0.571337 0.340575 0.783188
O O7 0.753385 0.273426 0.770701
O O8 0.667535 0.327592 0.584475
O O9 0.863630 0.500000 0.402555
O O10 0.889137 0.578485 0.583623
O O11 0.703810 0.576759 0.445436
O O12 0.121762 0.500000 0.231498
O O13 0.889700 0.197733 0.863129
O O14 0.894256 0.181633 0.635783
O O15 0.250000 0.750000 0.000000
O O16 0.000000 0.898264 0.500000
#
# Coordination Sequence:
#
# PCOD8096539 Si02
#       7
#     8   8   8   8   8   8   8
#     4  11  21  34  57  82 115 148 191 235 291 339
#     4   9  20  35  55  84 113 153 186 228 291 342
#     4  10  20  33  54  85 122 159 187 225 281 348
#     4  10  20  36  57  86 124 157 192 226 279 355
#     4  10  20  37  56  86 114 147 188 241 295 351
#     4  11  23  39  59  82 111 149 195 246 297 341
#     4   9  18  34  54  83 120 148 186 228 290 350
#
# _framework density 19.372212999999999
#
# number of rings (size 3 to 8) (size 9 to 14) (size 15 to 20)
#    0.000    2.000    2.857    0.857    0.000   10.000 
#    0.000    2.143    0.000    2.571    0.000    1.000 
#    0.000    0.000    0.000    0.000    0.000    0.000 
#
# Total GULP energy -347014.842698 kJ/mol
# GULP energy per Si atom -12393.387239 kJ/mol
# Density = 1.932812 g / cm^3
# Si number density = 19.372213 Si / 1000 Ang^3
#
#
#
# Elastic Constant Matrix: (Units=GPa)
#
#
# Indices 1 2 3 4 5 6 
#
# 1 147.4200 62.0269 46.7104 0.0000 -14.7621 0.0000
# 2 62.0269 100.7701 27.6768 0.0000 -0.8118 0.0000
# 3 46.7104 27.6768 52.9840 0.0000 -12.5161 0.0000
# 4 0.0000 0.0000 0.0000 13.8365 0.0000 0.4807
# 5 -14.7621 -0.8118 -12.5161 0.0000 21.5177 0.0000
# 6 0.0000 0.0000 0.0000 0.4807 0.0000 29.3862
#
#
#
# Elastic Compliance Matrix: (Units=1/GPa)
#
#
# Indices 1 2 3 4 5 6 
#
# 1 0.011402 -0.005229 -0.006398 0.000000 0.003903 0.000000
# 2 -0.005229 0.014226 -0.004106 0.000000 -0.005439 0.000000
# 3 -0.006398 -0.004106 0.029661 0.000000 0.012708 0.000000
# 4 0.000000 0.000000 0.000000 0.072314 0.000000 -0.001183
# 5 0.003903 -0.005439 0.012708 0.000000 0.056338 0.000000
# 6 0.000000 0.000000 0.000000 -0.001183 0.000000 0.034049
#
#
# Mechanical properties :
#
#
# Convention : Reuss Voigt Hill
#
# Bulk Modulus (GPa) = 41.97757 63.77805 52.87781
# Shear Modulus (GPa) = 19.42526 23.93207 21.67866
#
# Velocity S-wave (km/s) = 3.17004 3.51861 3.34886
# Velocity P-wave (km/s) = 5.92578 7.03572 6.50447
#
# Compressibility (1/GPa) = 0.02382225
#
# Stress axis : x y z
#
# Youngs Moduli (GPa) = 87.70625 70.29224 33.71445
#
# Poissons Ratio (x) = 0.36759 0.21570
# Poissons Ratio (y) = 0.45865 0.13843
# Poissons Ratio (z) = 0.56114 0.28861
#
# Static dielectric constant tensor:
#      x y z
#    x 4.145940 0.000000 0.017680 
#    y 0.000000 3.391610 0.000000 
#    z 0.017680 0.000000 3.120350 
# 
# 
# High freq. dielectric constant tensor:
#      x y z
#    x 1.789610 0.000000 -0.001610 
#    y 0.000000 1.728540 0.000000 
#    z -0.001610 0.000000 1.708140 
# 
# From -- ./inp_files/133232.got.cif
#   From: 2010.06.25/outbox.cif.g09.slc.cpg/sg12_67_cif.got.tgz:133232.got - 2010.06.28 00:19:55.
