data_PCOD8096364
_publ_section_title
;
Structure prediction by ZEFSAII (Michael W. Deem and Ramdas Pophale) SiO2 
 PCOD8096364
Probable space group: C 2/M
;
_chemical_formula_sum "Si O2"
_cell_formula_units_Z 56
_cell_length_a 31.007737
_cell_length_b 13.227614
_cell_length_c 9.156799
_cell_angle_alpha 90.000000
_cell_angle_beta 63.109149
_cell_angle_gamma 90.000000
_cell_volume 3349.628989
_symmetry_space_group_name_H-M "C 2/M"
_symmetry_group_IT_number 12
_symmetry_cell_setting 'monoclinic'
loop_
_space_group_symop_operation_xyz
x,y,z
-x,y,-z
-x,-y,-z
x,-y,z
1/2+x,1/2+y,z
1/2-x,1/2+y,-z
1/2-x,1/2-y,-z
1/2+x,1/2-y,z
loop_
_atom_site_type_symbol
_atom_site_label
_atom_site_fract_x
_atom_site_fract_y
_atom_site_fract_z
Si Si1 0.231009 0.709231 0.678553
Si Si2 0.356450 0.191734 0.641233
Si Si3 0.695260 0.612835 0.236942
Si Si4 0.251592 0.114429 0.854831
Si Si5 0.638111 0.119066 0.693368
Si Si6 0.452261 0.880014 0.656180
Si Si7 0.545775 0.880076 0.016791
O O1 0.250000 0.750000 0.500000
O O2 0.270572 0.630815 0.676659
O O3 0.224320 0.806748 0.792268
O O4 0.181812 0.648467 0.732312
O O5 0.349844 0.310330 0.688981
O O6 0.309330 0.132371 0.771713
O O7 0.360674 0.177748 0.461125
O O8 0.404368 0.154540 0.646553
O O9 0.673762 0.500000 0.271957
O O10 0.729955 0.632222 0.046874
O O11 0.241970 0.000000 0.814526
O O12 0.591680 0.154853 0.854157
O O13 0.638149 0.000000 0.660325
O O14 0.500000 0.838991 0.500000
O O15 0.452738 0.000000 0.656700
O O16 0.452334 0.836443 0.821184
O O17 0.542603 0.000000 0.031057
O O18 0.500000 0.835564 0.000000
#
# Coordination Sequence:
#
# PCOD8096364 Si02
#       7
#     8   8   8   8   8   8   8
#     4  11  20  33  50  76 104 139 176 213 253 310
#     4  11  20  34  52  75 102 137 177 209 256 312
#     4  10  22  37  52  72 106 142 179 221 257 302
#     4  10  21  35  52  74 105 141 175 215 257 304
#     4  11  21  32  49  74 107 139 170 209 254 305
#     4  10  20  33  53  78 105 135 168 211 259 313
#     4   9  19  33  49  73 103 134 164 202 253 307
#
# _framework density 16.718268999999999
#
# number of rings (size 3 to 8) (size 9 to 14) (size 15 to 20)
#    0.000    1.714    2.857    4.286    4.000    2.857 
#    0.000    0.000    0.000    0.429    0.000    0.000 
#    0.000    2.857    0.000    0.000    0.000    0.000 
#
# Total GULP energy -347159.651054 kJ/mol
# GULP energy per Si atom -12398.558966 kJ/mol
# Density = 1.668022 g / cm^3
# Si number density = 16.718269 Si / 1000 Ang^3
#
#
#
# Elastic Constant Matrix: (Units=GPa)
#
#
# Indices 1 2 3 4 5 6 
#
# 1 70.8180 -5.1009 29.5570 0.0000 -0.4113 0.0000
# 2 -5.1009 59.6014 31.0553 0.0000 -1.0011 0.0000
# 3 29.5570 31.0553 110.4676 0.0000 -2.6583 0.0000
# 4 0.0000 0.0000 0.0000 24.0442 0.0000 1.2351
# 5 -0.4113 -1.0011 -2.6583 0.0000 29.6788 0.0000
# 6 0.0000 0.0000 0.0000 1.2351 0.0000 22.4276
#
#
#
# Elastic Compliance Matrix: (Units=1/GPa)
#
#
# Indices 1 2 3 4 5 6 
#
# 1 0.016843 0.004439 -0.005758 0.000000 -0.000133 0.000000
# 2 0.004439 0.020828 -0.007040 0.000000 0.000133 0.000000
# 3 -0.005758 -0.007040 0.012592 0.000000 0.000811 0.000000
# 4 0.000000 0.000000 0.000000 0.041708 0.000000 -0.002297
# 5 -0.000133 0.000133 0.000811 0.000000 0.033769 0.000000
# 6 0.000000 0.000000 0.000000 -0.002297 0.000000 0.044714
#
#
# Mechanical properties :
#
#
# Convention : Reuss Voigt Hill
#
# Bulk Modulus (GPa) = 29.80977 39.10107 34.45542
# Shear Modulus (GPa) = 25.20753 27.58850 26.39802
#
# Velocity S-wave (km/s) = 3.88723 4.06667 3.97796
# Velocity P-wave (km/s) = 6.16578 6.74459 6.46167
#
# Compressibility (1/GPa) = 0.03354604
#
# Stress axis : x y z
#
# Youngs Moduli (GPa) = 59.37275 48.01116 79.41805
#
# Poissons Ratio (x) = -0.21313 0.45726
# Poissons Ratio (y) = -0.26357 0.55910
# Poissons Ratio (z) = 0.34185 0.33800
#
# Static dielectric constant tensor:
#      x y z
#    x 2.975990 0.000000 -0.015220 
#    y 0.000000 3.051490 0.000000 
#    z -0.015220 0.000000 3.329060 
# 
# 
# High freq. dielectric constant tensor:
#      x y z
#    x 1.639900 0.000000 0.009490 
#    y 0.000000 1.617770 0.000000 
#    z 0.009490 0.000000 1.661970 
# 
# From -- ./inp_files/111089.got.cif
#   From: 2010.06.25/outbox.cif.g09.slc.cpg/sg12_56_cif.got.tgz:111089.got - 2010.06.28 00:19:55.
