data_PCOD8096441
_publ_section_title
;
Structure prediction by ZEFSAII (Michael W. Deem and Ramdas Pophale) SiO2 
 PCOD8096441
Probable space group: C 2/M
;
_chemical_formula_sum "Si O2"
_cell_formula_units_Z 56
_cell_length_a 29.276937
_cell_length_b 9.351413
_cell_length_c 20.729812
_cell_angle_alpha 90.000000
_cell_angle_beta 28.016793
_cell_angle_gamma 90.000000
_cell_volume 2665.918332
_symmetry_space_group_name_H-M "C 2/M"
_symmetry_group_IT_number 12
_symmetry_cell_setting 'monoclinic'
loop_
_space_group_symop_operation_xyz
x,y,z
-x,y,-z
-x,-y,-z
x,-y,z
1/2+x,1/2+y,z
1/2-x,1/2+y,-z
1/2-x,1/2-y,-z
1/2+x,1/2-y,z
loop_
_atom_site_type_symbol
_atom_site_label
_atom_site_fract_x
_atom_site_fract_y
_atom_site_fract_z
Si Si1 0.052813 0.842402 0.753261
Si Si2 0.014572 0.342911 0.687226
Si Si3 0.437961 0.168479 0.514373
Si Si4 0.164693 0.843102 0.941695
Si Si5 0.762334 0.336907 0.252739
Si Si6 0.921373 0.337526 0.151404
Si Si7 0.293788 0.841488 0.000821
O O1 0.078629 0.761279 0.653661
O O2 0.083977 0.757249 0.777899
O O3 0.102731 0.000000 0.690490
O O4 0.937982 0.864838 0.897059
O O5 0.064008 0.500000 0.627732
O O6 0.007663 0.292701 0.620872
O O7 0.908350 0.354534 0.849323
O O8 0.500000 0.219505 0.500000
O O9 0.337016 0.252478 0.634573
O O10 0.417317 0.000000 0.546305
O O11 0.154465 0.748448 0.890465
O O12 0.212036 0.000000 0.870333
O O13 0.234295 0.747647 0.900441
O O14 0.749257 0.500000 0.245279
O O15 0.809633 0.333409 0.264824
O O16 0.950520 0.500000 0.133917
O O17 0.000000 0.282078 0.000000
O O18 0.246971 0.000000 0.062167
O O19 0.250000 0.750000 0.000000
#
# Coordination Sequence:
#
# PCOD8096441 Si02
#       7
#     8   8   8   8   8   8   8
#     4  10  20  34  58  90 120 152 193 243 293 343
#     4   9  20  39  59  80 114 158 198 237 294 362
#     4  10  23  43  65  86 114 159 205 249 299 353
#     4  10  20  34  53  81 118 155 189 237 294 351
#     4  11  23  38  59  89 120 155 200 247 295 351
#     4  10  20  36  59  87 125 163 193 233 297 369
#     4  10  20  33  53  82 113 148 192 240 297 360
#
# _framework density 21.005894000000001
#
# number of rings (size 3 to 8) (size 9 to 14) (size 15 to 20)
#    0.000    2.000    1.429    1.714    2.000    4.000 
#    0.000    0.714    0.000    0.000    0.000    0.000 
#    0.000    0.000    0.000    0.000    0.000    0.000 
#
# Total GULP energy -346887.482953 kJ/mol
# GULP energy per Si atom -12388.838677 kJ/mol
# Density = 2.095808 g / cm^3
# Si number density = 21.005894 Si / 1000 Ang^3
#
#
#
# Elastic Constant Matrix: (Units=GPa)
#
#
# Indices 1 2 3 4 5 6 
#
# 1 151.9557 87.0928 23.4035 0.0009 18.5440 -0.0002
# 2 87.0928 161.2470 18.0294 0.0145 10.9061 -0.0057
# 3 23.4035 18.0294 33.4932 0.0036 7.2909 -0.0018
# 4 0.0009 0.0145 0.0036 22.9237 -0.0013 1.1685
# 5 18.5440 10.9061 7.2909 -0.0013 34.9124 -0.0001
# 6 -0.0002 -0.0057 -0.0018 1.1685 -0.0001 36.9352
#
#
#
# Elastic Compliance Matrix: (Units=1/GPa)
#
#
# Indices 1 2 3 4 5 6 
#
# 1 0.010423 -0.004978 -0.003915 0.000003 -0.003164 -0.000001
# 2 -0.004978 0.009041 -0.001413 -0.000005 0.000115 0.000001
# 3 -0.003915 -0.001413 0.034367 -0.000005 -0.004656 0.000002
# 4 0.000003 -0.000005 -0.000005 0.043693 0.000003 -0.001382
# 5 -0.003164 0.000115 -0.004656 0.000003 0.031260 0.000000
# 6 -0.000001 0.000001 0.000002 -0.001382 0.000000 0.027118
#
#
# Mechanical properties :
#
#
# Convention : Reuss Voigt Hill
#
# Bulk Modulus (GPa) = 30.10400 67.08302 48.59351
# Shear Modulus (GPa) = 26.65438 33.49894 30.07666
#
# Velocity S-wave (km/s) = 3.56603 3.99775 3.78804
# Velocity P-wave (km/s) = 5.59622 7.30164 6.50506
#
# Compressibility (1/GPa) = 0.03321818
#
# Stress axis : x y z
#
# Youngs Moduli (GPa) = 95.94176 110.61211 29.09806
#
# Poissons Ratio (x) = 0.55062 0.11391
# Poissons Ratio (y) = 0.47760 0.04112
# Poissons Ratio (z) = 0.37559 0.15632
#
# Static dielectric constant tensor:
#      x y z
#    x 3.704160 0.000000 0.139410 
#    y 0.000000 4.270460 0.000010 
#    z 0.139410 0.000010 3.315970 
# 
# 
# High freq. dielectric constant tensor:
#      x y z
#    x 1.829370 0.000000 0.014380 
#    y 0.000000 1.835220 0.000000 
#    z 0.014380 0.000000 1.782420 
# 
# From -- ./inp_files/329533.got.cif
#   From: 2010.06.25/outbox.cif.g09.slc.cpg/sg12_165_cif.got.tgz:329533.got - 2010.06.28 00:19:55.
