data_PCOD8096907
_publ_section_title
;
Structure prediction by ZEFSAII (Michael W. Deem and Ramdas Pophale) SiO2 
 PCOD8096907
Probable space group: C 2/M
;
_chemical_formula_sum "Si O2"
_cell_formula_units_Z 64
_cell_length_a 33.222825
_cell_length_b 9.077970
_cell_length_c 25.495248
_cell_angle_alpha 90.000000
_cell_angle_beta 154.234924
_cell_angle_gamma 90.000000
_cell_volume 3342.384729
_symmetry_space_group_name_H-M "C 2/M"
_symmetry_group_IT_number 12
_symmetry_cell_setting 'monoclinic'
loop_
_space_group_symop_operation_xyz
x,y,z
-x,y,-z
-x,-y,-z
x,-y,z
1/2+x,1/2+y,z
1/2-x,1/2+y,-z
1/2-x,1/2-y,-z
1/2+x,1/2-y,z
loop_
_atom_site_type_symbol
_atom_site_label
_atom_site_fract_x
_atom_site_fract_y
_atom_site_fract_z
Si Si1 0.653452 0.324809 0.401001
Si Si2 0.819314 0.825348 0.753015
Si Si3 0.539060 0.674330 0.166438
Si Si4 0.158791 0.174916 0.103410
Si Si5 0.827135 0.332904 0.060303
Si Si6 0.567739 0.168725 0.719067
Si Si7 0.271786 0.672796 0.154155
Si Si8 0.628459 0.827496 0.479632
O O1 0.667089 0.500000 0.417835
O O2 0.750000 0.250000 0.500000
O O3 0.576555 0.277900 0.267512
O O4 0.617632 0.267576 0.414474
O O5 0.893930 0.759013 0.799922
O O6 0.841524 0.767499 0.837217
O O7 0.717735 0.772718 0.616188
O O8 0.824347 0.000000 0.758347
O O9 0.539427 0.500000 0.161562
O O10 0.435256 0.732823 0.034657
O O11 0.248844 0.245402 0.181318
O O12 0.168418 0.000000 0.111728
O O13 0.796315 0.500000 0.026253
O O14 0.920214 0.304611 0.203055
O O15 0.750000 0.250000 0.000000
O O16 0.817843 0.286345 0.988355
O O17 0.631388 0.271220 0.757330
O O18 0.458902 0.201655 0.583988
O O19 0.592605 0.000000 0.734067
O O20 0.282481 0.500000 0.177219
O O21 0.635087 0.000000 0.472074
#
# Coordination Sequence:
#
# PCOD8096907 Si02
#       8
#     8   8   8   8   8   8   8   8
#     4  11  21  35  55  82 115 146 178 219 269 325
#     4   9  17  34  57  80 106 138 181 228 269 314
#     4   9  18  33  55  83 109 137 178 225 268 316
#     4  10  20  34  57  81 103 140 186 228 268 314
#     4   8  15  28  45  67  95 130 165 203 254 307
#     4   9  18  33  54  77 104 141 182 218 264 324
#     4  10  20  34  51  75 110 142 176 225 274 318
#     4  10  20  35  57  83 112 143 179 224 271 322
#
# _framework density 19.148005999999999
#
# number of rings (size 3 to 8) (size 9 to 14) (size 15 to 20)
#    0.000    2.500    1.250    1.125    1.750    2.500 
#    0.000    1.875    0.000    4.500    0.000    0.000 
#    0.000    0.000    0.000    0.000    0.000    0.000 
#
# Total GULP energy -396483.828877 kJ/mol
# GULP energy per Si atom -12390.119652 kJ/mol
# Density = 1.910442 g / cm^3
# Si number density = 19.148006 Si / 1000 Ang^3
#
#
#
# Elastic Constant Matrix: (Units=GPa)
#
#
# Indices 1 2 3 4 5 6 
#
# 1 108.0179 34.9913 60.0346 0.0000 -0.4826 0.0000
# 2 34.9913 44.6757 28.7851 0.0000 -1.4859 0.0000
# 3 60.0346 28.7851 107.1161 0.0000 -1.8929 0.0000
# 4 0.0000 0.0000 0.0000 17.6580 0.0000 -0.5929
# 5 -0.4826 -1.4859 -1.8929 0.0000 30.9005 0.0000
# 6 0.0000 0.0000 0.0000 -0.5929 0.0000 26.4635
#
#
#
# Elastic Compliance Matrix: (Units=1/GPa)
#
#
# Indices 1 2 3 4 5 6 
#
# 1 0.015455 -0.007904 -0.006547 0.000000 -0.000540 0.000000
# 2 -0.007904 0.031136 -0.003917 0.000000 0.001134 0.000000
# 3 -0.006547 -0.003917 0.014068 0.000000 0.000571 0.000000
# 4 0.000000 0.000000 0.000000 0.056674 0.000000 0.001270
# 5 -0.000540 0.001134 0.000571 0.000000 0.032443 0.000000
# 6 0.000000 0.000000 0.000000 0.001270 0.000000 0.037816
#
#
# Mechanical properties :
#
#
# Convention : Reuss Voigt Hill
#
# Bulk Modulus (GPa) = 41.80335 56.38130 49.09232
# Shear Modulus (GPa) = 21.52370 24.07100 22.79735
#
# Velocity S-wave (km/s) = 3.35635 3.54941 3.45423
# Velocity P-wave (km/s) = 6.07447 6.80490 6.45003
#
# Compressibility (1/GPa) = 0.02392153
#
# Stress axis : x y z
#
# Youngs Moduli (GPa) = 64.70582 32.11746 71.08390
#
# Poissons Ratio (x) = 0.25385 0.46540
# Poissons Ratio (y) = 0.51143 0.27845
# Poissons Ratio (z) = 0.42364 0.12581
#
# Static dielectric constant tensor:
#      x y z
#    x 3.436260 0.000000 -0.010130 
#    y 0.000000 3.285750 0.000000 
#    z -0.010130 0.000000 3.174840 
# 
# 
# High freq. dielectric constant tensor:
#      x y z
#    x 1.741650 0.000000 0.001150 
#    y 0.000000 1.714340 0.000000 
#    z 0.001150 0.000000 1.744810 
# 
# From -- ./inp_files/353474.got.cif
#   From: 2010.06.25/outbox.cif.g09.slc.cpg/sg12_177_cif.got.tgz:353474.got - 2010.06.28 00:19:55.
