data_PCOD8096272
_publ_section_title
;
Structure prediction by ZEFSAII (Michael W. Deem and Ramdas Pophale) SiO2 
 PCOD8096272
Probable space group: C 2/M
;
_chemical_formula_sum "Si O2"
_cell_formula_units_Z 56
_cell_length_a 32.879350
_cell_length_b 9.088065
_cell_length_c 11.182557
_cell_angle_alpha 90.000000
_cell_angle_beta 119.841089
_cell_angle_gamma 90.000000
_cell_volume 2898.408588
_symmetry_space_group_name_H-M "C 2/M"
_symmetry_group_IT_number 12
_symmetry_cell_setting 'monoclinic'
loop_
_space_group_symop_operation_xyz
x,y,z
-x,y,-z
-x,-y,-z
x,-y,z
1/2+x,1/2+y,z
1/2-x,1/2+y,-z
1/2-x,1/2-y,-z
1/2+x,1/2-y,z
loop_
_atom_site_type_symbol
_atom_site_label
_atom_site_fract_x
_atom_site_fract_y
_atom_site_fract_z
Si Si1 0.370336 0.830092 0.168691
Si Si2 0.045320 0.170366 0.812540
Si Si3 0.262137 0.174509 0.392965
Si Si4 0.597890 0.329412 0.130609
Si Si5 0.559364 0.673910 0.328577
Si Si6 0.682324 0.173938 0.143171
Si Si7 0.140293 0.669827 0.578735
O O1 0.419953 0.748955 0.228691
O O2 0.348177 0.796311 0.265517
O O3 0.381507 0.000000 0.165888
O O4 0.333197 0.779083 0.013404
O O5 0.992828 0.233629 0.720089
O O6 0.046790 0.000000 0.782139
O O7 0.060691 0.198177 0.971358
O O8 0.250000 0.250000 0.500000
O O9 0.230206 0.241196 0.241264
O O10 0.315369 0.214696 0.436755
O O11 0.254414 0.000000 0.390664
O O12 0.613676 0.500000 0.158278
O O13 0.573675 0.276752 0.216693
O O14 0.643343 0.227768 0.180226
O O15 0.560166 0.500000 0.339806
O O16 0.595047 0.737974 0.476733
O O17 0.689837 0.000000 0.168734
O O18 0.127895 0.500000 0.542621
#
# Coordination Sequence:
#
# PCOD8096272 Si02
#       7
#     8   8   8   8   8   8   8
#     4   9  20  39  57  76 105 141 180 218 260 312
#     4   9  18  33  54  80 108 139 177 221 266 313
#     4  11  23  39  59  83 110 139 173 214 263 318
#     4   9  17  32  54  79 109 143 177 215 264 320
#     4  10  20  33  52  79 109 141 178 221 267 312
#     4  10  20  35  57  82 108 138 174 220 267 311
#     4  10  23  40  55  74 105 143 180 218 260 313
#
# _framework density 19.320948999999999
#
# number of rings (size 3 to 8) (size 9 to 14) (size 15 to 20)
#    0.000    2.286    0.000    2.143    0.000    8.571 
#    0.000    2.857    0.000    4.286    0.000    0.000 
#    0.000    0.000    0.000    0.000    0.000    0.000 
#
# Total GULP energy -347266.353071 kJ/mol
# GULP energy per Si atom -12402.369753 kJ/mol
# Density = 1.927697 g / cm^3
# Si number density = 19.320949 Si / 1000 Ang^3
#
#
#
# Elastic Constant Matrix: (Units=GPa)
#
#
# Indices 1 2 3 4 5 6 
#
# 1 80.9228 29.3050 46.5590 0.0000 -1.8809 0.0000
# 2 29.3050 49.5362 30.9552 0.0000 2.7651 0.0000
# 3 46.5590 30.9552 91.3153 0.0000 7.0414 0.0000
# 4 0.0000 0.0000 0.0000 33.3351 0.0000 2.6744
# 5 -1.8809 2.7651 7.0414 0.0000 35.8721 0.0000
# 6 0.0000 0.0000 0.0000 2.6744 0.0000 29.5413
#
#
#
# Elastic Compliance Matrix: (Units=1/GPa)
#
#
# Indices 1 2 3 4 5 6 
#
# 1 0.019375 -0.006740 -0.007831 0.000000 0.003073 0.000000
# 2 -0.006740 0.027960 -0.005938 0.000000 -0.001343 0.000000
# 3 -0.007831 -0.005938 0.017214 0.000000 -0.003332 0.000000
# 4 0.000000 0.000000 0.000000 0.030218 0.000000 -0.002736
# 5 0.003073 -0.001343 -0.003332 0.000000 0.028795 0.000000
# 6 0.000000 0.000000 0.000000 -0.002736 0.000000 0.034099
#
#
# Mechanical properties :
#
#
# Convention : Reuss Voigt Hill
#
# Bulk Modulus (GPa) = 42.49740 48.37918 45.43829
# Shear Modulus (GPa) = 24.21034 27.41339 25.81186
#
# Velocity S-wave (km/s) = 3.54370 3.77084 3.65903
# Velocity P-wave (km/s) = 6.22792 6.63725 6.43584
#
# Compressibility (1/GPa) = 0.02353085
#
# Stress axis : x y z
#
# Youngs Moduli (GPa) = 51.61223 35.76492 58.09305
#
# Poissons Ratio (x) = 0.24106 0.45492
# Poissons Ratio (y) = 0.34787 0.34497
# Poissons Ratio (z) = 0.40417 0.21238
#
# Static dielectric constant tensor:
#      x y z
#    x 3.590680 0.000000 0.065810 
#    y 0.000000 3.455500 0.000000 
#    z 0.065810 0.000000 3.621520 
# 
# 
# High freq. dielectric constant tensor:
#      x y z
#    x 1.751540 0.000000 0.001530 
#    y 0.000000 1.745490 0.000000 
#    z 0.001530 0.000000 1.757410 
# 
# From -- ./inp_files/180715.got.cif
#   From: 2010.06.25/outbox.cif.g09.slc.cpg/sg12_91_cif.got.tgz:180715.got - 2010.06.28 00:19:55.
