data_PCOD8096756
_publ_section_title
;
Structure prediction by ZEFSAII (Michael W. Deem and Ramdas Pophale) SiO2 
 PCOD8096756
Probable space group: C 2/M
;
_chemical_formula_sum "Si O2"
_cell_formula_units_Z 56
_cell_length_a 17.910525
_cell_length_b 12.290128
_cell_length_c 24.553140
_cell_angle_alpha 90.000000
_cell_angle_beta 143.050045
_cell_angle_gamma 90.000000
_cell_volume 3248.859540
_symmetry_space_group_name_H-M "C 2/M"
_symmetry_group_IT_number 12
_symmetry_cell_setting 'monoclinic'
loop_
_space_group_symop_operation_xyz
x,y,z
-x,y,-z
-x,-y,-z
x,-y,z
1/2+x,1/2+y,z
1/2-x,1/2+y,-z
1/2-x,1/2-y,-z
1/2+x,1/2-y,z
loop_
_atom_site_type_symbol
_atom_site_label
_atom_site_fract_x
_atom_site_fract_y
_atom_site_fract_z
Si Si1 0.761599 0.625182 0.070693
Si Si2 0.850916 0.247904 0.222588
Si Si3 0.899487 0.373527 0.894411
Si Si4 0.555806 0.129018 0.617792
Si Si5 0.056168 0.740130 0.898844
Si Si6 0.538972 0.370923 0.258542
Si Si7 0.183852 0.628279 0.583023
O O1 0.725499 0.500000 0.050186
O O2 0.821751 0.656604 0.163143
O O3 0.858218 0.647296 0.078195
O O4 0.636220 0.693163 0.989293
O O5 0.730100 0.177168 0.163536
O O6 0.903524 0.304062 0.306504
O O7 0.954731 0.167477 0.259283
O O8 0.879024 0.500000 0.870741
O O9 0.943292 0.316958 0.864167
O O10 0.000000 0.354621 0.000000
O O11 0.642826 0.168826 0.618865
O O12 0.414229 0.163658 0.520549
O O13 0.567370 0.000000 0.635505
O O14 0.006614 0.823046 0.825031
O O15 0.532042 0.500000 0.249682
O O16 0.679054 0.328496 0.351529
O O17 0.182718 0.500000 0.585421
#
# Coordination Sequence:
#
# PCOD8096756 Si02
#       7
#     8   8   8   8   8   8   8
#     4  10  20  34  50  73 102 131 170 216 256 300
#     4  11  21  33  51  78 105 137 173 207 262 306
#     4  11  22  37  53  72 102 136 173 214 251 302
#     4   9  17  32  55  79 106 135 169 214 255 305
#     4  10  20  35  53  73  96 138 178 205 254 305
#     4  10  20  34  53  77 106 136 173 217 254 301
#     4   8  16  32  53  77 102 135 173 209 257 304
#
# _framework density 17.236818
#
# number of rings (size 3 to 8) (size 9 to 14) (size 15 to 20)
#    0.000    2.143    1.429    3.429    0.000    0.571 
#    0.000    2.857    0.000    0.000    0.000   20.000 
#    0.000    0.000    0.000    0.000    0.000    0.000 
#
# Total GULP energy -347203.916060 kJ/mol
# GULP energy per Si atom -12400.139859 kJ/mol
# Density = 1.719759 g / cm^3
# Si number density = 17.236818 Si / 1000 Ang^3
#
#
#
# Elastic Constant Matrix: (Units=GPa)
#
#
# Indices 1 2 3 4 5 6 
#
# 1 114.0260 44.7394 49.0343 0.0000 12.5388 0.0000
# 2 44.7394 76.5868 35.4574 0.0000 -6.4760 0.0000
# 3 49.0343 35.4574 105.6760 -0.0001 -1.9818 0.0000
# 4 0.0000 0.0000 -0.0001 23.6224 0.0000 0.9617
# 5 12.5388 -6.4760 -1.9818 0.0000 30.2731 0.0000
# 6 0.0000 0.0000 0.0000 0.9617 0.0000 22.5387
#
#
#
# Elastic Compliance Matrix: (Units=1/GPa)
#
#
# Indices 1 2 3 4 5 6 
#
# 1 0.014227 -0.006909 -0.004427 0.000000 -0.007660 0.000000
# 2 -0.006909 0.019085 -0.003071 0.000000 0.006743 0.000000
# 3 -0.004427 -0.003071 0.012585 0.000000 0.002000 0.000000
# 4 0.000000 0.000000 0.000000 0.042406 0.000000 -0.001809
# 5 -0.007660 0.006743 0.002000 0.000000 0.037779 0.000000
# 6 0.000000 0.000000 0.000000 -0.001809 0.000000 0.044445
#
#
# Mechanical properties :
#
#
# Convention : Reuss Voigt Hill
#
# Bulk Modulus (GPa) = 58.53904 61.63901 60.08902
# Shear Modulus (GPa) = 24.38593 26.42402 25.40498
#
# Velocity S-wave (km/s) = 3.76541 3.91960 3.84328
# Velocity P-wave (km/s) = 7.27597 7.50480 7.39127
#
# Compressibility (1/GPa) = 0.01708262
#
# Stress axis : x y z
#
# Youngs Moduli (GPa) = 70.28995 52.39643 79.45976
#
# Poissons Ratio (x) = 0.36201 0.35175
# Poissons Ratio (y) = 0.48564 0.24405
# Poissons Ratio (z) = 0.31116 0.16093
#
# Static dielectric constant tensor:
#      x y z
#    x 3.426070 0.000000 0.268560 
#    y 0.000000 3.004510 0.000000 
#    z 0.268560 0.000000 3.473670 
# 
# 
# High freq. dielectric constant tensor:
#      x y z
#    x 1.672200 0.000000 0.004980 
#    y 0.000000 1.650920 0.000000 
#    z 0.004980 0.000000 1.670630 
# 
# From -- ./inp_files/343010.got.cif
#   From: 2010.06.25/outbox.cif.g09.slc.cpg/sg12_172_cif.got.tgz:343010.got - 2010.06.28 00:19:55.
