data_PCOD8096066
_publ_section_title
;
Structure prediction by ZEFSAII (Michael W. Deem and Ramdas Pophale) SiO2 
 PCOD8096066
Probable space group: C 2/M
;
_chemical_formula_sum "Si O2"
_cell_formula_units_Z 64
_cell_length_a 26.396527
_cell_length_b 8.934152
_cell_length_c 14.141880
_cell_angle_alpha 90.000000
_cell_angle_beta 75.237876
_cell_angle_gamma 90.000000
_cell_volume 3225.003389
_symmetry_space_group_name_H-M "C 2/M"
_symmetry_group_IT_number 12
_symmetry_cell_setting 'monoclinic'
loop_
_space_group_symop_operation_xyz
x,y,z
-x,y,-z
-x,-y,-z
x,-y,z
1/2+x,1/2+y,z
1/2-x,1/2+y,-z
1/2-x,1/2-y,-z
1/2+x,1/2-y,z
loop_
_atom_site_type_symbol
_atom_site_label
_atom_site_fract_x
_atom_site_fract_y
_atom_site_fract_z
Si Si1 0.891942 0.177388 0.122015
Si Si2 0.579111 0.322235 0.095824
Si Si3 0.725946 0.322215 0.802337
Si Si4 0.972098 0.179020 0.244728
Si Si5 0.172438 0.828829 0.177877
Si Si6 0.047659 0.666143 0.545994
Si Si7 0.232921 0.327926 0.415010
Si Si8 0.635712 0.330508 0.403556
O O1 0.832111 0.239038 0.146450
O O2 0.924469 0.231013 0.198331
O O3 0.889107 0.000000 0.125755
O O4 0.921518 0.231764 0.012945
O O5 0.580022 0.500000 0.102156
O O6 0.526625 0.264962 0.172231
O O7 0.632900 0.261086 0.118114
O O8 0.729673 0.500000 0.809027
O O9 0.771794 0.257006 0.847916
O O10 0.736351 0.265367 0.690755
O O11 0.966470 0.262895 0.346291
O O12 0.971506 0.000000 0.260043
O O13 0.138803 0.813865 0.289610
O O14 0.186590 0.000000 0.148869
O O15 0.073142 0.500000 0.550114
O O16 0.080185 0.787962 0.471842
O O17 0.000000 0.640299 0.500000
O O18 0.244218 0.500000 0.421459
O O19 0.250000 0.250000 0.500000
O O20 0.172309 0.292890 0.433359
O O21 0.650422 0.500000 0.426638
#
# Coordination Sequence:
#
# PCOD8096066 Si02
#       8
#     8   8   8   8   8   8   8   8
#     4   9  18  33  55  83 113 143 178 228 278 326
#     4   9  17  32  56  84 110 139 182 231 279 326
#     4   9  19  34  51  76 111 146 183 225 273 327
#     4  10  20  35  59  85 109 142 185 230 275 329
#     4   9  18  33  54  80 110 143 182 230 274 321
#     4  11  24  39  55  80 114 148 181 224 281 339
#     4  10  20  33  51  76 109 148 187 226 274 329
#     4  10  20  35  55  79 108 142 185 230 274 326
#
# _framework density 19.844942
#
# number of rings (size 3 to 8) (size 9 to 14) (size 15 to 20)
#    0.000    2.375    0.000    2.250    1.750    5.000 
#    0.000    1.250    0.000    3.000    0.000    0.000 
#    0.000    0.000    0.000    0.000    0.000    0.000 
#
# Total GULP energy -396563.798555 kJ/mol
# GULP energy per Si atom -12392.618705 kJ/mol
# Density = 1.979977 g / cm^3
# Si number density = 19.844942 Si / 1000 Ang^3
#
#
#
# Elastic Constant Matrix: (Units=GPa)
#
#
# Indices 1 2 3 4 5 6 
#
# 1 120.4361 19.6696 51.4212 0.0000 1.5495 0.0000
# 2 19.6696 36.6239 29.2252 0.0000 1.9367 0.0000
# 3 51.4212 29.2252 89.6322 0.0000 7.7754 0.0000
# 4 0.0000 0.0000 0.0000 16.5356 0.0000 -0.2819
# 5 1.5495 1.9367 7.7754 0.0000 37.0194 0.0000
# 6 0.0000 0.0000 0.0000 -0.2819 0.0000 28.5129
#
#
#
# Elastic Compliance Matrix: (Units=1/GPa)
#
#
# Indices 1 2 3 4 5 6 
#
# 1 0.011062 -0.001166 -0.006041 0.000000 0.000867 0.000000
# 2 -0.001166 0.037044 -0.011454 0.000000 0.000517 0.000000
# 3 -0.006041 -0.011454 0.018622 0.000000 -0.003059 0.000000
# 4 0.000000 0.000000 0.000000 0.060486 0.000000 0.000598
# 5 0.000867 0.000517 -0.003059 0.000000 0.027592 0.000000
# 6 0.000000 0.000000 0.000000 0.000598 0.000000 0.035078
#
#
# Mechanical properties :
#
#
# Convention : Reuss Voigt Hill
#
# Bulk Modulus (GPa) = 34.00747 49.70270 41.85508
# Shear Modulus (GPa) = 21.09634 26.17200 23.63417
#
# Velocity S-wave (km/s) = 3.26400 3.63550 3.45475
# Velocity P-wave (km/s) = 5.60167 6.53624 6.08692
#
# Compressibility (1/GPa) = 0.02940531
#
# Stress axis : x y z
#
# Youngs Moduli (GPa) = 90.40209 26.99508 53.69866
#
# Poissons Ratio (x) = 0.03148 0.32439
# Poissons Ratio (y) = 0.10543 0.61507
# Poissons Ratio (z) = 0.54611 0.30921
#
# Static dielectric constant tensor:
#      x y z
#    x 3.632620 0.000000 0.007400 
#    y 0.000000 3.365170 0.000000 
#    z 0.007400 0.000000 3.732430 
# 
# 
# High freq. dielectric constant tensor:
#      x y z
#    x 1.781150 0.000000 0.001760 
#    y 0.000000 1.741230 0.000000 
#    z 0.001760 0.000000 1.780170 
# 
# From -- ./inp_files/243772.got.cif
#   From: 2010.06.25/outbox.cif.g09.slc.cpg/sg12_122_cif.got.tgz:243772.got - 2010.06.28 00:19:55.
