data_PCOD8096622
_publ_section_title
;
Structure prediction by ZEFSAII (Michael W. Deem and Ramdas Pophale) SiO2 
 PCOD8096622
Probable space group: C 2/M
;
_chemical_formula_sum "Si O2"
_cell_formula_units_Z 48
_cell_length_a 20.063919
_cell_length_b 8.926442
_cell_length_c 26.905605
_cell_angle_alpha 90.000000
_cell_angle_beta 32.883887
_cell_angle_gamma 90.000000
_cell_volume 2616.299145
_symmetry_space_group_name_H-M "C 2/M"
_symmetry_group_IT_number 12
_symmetry_cell_setting 'monoclinic'
loop_
_space_group_symop_operation_xyz
x,y,z
-x,y,-z
-x,-y,-z
x,-y,z
1/2+x,1/2+y,z
1/2-x,1/2+y,-z
1/2-x,1/2-y,-z
1/2+x,1/2-y,z
loop_
_atom_site_type_symbol
_atom_site_label
_atom_site_fract_x
_atom_site_fract_y
_atom_site_fract_z
Si Si1 0.747678 0.325104 0.554470
Si Si2 0.618157 0.322946 0.075756
Si Si3 0.537267 0.675334 0.922156
Si Si4 0.008693 0.326670 0.439046
Si Si5 0.249661 0.174462 0.265605
Si Si6 0.900830 0.676653 0.267626
O O1 0.716220 0.500000 0.570385
O O2 0.750000 0.250000 0.500000
O O3 0.880810 0.296190 0.493249
O O4 0.644391 0.245748 0.652390
O O5 0.626445 0.500000 0.078820
O O6 0.567789 0.283250 0.052201
O O7 0.529279 0.253001 0.172956
O O8 0.750000 0.250000 0.000000
O O9 0.563165 0.500000 0.905794
O O10 0.664272 0.755294 0.830089
O O11 0.500000 0.732634 0.000000
O O12 0.045831 0.500000 0.416692
O O13 0.000000 0.261807 0.500000
O O14 0.113873 0.239286 0.343527
O O15 0.300265 0.214911 0.288611
O O16 0.245701 0.000000 0.258645
O O17 0.921375 0.500000 0.260744
#
# Coordination Sequence:
#
# PCOD8096622 Si02
#       6
#     8   8   8   8   8   8
#     4  11  23  39  58  82 114 150 185 229 281 331
#     4  10  20  36  59  84 110 144 187 232 278 333
#     4   9  19  37  59  81 109 146 184 226 276 331
#     4  10  20  36  59  83 109 145 188 228 269 330
#     4  10  20  33  56  87 114 143 182 233 279 322
#     4  10  20  36  58  83 112 147 187 230 279 334
#
# _framework density 18.346526000000001
#
# number of rings (size 3 to 8) (size 9 to 14) (size 15 to 20)
#    0.000    2.000    1.667    2.000    0.000    4.000 
#    3.000    0.000    0.000    0.000    0.000    0.000 
#    0.000    0.000    0.000    0.000    0.000    0.000 
#
# Total GULP energy -297691.192591 kJ/mol
# GULP energy per Si atom -12403.799691 kJ/mol
# Density = 1.830477 g / cm^3
# Si number density = 18.346526 Si / 1000 Ang^3
#
#
#
# Elastic Constant Matrix: (Units=GPa)
#
#
# Indices 1 2 3 4 5 6 
#
# 1 79.8203 49.0367 70.3722 0.0006 15.8975 -0.0045
# 2 49.0367 85.1924 77.9016 0.0016 3.1836 -0.0003
# 3 70.3722 77.9016 174.3141 0.0001 10.5108 0.0005
# 4 0.0006 0.0016 0.0001 36.8642 -0.0002 -1.5516
# 5 15.8975 3.1836 10.5108 -0.0002 34.4674 0.0014
# 6 -0.0045 -0.0003 0.0005 -1.5516 0.0014 28.4649
#
#
#
# Elastic Compliance Matrix: (Units=1/GPa)
#
#
# Indices 1 2 3 4 5 6 
#
# 1 0.024463 -0.008805 -0.005409 0.000000 -0.008820 0.000004
# 2 -0.008805 0.023046 -0.006990 -0.000001 0.004064 -0.000001
# 3 -0.005409 -0.006990 0.011058 0.000000 -0.000232 -0.000001
# 4 0.000000 -0.000001 0.000000 0.027189 0.000000 0.001482
# 5 -0.008820 0.004064 -0.000232 0.000000 0.032776 -0.000003
# 6 0.000004 -0.000001 -0.000001 0.001482 -0.000003 0.035212
#
#
# Mechanical properties :
#
#
# Convention : Reuss Voigt Hill
#
# Bulk Modulus (GPa) = 61.88349 81.54976 71.71662
# Shear Modulus (GPa) = 24.80915 29.42704 27.11810
#
# Velocity S-wave (km/s) = 3.68129 4.00929 3.84878
# Velocity P-wave (km/s) = 7.20228 8.12273 7.67631
#
# Compressibility (1/GPa) = 0.01615940
#
# Stress axis : x y z
#
# Youngs Moduli (GPa) = 40.87811 43.39147 90.43126
#
# Poissons Ratio (x) = 0.38207 0.48915
# Poissons Ratio (y) = 0.35994 0.63208
# Poissons Ratio (z) = 0.22111 0.30329
#
# Static dielectric constant tensor:
#      x y z
#    x 3.255340 0.000000 0.043520 
#    y 0.000000 3.417290 0.000000 
#    z 0.043520 0.000000 3.432320 
# 
# 
# High freq. dielectric constant tensor:
#      x y z
#    x 1.695850 0.000000 -0.000710 
#    y 0.000000 1.720880 0.000000 
#    z -0.000710 0.000000 1.722620 
# 
# From -- ./inp_files/320330.got.cif
#   From: 2010.06.25/outbox.cif.g09.slc.cpg/sg12_161_cif.got.tgz:320330.got - 2010.06.28 00:19:55.
