data_PCOD8096251
_publ_section_title
;
Structure prediction by ZEFSAII (Michael W. Deem and Ramdas Pophale) SiO2 
 PCOD8096251
Probable space group: C 2/M
;
_chemical_formula_sum "Si O2"
_cell_formula_units_Z 40
_cell_length_a 30.873726
_cell_length_b 8.805305
_cell_length_c 15.452801
_cell_angle_alpha 90.000000
_cell_angle_beta 28.937394
_cell_angle_gamma 90.000000
_cell_volume 2032.612928
_symmetry_space_group_name_H-M "C 2/M"
_symmetry_group_IT_number 12
_symmetry_cell_setting 'monoclinic'
loop_
_space_group_symop_operation_xyz
x,y,z
-x,y,-z
-x,-y,-z
x,-y,z
1/2+x,1/2+y,z
1/2-x,1/2+y,-z
1/2-x,1/2-y,-z
1/2+x,1/2-y,z
loop_
_atom_site_type_symbol
_atom_site_label
_atom_site_fract_x
_atom_site_fract_y
_atom_site_fract_z
Si Si1 0.390136 0.682099 0.936912
Si Si2 0.549646 0.666188 0.991892
Si Si3 0.752076 0.667110 0.587028
Si Si4 0.019745 0.180372 0.560583
Si Si5 0.706283 0.680037 0.313938
O O1 0.381388 0.500000 0.957712
O O2 0.452236 0.742098 0.909377
O O3 0.440652 0.737916 0.762413
O O4 0.291009 0.752117 0.114204
O O5 0.502514 0.500000 0.079964
O O6 0.500000 0.758376 0.000000
O O7 0.652354 0.646822 0.792279
O O8 0.796674 0.500000 0.499428
O O9 0.750000 0.750000 0.500000
O O10 0.803676 0.763766 0.569598
O O11 0.117207 0.236534 0.420541
O O12 0.000000 0.247427 0.500000
O O13 0.018406 0.000000 0.561756
O O14 0.715361 0.500000 0.298976
#
# Coordination Sequence:
#
# PCOD8096251 Si02
#       5
#     8   8   8   8   8
#     4   9  18  34  55  77 107 144 182 228 275 327
#     4   8  15  27  47  72  97 131 177 214 250 310
#     4  10  20  33  52  78 110 144 181 222 269 325
#     4   9  19  35  57  83 107 142 192 232 271 333
#     4  10  20  35  56  80 111 145 182 229 279 328
#
# _framework density 19.679103999999999
#
# number of rings (size 3 to 8) (size 9 to 14) (size 15 to 20)
#    0.000    2.800    0.000    2.400    2.800    0.800 
#    0.000    2.000    0.000    7.200    0.000    0.000 
#    0.000    0.000    0.000    0.000    0.000    0.000 
#
# Total GULP energy -247788.199804 kJ/mol
# GULP energy per Si atom -12389.409990 kJ/mol
# Density = 1.963431 g / cm^3
# Si number density = 19.679104 Si / 1000 Ang^3
#
#
#
# Elastic Constant Matrix: (Units=GPa)
#
#
# Indices 1 2 3 4 5 6 
#
# 1 194.7533 35.9379 85.7362 0.0000 13.0145 0.0000
# 2 35.9379 59.3114 31.0763 0.0001 2.1591 0.0000
# 3 85.7362 31.0763 107.6824 0.0000 17.0784 0.0000
# 4 0.0000 0.0001 0.0000 22.6589 0.0000 -2.7816
# 5 13.0145 2.1591 17.0784 0.0000 38.6523 0.0000
# 6 0.0000 0.0000 0.0000 -2.7816 0.0000 18.1414
#
#
#
# Elastic Compliance Matrix: (Units=1/GPa)
#
#
# Indices 1 2 3 4 5 6 
#
# 1 0.008064 -0.001794 -0.005902 0.000000 -0.000007 0.000000
# 2 -0.001794 0.020347 -0.004688 0.000000 0.001539 0.000000
# 3 -0.005902 -0.004688 0.016111 0.000000 -0.004869 0.000000
# 4 0.000000 0.000000 0.000000 0.044979 0.000000 0.006897
# 5 -0.000007 0.001539 -0.004869 0.000000 0.027940 0.000000
# 6 0.000000 0.000000 0.000000 0.006897 0.000000 0.056180
#
#
# Mechanical properties :
#
#
# Convention : Reuss Voigt Hill
#
# Bulk Modulus (GPa) = 50.61957 74.13866 62.37911
# Shear Modulus (GPa) = 24.39328 29.82361 27.10845
#
# Velocity S-wave (km/s) = 3.52455 3.89716 3.71553
# Velocity P-wave (km/s) = 6.50704 7.61617 7.08335
#
# Compressibility (1/GPa) = 0.01975521
#
# Stress axis : x y z
#
# Youngs Moduli (GPa) = 124.00095 49.14669 62.06964
#
# Poissons Ratio (x) = 0.08816 0.36634
# Poissons Ratio (y) = 0.22243 0.29098
# Poissons Ratio (z) = 0.73186 0.23040
#
# Static dielectric constant tensor:
#      x y z
#    x 3.345910 0.000000 -0.645830 
#    y 0.000000 3.315440 0.000000 
#    z -0.645830 0.000000 2.599430 
# 
# 
# High freq. dielectric constant tensor:
#      x y z
#    x 1.779590 0.000000 0.006330 
#    y 0.000000 1.725300 0.000000 
#    z 0.006330 0.000000 1.763180 
# 
# From -- ./inp_files/211441.got.cif
#   From: 2010.06.25/outbox.cif.g09.slc.cpg/sg12_106_cif.got.tgz:211441.got - 2010.06.28 00:19:55.
