data_PCOD8096254
_publ_section_title
;
Structure prediction by ZEFSAII (Michael W. Deem and Ramdas Pophale) SiO2 
 PCOD8096254
Probable space group: C 2/M
;
_chemical_formula_sum "Si O2"
_cell_formula_units_Z 56
_cell_length_a 9.701451
_cell_length_b 28.501014
_cell_length_c 11.199363
_cell_angle_alpha 90.000000
_cell_angle_beta 60.852036
_cell_angle_gamma 90.000000
_cell_volume 2704.493906
_symmetry_space_group_name_H-M "C 2/M"
_symmetry_group_IT_number 12
_symmetry_cell_setting 'monoclinic'
loop_
_space_group_symop_operation_xyz
x,y,z
-x,y,-z
-x,-y,-z
x,-y,z
1/2+x,1/2+y,z
1/2-x,1/2+y,-z
1/2-x,1/2-y,-z
1/2+x,1/2-y,z
loop_
_atom_site_type_symbol
_atom_site_label
_atom_site_fract_x
_atom_site_fract_y
_atom_site_fract_z
Si Si1 0.871022 0.747976 0.782512
Si Si2 0.658915 0.187878 0.986584
Si Si3 0.611820 0.448123 0.209815
Si Si4 0.850798 0.553529 0.325492
Si Si5 0.881927 0.883298 0.437726
Si Si6 0.117112 0.420570 0.050066
Si Si7 0.206340 0.782190 0.625527
O O1 0.789090 0.799340 0.830933
O O2 0.844196 0.723398 0.665721
O O3 0.049912 0.757922 0.741505
O O4 0.794785 0.712196 0.908789
O O5 0.500000 0.209060 0.000000
O O6 0.643657 0.133690 0.017123
O O7 0.536545 0.500000 0.246273
O O8 0.741425 0.441238 0.256947
O O9 0.471667 0.411227 0.293387
O O10 0.706563 0.442298 0.043074
O O11 0.853891 0.500000 0.371618
O O12 0.774005 0.587184 0.458237
O O13 0.031792 0.569023 0.213816
O O14 0.819247 0.835226 0.407539
O O15 0.000000 0.874295 0.500000
O O16 0.000000 0.442195 0.000000
O O17 0.250000 0.750000 0.500000
#
# Coordination Sequence:
#
# PCOD8096254 Si02
#       7
#     8   8   8   8   8   8   8
#     4  11  23  40  59  84 115 156 202 246 295 345
#     4  10  20  37  61  84 116 153 195 246 296 353
#     4   9  16  29  49  78 111 144 187 240 295 349
#     4   9  17  29  48  79 115 148 187 237 293 351
#     4  10  20  33  52  78 112 156 194 240 293 349
#     4   9  17  27  49  78 111 145 183 235 292 346
#     4  12  25  39  58  83 120 159 202 244 289 351
#
# _framework density 20.706278999999999
#
# number of rings (size 3 to 8) (size 9 to 14) (size 15 to 20)
#    0.000    2.000    1.429    3.000    2.000    5.714 
#    0.000    0.000    0.000    0.000    0.000    6.000 
#    0.000    0.000    0.000    0.000    0.000    0.000 
#
# Total GULP energy -346895.587346 kJ/mol
# GULP energy per Si atom -12389.128119 kJ/mol
# Density = 2.065915 g / cm^3
# Si number density = 20.706279 Si / 1000 Ang^3
#
#
#
# Elastic Constant Matrix: (Units=GPa)
#
#
# Indices 1 2 3 4 5 6 
#
# 1 24.4770 20.4502 11.3396 0.0000 2.2988 0.0000
# 2 20.4502 138.2164 52.9559 0.0000 -7.4076 0.0000
# 3 11.3396 52.9559 111.2941 0.0000 -21.7132 0.0000
# 4 0.0000 0.0000 0.0000 33.9870 0.0000 -9.8670
# 5 2.2988 -7.4076 -21.7132 0.0000 31.1228 0.0000
# 6 0.0000 0.0000 0.0000 -9.8670 0.0000 4.2626
#
#
#
# Elastic Compliance Matrix: (Units=1/GPa)
#
#
# Indices 1 2 3 4 5 6 
#
# 1 0.048350 -0.006248 -0.003403 0.000000 -0.007433 0.000000
# 2 -0.006248 0.009680 -0.003970 0.000000 -0.000004 0.000000
# 3 -0.003403 -0.003970 0.012832 0.000000 0.008259 0.000000
# 4 0.000000 0.000000 0.000000 0.089708 0.000000 0.207654
# 5 -0.007433 -0.000004 0.008259 0.000000 0.038441 0.000000
# 6 0.000000 0.000000 0.000000 0.207654 0.000000 0.715269
#
#
# Mechanical properties :
#
#
# Convention : Reuss Voigt Hill
#
# Bulk Modulus (GPa) = 22.92592 49.27543 36.10067
# Shear Modulus (GPa) = 5.22977 26.49061 15.86019
#
# Velocity S-wave (km/s) = 1.59097 3.58068 2.77060
# Velocity P-wave (km/s) = 3.80406 6.39875 5.26379
#
# Compressibility (1/GPa) = 0.04361875
#
# Stress axis : x y z
#
# Youngs Moduli (GPa) = 20.68269 103.30087 77.92719
#
# Poissons Ratio (x) = 0.64543 0.26522
# Poissons Ratio (y) = 0.12923 0.30940
# Poissons Ratio (z) = 0.07039 0.41015
#
# Static dielectric constant tensor:
#      x y z
#    x 2.968810 0.000000 -0.382130 
#    y 0.000000 4.386660 0.000000 
#    z -0.382130 0.000000 3.976540 
# 
# 
# High freq. dielectric constant tensor:
#      x y z
#    x 1.755480 0.000000 -0.031070 
#    y 0.000000 1.819750 0.000000 
#    z -0.031070 0.000000 1.821050 
# 
# From -- ./inp_files/125582.got.cif
#   From: 2010.06.25/outbox.cif.g09.slc.cpg/sg12_63_cif.got.tgz:125582.got - 2010.06.28 00:19:55.
