data_PCOD8096485
_publ_section_title
;
Structure prediction by ZEFSAII (Michael W. Deem and Ramdas Pophale) SiO2 
 PCOD8096485
Probable space group: C 2/M
;
_chemical_formula_sum "Si O2"
_cell_formula_units_Z 48
_cell_length_a 18.200836
_cell_length_b 13.579579
_cell_length_c 9.911500
_cell_angle_alpha 90.000000
_cell_angle_beta 93.972045
_cell_angle_gamma 90.000000
_cell_volume 2443.838953
_symmetry_space_group_name_H-M "C 2/M"
_symmetry_group_IT_number 12
_symmetry_cell_setting 'monoclinic'
loop_
_space_group_symop_operation_xyz
x,y,z
-x,y,-z
-x,-y,-z
x,-y,z
1/2+x,1/2+y,z
1/2-x,1/2+y,-z
1/2-x,1/2-y,-z
1/2+x,1/2-y,z
loop_
_atom_site_type_symbol
_atom_site_label
_atom_site_fract_x
_atom_site_fract_y
_atom_site_fract_z
Si Si1 0.564780 0.616986 0.718764
Si Si2 0.089494 0.797148 0.286289
Si Si3 0.816977 0.115949 0.480943
Si Si4 0.328150 0.889595 0.671801
Si Si5 0.791237 0.609469 0.972812
Si Si6 0.635086 0.693513 0.993457
O O1 0.555616 0.500000 0.711048
O O2 0.487789 0.666190 0.664663
O O3 0.626231 0.657893 0.623851
O O4 0.583639 0.650094 0.871927
O O5 0.157240 0.853298 0.367129
O O6 0.100499 0.680823 0.319188
O O7 0.091904 0.818850 0.127846
O O8 0.733000 0.151191 0.442008
O O9 0.816712 0.000000 0.465677
O O10 0.287586 0.886483 0.810722
O O11 0.355151 0.000000 0.640333
O O12 0.815355 0.500000 0.024955
O O13 0.710153 0.632340 0.016843
O O14 0.848502 0.690867 0.035352
#
# Coordination Sequence:
#
# PCOD8096485 Si02
#       6
#     8   8   8   8   8   8
#     4  11  22  37  55  77 111 146 171 208 272 330
#     4  11  22  33  53  85 110 133 174 227 264 304
#     4  10  20  36  57  78 104 141 179 213 262 320
#     4   9  18  36  58  77 102 143 183 214 257 314
#     4   9  17  33  55  78 105 140 178 216 260 314
#     4  10  20  33  54  80 107 138 176 218 265 309
#
# _framework density 19.641228999999999
#
# number of rings (size 3 to 8) (size 9 to 14) (size 15 to 20)
#    0.000    2.000    1.667    2.500    0.000    4.667 
#    0.000    0.833    0.000    6.000    0.000    0.000 
#    0.000    0.000    0.000    0.000    0.000    0.000 
#
# Total GULP energy -297594.534816 kJ/mol
# GULP energy per Si atom -12399.772284 kJ/mol
# Density = 1.959652 g / cm^3
# Si number density = 19.641229 Si / 1000 Ang^3
#
#
#
# Elastic Constant Matrix: (Units=GPa)
#
#
# Indices 1 2 3 4 5 6 
#
# 1 58.2975 41.9029 9.9501 0.0000 10.9278 0.0000
# 2 41.9029 86.8184 17.4488 0.0000 -2.4254 0.0000
# 3 9.9501 17.4488 53.0266 0.0000 10.3674 0.0000
# 4 0.0000 0.0000 0.0000 20.8662 0.0000 6.3008
# 5 10.9278 -2.4254 10.3674 0.0000 15.5107 0.0000
# 6 0.0000 0.0000 0.0000 6.3008 0.0000 29.6992
#
#
#
# Elastic Compliance Matrix: (Units=1/GPa)
#
#
# Indices 1 2 3 4 5 6 
#
# 1 0.036452 -0.019731 0.006070 0.000000 -0.032824 0.000000
# 2 -0.019731 0.023410 -0.008552 0.000000 0.023278 0.000000
# 3 0.006070 -0.008552 0.024883 0.000000 -0.022246 0.000000
# 4 0.000000 0.000000 0.000000 0.051205 0.000000 -0.010863
# 5 -0.032824 0.023278 -0.022246 0.000000 0.106106 0.000000
# 6 0.000000 0.000000 0.000000 -0.010863 0.000000 0.035976
#
#
# Mechanical properties :
#
#
# Convention : Reuss Voigt Hill
#
# Bulk Modulus (GPa) = 24.80148 37.41622 31.10885
# Shear Modulus (GPa) = 14.88545 21.80458 18.34502
#
# Velocity S-wave (km/s) = 2.75593 3.33550 3.05947
# Velocity P-wave (km/s) = 4.77300 5.82454 5.32479
#
# Compressibility (1/GPa) = 0.04032017
#
# Stress axis : x y z
#
# Youngs Moduli (GPa) = 27.43310 42.71588 40.18811
#
# Poissons Ratio (x) = 0.84282 -0.24395
# Poissons Ratio (y) = 0.54127 0.34370
# Poissons Ratio (z) = -0.16652 0.36532
#
# Static dielectric constant tensor:
#      x y z
#    x 3.427000 0.000000 0.064200 
#    y 0.000000 3.774290 0.000000 
#    z 0.064200 0.000000 3.489290 
# 
# 
# High freq. dielectric constant tensor:
#      x y z
#    x 1.746880 0.000000 0.005670 
#    y 0.000000 1.768900 0.000000 
#    z 0.005670 0.000000 1.758050 
# 
# From -- ./inp_files/73591.got.cif
#   From: 2010.06.25/outbox.cif.g09.slc.cpg/sg12_37_cif.got.tgz:73591.got - 2010.06.28 00:19:55.
