data_PCOD8096877
_publ_section_title
;
Structure prediction by ZEFSAII (Michael W. Deem and Ramdas Pophale) SiO2 
 PCOD8096877
Probable space group: C 2/M
;
_chemical_formula_sum "Si O2"
_cell_formula_units_Z 64
_cell_length_a 28.073638
_cell_length_b 9.271951
_cell_length_c 14.409322
_cell_angle_alpha 90.000000
_cell_angle_beta 74.287860
_cell_angle_gamma 90.000000
_cell_volume 3610.561461
_symmetry_space_group_name_H-M "C 2/M"
_symmetry_group_IT_number 12
_symmetry_cell_setting 'monoclinic'
loop_
_space_group_symop_operation_xyz
x,y,z
-x,y,-z
-x,-y,-z
x,-y,z
1/2+x,1/2+y,z
1/2-x,1/2+y,-z
1/2-x,1/2-y,-z
1/2+x,1/2-y,z
loop_
_atom_site_type_symbol
_atom_site_label
_atom_site_fract_x
_atom_site_fract_y
_atom_site_fract_z
Si Si1 0.546067 0.166153 0.650237
Si Si2 0.377423 0.668524 0.277634
Si Si3 0.866467 0.667519 0.901440
Si Si4 0.262620 0.163397 0.904386
Si Si5 0.620070 0.832561 0.445115
Si Si6 0.697855 0.329478 0.520239
Si Si7 0.160696 0.831093 0.897966
Si Si8 0.564711 0.171063 0.294302
O O1 0.573024 0.251098 0.718088
O O2 0.574651 0.187194 0.539360
O O3 0.490958 0.231135 0.667350
O O4 0.543795 0.000000 0.681500
O O5 0.388654 0.500000 0.271571
O O6 0.331715 0.703438 0.369582
O O7 0.364964 0.726787 0.181468
O O8 0.870128 0.500000 0.926860
O O9 0.820403 0.693607 0.852601
O O10 0.914068 0.718297 0.817569
O O11 0.861905 0.754526 0.999459
O O12 0.220058 0.201131 0.851338
O O13 0.255676 0.000000 0.937557
O O14 0.250000 0.250000 0.000000
O O15 0.667135 0.737119 0.450404
O O16 0.599900 0.770743 0.358113
O O17 0.636822 0.000000 0.431068
O O18 0.705499 0.500000 0.500230
O O19 0.750000 0.250000 0.500000
O O20 0.150778 0.000000 0.915720
O O21 0.564136 0.000000 0.305079
#
# Coordination Sequence:
#
# PCOD8096877 Si02
#       8
#     8   8   8   8   8   8   8   8
#     4   9  17  31  51  73  95 122 161 204 241 284
#     4   9  19  34  51  70  94 128 165 198 237 287
#     4   9  17  29  46  70  97 122 154 196 240 285
#     4   8  14  25  42  62  84 112 145 182 223 269
#     4   9  17  31  52  74  97 128 163 197 237 288
#     4  10  20  34  51  74 104 132 160 196 238 284
#     4   9  17  31  49  67  91 125 162 195 232 282
#     4   9  17  30  50  74  98 125 158 199 247 293
#
# _framework density 17.725774999999999
#
# number of rings (size 3 to 8) (size 9 to 14) (size 15 to 20)
#    0.000    3.000    0.000    0.750    0.000    3.500 
#    0.000    6.250    0.000   12.750    0.000    0.000 
#    0.000    0.000    0.000    0.000    0.000    0.000 
#
# Total GULP energy -396487.013039 kJ/mol
# GULP energy per Si atom -12390.219157 kJ/mol
# Density = 1.768543 g / cm^3
# Si number density = 17.725775 Si / 1000 Ang^3
#
#
#
# Elastic Constant Matrix: (Units=GPa)
#
#
# Indices 1 2 3 4 5 6 
#
# 1 138.7633 49.2535 61.6790 0.0000 11.4115 0.0000
# 2 49.2535 48.7585 32.5202 0.0000 6.5663 0.0000
# 3 61.6790 32.5202 89.4266 0.0000 19.9065 0.0000
# 4 0.0000 0.0000 0.0000 21.8694 0.0000 3.1077
# 5 11.4115 6.5663 19.9065 0.0000 28.7208 0.0000
# 6 0.0000 0.0000 0.0000 3.1077 0.0000 26.2878
#
#
#
# Elastic Compliance Matrix: (Units=1/GPa)
#
#
# Indices 1 2 3 4 5 6 
#
# 1 0.013054 -0.009463 -0.005781 0.000000 0.000984 0.000000
# 2 -0.009463 0.033950 -0.005827 0.000000 0.000037 0.000000
# 3 -0.005781 -0.005827 0.019488 0.000000 -0.009878 0.000000
# 4 0.000000 0.000000 0.000000 0.046507 0.000000 -0.005498
# 5 0.000984 0.000037 -0.009878 0.000000 0.041265 0.000000
# 6 0.000000 0.000000 0.000000 -0.005498 0.000000 0.038690
#
#
# Mechanical properties :
#
#
# Convention : Reuss Voigt Hill
#
# Bulk Modulus (GPa) = 41.07076 62.65043 51.86060
# Shear Modulus (GPa) = 20.55788 24.27530 22.41659
#
# Velocity S-wave (km/s) = 3.40924 3.70468 3.56003
# Velocity P-wave (km/s) = 6.22235 7.32943 6.79846
#
# Compressibility (1/GPa) = 0.02434822
#
# Stress axis : x y z
#
# Youngs Moduli (GPa) = 76.60239 29.45474 51.31400
#
# Poissons Ratio (x) = 0.27874 0.29667
# Poissons Ratio (y) = 0.72492 0.29902
# Poissons Ratio (z) = 0.44287 0.17164
#
# Static dielectric constant tensor:
#      x y z
#    x 3.157300 0.000000 0.143750 
#    y 0.000000 3.155510 0.000000 
#    z 0.143750 0.000000 3.123040 
# 
# 
# High freq. dielectric constant tensor:
#      x y z
#    x 1.694220 0.000000 0.004270 
#    y 0.000000 1.667730 0.000000 
#    z 0.004270 0.000000 1.669980 
# 
# From -- ./inp_files/243986.got.cif
#   From: 2010.06.25/outbox.cif.g09.slc.cpg/sg12_122_cif.got.tgz:243986.got - 2010.06.28 00:19:55.
