data_PCOD8096018
_publ_section_title
;
Structure prediction by ZEFSAII (Michael W. Deem and Ramdas Pophale) SiO2 
 PCOD8096018
Probable space group: C 2/M
;
_chemical_formula_sum "Si O2"
_cell_formula_units_Z 64
_cell_length_a 12.512754
_cell_length_b 27.129756
_cell_length_c 20.418896
_cell_angle_alpha 90.000000
_cell_angle_beta 149.384005
_cell_angle_gamma 90.000000
_cell_volume 3530.117083
_symmetry_space_group_name_H-M "C 2/M"
_symmetry_group_IT_number 12
_symmetry_cell_setting 'monoclinic'
loop_
_space_group_symop_operation_xyz
x,y,z
-x,y,-z
-x,-y,-z
x,-y,z
1/2+x,1/2+y,z
1/2-x,1/2+y,-z
1/2-x,1/2-y,-z
1/2+x,1/2-y,z
loop_
_atom_site_type_symbol
_atom_site_label
_atom_site_fract_x
_atom_site_fract_y
_atom_site_fract_z
Si Si1 0.811557 0.557312 0.762749
Si Si2 0.461738 0.750984 0.403900
Si Si3 0.607410 0.624873 0.765643
Si Si4 0.301143 0.780964 0.929398
Si Si5 0.748917 0.830750 0.507759
Si Si6 0.520904 0.213997 0.177957
Si Si7 0.180978 0.553814 0.040670
Si Si8 0.741095 0.629843 0.622153
O O1 0.742045 0.500000 0.735419
O O2 0.681782 0.594240 0.741241
O O3 0.769443 0.574494 0.665779
O O4 0.061360 0.562977 0.909005
O O5 0.500000 0.740856 0.500000
O O6 0.540568 0.805570 0.426203
O O7 0.585616 0.710224 0.428295
O O8 0.214708 0.748447 0.256884
O O9 0.743397 0.673954 0.850568
O O10 0.363709 0.638348 0.625855
O O11 0.632770 0.591975 0.844888
O O12 0.107711 0.743107 0.833349
O O13 0.500000 0.754291 0.000000
O O14 0.366536 0.799322 0.036657
O O15 0.685945 0.867013 0.414785
O O16 0.613945 0.164465 0.256949
O O17 0.284898 0.500000 0.097033
O O18 0.000000 0.558729 0.000000
O O19 0.500000 0.646919 0.500000
#
# Coordination Sequence:
#
# PCOD8096018 Si02
#       8
#     8   8   8   8   8   8   8   8
#     4  10  20  33  51  75 108 143 178 221 278 336
#     4  11  20  35  50  69 101 142 189 225 250 305
#     4  11  18  31  48  74 104 140 176 217 264 313
#     4  11  23  33  52  77 105 145 178 225 268 314
#     4  11  22  30  52  74  98 143 186 218 261 314
#     4  11  22  36  51  74 106 147 185 216 270 316
#     4   8  15  28  46  67  95 134 172 211 262 317
#     4  12  20  35  50  75 106 144 178 217 265 326
#
# _framework density 18.129711
#
# number of rings (size 3 to 8) (size 9 to 14) (size 15 to 20)
#    0.000    1.375    3.750    5.250    3.500    0.250 
#    0.000    0.000    0.000    0.000    0.000    0.000 
#    0.000   27.000    0.250    0.500    0.000    0.000 
#
# Total GULP energy -396605.737033 kJ/mol
# GULP energy per Si atom -12393.929282 kJ/mol
# Density = 1.808845 g / cm^3
# Si number density = 18.129711 Si / 1000 Ang^3
#
#
#
# Elastic Constant Matrix: (Units=GPa)
#
#
# Indices 1 2 3 4 5 6 
#
# 1 40.4550 28.1719 20.8917 -0.0002 4.0464 0.0010
# 2 28.1719 86.3723 38.7598 -0.0012 -2.6802 -0.0003
# 3 20.8917 38.7598 81.5079 0.0246 -9.3361 0.0306
# 4 -0.0002 -0.0012 0.0246 29.3917 0.0130 -8.4401
# 5 4.0464 -2.6802 -9.3361 0.0130 26.8258 0.0115
# 6 0.0010 -0.0003 0.0306 -8.4401 0.0115 21.6339
#
#
#
# Elastic Compliance Matrix: (Units=1/GPa)
#
#
# Indices 1 2 3 4 5 6 
#
# 1 0.034698 -0.009105 -0.005486 0.000012 -0.008053 0.000015
# 2 -0.009105 0.017134 -0.005687 0.000008 0.001106 0.000011
# 3 -0.005486 -0.005687 0.017091 -0.000028 0.006207 -0.000038
# 4 0.000012 0.000008 -0.000028 0.038316 -0.000036 0.014948
# 5 -0.008053 0.001106 0.006207 -0.000036 0.040763 -0.000044
# 6 0.000015 0.000011 -0.000038 0.014948 -0.000044 0.052056
#
#
# Mechanical properties :
#
#
# Convention : Reuss Voigt Hill
#
# Bulk Modulus (GPa) = 35.25469 42.66469 38.95969
# Shear Modulus (GPa) = 19.99437 23.60440 21.79939
#
# Velocity S-wave (km/s) = 3.32452 3.61220 3.47134
# Velocity P-wave (km/s) = 5.85018 6.40167 6.13213
#
# Compressibility (1/GPa) = 0.02836502
#
# Stress axis : x y z
#
# Youngs Moduli (GPa) = 28.81994 58.36270 58.51204
#
# Poissons Ratio (x) = 0.53142 0.32101
# Poissons Ratio (y) = 0.26242 0.33278
# Poissons Ratio (z) = 0.15811 0.33193
#
# Static dielectric constant tensor:
#      x y z
#    x 3.178410 -0.000010 -0.294590 
#    y -0.000010 3.372820 -0.000030 
#    z -0.294590 -0.000030 3.663440 
# 
# 
# High freq. dielectric constant tensor:
#      x y z
#    x 1.657500 0.000000 -0.035540 
#    y 0.000000 1.686430 0.000000 
#    z -0.035540 0.000000 1.712510 
# 
# From -- ./inp_files/307516.got.cif
#   From: 2010.06.25/outbox.cif.g09.slc.cpg/sg12_154_cif.got.tgz:307516.got - 2010.06.28 00:19:55.
