data_PCOD8096300
_publ_section_title
;
Structure prediction by ZEFSAII (Michael W. Deem and Ramdas Pophale) SiO2 
 PCOD8096300
Probable space group: C 2/M
;
_chemical_formula_sum "Si O2"
_cell_formula_units_Z 56
_cell_length_a 26.695902
_cell_length_b 8.891749
_cell_length_c 13.389737
_cell_angle_alpha 90.000000
_cell_angle_beta 64.666740
_cell_angle_gamma 90.000000
_cell_volume 2872.715832
_symmetry_space_group_name_H-M "C 2/M"
_symmetry_group_IT_number 12
_symmetry_cell_setting 'monoclinic'
loop_
_space_group_symop_operation_xyz
x,y,z
-x,y,-z
-x,-y,-z
x,-y,z
1/2+x,1/2+y,z
1/2-x,1/2+y,-z
1/2-x,1/2-y,-z
1/2+x,1/2-y,z
loop_
_atom_site_type_symbol
_atom_site_label
_atom_site_fract_x
_atom_site_fract_y
_atom_site_fract_z
Si Si1 0.579966 0.669976 0.882065
Si Si2 0.912613 0.174093 0.893979
Si Si3 0.697408 0.177495 0.317796
Si Si4 0.020832 0.676289 0.759324
Si Si5 0.691551 0.327025 0.679723
Si Si6 0.129166 0.676351 0.559100
Si Si7 0.695789 0.179040 0.094378
O O1 0.561584 0.500000 0.869275
O O2 0.542912 0.785537 0.851081
O O3 0.644555 0.693746 0.803590
O O4 0.570200 0.700383 0.006320
O O5 0.857683 0.268085 0.920220
O O6 0.963724 0.236703 0.784294
O O7 0.901776 0.000000 0.878729
O O8 0.752796 0.245151 0.321330
O O9 0.644257 0.220214 0.432013
O O10 0.689458 0.240790 0.213207
O O11 0.704806 0.000000 0.304114
O O12 0.009175 0.500000 0.760897
O O13 0.067137 0.732198 0.639492
O O14 0.700884 0.500000 0.643893
O O15 0.675626 0.244915 0.591347
O O16 0.132107 0.500000 0.573955
O O17 0.700512 0.000000 0.085700
O O18 0.750000 0.250000 0.000000
#
# Coordination Sequence:
#
# PCOD8096300 Si02
#       7
#     8   8   8   8   8   8   8
#     4   9  18  32  51  76 107 142 175 212 265 325
#     4  11  22  37  56  77 105 143 182 218 262 315
#     4   9  18  34  55  76 103 142 180 213 256 314
#     4  10  20  33  52  80 110 138 174 222 268 311
#     4   9  16  29  51  78 106 135 170 212 261 315
#     4   9  18  33  52  77 108 139 174 215 260 311
#     4  11  23  40  60  81 106 137 175 218 262 310
#
# _framework density 19.493749000000001
#
# number of rings (size 3 to 8) (size 9 to 14) (size 15 to 20)
#    0.000    2.286    0.000    3.000    0.000    5.714 
#    0.000    6.429    0.000    4.286    0.000    0.000 
#    0.000    0.000    0.000    0.000    0.000    0.000 
#
# Total GULP energy -347181.795398 kJ/mol
# GULP energy per Si atom -12399.349836 kJ/mol
# Density = 1.944938 g / cm^3
# Si number density = 19.493749 Si / 1000 Ang^3
#
#
#
# Elastic Constant Matrix: (Units=GPa)
#
#
# Indices 1 2 3 4 5 6 
#
# 1 90.8172 32.2038 39.1657 0.0000 -27.3145 0.0000
# 2 32.2038 55.5521 36.8352 0.0000 -6.0811 0.0000
# 3 39.1657 36.8352 117.8889 0.0000 -16.0185 0.0000
# 4 0.0000 0.0000 0.0000 23.4750 0.0000 -2.9788
# 5 -27.3145 -6.0811 -16.0185 0.0000 24.3586 0.0000
# 6 0.0000 0.0000 0.0000 -2.9788 0.0000 30.5421
#
#
#
# Elastic Compliance Matrix: (Units=1/GPa)
#
#
# Indices 1 2 3 4 5 6 
#
# 1 0.020885 -0.008973 -0.001381 0.000000 0.020272 0.000000
# 2 -0.008973 0.026587 -0.006360 0.000000 -0.007607 0.000000
# 3 -0.001381 -0.006360 0.011533 0.000000 0.004448 0.000000
# 4 0.000000 0.000000 0.000000 0.043132 0.000000 0.004207
# 5 0.020272 -0.007607 0.004448 0.000000 0.064811 0.000000
# 6 0.000000 0.000000 0.000000 0.004207 0.000000 0.033152
#
#
# Mechanical properties :
#
#
# Convention : Reuss Voigt Hill
#
# Bulk Modulus (GPa) = 39.09497 53.40752 46.25124
# Shear Modulus (GPa) = 20.65661 26.07871 23.36766
#
# Velocity S-wave (km/s) = 3.25876 3.66156 3.46602
# Velocity P-wave (km/s) = 5.85304 6.73296 6.30836
#
# Compressibility (1/GPa) = 0.02557874
#
# Stress axis : x y z
#
# Youngs Moduli (GPa) = 47.88074 37.61222 86.70899
#
# Poissons Ratio (x) = 0.33749 0.11970
# Poissons Ratio (y) = 0.42962 0.55146
# Poissons Ratio (z) = 0.06610 0.23921
#
# Static dielectric constant tensor:
#      x y z
#    x 3.557640 0.000000 -0.233290 
#    y 0.000000 3.411660 0.000000 
#    z -0.233290 0.000000 3.775480 
# 
# 
# High freq. dielectric constant tensor:
#      x y z
#    x 1.754370 0.000000 -0.022670 
#    y 0.000000 1.742740 0.000000 
#    z -0.022670 0.000000 1.761230 
# 
# From -- ./inp_files/180640.got.cif
#   From: 2010.06.25/outbox.cif.g09.slc.cpg/sg12_91_cif.got.tgz:180640.got - 2010.06.28 00:19:55.
