data_PCOD8096981
_publ_section_title
;
Structure prediction by ZEFSAII (Michael W. Deem and Ramdas Pophale) SiO2 
 PCOD8096981
Probable space group: C 2/M
;
_chemical_formula_sum "Si O2"
_cell_formula_units_Z 44
_cell_length_a 8.568466
_cell_length_b 11.317713
_cell_length_c 23.995312
_cell_angle_alpha 90.000000
_cell_angle_beta 75.485978
_cell_angle_gamma 90.000000
_cell_volume 2252.694227
_symmetry_space_group_name_H-M "C 2/M"
_symmetry_group_IT_number 12
_symmetry_cell_setting 'monoclinic'
loop_
_space_group_symop_operation_xyz
x,y,z
-x,y,-z
-x,-y,-z
x,-y,z
1/2+x,1/2+y,z
1/2-x,1/2+y,-z
1/2-x,1/2-y,-z
1/2+x,1/2-y,z
loop_
_atom_site_type_symbol
_atom_site_label
_atom_site_fract_x
_atom_site_fract_y
_atom_site_fract_z
Si Si1 0.000000 0.716532 0.500000
Si Si2 0.497654 0.631160 0.157558
Si Si3 0.724277 0.133848 0.573504
Si Si4 0.850721 0.134691 0.972876
Si Si5 0.953817 0.366612 0.302589
Si Si6 0.227226 0.786852 0.229195
O O1 0.111262 0.796157 0.450560
O O2 0.110305 0.636056 0.529442
O O3 0.428410 0.500000 0.157015
O O4 0.595862 0.667554 0.094166
O O5 0.343566 0.714000 0.178026
O O6 0.614303 0.633272 0.200731
O O7 0.633460 0.188727 0.635321
O O8 0.774051 0.000000 0.581883
O O9 0.768788 0.000000 0.981298
O O10 0.750000 0.250000 0.000000
O O11 0.000000 0.127091 0.000000
O O12 0.005199 0.500000 0.310982
O O13 0.834561 0.366158 0.260346
O O14 0.117972 0.297449 0.276877
#
# Coordination Sequence:
#
# PCOD8096981 Si02
#       6
#     4   8   8   8   8   8
#     4  10  20  34  52  74 100 132 168 206 250 298
#     4  10  20  35  54  76 104 136 171 212 257 306
#     4  10  20  34  52  74 101 132 167 207 251 299
#     4  10  21  37  56  80 109 141 178 220 265 315
#     4  10  20  34  52  75 102 132 167 208 252 300
#     4  10  20  34  53  76 102 133 170 208 254 304
#
# _framework density 19.532167999999999
#
# number of rings (size 3 to 8) (size 9 to 14) (size 15 to 20)
#    0.000    2.000    0.000    3.818    0.000    0.364 
#    0.000    4.545    0.000   17.455    0.000    0.000 
#    0.000    0.000    0.000    0.000    0.000    0.000 
#
# Total GULP energy -272735.209325 kJ/mol
# GULP energy per Si atom -12397.054969 kJ/mol
# Density = 1.948771 g / cm^3
# Si number density = 19.532168 Si / 1000 Ang^3
#
#
#
# Elastic Constant Matrix: (Units=GPa)
#
#
# Indices 1 2 3 4 5 6 
#
# 1 52.3362 18.5765 7.9807 0.0000 -12.5213 0.0000
# 2 18.5765 92.6738 36.0853 0.0000 -27.6735 0.0000
# 3 7.9807 36.0853 103.2031 0.0000 -23.3393 0.0000
# 4 0.0000 0.0000 0.0000 -168.9593 0.0000 74.5604
# 5 -12.5213 -27.6735 -23.3393 0.0000 35.8872 0.0000
# 6 0.0000 0.0000 0.0000 74.5604 0.0000 -53.5113
#
#
#
# Elastic Compliance Matrix: (Units=1/GPa)
#
#
# Indices 1 2 3 4 5 6 
#
# 1 0.021376 -0.002831 0.000621 0.000000 0.005679 0.000000
# 2 -0.002831 0.015164 -0.003121 0.000000 0.008676 0.000000
# 3 0.000621 -0.003121 0.012003 0.000000 0.005616 0.000000
# 4 0.000000 0.000000 0.000000 -0.015368 0.000000 -0.021413
# 5 0.005679 0.008676 0.005616 0.000000 0.040189 0.000000
# 6 0.000000 0.000000 0.000000 -0.021413 0.000000 -0.048524
#
#
# Mechanical properties :
#
#
# Convention : Reuss Voigt Hill
#
# Bulk Modulus (GPa) = 26.39820 41.49978 33.94899
# Shear Modulus (GPa) = 103.88761 -24.94530 39.47115
#
# Velocity S-wave (km/s) = 7.30092 -3.57759 4.50024
# Velocity P-wave (km/s) = 9.19869 2.05609 6.66496
#
# Compressibility (1/GPa) = 0.03788137
#
# Stress axis : x y z
#
# Youngs Moduli (GPa) = 46.78133 65.94568 83.31241
#
# Poissons Ratio (x) = 0.18668 -0.05175
# Poissons Ratio (y) = 0.13243 0.26004
# Poissons Ratio (z) = -0.02906 0.20583
#
# Static dielectric constant tensor:
#      x y z
#    x 3.382110 0.000000 -0.070020 
#    y 0.000000 3.611810 0.000000 
#    z -0.070020 0.000000 3.744580 
# 
# 
# High freq. dielectric constant tensor:
#      x y z
#    x 1.752460 0.000000 -0.000110 
#    y 0.000000 1.759190 0.000000 
#    z -0.000110 0.000000 1.777690 
# 
# From -- ./inp_files/299282.got.cif
#   From: 2010.06.25/outbox.cif.g09.slc.cpg/sg12_150_cif.got.tgz:299282.got - 2010.06.28 00:19:55.
