data_PCOD8096131
_publ_section_title
;
Structure prediction by ZEFSAII (Michael W. Deem and Ramdas Pophale) SiO2 
 PCOD8096131
Probable space group: C 2/M
;
_chemical_formula_sum "Si O2"
_cell_formula_units_Z 64
_cell_length_a 32.709887
_cell_length_b 17.044472
_cell_length_c 12.561642
_cell_angle_alpha 90.000000
_cell_angle_beta 29.266869
_cell_angle_gamma 90.000000
_cell_volume 3423.809489
_symmetry_space_group_name_H-M "C 2/M"
_symmetry_group_IT_number 12
_symmetry_cell_setting 'monoclinic'
loop_
_space_group_symop_operation_xyz
x,y,z
-x,y,-z
-x,-y,-z
x,-y,z
1/2+x,1/2+y,z
1/2-x,1/2+y,-z
1/2-x,1/2-y,-z
1/2+x,1/2-y,z
loop_
_atom_site_type_symbol
_atom_site_label
_atom_site_fract_x
_atom_site_fract_y
_atom_site_fract_z
Si Si1 0.305466 0.406129 0.525941
Si Si2 0.802324 0.725947 0.280370
Si Si3 0.462641 0.413348 0.797531
Si Si4 0.430265 0.328244 0.080168
Si Si5 0.137982 0.137019 0.370815
Si Si6 0.904419 0.279163 0.674620
Si Si7 0.186113 0.817141 0.951069
Si Si8 0.787940 0.409458 0.879243
O O1 0.296239 0.500000 0.555492
O O2 0.214108 0.365505 0.711979
O O3 0.362997 0.381081 0.296214
O O4 0.341558 0.367110 0.550737
O O5 0.750000 0.750000 0.500000
O O6 0.896757 0.749046 0.097741
O O7 0.774864 0.781167 0.244281
O O8 0.425338 0.500000 0.882589
O O9 0.554964 0.414041 0.536257
O O10 0.470779 0.384276 0.900270
O O11 0.400561 0.362093 0.868862
O O12 0.500000 0.295913 0.000000
O O13 0.112202 0.224893 0.391718
O O14 0.215169 0.101204 0.131599
O O15 0.874948 0.367158 0.713530
O O16 0.000000 0.278510 0.500000
O O17 0.837833 0.252847 0.915079
O O18 0.255636 0.874719 0.840954
O O19 0.810144 0.500000 0.814952
#
# Coordination Sequence:
#
# PCOD8096131 Si02
#       8
#     8   8   8   8   8   8   8   8
#     4  11  20  33  54  79 111 142 180 229 272 317
#     4   9  20  36  55  80 106 146 186 215 265 327
#     4  11  20  31  52  82 115 143 176 223 279 331
#     4  10  20  33  51  79 111 144 178 220 273 330
#     4  11  21  35  54  81 110 144 182 218 274 334
#     4  11  22  39  56  79 109 146 185 221 269 326
#     4  10  20  38  55  79 112 144 180 224 271 328
#     4  11  23  37  57  81 107 141 185 230 270 314
#
# _framework density 18.692630000000001
#
# number of rings (size 3 to 8) (size 9 to 14) (size 15 to 20)
#    0.000    1.500    2.500    4.875    0.000    0.750 
#    0.000    2.500    0.000    0.375    0.000    0.000 
#    0.000    0.000    0.000    0.000    0.000    0.000 
#
# Total GULP energy -396568.712135 kJ/mol
# GULP energy per Si atom -12392.772254 kJ/mol
# Density = 1.865008 g / cm^3
# Si number density = 18.692630 Si / 1000 Ang^3
#
#
#
# Elastic Constant Matrix: (Units=GPa)
#
#
# Indices 1 2 3 4 5 6 
#
# 1 92.8869 69.9843 23.6016 0.0000 1.4615 0.0000
# 2 69.9843 140.8101 43.9362 0.0000 -18.2403 0.0000
# 3 23.6016 43.9362 52.6969 0.0000 6.0966 0.0000
# 4 0.0000 0.0000 0.0000 20.7771 0.0000 0.9950
# 5 1.4615 -18.2403 6.0966 0.0000 24.4446 0.0000
# 6 0.0000 0.0000 0.0000 0.9950 0.0000 11.7454
#
#
#
# Elastic Compliance Matrix: (Units=1/GPa)
#
#
# Indices 1 2 3 4 5 6 
#
# 1 0.019000 -0.011471 0.002240 0.000000 -0.010254 0.000000
# 2 -0.011471 0.019231 -0.013011 0.000000 0.018281 0.000000
# 3 0.002240 -0.013011 0.030850 0.000000 -0.017537 0.000000
# 4 0.000000 0.000000 0.000000 0.048326 0.000000 -0.004094
# 5 -0.010254 0.018281 -0.017537 0.000000 0.059537 0.000000
# 6 0.000000 0.000000 0.000000 -0.004094 0.000000 0.085487
#
#
# Mechanical properties :
#
#
# Convention : Reuss Voigt Hill
#
# Bulk Modulus (GPa) = 40.65384 62.38200 51.51792
# Shear Modulus (GPa) = 15.86734 21.31818 18.59276
#
# Velocity S-wave (km/s) = 2.91667 3.38073 3.15724
# Velocity P-wave (km/s) = 5.75660 6.97740 6.39619
#
# Compressibility (1/GPa) = 0.02459793
#
# Stress axis : x y z
#
# Youngs Moduli (GPa) = 52.63068 52.00034 32.41495
#
# Poissons Ratio (x) = 0.59648 -0.07262
# Poissons Ratio (y) = 0.60371 0.42175
# Poissons Ratio (z) = -0.11791 0.67658
#
# Static dielectric constant tensor:
#      x y z
#    x 3.759580 0.000000 -0.054280 
#    y 0.000000 3.490090 0.000000 
#    z -0.054280 0.000000 3.532030 
# 
# 
# High freq. dielectric constant tensor:
#      x y z
#    x 1.742950 0.000000 0.006710 
#    y 0.000000 1.711070 0.000000 
#    z 0.006710 0.000000 1.712920 
# 
# From -- ./inp_files/190006.got.cif
#   From: 2010.06.25/outbox.cif.g09.slc.cpg/sg12_96_cif.got.tgz:190006.got - 2010.06.28 00:19:55.
