data_PCOD8096591
_publ_section_title
;
Structure prediction by ZEFSAII (Michael W. Deem and Ramdas Pophale) SiO2 
 PCOD8096591
Probable space group: C 2/M
;
_chemical_formula_sum "Si O2"
_cell_formula_units_Z 56
_cell_length_a 9.480658
_cell_length_b 24.994502
_cell_length_c 19.864958
_cell_angle_alpha 90.000000
_cell_angle_beta 144.149897
_cell_angle_gamma 90.000000
_cell_volume 2756.900856
_symmetry_space_group_name_H-M "C 2/M"
_symmetry_group_IT_number 12
_symmetry_cell_setting 'monoclinic'
loop_
_space_group_symop_operation_xyz
x,y,z
-x,y,-z
-x,-y,-z
x,-y,z
1/2+x,1/2+y,z
1/2-x,1/2+y,-z
1/2-x,1/2-y,-z
1/2+x,1/2-y,z
loop_
_atom_site_type_symbol
_atom_site_label
_atom_site_fract_x
_atom_site_fract_y
_atom_site_fract_z
Si Si1 0.400624 0.000000 0.535088
Si Si2 0.606335 0.500000 0.615106
Si Si3 0.638863 0.902343 0.701719
Si Si4 0.234214 0.201532 0.751405
Si Si5 0.418415 0.439820 0.042970
Si Si6 0.150538 0.344371 0.994189
Si Si7 0.908676 0.805722 0.754948
Si Si8 0.226126 0.886620 0.637231
O O1 0.500000 0.000000 0.500000
O O2 0.478172 0.946217 0.602637
O O3 0.112447 0.000000 0.416561
O O4 0.500000 0.500000 0.500000
O O5 0.762984 0.446052 0.683955
O O6 0.860635 0.932604 0.821080
O O7 0.738349 0.858157 0.687645
O O8 0.471835 0.872530 0.692534
O O9 0.494879 0.194095 0.886431
O O10 0.242349 0.255863 0.711588
O O11 0.176350 0.153597 0.678605
O O12 0.024414 0.203870 0.726415
O O13 0.318329 0.500000 0.010995
O O14 0.500000 0.426553 0.000000
O O15 0.204898 0.398990 0.976173
O O16 0.390152 0.313075 0.109217
O O17 0.000000 0.362805 0.000000
O O18 0.000000 0.884323 0.500000
#
# Coordination Sequence:
#
# PCOD8096591 Si02
#       8
#     4   4   8   8   8   8   8   8
#     4  12  24  38  65  88 121 159 203 245 299 346
#     4  10  20  42  62  88 114 158 205 248 288 347
#     4  11  21  40  60  87 120 159 196 252 293 349
#     4  11  22  41  61  90 118 159 197 247 299 351
#     4  10  20  33  55  86 119 155 196 236 293 354
#     4   9  20  39  59  85 118 154 195 243 289 357
#     4  10  23  39  64  89 120 152 202 241 303 357
#     4  11  22  39  64  87 121 155 203 246 293 347
#
# _framework density 20.312664999999999
#
# number of rings (size 3 to 8) (size 9 to 14) (size 15 to 20)
#    0.000    1.571    3.571    2.143    2.000    1.429 
#    1.286    4.286    0.000    0.000    0.000    0.000 
#    0.000    0.000    0.000    0.000    0.000    0.000 
#
# Total GULP energy -347254.705392 kJ/mol
# GULP energy per Si atom -12401.953764 kJ/mol
# Density = 2.026643 g / cm^3
# Si number density = 20.312665 Si / 1000 Ang^3
#
#
#
# Elastic Constant Matrix: (Units=GPa)
#
#
# Indices 1 2 3 4 5 6 
#
# 1 132.7062 65.1881 14.7507 -0.0019 -2.2015 0.0033
# 2 65.1881 137.6729 20.5057 -0.0026 -8.2644 0.0038
# 3 14.7507 20.5057 26.1209 -0.0019 -2.9644 -0.0010
# 4 -0.0019 -0.0026 -0.0019 25.0549 -0.0007 -7.8685
# 5 -2.2015 -8.2644 -2.9644 -0.0007 31.3649 -0.0001
# 6 0.0033 0.0038 -0.0010 -7.8685 -0.0001 52.0776
#
#
#
# Elastic Compliance Matrix: (Units=1/GPa)
#
#
# Indices 1 2 3 4 5 6 
#
# 1 0.009941 -0.004416 -0.002223 0.000000 -0.000676 0.000000
# 2 -0.004416 0.010265 -0.005350 0.000000 0.001889 -0.000001
# 3 -0.002223 -0.005350 0.044034 0.000003 0.002596 0.000002
# 4 0.000000 0.000000 0.000003 0.041900 0.000001 0.006331
# 5 -0.000676 0.001889 0.002596 0.000001 0.032578 0.000000
# 6 0.000000 -0.000001 0.000002 0.006331 0.000000 0.020159
#
#
# Mechanical properties :
#
#
# Convention : Reuss Voigt Hill
#
# Bulk Modulus (GPa) = 24.83862 55.26543 40.05202
# Shear Modulus (GPa) = 25.47429 34.76987 30.12208
#
# Velocity S-wave (km/s) = 3.54518 4.14180 3.85505
# Velocity P-wave (km/s) = 5.38632 7.08090 6.29093
#
# Compressibility (1/GPa) = 0.04025989
#
# Stress axis : x y z
#
# Youngs Moduli (GPa) = 100.59572 97.41833 22.70994
#
# Poissons Ratio (x) = 0.43024 0.05049
# Poissons Ratio (y) = 0.44427 0.12150
# Poissons Ratio (z) = 0.22366 0.52119
#
# Static dielectric constant tensor:
#      x y z
#    x 3.800100 -0.000040 -0.128330 
#    y -0.000040 4.012550 -0.000090 
#    z -0.128330 -0.000090 3.054800 
# 
# 
# High freq. dielectric constant tensor:
#      x y z
#    x 1.803640 0.000000 0.003870 
#    y 0.000000 1.801140 0.000000 
#    z 0.003870 0.000000 1.773460 
# 
# From -- ./inp_files/259892.got.cif
#   From: 2010.06.25/outbox.cif.g09.slc.cpg/sg12_130_cif.got.tgz:259892.got - 2010.06.28 00:19:55.
