data_PCOD8096379
_publ_section_title
;
Structure prediction by ZEFSAII (Michael W. Deem and Ramdas Pophale) SiO2 
 PCOD8096379
Probable space group: C 2/M
;
_chemical_formula_sum "Si O2"
_cell_formula_units_Z 56
_cell_length_a 22.855253
_cell_length_b 8.864517
_cell_length_c 29.935706
_cell_angle_alpha 90.000000
_cell_angle_beta 151.255381
_cell_angle_gamma 90.000000
_cell_volume 2916.696210
_symmetry_space_group_name_H-M "C 2/M"
_symmetry_group_IT_number 12
_symmetry_cell_setting 'monoclinic'
loop_
_space_group_symop_operation_xyz
x,y,z
-x,y,-z
-x,-y,-z
x,-y,z
1/2+x,1/2+y,z
1/2-x,1/2+y,-z
1/2-x,1/2-y,-z
1/2+x,1/2-y,z
loop_
_atom_site_type_symbol
_atom_site_label
_atom_site_fract_x
_atom_site_fract_y
_atom_site_fract_z
Si Si1 0.717326 0.320408 0.853443
Si Si2 0.738370 0.321119 0.382762
Si Si3 0.160239 0.678804 0.975500
Si Si4 0.456488 0.677806 0.573658
Si Si5 0.269023 0.678665 0.235574
Si Si6 0.383541 0.820990 0.783588
Si Si7 0.946476 0.821506 0.667373
O O1 0.716426 0.500000 0.851909
O O2 0.763472 0.259426 0.835948
O O3 0.580218 0.260372 0.770249
O O4 0.803885 0.261717 0.951031
O O5 0.735120 0.500000 0.378883
O O6 0.874965 0.265207 0.483146
O O7 0.694321 0.257329 0.306508
O O8 0.651640 0.254332 0.363849
O O9 0.172669 0.500000 0.981127
O O10 0.023190 0.731893 0.873855
O O11 0.250000 0.750000 0.000000
O O12 0.441224 0.500000 0.556023
O O13 0.595619 0.730058 0.659329
O O14 0.414316 0.726589 0.595275
O O15 0.268054 0.500000 0.232737
O O16 0.170172 0.736468 0.204978
O O17 0.371376 0.000000 0.770783
O O18 0.947133 0.000000 0.671176
#
# Coordination Sequence:
#
# PCOD8096379 Si02
#       7
#     8   8   8   8   8   8   8
#     4   8  14  28  51  76  98 125 161 204 247 288
#     4  11  21  32  48  72 102 136 166 201 249 297
#     4  10  20  33  53  79 106 132 161 198 243 294
#     4   9  17  32  53  73  94 126 166 210 251 292
#     4   8  16  32  53  74  97 126 166 210 250 287
#     4  10  21  35  50  73 101 131 168 207 242 287
#     4   8  15  28  48  73  99 126 160 199 246 298
#
# _framework density 19.199804
#
# number of rings (size 3 to 8) (size 9 to 14) (size 15 to 20)
#    0.000    2.857    0.000    3.429    0.000    2.857 
#    0.000    7.143    0.000    4.286    0.000    2.000 
#    0.000    0.000    0.000    0.000    0.000    0.000 
#
# Total GULP energy -347088.363330 kJ/mol
# GULP energy per Si atom -12396.012976 kJ/mol
# Density = 1.915610 g / cm^3
# Si number density = 19.199804 Si / 1000 Ang^3
#
#
#
# Elastic Constant Matrix: (Units=GPa)
#
#
# Indices 1 2 3 4 5 6 
#
# 1 142.3112 26.0904 73.5759 0.0001 0.7644 -0.0001
# 2 26.0904 23.0697 25.3057 0.0000 -3.7383 -0.0022
# 3 73.5759 25.3057 128.4442 -0.0018 -20.6512 -0.0001
# 4 0.0001 0.0000 -0.0018 14.1521 -0.0001 1.8240
# 5 0.7644 -3.7383 -20.6512 -0.0001 32.6331 0.0001
# 6 -0.0001 -0.0022 -0.0001 1.8240 0.0001 21.4526
#
#
#
# Elastic Compliance Matrix: (Units=1/GPa)
#
#
# Indices 1 2 3 4 5 6 
#
# 1 0.011429 -0.007239 -0.005897 -0.000001 -0.004829 -0.000001
# 2 -0.007239 0.059895 -0.007262 -0.000002 0.002435 0.000006
# 3 -0.005897 -0.007262 0.013896 0.000002 0.008100 -0.000001
# 4 -0.000001 -0.000002 0.000002 0.071444 0.000001 -0.006074
# 5 -0.004829 0.002435 0.008100 0.000001 0.036162 0.000000
# 6 -0.000001 0.000006 -0.000001 -0.006074 0.000000 0.047131
#
#
# Mechanical properties :
#
#
# Convention : Reuss Voigt Hill
#
# Bulk Modulus (GPa) = 22.51044 60.41878 41.46461
# Shear Modulus (GPa) = 16.91705 24.90441 20.91073
#
# Velocity S-wave (km/s) = 2.97156 3.60546 3.30375
# Velocity P-wave (km/s) = 4.85009 6.99065 6.01633
#
# Compressibility (1/GPa) = 0.04442384
#
# Stress axis : x y z
#
# Youngs Moduli (GPa) = 87.49975 16.69601 71.96173
#
# Poissons Ratio (x) = 0.12087 0.42433
# Poissons Ratio (y) = 0.63344 0.52257
# Poissons Ratio (z) = 0.51596 0.12124
#
# Static dielectric constant tensor:
#      x y z
#    x 3.902240 0.000000 -0.000550 
#    y 0.000000 2.982710 0.000000 
#    z -0.000550 0.000000 3.677330 
# 
# 
# High freq. dielectric constant tensor:
#      x y z
#    x 1.753870 0.000000 -0.004070 
#    y 0.000000 1.693480 0.000000 
#    z -0.004070 0.000000 1.754890 
# 
# From -- ./inp_files/380795.got.cif
#   From: 2010.06.25/outbox.cif.g09.slc.cpg/sg12_191_cif.got.tgz:380795.got - 2010.06.28 00:19:55.
