data_PCOD8096834
_publ_section_title
;
Structure prediction by ZEFSAII (Michael W. Deem and Ramdas Pophale) SiO2 
 PCOD8096834
Probable space group: C 2/M
;
_chemical_formula_sum "Si O2"
_cell_formula_units_Z 48
_cell_length_a 14.051725
_cell_length_b 9.169030
_cell_length_c 22.137312
_cell_angle_alpha 90.000000
_cell_angle_beta 70.208345
_cell_angle_gamma 90.000000
_cell_volume 2683.708125
_symmetry_space_group_name_H-M "C 2/M"
_symmetry_group_IT_number 12
_symmetry_cell_setting 'monoclinic'
loop_
_space_group_symop_operation_xyz
x,y,z
-x,y,-z
-x,-y,-z
x,-y,z
1/2+x,1/2+y,z
1/2-x,1/2+y,-z
1/2-x,1/2-y,-z
1/2+x,1/2-y,z
loop_
_atom_site_type_symbol
_atom_site_label
_atom_site_fract_x
_atom_site_fract_y
_atom_site_fract_z
Si Si1 0.868426 0.670662 0.768730
Si Si2 0.222262 0.170171 0.320063
Si Si3 0.984361 0.830145 0.570783
Si Si4 0.798571 0.169164 0.899954
Si Si5 0.386214 0.668235 0.011451
Si Si6 0.575067 0.830745 0.658474
O O1 0.846270 0.500000 0.779406
O O2 0.788538 0.739033 0.739124
O O3 0.857742 0.746350 0.835366
O O4 0.981751 0.703697 0.722476
O O5 0.130016 0.204134 0.384875
O O6 0.323829 0.224678 0.330617
O O7 0.227617 0.000000 0.301948
O O8 0.000000 0.768856 0.500000
O O9 0.063761 0.752216 0.597704
O O10 0.009338 0.000000 0.568183
O O11 0.863616 0.194361 0.946103
O O12 0.788911 0.000000 0.885139
O O13 0.686357 0.233885 0.931629
O O14 0.369287 0.500000 0.033113
O O15 0.500000 0.718855 0.000000
O O16 0.582500 0.000000 0.641184
#
# Coordination Sequence:
#
# PCOD8096834 Si02
#       6
#     8   8   8   8   8   8
#     4  10  20  34  51  72  99 129 165 206 247 293
#     4   9  18  34  52  71  99 131 165 205 249 297
#     4   9  18  32  50  73 101 132 165 203 248 298
#     4  10  20  34  53  76 102 132 165 202 247 294
#     4   9  19  36  55  76 103 133 166 204 244 289
#     4   9  19  34  51  72  98 130 166 206 249 293
#
# _framework density 17.885701000000001
#
# number of rings (size 3 to 8) (size 9 to 14) (size 15 to 20)
#    0.000    2.667    0.000    1.000    0.000    4.667 
#    0.000    3.333    0.000    0.000    0.000    0.000 
#    0.000    0.000    0.000    0.000    0.000    0.000 
#
# Total GULP energy -297690.305805 kJ/mol
# GULP energy per Si atom -12403.762742 kJ/mol
# Density = 1.784499 g / cm^3
# Si number density = 17.885701 Si / 1000 Ang^3
#
#
#
# Elastic Constant Matrix: (Units=GPa)
#
#
# Indices 1 2 3 4 5 6 
#
# 1 129.0658 39.3913 33.7652 0.0000 7.8234 0.0000
# 2 39.3913 70.9220 46.8748 0.0000 3.6246 0.0000
# 3 33.7652 46.8748 100.3990 0.0000 5.4512 0.0000
# 4 0.0000 0.0000 0.0000 32.9486 0.0000 3.9563
# 5 7.8234 3.6246 5.4512 0.0000 14.0544 0.0000
# 6 0.0000 0.0000 0.0000 3.9563 0.0000 27.8656
#
#
#
# Elastic Compliance Matrix: (Units=1/GPa)
#
#
# Indices 1 2 3 4 5 6 
#
# 1 0.009602 -0.004542 -0.000901 0.000000 -0.003824 0.000000
# 2 -0.004542 0.022577 -0.009024 0.000000 0.000206 0.000000
# 3 -0.000901 -0.009024 0.014631 0.000000 -0.002846 0.000000
# 4 0.000000 0.000000 0.000000 0.030877 0.000000 -0.004384
# 5 -0.003824 0.000206 -0.002846 0.000000 0.074331 0.000000
# 6 0.000000 0.000000 0.000000 -0.004384 0.000000 0.036509
#
#
# Mechanical properties :
#
#
# Convention : Reuss Voigt Hill
#
# Bulk Modulus (GPa) = 55.94460 60.04995 57.99727
# Shear Modulus (GPa) = 22.37941 26.99742 24.68842
#
# Velocity S-wave (km/s) = 3.54113 3.88937 3.71933
# Velocity P-wave (km/s) = 6.93299 7.33599 7.13733
#
# Compressibility (1/GPa) = 0.01787483
#
# Stress axis : x y z
#
# Youngs Moduli (GPa) = 104.14791 44.29336 68.34749
#
# Poissons Ratio (x) = 0.20118 0.06157
# Poissons Ratio (y) = 0.47305 0.61679
# Poissons Ratio (z) = 0.09383 0.39972
#
# Static dielectric constant tensor:
#      x y z
#    x 3.353570 0.000000 0.033980 
#    y 0.000000 3.318370 0.000000 
#    z 0.033980 0.000000 3.307600 
# 
# 
# High freq. dielectric constant tensor:
#      x y z
#    x 1.692480 0.000000 0.002520 
#    y 0.000000 1.693420 0.000000 
#    z 0.002520 0.000000 1.693090 
# 
# From -- ./inp_files/308262.got.cif
#   From: 2010.06.25/outbox.cif.g09.slc.cpg/sg12_155_cif.got.tgz:308262.got - 2010.06.28 00:19:55.
