data_PCOD8096817
_publ_section_title
;
Structure prediction by ZEFSAII (Michael W. Deem and Ramdas Pophale) SiO2 
 PCOD8096817
Probable space group: C 2/M
;
_chemical_formula_sum "Si O2"
_cell_formula_units_Z 48
_cell_length_a 26.884506
_cell_length_b 13.107765
_cell_length_c 26.903293
_cell_angle_alpha 90.000000
_cell_angle_beta 16.742356
_cell_angle_gamma 90.000000
_cell_volume 2731.064392
_symmetry_space_group_name_H-M "C 2/M"
_symmetry_group_IT_number 12
_symmetry_cell_setting 'monoclinic'
loop_
_space_group_symop_operation_xyz
x,y,z
-x,y,-z
-x,-y,-z
x,-y,z
1/2+x,1/2+y,z
1/2-x,1/2+y,-z
1/2-x,1/2-y,-z
1/2+x,1/2-y,z
loop_
_atom_site_type_symbol
_atom_site_label
_atom_site_fract_x
_atom_site_fract_y
_atom_site_fract_z
Si Si1 0.253257 0.279174 0.553679
Si Si2 0.249473 0.612962 0.366741
Si Si3 0.151064 0.387072 0.253988
Si Si4 0.416512 0.117671 0.861641
Si Si5 0.815788 0.120057 0.195098
Si Si6 0.862020 0.757495 0.818234
O O1 0.250000 0.250000 0.500000
O O2 0.181273 0.185220 0.655801
O O3 0.452913 0.307639 0.376108
O O4 0.111250 0.368544 0.697396
O O5 0.335764 0.500000 0.288988
O O6 0.282660 0.666906 0.281372
O O7 0.047563 0.600478 0.567573
O O8 0.240532 0.500000 0.163016
O O9 0.179060 0.346044 0.283610
O O10 0.226417 0.306523 0.142151
O O11 0.395696 0.180101 0.830964
O O12 0.384601 0.000000 0.880454
O O13 0.271784 0.154053 0.039476
O O14 0.803167 0.000000 0.215166
O O15 0.000000 0.157630 0.000000
#
# Coordination Sequence:
#
# PCOD8096817 Si02
#       6
#     8   8   8   8   8   8
#     4   9  19  33  49  72  99 129 168 204 238 288
#     4   9  17  30  47  69 100 134 164 196 243 296
#     4   9  16  28  47  68  98 134 161 195 241 291
#     4  10  20  34  51  71  99 130 164 207 249 288
#     4   9  17  26  40  69 102 130 161 195 238 297
#     4   9  19  34  50  74  99 128 169 202 240 298
#
# _framework density 17.575565999999998
#
# number of rings (size 3 to 8) (size 9 to 14) (size 15 to 20)
#    0.000    2.833    0.000    1.000    2.333    6.667 
#    0.000    6.667    0.000    0.000    0.000    2.333 
#    0.000    5.333    0.000    0.000    0.000    0.000 
#
# Total GULP energy -297355.233839 kJ/mol
# GULP energy per Si atom -12389.801410 kJ/mol
# Density = 1.753556 g / cm^3
# Si number density = 17.575566 Si / 1000 Ang^3
#
#
#
# Elastic Constant Matrix: (Units=GPa)
#
#
# Indices 1 2 3 4 5 6 
#
# 1 93.2207 23.8559 12.9098 -0.0015 13.2535 -0.0101
# 2 23.8559 59.5931 30.1412 -0.0245 1.1013 -0.0007
# 3 12.9098 30.1412 74.0757 -0.0898 6.6608 0.0150
# 4 -0.0015 -0.0245 -0.0898 21.1849 0.0378 2.4539
# 5 13.2535 1.1013 6.6608 0.0378 21.9625 0.0002
# 6 -0.0101 -0.0007 0.0150 2.4539 0.0002 26.1264
#
#
#
# Elastic Compliance Matrix: (Units=1/GPa)
#
#
# Indices 1 2 3 4 5 6 
#
# 1 0.013148 -0.005435 0.000626 0.000011 -0.007851 0.000004
# 2 -0.005435 0.023430 -0.009022 -0.000021 0.004841 0.000006
# 3 0.000626 -0.009022 0.017533 0.000075 -0.005243 -0.000017
# 4 0.000011 -0.000021 0.000075 0.047723 -0.000110 -0.004482
# 5 -0.007851 0.004841 -0.005243 -0.000110 0.051618 0.000010
# 6 0.000004 0.000006 -0.000017 -0.004482 0.000010 0.038696
#
#
# Mechanical properties :
#
#
# Convention : Reuss Voigt Hill
#
# Bulk Modulus (GPa) = 37.80769 40.07812 38.94291
# Shear Modulus (GPa) = 21.86994 24.52027 23.19510
#
# Velocity S-wave (km/s) = 3.53134 3.73920 3.63676
# Velocity P-wave (km/s) = 6.17943 6.44166 6.31191
#
# Compressibility (1/GPa) = 0.02644964
#
# Stress axis : x y z
#
# Youngs Moduli (GPa) = 76.05962 42.68120 57.03540
#
# Poissons Ratio (x) = 0.23196 -0.03571
# Poissons Ratio (y) = 0.41336 0.51455
# Poissons Ratio (z) = -0.04761 0.38505
#
# Static dielectric constant tensor:
#      x y z
#    x 3.407090 -0.000120 0.024680 
#    y -0.000120 3.081840 0.000350 
#    z 0.024680 0.000350 3.556430 
# 
# 
# High freq. dielectric constant tensor:
#      x y z
#    x 1.679310 0.000000 0.004180 
#    y 0.000000 1.620320 0.000010 
#    z 0.004180 0.000010 1.689240 
# 
# From -- ./inp_files/94307.got.cif
#   From: 2010.06.25/outbox.cif.g09.slc.cpg/sg12_48_cif.got.tgz:94307.got - 2010.06.28 00:19:55.
