data_PCOD8096960
_publ_section_title
;
Structure prediction by ZEFSAII (Michael W. Deem and Ramdas Pophale) SiO2 
 PCOD8096960
Probable space group: C 2/M
;
_chemical_formula_sum "Si O2"
_cell_formula_units_Z 40
_cell_length_a 14.609182
_cell_length_b 9.319611
_cell_length_c 27.278731
_cell_angle_alpha 90.000000
_cell_angle_beta 143.291778
_cell_angle_gamma 90.000000
_cell_volume 2220.037497
_symmetry_space_group_name_H-M "C 2/M"
_symmetry_group_IT_number 12
_symmetry_cell_setting 'monoclinic'
loop_
_space_group_symop_operation_xyz
x,y,z
-x,y,-z
-x,-y,-z
x,-y,z
1/2+x,1/2+y,z
1/2-x,1/2+y,-z
1/2-x,1/2-y,-z
1/2+x,1/2-y,z
loop_
_atom_site_type_symbol
_atom_site_label
_atom_site_fract_x
_atom_site_fract_y
_atom_site_fract_z
Si Si1 0.124046 0.833372 0.512197
Si Si2 0.201388 0.331893 0.906018
Si Si3 0.817841 0.665610 0.212188
Si Si4 0.469969 0.663152 0.089968
Si Si5 0.425591 0.667527 0.621961
O O1 0.278325 0.741185 0.583982
O O2 0.060434 0.805584 0.430299
O O3 0.000000 0.784203 0.500000
O O4 0.165772 0.000000 0.537975
O O5 0.176087 0.500000 0.896000
O O6 0.179827 0.274935 0.841962
O O7 0.068768 0.261198 0.880755
O O8 0.369496 0.291155 0.999276
O O9 0.870843 0.500000 0.238781
O O10 0.646355 0.684740 0.156255
O O11 0.923284 0.764595 0.290555
O O12 0.430001 0.500000 0.086450
O O13 0.416906 0.500000 0.630479
#
# Coordination Sequence:
#
# PCOD8096960 Si02
#       5
#     8   8   8   8   8
#     4   9  19  38  60  77  99 134 168 200 248 307
#     4   9  18  33  52  73  99 135 176 213 252 299
#     4  10  20  34  52  73 103 140 171 204 251 305
#     4   9  18  33  52  74 100 133 175 217 253 293
#     4  10  21  35  53  80 107 129 164 211 251 296
#
# _framework density 18.017714000000002
#
# number of rings (size 3 to 8) (size 9 to 14) (size 15 to 20)
#    0.000    2.600    0.000    1.200    0.000    6.800 
#    0.000    6.000    0.000    6.000    0.000    0.000 
#    0.000    0.000    0.000    0.000    0.000    0.000 
#
# Total GULP energy -247985.086532 kJ/mol
# GULP energy per Si atom -12399.254327 kJ/mol
# Density = 1.797670 g / cm^3
# Si number density = 18.017714 Si / 1000 Ang^3
#
#
#
# Elastic Constant Matrix: (Units=GPa)
#
#
# Indices 1 2 3 4 5 6 
#
# 1 101.6169 32.6671 34.0430 0.0000 -8.3215 0.0000
# 2 32.6671 49.5453 39.3276 0.0000 -4.3833 0.0000
# 3 34.0430 39.3276 93.7222 0.0000 -3.0970 0.0000
# 4 0.0000 0.0000 0.0000 34.0149 0.0000 1.8288
# 5 -8.3215 -4.3833 -3.0970 0.0000 22.1319 0.0000
# 6 0.0000 0.0000 0.0000 1.8288 0.0000 30.5472
#
#
#
# Elastic Compliance Matrix: (Units=1/GPa)
#
#
# Indices 1 2 3 4 5 6 
#
# 1 0.012879 -0.006862 -0.001692 0.000000 0.003247 0.000000
# 2 -0.006862 0.034320 -0.011824 0.000000 0.002563 0.000000
# 3 -0.001692 -0.011824 0.016223 0.000000 -0.000708 0.000000
# 4 0.000000 0.000000 0.000000 0.029494 0.000000 -0.001766
# 5 0.003247 0.002563 -0.000708 0.000000 0.046813 0.000000
# 6 0.000000 0.000000 0.000000 -0.001766 0.000000 0.032842
#
#
# Mechanical properties :
#
#
# Convention : Reuss Voigt Hill
#
# Bulk Modulus (GPa) = 44.11739 50.77330 47.44535
# Shear Modulus (GPa) = 22.63648 26.59524 24.61586
#
# Velocity S-wave (km/s) = 3.54834 3.84612 3.70023
# Velocity P-wave (km/s) = 6.42856 6.92563 6.68172
#
# Compressibility (1/GPa) = 0.02266680
#
# Stress axis : x y z
#
# Youngs Moduli (GPa) = 77.64342 29.13713 61.64244
#
# Poissons Ratio (x) = 0.19994 0.10427
# Poissons Ratio (y) = 0.53278 0.72888
# Poissons Ratio (z) = 0.13134 0.34453
#
# Static dielectric constant tensor:
#      x y z
#    x 3.422650 0.000000 -0.092170 
#    y 0.000000 3.335700 0.000000 
#    z -0.092170 0.000000 3.312800 
# 
# 
# High freq. dielectric constant tensor:
#      x y z
#    x 1.700600 0.000000 -0.001040 
#    y 0.000000 1.694540 0.000000 
#    z -0.001040 0.000000 1.698910 
# 
# From -- ./inp_files/211203.got.cif
#   From: 2010.06.25/outbox.cif.g09.slc.cpg/sg12_106_cif.got.tgz:211203.got - 2010.06.28 00:19:55.
