data_PCOD8096892
_publ_section_title
;
Structure prediction by ZEFSAII (Michael W. Deem and Ramdas Pophale) SiO2 
 PCOD8096892
Probable space group: C 2/M
;
_chemical_formula_sum "Si O2"
_cell_formula_units_Z 56
_cell_length_a 19.597216
_cell_length_b 9.372146
_cell_length_c 16.902604
_cell_angle_alpha 90.000000
_cell_angle_beta 95.598787
_cell_angle_gamma 90.000000
_cell_volume 3089.656991
_symmetry_space_group_name_H-M "C 2/M"
_symmetry_group_IT_number 12
_symmetry_cell_setting 'monoclinic'
loop_
_space_group_symop_operation_xyz
x,y,z
-x,y,-z
-x,-y,-z
x,-y,z
1/2+x,1/2+y,z
1/2-x,1/2+y,-z
1/2-x,1/2-y,-z
1/2+x,1/2-y,z
loop_
_atom_site_type_symbol
_atom_site_label
_atom_site_fract_x
_atom_site_fract_y
_atom_site_fract_z
Si Si1 0.136283 0.167440 0.296209
Si Si2 0.681372 0.165111 0.008392
Si Si3 0.220677 0.338220 0.182415
Si Si4 0.681885 0.666107 0.476075
Si Si5 0.556452 0.668934 0.565281
Si Si6 0.017632 0.169397 0.731073
Si Si7 0.630387 0.332024 0.867458
O O1 0.194131 0.240118 0.249634
O O2 0.148413 0.208649 0.388682
O O3 0.060261 0.222044 0.263391
O O4 0.142850 0.000000 0.283178
O O5 0.668949 0.176370 0.101347
O O6 0.688717 0.000000 0.983624
O O7 0.750000 0.250000 0.000000
O O8 0.623332 0.243295 0.948964
O O9 0.221230 0.500000 0.213569
O O10 0.298269 0.293568 0.168254
O O11 0.699069 0.500000 0.479581
O O12 0.750000 0.750000 0.500000
O O13 0.630924 0.709554 0.540982
O O14 0.500000 0.735380 0.500000
O O15 0.546304 0.500000 0.566907
O O16 0.546446 0.733328 0.651842
O O17 0.066913 0.220909 0.807115
O O18 0.019056 0.000000 0.725955
O O19 0.627273 0.500000 0.886419
#
# Coordination Sequence:
#
# PCOD8096892 Si02
#       7
#     8   8   8   8   8   8   8
#     4  10  20  34  51  75 104 133 168 211 254 295
#     4   9  17  32  53  76 102 132 169 208 249 299
#     4   9  19  33  51  76 103 133 165 200 251 309
#     4  10  21  34  52  77 103 133 169 210 255 301
#     4   9  15  29  53  75  96 130 174 212 246 288
#     4   9  17  31  51  75 101 130 171 215 248 291
#     4   9  18  32  53  79 102 128 169 213 251 297
#
# _framework density 18.124988999999999
#
# number of rings (size 3 to 8) (size 9 to 14) (size 15 to 20)
#    0.000    2.714    1.429    1.286    2.000    3.429 
#    0.000    1.429    0.000    5.571    0.000    0.000 
#    0.000    0.000    0.000    0.000    0.000    0.000 
#
# Total GULP energy -347065.024763 kJ/mol
# GULP energy per Si atom -12395.179456 kJ/mol
# Density = 1.808374 g / cm^3
# Si number density = 18.124989 Si / 1000 Ang^3
#
#
#
# Elastic Constant Matrix: (Units=GPa)
#
#
# Indices 1 2 3 4 5 6 
#
# 1 88.6299 23.5382 22.8690 0.0000 19.8441 0.0000
# 2 23.5382 44.7050 26.6715 0.0000 4.1426 0.0000
# 3 22.8690 26.6715 47.3114 0.0000 12.7174 0.0000
# 4 0.0000 0.0000 0.0000 28.2015 0.0000 -0.6108
# 5 19.8441 4.1426 12.7174 0.0000 33.1189 0.0000
# 6 0.0000 0.0000 0.0000 -0.6108 0.0000 21.1943
#
#
#
# Elastic Compliance Matrix: (Units=1/GPa)
#
#
# Indices 1 2 3 4 5 6 
#
# 1 0.015078 -0.006184 -0.001764 0.000000 -0.007584 0.000000
# 2 -0.006184 0.036596 -0.019410 0.000000 0.006581 0.000000
# 3 -0.001764 -0.019410 0.035677 0.000000 -0.010215 0.000000
# 4 0.000000 0.000000 0.000000 0.035481 0.000000 0.001023
# 5 -0.007584 0.006581 -0.010215 0.000000 0.037838 0.000000
# 6 0.000000 0.000000 0.000000 0.001023 0.000000 0.047212
#
#
# Mechanical properties :
#
#
# Convention : Reuss Voigt Hill
#
# Bulk Modulus (GPa) = 30.64190 36.31152 33.47671
# Shear Modulus (GPa) = 18.28309 23.67412 20.97861
#
# Velocity S-wave (km/s) = 3.17949 3.61800 3.40581
# Velocity P-wave (km/s) = 5.51556 6.12623 5.82890
#
# Compressibility (1/GPa) = 0.03263506
#
# Stress axis : x y z
#
# Youngs Moduli (GPa) = 66.32040 27.32570 28.02894
#
# Poissons Ratio (x) = 0.16899 0.04943
# Poissons Ratio (y) = 0.41013 0.54405
# Poissons Ratio (z) = 0.11696 0.53040
#
# Static dielectric constant tensor:
#      x y z
#    x 3.277720 0.000000 0.261190 
#    y 0.000000 3.079650 0.000000 
#    z 0.261190 0.000000 3.838000 
# 
# 
# High freq. dielectric constant tensor:
#      x y z
#    x 1.691330 0.000000 0.010890 
#    y 0.000000 1.666630 0.000000 
#    z 0.010890 0.000000 1.711610 
# 
# From -- ./inp_files/230932.got.cif
#   From: 2010.06.25/outbox.cif.g09.slc.cpg/sg12_116_cif.got.tgz:230932.got - 2010.06.28 00:19:55.
