data_PCOD8096341
_publ_section_title
;
Structure prediction by ZEFSAII (Michael W. Deem and Ramdas Pophale) SiO2 
 PCOD8096341
Probable space group: C 2/M
;
_chemical_formula_sum "Si O2"
_cell_formula_units_Z 56
_cell_length_a 25.268122
_cell_length_b 8.901128
_cell_length_c 14.880580
_cell_angle_alpha 90.000000
_cell_angle_beta 74.670941
_cell_angle_gamma 90.000000
_cell_volume 3227.792727
_symmetry_space_group_name_H-M "C 2/M"
_symmetry_group_IT_number 12
_symmetry_cell_setting 'monoclinic'
loop_
_space_group_symop_operation_xyz
x,y,z
-x,y,-z
-x,-y,-z
x,-y,z
1/2+x,1/2+y,z
1/2-x,1/2+y,-z
1/2-x,1/2-y,-z
1/2+x,1/2-y,z
loop_
_atom_site_type_symbol
_atom_site_label
_atom_site_fract_x
_atom_site_fract_y
_atom_site_fract_z
Si Si1 0.716101 0.174701 0.890552
Si Si2 0.822204 0.675626 0.613016
Si Si3 0.896904 0.177846 0.729872
Si Si4 0.326015 0.174745 0.899275
Si Si5 0.991975 0.177726 0.403988
Si Si6 0.129575 0.823665 0.580808
Si Si7 0.198953 0.173285 0.720934
O O1 0.772143 0.266979 0.872693
O O2 0.685112 0.227046 0.814699
O O3 0.731202 0.000000 0.879760
O O4 0.676983 0.209301 0.993234
O O5 0.834690 0.500000 0.617526
O O6 0.857084 0.765571 0.669839
O O7 0.837187 0.729966 0.507152
O O8 0.758504 0.712800 0.655387
O O9 0.879219 0.243775 0.834386
O O10 0.958795 0.234240 0.682159
O O11 0.893119 0.000000 0.735082
O O12 0.330630 0.000000 0.876290
O O13 0.000000 0.247109 0.500000
O O14 0.933785 0.229099 0.389909
O O15 0.994729 0.000000 0.409935
O O16 0.153759 0.785018 0.667205
O O17 0.135376 0.000000 0.555429
O O18 0.194945 0.000000 0.750725
#
# Coordination Sequence:
#
# PCOD8096341 Si02
#       7
#     8   8   8   8   8   8   8
#     4  10  20  33  53  76 103 138 169 203 253 309
#     4  11  21  32  47  75 109 138 168 210 255 305
#     4  11  20  32  54  78 101 136 172 209 259 306
#     4  10  20  34  51  77 107 132 166 212 256 302
#     4   9  17  32  53  75  99 130 176 221 250 291
#     4  10  20  36  54  72 100 141 179 213 253 298
#     4  10  21  34  51  75 106 139 171 211 256 301
#
# _framework density 17.349316999999999
#
# number of rings (size 3 to 8) (size 9 to 14) (size 15 to 20)
#    0.000    1.857    2.857    2.143    0.000    2.857 
#    0.000    2.143    0.000    0.857    0.000    6.000 
#    0.000    0.000    0.000    0.000    0.000    0.000 
#
# Total GULP energy -347254.982093 kJ/mol
# GULP energy per Si atom -12401.963646 kJ/mol
# Density = 1.730983 g / cm^3
# Si number density = 17.349317 Si / 1000 Ang^3
#
#
#
# Elastic Constant Matrix: (Units=GPa)
#
#
# Indices 1 2 3 4 5 6 
#
# 1 116.4696 35.6972 69.0515 0.0000 -1.2717 0.0000
# 2 35.6972 63.8210 51.6864 0.0000 -4.8667 0.0000
# 3 69.0515 51.6864 140.4131 0.0000 -8.3705 0.0000
# 4 0.0000 0.0000 0.0000 33.6053 0.0000 0.8861
# 5 -1.2717 -4.8667 -8.3705 0.0000 19.5099 0.0000
# 6 0.0000 0.0000 0.0000 0.8861 0.0000 18.4615
#
#
#
# Elastic Compliance Matrix: (Units=1/GPa)
#
#
# Indices 1 2 3 4 5 6 
#
# 1 0.012564 -0.002969 -0.005214 0.000000 -0.002159 0.000000
# 2 -0.002969 0.023109 -0.006891 0.000000 0.002615 0.000000
# 3 -0.005214 -0.006891 0.012417 0.000000 0.003269 0.000000
# 4 0.000000 0.000000 0.000000 0.029795 0.000000 -0.001430
# 5 -0.002159 0.002615 0.003269 0.000000 0.053170 0.000000
# 6 0.000000 0.000000 0.000000 -0.001430 0.000000 0.054235
#
#
# Mechanical properties :
#
#
# Convention : Reuss Voigt Hill
#
# Bulk Modulus (GPa) = 55.73341 70.39710 63.06525
# Shear Modulus (GPa) = 22.58155 25.26660 23.92407
#
# Velocity S-wave (km/s) = 3.61166 3.82035 3.71747
# Velocity P-wave (km/s) = 7.04174 7.75400 7.40644
#
# Compressibility (1/GPa) = 0.01794256
#
# Stress axis : x y z
#
# Youngs Moduli (GPa) = 79.59399 43.27244 80.53191
#
# Poissons Ratio (x) = 0.12848 0.41992
# Poissons Ratio (y) = 0.23632 0.55492
# Poissons Ratio (z) = 0.41503 0.29818
#
# Static dielectric constant tensor:
#      x y z
#    x 3.232700 0.000000 -0.138730 
#    y 0.000000 3.195240 0.000000 
#    z -0.138730 0.000000 3.455440 
# 
# 
# High freq. dielectric constant tensor:
#      x y z
#    x 1.649290 0.000000 -0.004900 
#    y 0.000000 1.666570 0.000000 
#    z -0.004900 0.000000 1.676110 
# 
# From -- ./inp_files/243022.got.cif
#   From: 2010.06.25/outbox.cif.g09.slc.cpg/sg12_122_cif.got.tgz:243022.got - 2010.06.28 00:19:55.
