data_PCOD8096296
_publ_section_title
;
Structure prediction by ZEFSAII (Michael W. Deem and Ramdas Pophale) SiO2 
 PCOD8096296
Probable space group: C 2/M
;
_chemical_formula_sum "Si O2"
_cell_formula_units_Z 64
_cell_length_a 21.079135
_cell_length_b 12.789940
_cell_length_c 25.407230
_cell_angle_alpha 90.000000
_cell_angle_beta 149.431483
_cell_angle_gamma 90.000000
_cell_volume 3483.597444
_symmetry_space_group_name_H-M "C 2/M"
_symmetry_group_IT_number 12
_symmetry_cell_setting 'monoclinic'
loop_
_space_group_symop_operation_xyz
x,y,z
-x,y,-z
-x,-y,-z
x,-y,z
1/2+x,1/2+y,z
1/2-x,1/2+y,-z
1/2-x,1/2-y,-z
1/2+x,1/2-y,z
loop_
_atom_site_type_symbol
_atom_site_label
_atom_site_fract_x
_atom_site_fract_y
_atom_site_fract_z
Si Si1 0.822480 0.722533 0.498550
Si Si2 0.312380 0.614021 0.241248
Si Si3 0.948105 0.618011 0.904773
Si Si4 0.553283 0.383666 0.483617
Si Si5 0.936979 0.767833 0.097942
Si Si6 0.909080 0.121857 0.706032
Si Si7 0.191105 0.380513 0.910784
Si Si8 0.947555 0.266847 0.272774
O O1 0.750000 0.750000 0.500000
O O2 0.837810 0.817048 0.467127
O O3 0.740806 0.635928 0.409120
O O4 0.961056 0.686165 0.616303
O O5 0.285946 0.500000 0.195608
O O6 0.200017 0.639431 0.200588
O O7 0.440523 0.607957 0.363313
O O8 0.326697 0.705135 0.208511
O O9 0.976880 0.500000 0.904977
O O10 0.005775 0.705481 0.909333
O O11 0.000000 0.633821 0.000000
O O12 0.500000 0.333655 0.500000
O O13 0.608010 0.500000 0.534311
O O14 0.867204 0.685024 0.084125
O O15 0.045967 0.830279 0.206345
O O16 0.834762 0.849434 0.003342
O O17 0.979020 0.182013 0.709432
O O18 0.942789 0.000000 0.727493
O O19 0.184622 0.500000 0.922622
O O20 0.107031 0.363241 0.798830
#
# Coordination Sequence:
#
# PCOD8096296 Si02
#       8
#     8   8   8   8   8   8   8   8
#     4   9  19  33  51  81 112 144 181 222 270 318
#     4   9  17  30  51  77 105 135 168 209 259 317
#     4  10  20  33  52  80 108 134 165 209 269 322
#     4   9  18  32  52  80 108 139 176 220 277 330
#     4  10  21  35  53  79 106 135 171 214 264 314
#     4  10  20  34  54  77 106 143 178 216 261 314
#     4  10  20  35  55  77 104 136 172 216 263 312
#     4   9  18  34  54  80 106 136 177 218 265 307
#
# _framework density 18.371811999999998
#
# number of rings (size 3 to 8) (size 9 to 14) (size 15 to 20)
#    0.000    2.500    0.000    1.875    1.750    3.500 
#    0.000    8.750    0.000    7.125    0.000    0.000 
#    0.000    0.000    0.000    0.000    0.000    0.000 
#
# Total GULP energy -396562.985389 kJ/mol
# GULP energy per Si atom -12392.593293 kJ/mol
# Density = 1.833000 g / cm^3
# Si number density = 18.371812 Si / 1000 Ang^3
#
#
#
# Elastic Constant Matrix: (Units=GPa)
#
#
# Indices 1 2 3 4 5 6 
#
# 1 74.6450 25.7756 16.3899 -0.0001 1.7620 0.0000
# 2 25.7756 83.2491 41.9420 -0.0001 -1.5281 0.0001
# 3 16.3899 41.9420 93.2521 0.0001 -0.1185 0.0000
# 4 -0.0001 -0.0001 0.0001 20.5773 -0.0001 1.9972
# 5 1.7620 -1.5281 -0.1185 -0.0001 22.5223 -0.0001
# 6 0.0000 0.0001 0.0000 1.9972 -0.0001 12.2977
#
#
#
# Elastic Compliance Matrix: (Units=1/GPa)
#
#
# Indices 1 2 3 4 5 6 
#
# 1 0.015086 -0.004346 -0.000699 0.000000 -0.001479 0.000000
# 2 -0.004346 0.016807 -0.006794 0.000000 0.001445 0.000000
# 3 -0.000699 -0.006794 0.013902 0.000000 -0.000333 0.000000
# 4 0.000000 0.000000 0.000000 0.049376 0.000000 -0.008019
# 5 -0.001479 0.001445 -0.000333 0.000000 0.044612 0.000000
# 6 0.000000 0.000000 0.000000 -0.008019 0.000000 0.082618
#
#
# Mechanical properties :
#
#
# Convention : Reuss Voigt Hill
#
# Bulk Modulus (GPa) = 45.21243 46.59568 45.90405
# Shear Modulus (GPa) = 19.72777 22.21537 20.97157
#
# Velocity S-wave (km/s) = 3.28045 3.48114 3.38229
# Velocity P-wave (km/s) = 6.24593 6.44790 6.34772
#
# Compressibility (1/GPa) = 0.02211781
#
# Stress axis : x y z
#
# Youngs Moduli (GPa) = 66.28770 59.49907 71.93442
#
# Poissons Ratio (x) = 0.25858 0.05025
# Poissons Ratio (y) = 0.28809 0.48869
# Poissons Ratio (z) = 0.04631 0.40421
#
# Static dielectric constant tensor:
#      x y z
#    x 3.419490 0.000000 0.052100 
#    y 0.000000 3.355370 0.000000 
#    z 0.052100 0.000000 3.777250 
# 
# 
# High freq. dielectric constant tensor:
#      x y z
#    x 1.697360 0.000000 -0.000740 
#    y 0.000000 1.689010 0.000000 
#    z -0.000740 0.000000 1.727010 
# 
# From -- ./inp_files/366050.got.cif
#   From: 2010.06.25/outbox.cif.g09.slc.cpg/sg12_184_cif.got.tgz:366050.got - 2010.06.28 00:19:55.
