data_PCOD8096050
_publ_section_title
;
Structure prediction by ZEFSAII (Michael W. Deem and Ramdas Pophale) SiO2 
 PCOD8096050
Probable space group: C 2/M
;
_chemical_formula_sum "Si O2"
_cell_formula_units_Z 52
_cell_length_a 21.708192
_cell_length_b 9.968228
_cell_length_c 19.129905
_cell_angle_alpha 90.000000
_cell_angle_beta 136.531731
_cell_angle_gamma 90.000000
_cell_volume 2847.823317
_symmetry_space_group_name_H-M "C 2/M"
_symmetry_group_IT_number 12
_symmetry_cell_setting 'monoclinic'
loop_
_space_group_symop_operation_xyz
x,y,z
-x,y,-z
-x,-y,-z
x,-y,z
1/2+x,1/2+y,z
1/2-x,1/2+y,-z
1/2-x,1/2-y,-z
1/2+x,1/2-y,z
loop_
_atom_site_type_symbol
_atom_site_label
_atom_site_fract_x
_atom_site_fract_y
_atom_site_fract_z
Si Si1 0.057076 0.845476 0.285016
Si Si2 0.262121 0.345483 0.642165
Si Si3 0.500000 0.252069 0.500000
Si Si4 0.075425 0.649402 0.423137
Si Si5 0.371536 0.652046 0.069324
Si Si6 0.810411 0.849119 0.306112
Si Si7 0.247108 0.846607 0.895422
O O1 0.148118 0.799841 0.322894
O O2 0.038603 0.756859 0.338074
O O3 0.977493 0.823915 0.163979
O O4 0.061422 0.000000 0.313413
O O5 0.267585 0.500000 0.671502
O O6 0.180579 0.323478 0.521647
O O7 0.250069 0.253300 0.699977
O O8 0.522209 0.158740 0.452188
O O9 0.414846 0.343760 0.412101
O O10 0.060357 0.500000 0.380676
O O11 0.351028 0.500000 0.028583
O O12 0.327771 0.682500 0.108335
O O13 0.333109 0.752118 0.979167
O O14 0.798023 0.810441 0.215162
O O15 0.776745 0.000000 0.293396
O O16 0.280357 0.000000 0.925291
#
# Coordination Sequence:
#
# PCOD8096050 Si02
#       7
#     8   8   4   8   8   8   8
#     4  10  20  35  54  75 101 134 173 213 250 294
#     4   9  20  36  51  72 104 138 170 207 251 300
#     4  10  20  34  52  78 108 134 166 204 248 302
#     4  10  20  33  51  76 106 137 168 205 251 301
#     4   9  18  33  53  75  98 128 167 207 249 302
#     4  10  20  34  54  77 102 134 170 209 251 298
#     4   9  18  33  51  75 103 127 159 207 258 299
#
# _framework density 18.25956
#
# number of rings (size 3 to 8) (size 9 to 14) (size 15 to 20)
#    0.000    2.462    0.000    1.846    0.000    6.769 
#    0.000    3.846    0.000    4.615    0.000    0.000 
#    0.000    0.000    0.000    0.000    0.000    0.000 
#
# Total GULP energy -322451.806391 kJ/mol
# GULP energy per Si atom -12401.992553 kJ/mol
# Density = 1.821800 g / cm^3
# Si number density = 18.259560 Si / 1000 Ang^3
#
#
#
# Elastic Constant Matrix: (Units=GPa)
#
#
# Indices 1 2 3 4 5 6 
#
# 1 76.2645 38.7926 38.0713 0.0000 4.3954 0.0000
# 2 38.7926 91.3942 50.1465 0.0000 -9.3195 0.0000
# 3 38.0713 50.1465 84.5659 0.0000 -6.8342 0.0000
# 4 0.0000 0.0000 0.0000 33.1531 0.0000 -4.7258
# 5 4.3954 -9.3195 -6.8342 0.0000 27.4933 0.0000
# 6 0.0000 0.0000 0.0000 -4.7258 0.0000 24.9752
#
#
#
# Elastic Compliance Matrix: (Units=1/GPa)
#
#
# Indices 1 2 3 4 5 6 
#
# 1 0.019268 -0.005618 -0.005864 0.000000 -0.006442 0.000000
# 2 -0.005618 0.018132 -0.007810 0.000000 0.005103 0.000000
# 3 -0.005864 -0.007810 0.019347 0.000000 0.003099 0.000000
# 4 0.000000 0.000000 0.000000 0.030999 0.000000 0.005866
# 5 -0.006442 0.005103 0.003099 0.000000 0.039903 0.000000
# 6 0.000000 0.000000 0.000000 0.005866 0.000000 0.041150
#
#
# Mechanical properties :
#
#
# Convention : Reuss Voigt Hill
#
# Bulk Modulus (GPa) = 55.05774 56.24950 55.65362
# Shear Modulus (GPa) = 23.42604 25.47194 24.44899
#
# Velocity S-wave (km/s) = 3.58571 3.73901 3.66316
# Velocity P-wave (km/s) = 6.88196 7.03652 6.95967
#
# Compressibility (1/GPa) = 0.01816275
#
# Stress axis : x y z
#
# Youngs Moduli (GPa) = 51.89825 55.15096 51.68803
#
# Poissons Ratio (x) = 0.30985 0.30308
# Poissons Ratio (y) = 0.29157 0.40370
# Poissons Ratio (z) = 0.30432 0.43075
#
# Static dielectric constant tensor:
#      x y z
#    x 3.231480 0.000000 0.109230 
#    y 0.000000 3.380620 0.000000 
#    z 0.109230 0.000000 3.328730 
# 
# 
# High freq. dielectric constant tensor:
#      x y z
#    x 1.694310 0.000000 0.005770 
#    y 0.000000 1.711990 0.000000 
#    z 0.005770 0.000000 1.701720 
# 
# From -- ./inp_files/324411.got.cif
#   From: 2010.06.25/outbox.cif.g09.slc.cpg/sg12_163_cif.got.tgz:324411.got - 2010.06.28 00:19:55.
