data_PCOD8096677
_publ_section_title
;
Structure prediction by ZEFSAII (Michael W. Deem and Ramdas Pophale) SiO2 
 PCOD8096677
Probable space group: C 2/M
;
_chemical_formula_sum "Si O2"
_cell_formula_units_Z 48
_cell_length_a 12.316135
_cell_length_b 19.344155
_cell_length_c 12.861875
_cell_angle_alpha 90.000000
_cell_angle_beta 123.863007
_cell_angle_gamma 90.000000
_cell_volume 2544.493232
_symmetry_space_group_name_H-M "C 2/M"
_symmetry_group_IT_number 12
_symmetry_cell_setting 'monoclinic'
loop_
_space_group_symop_operation_xyz
x,y,z
-x,y,-z
-x,-y,-z
x,-y,z
1/2+x,1/2+y,z
1/2-x,1/2+y,-z
1/2-x,1/2-y,-z
1/2+x,1/2-y,z
loop_
_atom_site_type_symbol
_atom_site_label
_atom_site_fract_x
_atom_site_fract_y
_atom_site_fract_z
Si Si1 0.379788 0.421816 0.000001
Si Si2 0.632168 0.796662 0.315279
Si Si3 0.094735 0.824166 0.457897
Si Si4 0.779459 0.699047 0.857131
Si Si5 0.861659 0.324508 0.121418
Si Si6 0.092804 0.078128 0.744797
O O1 0.351033 0.500000 0.948607
O O2 0.248414 0.379493 0.906714
O O3 0.500000 0.389315 0.000000
O O4 0.426643 0.418590 0.142774
O O5 0.758709 0.838482 0.422350
O O6 0.600882 0.732192 0.371252
O O7 0.651641 0.768133 0.207349
O O8 0.503658 0.846358 0.242922
O O9 0.000000 0.796906 0.500000
O O10 0.039119 0.895940 0.382531
O O11 0.670532 0.750243 0.845604
O O12 0.712020 0.628595 0.779043
O O13 0.877251 0.681714 0.004389
O O14 0.123526 0.000000 0.724235
#
# Coordination Sequence:
#
# PCOD8096677 Si02
#       6
#     8   8   8   8   8   8
#     4   9  20  37  59  86 116 151 185 231 292 345
#     4  11  21  36  56  79 119 145 185 244 286 337
#     4  11  22  38  54  80 112 155 197 237 284 334
#     4  10  20  35  55  87 115 143 193 227 297 342
#     4  10  20  33  58  87 114 146 181 244 286 344
#     4  10  20  38  58  82 115 149 196 237 273 340
#
# _framework density 18.864267000000002
#
# number of rings (size 3 to 8) (size 9 to 14) (size 15 to 20)
#    0.000    1.833    3.333    0.500    2.333    0.333 
#    0.000    1.667    0.000    4.000    0.000    3.500 
#    0.000    0.000    0.000    0.000    0.000    0.000 
#
# Total GULP energy -297455.939073 kJ/mol
# GULP energy per Si atom -12393.997461 kJ/mol
# Density = 1.882133 g / cm^3
# Si number density = 18.864267 Si / 1000 Ang^3
#
#
#
# Elastic Constant Matrix: (Units=GPa)
#
#
# Indices 1 2 3 4 5 6 
#
# 1 115.6663 43.0030 73.3524 0.0000 7.2454 0.0000
# 2 43.0030 93.6032 50.7351 0.0000 3.8002 0.0000
# 3 73.3524 50.7351 114.2536 0.0000 26.4805 0.0000
# 4 0.0000 0.0000 0.0000 26.5621 0.0000 1.5240
# 5 7.2454 3.8002 26.4805 0.0000 46.5571 0.0000
# 6 0.0000 0.0000 0.0000 1.5240 0.0000 21.7041
#
#
#
# Elastic Compliance Matrix: (Units=1/GPa)
#
#
# Indices 1 2 3 4 5 6 
#
# 1 0.015343 -0.001878 -0.009789 0.000000 0.003333 0.000000
# 2 -0.001878 0.014617 -0.005847 0.000000 0.002425 0.000000
# 3 -0.009789 -0.005847 0.019777 0.000000 -0.009248 0.000000
# 4 0.000000 0.000000 0.000000 0.037800 0.000000 -0.002654
# 5 0.003333 0.002425 -0.009248 0.000000 0.026022 0.000000
# 6 0.000000 0.000000 0.000000 -0.002654 0.000000 0.046261
#
#
# Mechanical properties :
#
#
# Convention : Reuss Voigt Hill
#
# Bulk Modulus (GPa) = 67.98727 73.07823 70.53275
# Shear Modulus (GPa) = 25.03125 29.39350 27.21238
#
# Velocity S-wave (km/s) = 3.64663 3.95163 3.80219
# Velocity P-wave (km/s) = 7.33819 7.72293 7.53302
#
# Compressibility (1/GPa) = 0.01470864
#
# Stress axis : x y z
#
# Youngs Moduli (GPa) = 65.17679 68.41327 50.56459
#
# Poissons Ratio (x) = 0.12851 0.49496
# Poissons Ratio (y) = 0.12243 0.29564
# Poissons Ratio (z) = 0.63800 0.40000
#
# Static dielectric constant tensor:
#      x y z
#    x 3.500010 0.000000 -0.014180 
#    y 0.000000 3.368560 0.000000 
#    z -0.014180 0.000000 3.754060 
# 
# 
# High freq. dielectric constant tensor:
#      x y z
#    x 1.735270 0.000000 -0.003150 
#    y 0.000000 1.699110 0.000000 
#    z -0.003150 0.000000 1.748340 
# 
# From -- ./inp_files/132976.got.cif
#   From: 2010.06.25/outbox.cif.g09.slc.cpg/sg12_67_cif.got.tgz:132976.got - 2010.06.28 00:19:55.
