data_PCOD8096992
_publ_section_title
;
Structure prediction by ZEFSAII (Michael W. Deem and Ramdas Pophale) SiO2 
 PCOD8096992
Probable space group: C 2/M
;
_chemical_formula_sum "Si O2"
_cell_formula_units_Z 48
_cell_length_a 17.916623
_cell_length_b 8.944342
_cell_length_c 16.191394
_cell_angle_alpha 90.000000
_cell_angle_beta 88.498354
_cell_angle_gamma 90.000000
_cell_volume 2593.818712
_symmetry_space_group_name_H-M "C 2/M"
_symmetry_group_IT_number 12
_symmetry_cell_setting 'monoclinic'
loop_
_space_group_symop_operation_xyz
x,y,z
-x,y,-z
-x,-y,-z
x,-y,z
1/2+x,1/2+y,z
1/2-x,1/2+y,-z
1/2-x,1/2-y,-z
1/2+x,1/2-y,z
loop_
_atom_site_type_symbol
_atom_site_label
_atom_site_fract_x
_atom_site_fract_y
_atom_site_fract_z
Si Si1 0.974276 0.824182 0.091073
Si Si2 0.798665 0.829773 0.741623
Si Si3 0.673262 0.665340 0.825677
Si Si4 0.046585 0.323463 0.244396
Si Si5 0.708856 0.171585 0.575788
Si Si6 0.919714 0.167340 0.338725
O O1 0.885879 0.784859 0.102057
O O2 0.023426 0.734435 0.155073
O O3 0.987142 0.000000 0.106753
O O4 0.000000 0.774174 0.000000
O O5 0.741483 0.781150 0.816267
O O6 0.868735 0.721085 0.740560
O O7 0.759229 0.810969 0.655147
O O8 0.823174 0.000000 0.757735
O O9 0.705591 0.500000 0.843719
O O10 0.627038 0.661256 0.743117
O O11 0.037377 0.500000 0.247310
O O12 0.996594 0.253914 0.319066
O O13 0.750000 0.250000 0.500000
O O14 0.628056 0.247665 0.590260
O O15 0.695125 0.000000 0.553696
O O16 0.938046 0.000000 0.369577
#
# Coordination Sequence:
#
# PCOD8096992 Si02
#       6
#     8   8   8   8   8   8
#     4   9  18  34  55  77 103 135 169 207 253 304
#     4  10  20  34  52  74 101 134 171 208 249 299
#     4   8  15  29  50  74  98 128 166 205 247 297
#     4  11  21  33  52  77 104 133 169 212 254 299
#     4  10  20  34  54  79 105 134 169 210 254 302
#     4   9  17  32  53  74 100 134 170 207 249 302
#
# _framework density 18.505534000000001
#
# number of rings (size 3 to 8) (size 9 to 14) (size 15 to 20)
#    0.000    2.500    0.000    4.000    0.000    6.333 
#    0.000    1.667    0.000    5.000    0.000    0.000 
#    0.000    0.000    0.000    0.000    0.000    0.000 
#
# Total GULP energy -297578.965173 kJ/mol
# GULP energy per Si atom -12399.123549 kJ/mol
# Density = 1.846341 g / cm^3
# Si number density = 18.505534 Si / 1000 Ang^3
#
#
#
# Elastic Constant Matrix: (Units=GPa)
#
#
# Indices 1 2 3 4 5 6 
#
# 1 109.4413 58.0784 41.4293 0.0000 -33.4807 0.0000
# 2 58.0784 136.9379 45.8518 0.0000 -18.8856 0.0000
# 3 41.4293 45.8518 73.9998 0.0000 -38.6403 0.0000
# 4 0.0000 0.0000 0.0000 24.7203 0.0000 -6.1798
# 5 -33.4807 -18.8856 -38.6403 0.0000 34.8609 0.0000
# 6 0.0000 0.0000 0.0000 -6.1798 0.0000 35.3236
#
#
#
# Elastic Compliance Matrix: (Units=1/GPa)
#
#
# Indices 1 2 3 4 5 6 
#
# 1 0.015571 -0.005321 0.002096 0.000000 0.014396 0.000000
# 2 -0.005321 0.011183 -0.008203 0.000000 -0.008144 0.000000
# 3 0.002096 -0.008203 0.038349 0.000000 0.040076 0.000000
# 4 0.000000 0.000000 0.000000 0.042303 0.000000 0.007401
# 5 0.014396 -0.008144 0.040076 0.000000 0.082520 0.000000
# 6 0.000000 0.000000 0.000000 0.007401 0.000000 0.029604
#
#
# Mechanical properties :
#
#
# Convention : Reuss Voigt Hill
#
# Bulk Modulus (GPa) = 23.66960 67.89978 45.78469
# Shear Modulus (GPa) = 19.49572 30.64893 25.07232
#
# Velocity S-wave (km/s) = 3.24930 4.07406 3.68483
# Velocity P-wave (km/s) = 5.18609 7.67476 6.54971
#
# Compressibility (1/GPa) = 0.04224828
#
# Stress axis : x y z
#
# Youngs Moduli (GPa) = 64.22022 89.42501 26.07651
#
# Poissons Ratio (x) = 0.47580 -0.05466
# Poissons Ratio (y) = 0.34169 0.21389
# Poissons Ratio (z) = -0.13460 0.73351
#
# Static dielectric constant tensor:
#      x y z
#    x 3.540020 0.000000 -0.420690 
#    y 0.000000 3.556850 0.000000 
#    z -0.420690 0.000000 3.250890 
# 
# 
# High freq. dielectric constant tensor:
#      x y z
#    x 1.718830 0.000000 -0.030950 
#    y 0.000000 1.727210 0.000000 
#    z -0.030950 0.000000 1.688450 
# 
# From -- ./inp_files/221518.got.cif
#   From: 2010.06.25/outbox.cif.g09.slc.cpg/sg12_111_cif.got.tgz:221518.got - 2010.06.28 00:19:55.
