data_PCOD8096863
_publ_section_title
;
Structure prediction by ZEFSAII (Michael W. Deem and Ramdas Pophale) SiO2 
 PCOD8096863
Probable space group: C 2/M
;
_chemical_formula_sum "Si O2"
_cell_formula_units_Z 64
_cell_length_a 14.292937
_cell_length_b 9.088078
_cell_length_c 30.290546
_cell_angle_alpha 90.000000
_cell_angle_beta 60.382627
_cell_angle_gamma 90.000000
_cell_volume 3420.525613
_symmetry_space_group_name_H-M "C 2/M"
_symmetry_group_IT_number 12
_symmetry_cell_setting 'monoclinic'
loop_
_space_group_symop_operation_xyz
x,y,z
-x,y,-z
-x,-y,-z
x,-y,z
1/2+x,1/2+y,z
1/2-x,1/2+y,-z
1/2-x,1/2-y,-z
1/2+x,1/2-y,z
loop_
_atom_site_type_symbol
_atom_site_label
_atom_site_fract_x
_atom_site_fract_y
_atom_site_fract_z
Si Si1 0.286659 0.329034 0.208809
Si Si2 0.551876 0.674958 0.609958
Si Si3 0.654829 0.173674 0.324436
Si Si4 0.957853 0.672525 0.056896
Si Si5 0.522841 0.326754 0.127187
Si Si6 0.275014 0.170709 0.597998
Si Si7 0.279568 0.672580 0.860248
Si Si8 0.359702 0.827126 0.488003
O O1 0.273037 0.500000 0.201860
O O2 0.243827 0.287586 0.267170
O O3 0.411856 0.282554 0.177523
O O4 0.215812 0.245276 0.188965
O O5 0.546256 0.500000 0.607024
O O6 0.454098 0.738553 0.661780
O O7 0.660602 0.732892 0.607977
O O8 0.545928 0.748010 0.562007
O O9 0.694550 0.240634 0.362066
O O10 0.630807 0.000000 0.331872
O O11 0.976657 0.500000 0.058213
O O12 0.027526 0.752208 0.078198
O O13 0.832079 0.714166 0.089729
O O14 0.000000 0.729097 0.000000
O O15 0.532594 0.500000 0.117845
O O16 0.622006 0.266691 0.133225
O O17 0.369054 0.195752 0.539084
O O18 0.257571 0.000000 0.610582
O O19 0.291469 0.500000 0.850377
O O20 0.250000 0.750000 0.500000
O O21 0.357011 0.000000 0.477297
#
# Coordination Sequence:
#
# PCOD8096863 Si02
#       8
#     8   8   8   8   8   8   8   8
#     4   9  19  34  51  71  96 124 161 209 253 292
#     4  10  20  34  51  74 100 128 162 201 246 298
#     4  10  20  35  52  71  95 126 162 201 247 299
#     4   9  18  32  49  74 109 141 167 203 251 297
#     4   9  18  33  52  74  98 131 174 211 244 290
#     4   8  17  33  52  71  95 128 162 193 238 299
#     4   9  18  33  53  74  99 133 170 205 246 296
#     4   9  16  30  51  73  98 130 164 200 243 296
#
# _framework density 18.710576
#
# number of rings (size 3 to 8) (size 9 to 14) (size 15 to 20)
#    0.000    2.875    0.000    1.500    0.000    3.250 
#    0.000    8.750    0.000    0.000    0.000    0.000 
#    0.000    0.000    0.000    0.000    0.000    0.000 
#
# Total GULP energy -396688.616900 kJ/mol
# GULP energy per Si atom -12396.519278 kJ/mol
# Density = 1.866799 g / cm^3
# Si number density = 18.710576 Si / 1000 Ang^3
#
#
#
# Elastic Constant Matrix: (Units=GPa)
#
#
# Indices 1 2 3 4 5 6 
#
# 1 105.3191 27.6137 50.1840 0.0000 11.3931 0.0000
# 2 27.6137 47.3683 37.5378 0.0000 3.5252 0.0000
# 3 50.1840 37.5378 130.1124 0.0000 9.4636 0.0000
# 4 0.0000 0.0000 0.0000 29.7305 0.0000 0.9431
# 5 11.3931 3.5252 9.4636 0.0000 22.8179 0.0000
# 6 0.0000 0.0000 0.0000 0.9431 0.0000 23.2314
#
#
#
# Elastic Compliance Matrix: (Units=1/GPa)
#
#
# Indices 1 2 3 4 5 6 
#
# 1 0.012702 -0.004473 -0.003297 0.000000 -0.004284 0.000000
# 2 -0.004473 0.028965 -0.006669 0.000000 0.000525 0.000000
# 3 -0.003297 -0.006669 0.011019 0.000000 -0.001893 0.000000
# 4 0.000000 0.000000 0.000000 0.033679 0.000000 -0.001367
# 5 -0.004284 0.000525 -0.001893 0.000000 0.046668 0.000000
# 6 0.000000 0.000000 0.000000 -0.001367 0.000000 0.043101
#
#
# Mechanical properties :
#
#
# Convention : Reuss Voigt Hill
#
# Bulk Modulus (GPa) = 42.00422 57.05231 49.52826
# Shear Modulus (GPa) = 23.47975 26.32025 24.90000
#
# Velocity S-wave (km/s) = 3.54629 3.75467 3.65197
# Velocity P-wave (km/s) = 6.26629 7.02531 6.65663
#
# Compressibility (1/GPa) = 0.02380713
#
# Stress axis : x y z
#
# Youngs Moduli (GPa) = 78.72620 34.52439 90.75066
#
# Poissons Ratio (x) = 0.15443 0.29922
# Poissons Ratio (y) = 0.35216 0.60525
# Poissons Ratio (z) = 0.25957 0.23026
#
# Static dielectric constant tensor:
#      x y z
#    x 2.785340 0.000000 0.670780 
#    y 0.000000 3.261410 0.000000 
#    z 0.670780 0.000000 3.087620 
# 
# 
# High freq. dielectric constant tensor:
#      x y z
#    x 1.721660 0.000000 -0.001080 
#    y 0.000000 1.709470 0.000000 
#    z -0.001080 0.000000 1.728730 
# 
# From -- ./inp_files/374993.got.cif
#   From: 2010.06.25/outbox.cif.g09.slc.cpg/sg12_188_cif.got.tgz:374993.got - 2010.06.28 00:19:55.
