data_PCOD8096402
_publ_section_title
;
Structure prediction by ZEFSAII (Michael W. Deem and Ramdas Pophale) SiO2 
 PCOD8096402
Probable space group: C 2/M
;
_chemical_formula_sum "Si O2"
_cell_formula_units_Z 40
_cell_length_a 20.419478
_cell_length_b 9.257394
_cell_length_c 11.775785
_cell_angle_alpha 90.000000
_cell_angle_beta 81.945967
_cell_angle_gamma 90.000000
_cell_volume 2204.033897
_symmetry_space_group_name_H-M "C 2/M"
_symmetry_group_IT_number 12
_symmetry_cell_setting 'monoclinic'
loop_
_space_group_symop_operation_xyz
x,y,z
-x,y,-z
-x,-y,-z
x,-y,z
1/2+x,1/2+y,z
1/2-x,1/2+y,-z
1/2-x,1/2-y,-z
1/2+x,1/2-y,z
loop_
_atom_site_type_symbol
_atom_site_label
_atom_site_fract_x
_atom_site_fract_y
_atom_site_fract_z
Si Si1 0.400350 0.663134 0.970769
Si Si2 0.121622 0.162366 0.270833
Si Si3 0.986606 0.333058 0.797656
Si Si4 0.753381 0.829045 0.617743
Si Si5 0.134350 0.666588 0.805770
O O1 0.419014 0.500000 0.002513
O O2 0.360951 0.740105 0.081151
O O3 0.354569 0.662672 0.867632
O O4 0.467180 0.751467 0.920276
O O5 0.055652 0.263005 0.296643
O O6 0.180301 0.223001 0.334405
O O7 0.102405 0.000000 0.312964
O O8 0.967469 0.500000 0.813628
O O9 0.064442 0.310503 0.758668
O O10 0.750000 0.750000 0.500000
O O11 0.690716 0.779400 0.706933
O O12 0.752949 0.000000 0.598866
O O13 0.144600 0.500000 0.837302
#
# Coordination Sequence:
#
# PCOD8096402 Si02
#       5
#     8   8   8   8   8
#     4   9  18  31  52  81 111 138 167 205 255 312
#     4   8  18  35  53  75 107 138 167 211 258 303
#     4   9  17  31  52  80 109 137 168 205 256 311
#     4  10  22  41  57  73 101 136 178 222 260 301
#     4  10  20  33  53  80 108 137 170 213 258 302
#
# _framework density 18.148541000000002
#
# number of rings (size 3 to 8) (size 9 to 14) (size 15 to 20)
#    1.200    1.600    0.000    1.200    0.000    6.400 
#    0.000    1.000    0.000    6.000    0.000    0.000 
#    0.000    0.000    0.000    0.000    0.000    0.000 
#
# Total GULP energy -247813.537681 kJ/mol
# GULP energy per Si atom -12390.676884 kJ/mol
# Density = 1.810723 g / cm^3
# Si number density = 18.148541 Si / 1000 Ang^3
#
#
#
# Elastic Constant Matrix: (Units=GPa)
#
#
# Indices 1 2 3 4 5 6 
#
# 1 74.5839 33.1164 30.5263 0.0000 26.4114 0.0000
# 2 33.1164 81.1234 21.4875 0.0000 10.4974 0.0000
# 3 30.5263 21.4875 40.6646 0.0000 13.2278 0.0000
# 4 0.0000 0.0000 0.0000 31.6034 0.0000 3.1801
# 5 26.4114 10.4974 13.2278 0.0000 20.5830 0.0000
# 6 0.0000 0.0000 0.0000 3.1801 0.0000 23.3775
#
#
#
# Elastic Compliance Matrix: (Units=1/GPa)
#
#
# Indices 1 2 3 4 5 6 
#
# 1 0.030895 -0.006014 -0.010262 0.000000 -0.029982 0.000000
# 2 -0.006014 0.015661 -0.004643 0.000000 0.002715 0.000000
# 3 -0.010262 -0.004643 0.037543 0.000000 -0.008592 0.000000
# 4 0.000000 0.000000 0.000000 0.032081 0.000000 -0.004364
# 5 -0.029982 0.002715 -0.008592 0.000000 0.091192 0.000000
# 6 0.000000 0.000000 0.000000 -0.004364 0.000000 0.043370
#
#
# Mechanical properties :
#
#
# Convention : Reuss Voigt Hill
#
# Bulk Modulus (GPa) = 23.66305 40.73691 32.19998
# Shear Modulus (GPa) = 16.30425 22.52889 19.41657
#
# Velocity S-wave (km/s) = 3.00055 3.52712 3.27443
# Velocity P-wave (km/s) = 5.00712 6.25160 5.66364
#
# Compressibility (1/GPa) = 0.04225998
#
# Stress axis : x y z
#
# Youngs Moduli (GPa) = 32.36748 63.85378 26.63600
#
# Poissons Ratio (x) = 0.38404 0.27333
# Poissons Ratio (y) = 0.19467 0.12368
# Poissons Ratio (z) = 0.33215 0.29650
#
# Static dielectric constant tensor:
#      x y z
#    x 3.277460 0.000000 0.084770 
#    y 0.000000 3.346880 0.000000 
#    z 0.084770 0.000000 3.022660 
# 
# 
# High freq. dielectric constant tensor:
#      x y z
#    x 1.696470 0.000000 0.013740 
#    y 0.000000 1.707150 0.000000 
#    z 0.013740 0.000000 1.672200 
# 
# From -- ./inp_files/162496.got.cif
#   From: 2010.06.25/outbox.cif.g09.slc.cpg/sg12_82_cif.got.tgz:162496.got - 2010.06.28 00:19:55.
