data_PCOD8096579
_publ_section_title
;
Structure prediction by ZEFSAII (Michael W. Deem and Ramdas Pophale) SiO2 
 PCOD8096579
Probable space group: C 2/M
;
_chemical_formula_sum "Si O2"
_cell_formula_units_Z 56
_cell_length_a 19.518221
_cell_length_b 9.095966
_cell_length_c 17.221867
_cell_angle_alpha 90.000000
_cell_angle_beta 82.199029
_cell_angle_gamma 90.000000
_cell_volume 3029.224192
_symmetry_space_group_name_H-M "C 2/M"
_symmetry_group_IT_number 12
_symmetry_cell_setting 'monoclinic'
loop_
_space_group_symop_operation_xyz
x,y,z
-x,y,-z
-x,-y,-z
x,-y,z
1/2+x,1/2+y,z
1/2-x,1/2+y,-z
1/2-x,1/2-y,-z
1/2+x,1/2-y,z
loop_
_atom_site_type_symbol
_atom_site_label
_atom_site_fract_x
_atom_site_fract_y
_atom_site_fract_z
Si Si1 0.452949 0.673127 0.337733
Si Si2 0.919929 0.665439 0.492069
Si Si3 0.188241 0.669974 0.052281
Si Si4 0.372683 0.326088 0.200035
Si Si5 0.215317 0.330049 0.227388
Si Si6 0.080418 0.831151 0.973633
Si Si7 0.891354 0.172902 0.647113
O O1 0.441898 0.500000 0.349881
O O2 0.409383 0.752126 0.412163
O O3 0.422301 0.732026 0.261055
O O4 0.533883 0.714846 0.328658
O O5 0.890752 0.500000 0.490272
O O6 0.879178 0.751053 0.565746
O O7 0.000000 0.665287 0.500000
O O8 0.191688 0.500000 0.029766
O O9 0.193589 0.695226 0.142598
O O10 0.250000 0.750000 0.000000
O O11 0.116178 0.737675 0.035451
O O12 0.377442 0.500000 0.195355
O O13 0.294061 0.276637 0.227394
O O14 0.399460 0.263883 0.113529
O O15 0.206161 0.500000 0.253100
O O16 0.167405 0.228163 0.286596
O O17 0.105297 0.000000 0.976090
O O18 0.000000 0.816451 0.000000
O O19 0.884627 0.000000 0.636223
#
# Coordination Sequence:
#
# PCOD8096579 Si02
#       7
#     8   8   8   8   8   8   8
#     4   9  18  33  56  81 107 139 178 225 270 315
#     4   9  17  32  54  79 110 143 175 214 268 325
#     4  11  22  38  59  81 111 149 191 233 278 332
#     4   9  18  36  55  77 109 145 180 221 275 324
#     4  10  21  37  55  76 109 147 181 221 272 328
#     4  10  21  37  60  84 112 148 189 232 280 337
#     4  10  20  33  55  85 110 135 179 227 266 319
#
# _framework density 18.48658
#
# number of rings (size 3 to 8) (size 9 to 14) (size 15 to 20)
#    0.000    2.286    1.429    1.286    2.000    3.714 
#    0.000    2.143    0.000    0.000    0.000    0.000 
#    0.000    0.000    0.000    0.000    0.000    0.000 
#
# Total GULP energy -347243.357495 kJ/mol
# GULP energy per Si atom -12401.548482 kJ/mol
# Density = 1.844450 g / cm^3
# Si number density = 18.486580 Si / 1000 Ang^3
#
#
#
# Elastic Constant Matrix: (Units=GPa)
#
#
# Indices 1 2 3 4 5 6 
#
# 1 81.3034 31.4806 52.7175 0.0000 -1.9835 0.0000
# 2 31.4806 69.3534 44.6114 0.0000 -10.3575 0.0000
# 3 52.7175 44.6114 102.7809 0.0000 -8.1727 0.0000
# 4 0.0000 0.0000 0.0000 33.4713 0.0000 -3.4275
# 5 -1.9835 -10.3575 -8.1727 0.0000 29.2795 0.0000
# 6 0.0000 0.0000 0.0000 -3.4275 0.0000 21.3616
#
#
#
# Elastic Compliance Matrix: (Units=1/GPa)
#
#
# Indices 1 2 3 4 5 6 
#
# 1 0.019094 -0.003602 -0.008415 0.000000 -0.002330 0.000000
# 2 -0.003602 0.021353 -0.006995 0.000000 0.005357 0.000000
# 3 -0.008415 -0.006995 0.017222 0.000000 0.001763 0.000000
# 4 0.000000 0.000000 0.000000 0.030375 0.000000 0.004874
# 5 -0.002330 0.005357 0.001763 0.000000 0.036383 0.000000
# 6 0.000000 0.000000 0.000000 0.004874 0.000000 0.047595
#
#
# Mechanical properties :
#
#
# Convention : Reuss Voigt Hill
#
# Bulk Modulus (GPa) = 50.90316 56.78409 53.84363
# Shear Modulus (GPa) = 23.08453 25.13103 24.10778
#
# Velocity S-wave (km/s) = 3.53755 3.69103 3.61511
# Velocity P-wave (km/s) = 6.65437 6.99629 6.82747
#
# Compressibility (1/GPa) = 0.01964514
#
# Stress axis : x y z
#
# Youngs Moduli (GPa) = 52.37250 46.83113 58.06505
#
# Poissons Ratio (x) = 0.16867 0.48864
# Poissons Ratio (y) = 0.18863 0.40616
# Poissons Ratio (z) = 0.44074 0.32758
#
# Static dielectric constant tensor:
#      x y z
#    x 3.367050 0.000000 0.108930 
#    y 0.000000 3.409350 0.000000 
#    z 0.108930 0.000000 3.497710 
# 
# 
# High freq. dielectric constant tensor:
#      x y z
#    x 1.706010 0.000000 0.000070 
#    y 0.000000 1.705590 0.000000 
#    z 0.000070 0.000000 1.727980 
# 
# From -- ./inp_files/280239.got.cif
#   From: 2010.06.25/outbox.cif.g09.slc.cpg/sg12_141_cif.got.tgz:280239.got - 2010.06.28 00:19:55.
