data_PCOD8096256
_publ_section_title
;
Structure prediction by ZEFSAII (Michael W. Deem and Ramdas Pophale) SiO2 
 PCOD8096256
Probable space group: C 2/M
;
_chemical_formula_sum "Si O2"
_cell_formula_units_Z 48
_cell_length_a 13.102954
_cell_length_b 23.577834
_cell_length_c 13.566945
_cell_angle_alpha 90.000000
_cell_angle_beta 139.604892
_cell_angle_gamma 90.000000
_cell_volume 2716.232680
_symmetry_space_group_name_H-M "C 2/M"
_symmetry_group_IT_number 12
_symmetry_cell_setting 'monoclinic'
loop_
_space_group_symop_operation_xyz
x,y,z
-x,y,-z
-x,-y,-z
x,-y,z
1/2+x,1/2+y,z
1/2-x,1/2+y,-z
1/2-x,1/2-y,-z
1/2+x,1/2-y,z
loop_
_atom_site_type_symbol
_atom_site_label
_atom_site_fract_x
_atom_site_fract_y
_atom_site_fract_z
Si Si1 0.588946 0.325816 0.863006
Si Si2 0.841407 0.732837 0.921726
Si Si3 0.148735 0.436304 0.543086
Si Si4 0.247216 0.329423 0.517329
Si Si5 0.668153 0.263861 0.597868
Si Si6 0.988443 0.936871 0.878475
O O1 0.734065 0.313522 0.897050
O O2 0.424552 0.316736 0.685902
O O3 0.595249 0.391887 0.898203
O O4 0.608090 0.285416 0.971991
O O5 0.754541 0.756085 0.760550
O O6 0.000000 0.702011 0.000000
O O7 0.124234 0.500000 0.482863
O O8 0.178974 0.393206 0.474464
O O9 0.303445 0.431882 0.722734
O O10 0.000000 0.418214 0.500000
O O11 0.234372 0.311053 0.393341
O O12 0.137136 0.290666 0.505525
O O13 0.500000 0.291009 0.500000
O O14 0.051272 0.000000 0.898848
O O15 0.000000 0.922187 0.000000
#
# Coordination Sequence:
#
# PCOD8096256 Si02
#       6
#     8   8   8   8   8   8
#     4  10  20  33  54  76 103 135 172 209 253 305
#     4  11  21  35  51  74 103 138 171 212 255 299
#     4   9  18  34  54  77 104 132 165 209 256 301
#     4  10  20  33  52  79 103 136 169 208 255 308
#     4  11  21  34  51  74 106 136 168 210 257 304
#     4   9  18  33  54  77 102 133 167 207 255 304
#
# _framework density 17.671534000000001
#
# number of rings (size 3 to 8) (size 9 to 14) (size 15 to 20)
#    0.000    2.000    3.333    1.000    2.333    0.000 
#    3.000    0.000    0.000    2.000    0.000    0.000 
#    0.000    0.000    0.000    0.000    0.000    0.000 
#
# Total GULP energy -297430.073057 kJ/mol
# GULP energy per Si atom -12392.919711 kJ/mol
# Density = 1.763131 g / cm^3
# Si number density = 17.671534 Si / 1000 Ang^3
#
#
#
# Elastic Constant Matrix: (Units=GPa)
#
#
# Indices 1 2 3 4 5 6 
#
# 1 124.0197 59.6692 29.7849 0.0000 1.8771 0.0000
# 2 59.6692 110.3869 20.0108 0.0000 -2.3001 0.0000
# 3 29.7849 20.0108 49.4961 0.0000 -8.5711 0.0000
# 4 0.0000 0.0000 0.0000 19.9000 0.0000 2.9875
# 5 1.8771 -2.3001 -8.5711 0.0000 24.8126 0.0000
# 6 0.0000 0.0000 0.0000 2.9875 0.0000 22.1985
#
#
#
# Elastic Compliance Matrix: (Units=1/GPa)
#
#
# Indices 1 2 3 4 5 6 
#
# 1 0.012178 -0.005631 -0.005639 0.000000 -0.003391 0.000000
# 2 -0.005631 0.012385 -0.001431 0.000000 0.001080 0.000000
# 3 -0.005639 -0.001431 0.025768 0.000000 0.009195 0.000000
# 4 0.000000 0.000000 0.000000 0.051287 0.000000 -0.006902
# 5 -0.003391 0.001080 0.009195 0.000000 0.043835 0.000000
# 6 0.000000 0.000000 0.000000 -0.006902 0.000000 0.045977
#
#
# Mechanical properties :
#
#
# Convention : Reuss Voigt Hill
#
# Bulk Modulus (GPa) = 40.11605 55.87025 47.99315
# Shear Modulus (GPa) = 22.20808 25.01142 23.60975
#
# Velocity S-wave (km/s) = 3.54886 3.76620 3.65914
# Velocity P-wave (km/s) = 6.28831 7.11315 6.71341
#
# Compressibility (1/GPa) = 0.02492768
#
# Stress axis : x y z
#
# Youngs Moduli (GPa) = 82.11390 80.74265 38.80795
#
# Poissons Ratio (x) = 0.45469 0.21884
# Poissons Ratio (y) = 0.46241 0.05555
# Poissons Ratio (z) = 0.46304 0.11558
#
# Static dielectric constant tensor:
#      x y z
#    x 3.426090 0.000000 0.050010 
#    y 0.000000 3.339300 0.000000 
#    z 0.050010 0.000000 3.308890 
# 
# 
# High freq. dielectric constant tensor:
#      x y z
#    x 1.682920 0.000000 0.006370 
#    y 0.000000 1.666100 0.000000 
#    z 0.006370 0.000000 1.680780 
# 
# From -- ./inp_files/51944.got.cif
#   From: 2010.06.25/outbox.cif.g09.slc.cpg/sg12_26_cif.got.tgz:51944.got - 2010.06.28 00:19:55.
