data_PCOD8096366
_publ_section_title
;
Structure prediction by ZEFSAII (Michael W. Deem and Ramdas Pophale) SiO2 
 PCOD8096366
Probable space group: C 2/M
;
_chemical_formula_sum "Si O2"
_cell_formula_units_Z 40
_cell_length_a 39.692148
_cell_length_b 9.646368
_cell_length_c 5.315227
_cell_angle_alpha 90.000000
_cell_angle_beta 74.405398
_cell_angle_gamma 90.000000
_cell_volume 1960.203959
_symmetry_space_group_name_H-M "C 2/M"
_symmetry_group_IT_number 12
_symmetry_cell_setting 'monoclinic'
loop_
_space_group_symop_operation_xyz
x,y,z
-x,y,-z
-x,-y,-z
x,-y,z
1/2+x,1/2+y,z
1/2-x,1/2+y,-z
1/2-x,1/2-y,-z
1/2+x,1/2-y,z
loop_
_atom_site_type_symbol
_atom_site_label
_atom_site_fract_x
_atom_site_fract_y
_atom_site_fract_z
Si Si1 0.591222 0.165839 0.047614
Si Si2 0.870995 0.338846 0.531617
Si Si3 0.233210 0.151374 0.834125
Si Si4 0.477894 0.658652 0.795123
Si Si5 0.197078 0.650640 0.593182
O O1 0.615027 0.222482 0.233063
O O2 0.553756 0.234864 0.148581
O O3 0.587002 0.000000 0.060002
O O4 0.608802 0.220021 0.753976
O O5 0.878313 0.500000 0.529281
O O6 0.829472 0.306531 0.577974
O O7 0.198276 0.226171 0.795932
O O8 0.263125 0.128353 0.568052
O O9 0.222322 0.000000 0.964677
O O10 0.250000 0.250000 0.000000
O O11 0.500000 0.686258 0.500000
O O12 0.464340 0.500000 0.828279
O O13 0.500000 0.691515 0.000000
O O14 0.184201 0.500000 0.732349
#
# Coordination Sequence:
#
# PCOD8096366 Si02
#       5
#     8   8   8   8   8
#     4  10  20  35  56  84 111 139 179 226 267 318
#     4   9  19  34  56  81 109 143 182 222 273 328
#     4  10  20  33  53  78 105 138 183 233 280 330
#     4  10  21  37  57  80 109 146 181 215 263 322
#     4   9  19  35  54  75 102 143 184 226 277 332
#
# _framework density 20.406037999999999
#
# number of rings (size 3 to 8) (size 9 to 14) (size 15 to 20)
#    0.000    2.400    0.000    1.800    2.800    1.600 
#    0.000    2.000    0.000    0.000    0.000    0.000 
#    0.000    0.000    0.000    0.000    0.000    0.000 
#
# Total GULP energy -247795.063654 kJ/mol
# GULP energy per Si atom -12389.753183 kJ/mol
# Density = 2.035959 g / cm^3
# Si number density = 20.406038 Si / 1000 Ang^3
#
#
#
# Elastic Constant Matrix: (Units=GPa)
#
#
# Indices 1 2 3 4 5 6 
#
# 1 105.6413 34.2515 20.7530 0.0000 25.6948 0.0000
# 2 34.2515 97.9131 13.9399 0.0000 20.3219 0.0000
# 3 20.7530 13.9399 87.6952 0.0000 26.8220 0.0000
# 4 0.0000 0.0000 0.0000 31.9015 0.0000 10.5910
# 5 25.6948 20.3219 26.8220 0.0000 36.2326 0.0000
# 6 0.0000 0.0000 0.0000 10.5910 0.0000 27.7873
#
#
#
# Elastic Compliance Matrix: (Units=1/GPa)
#
#
# Indices 1 2 3 4 5 6 
#
# 1 0.012076 -0.002774 -0.000353 0.000000 -0.006746 0.000000
# 2 -0.002774 0.012198 0.000269 0.000000 -0.005074 0.000000
# 3 -0.000353 0.000269 0.014754 0.000000 -0.010822 0.000000
# 4 0.000000 0.000000 0.000000 0.035888 0.000000 -0.013678
# 5 -0.006746 -0.005074 -0.010822 0.000000 0.043241 0.000000
# 6 0.000000 0.000000 0.000000 -0.013678 0.000000 0.041201
#
#
# Mechanical properties :
#
#
# Convention : Reuss Voigt Hill
#
# Bulk Modulus (GPa) = 30.01905 47.68203 38.85054
# Shear Modulus (GPa) = 28.38047 34.00461 31.19254
#
# Velocity S-wave (km/s) = 3.73337 4.08658 3.91397
# Velocity P-wave (km/s) = 5.77295 6.75901 6.28535
#
# Compressibility (1/GPa) = 0.03331218
#
# Stress axis : x y z
#
# Youngs Moduli (GPa) = 82.81170 81.97930 67.77795
#
# Poissons Ratio (x) = 0.22739 0.02395
# Poissons Ratio (y) = 0.22970 -0.01825
# Poissons Ratio (z) = 0.02927 -0.02208
#
# Static dielectric constant tensor:
#      x y z
#    x 3.191220 0.000000 -3.880780 
#    y 0.000000 3.805630 0.000000 
#    z -3.880780 0.000000 -14.076360 
# 
# 
# High freq. dielectric constant tensor:
#      x y z
#    x 1.796320 0.000000 0.017260 
#    y 0.000000 1.779020 0.000000 
#    z 0.017260 0.000000 1.793790 
# 
# From -- ./inp_files/30599.got.cif
#   From: 2010.06.25/outbox.cif.g09.slc.cpg/sg12_16_cif.got.tgz:30599.got - 2010.06.28 00:19:55.
