data_PCOD8096608
_publ_section_title
;
Structure prediction by ZEFSAII (Michael W. Deem and Ramdas Pophale) SiO2 
 PCOD8096608
Probable space group: C 2/M
;
_chemical_formula_sum "Si O2"
_cell_formula_units_Z 64
_cell_length_a 26.097314
_cell_length_b 11.654053
_cell_length_c 10.723734
_cell_angle_alpha 90.000000
_cell_angle_beta 85.919004
_cell_angle_gamma 90.000000
_cell_volume 3253.241140
_symmetry_space_group_name_H-M "C 2/M"
_symmetry_group_IT_number 12
_symmetry_cell_setting 'monoclinic'
loop_
_space_group_symop_operation_xyz
x,y,z
-x,y,-z
-x,-y,-z
x,-y,z
1/2+x,1/2+y,z
1/2-x,1/2+y,-z
1/2-x,1/2-y,-z
1/2+x,1/2-y,z
loop_
_atom_site_type_symbol
_atom_site_label
_atom_site_fract_x
_atom_site_fract_y
_atom_site_fract_z
Si Si1 0.372239 0.216303 0.339951
Si Si2 0.798237 0.628298 0.802618
Si Si3 0.684757 0.369333 0.849208
Si Si4 0.039346 0.872266 0.597675
Si Si5 0.620348 0.732044 0.068026
Si Si6 0.438967 0.126975 0.120433
Si Si7 0.511932 0.672170 0.133609
Si Si8 0.217352 0.368791 0.483925
O O1 0.338594 0.298092 0.258969
O O2 0.410283 0.293825 0.416687
O O3 0.406533 0.130003 0.253313
O O4 0.335102 0.140176 0.430113
O O5 0.809713 0.500000 0.850537
O O6 0.743172 0.671410 0.864699
O O7 0.842472 0.713565 0.837416
O O8 0.798041 0.631054 0.655455
O O9 0.685317 0.500000 0.803175
O O10 0.651907 0.359112 0.980655
O O11 0.000000 0.823364 0.500000
O O12 0.015798 0.883049 0.742327
O O13 0.055797 0.000000 0.555070
O O14 0.573219 0.668768 0.146243
O O15 0.597485 0.829024 0.982951
O O16 0.491335 0.198138 0.125258
O O17 0.456944 0.000000 0.087611
O O18 0.500000 0.611154 0.000000
O O19 0.241060 0.500000 0.510189
O O20 0.250000 0.250000 0.500000
#
# Coordination Sequence:
#
# PCOD8096608 Si02
#       8
#     8   8   8   8   8   8   8   8
#     4  10  20  36  60  82 112 152 193 239 291 352
#     4  10  21  36  55  81 115 152 192 241 298 359
#     4  10  20  36  57  81 111 151 194 240 295 357
#     4  10  22  38  58  83 115 156 198 246 301 361
#     4  10  20  33  56  82 112 148 184 238 297 350
#     4   9  18  34  55  81 110 142 186 231 280 347
#     4   9  20  35  54  83 112 146 191 243 289 352
#     4  11  23  40  63  90 121 157 204 252 294 354
#
# _framework density 19.672688000000001
#
# number of rings (size 3 to 8) (size 9 to 14) (size 15 to 20)
#    0.000    2.125    1.250    2.250    1.750    4.000 
#    0.000    0.625    0.000    1.875    0.000    0.000 
#    0.000    0.000    0.000    0.000    0.000    0.000 
#
# Total GULP energy -396507.541636 kJ/mol
# GULP energy per Si atom -12390.860676 kJ/mol
# Density = 1.962791 g / cm^3
# Si number density = 19.672688 Si / 1000 Ang^3
#
#
#
# Elastic Constant Matrix: (Units=GPa)
#
#
# Indices 1 2 3 4 5 6 
#
# 1 109.1187 24.4856 24.0894 0.0000 -1.9693 0.0000
# 2 24.4856 85.6333 13.4510 0.0000 8.8819 0.0000
# 3 24.0894 13.4510 62.8646 0.0000 -7.2059 0.0000
# 4 0.0000 0.0000 0.0000 11.0710 0.0000 4.3697
# 5 -1.9693 8.8819 -7.2059 0.0000 38.0254 0.0000
# 6 0.0000 0.0000 0.0000 4.3697 0.0000 14.6421
#
#
#
# Elastic Compliance Matrix: (Units=1/GPa)
#
#
# Indices 1 2 3 4 5 6 
#
# 1 0.010494 -0.002512 -0.003429 0.000000 0.000480 0.000000
# 2 -0.002512 0.013127 -0.002262 0.000000 -0.003625 0.000000
# 3 -0.003429 -0.002262 0.018139 0.000000 0.003788 0.000000
# 4 0.000000 0.000000 0.000000 0.102386 0.000000 -0.030556
# 5 0.000480 -0.003625 0.003788 0.000000 0.027888 0.000000
# 6 0.000000 0.000000 0.000000 -0.030556 0.000000 0.077415
#
#
# Mechanical properties :
#
#
# Convention : Reuss Voigt Hill
#
# Bulk Modulus (GPa) = 39.43898 42.40762 40.92330
# Shear Modulus (GPa) = 18.22791 25.78708 22.00749
#
# Velocity S-wave (km/s) = 3.04725 3.62443 3.34830
# Velocity P-wave (km/s) = 5.69842 6.25450 5.98293
#
# Compressibility (1/GPa) = 0.02535563
#
# Stress axis : x y z
#
# Youngs Moduli (GPa) = 95.29688 76.17799 55.12927
#
# Poissons Ratio (x) = 0.19134 0.18901
# Poissons Ratio (y) = 0.23936 0.12469
# Poissons Ratio (z) = 0.32673 0.17230
#
# Static dielectric constant tensor:
#      x y z
#    x 3.730620 0.000000 -0.191820 
#    y 0.000000 3.630900 0.000000 
#    z -0.191820 0.000000 3.637570 
# 
# 
# High freq. dielectric constant tensor:
#      x y z
#    x 1.771550 0.000000 -0.015530 
#    y 0.000000 1.760070 0.000000 
#    z -0.015530 0.000000 1.761840 
# 
# From -- ./inp_files/182099.got.cif
#   From: 2010.06.25/outbox.cif.g09.slc.cpg/sg12_92_cif.got.tgz:182099.got - 2010.06.28 00:19:55.
