data_PCOD8096347
_publ_section_title
;
Structure prediction by ZEFSAII (Michael W. Deem and Ramdas Pophale) SiO2 
 PCOD8096347
Probable space group: C 2/M
;
_chemical_formula_sum "Si O2"
_cell_formula_units_Z 64
_cell_length_a 16.843362
_cell_length_b 21.255877
_cell_length_c 18.228114
_cell_angle_alpha 90.000000
_cell_angle_beta 148.327447
_cell_angle_gamma 90.000000
_cell_volume 3426.587328
_symmetry_space_group_name_H-M "C 2/M"
_symmetry_group_IT_number 12
_symmetry_cell_setting 'monoclinic'
loop_
_space_group_symop_operation_xyz
x,y,z
-x,y,-z
-x,-y,-z
x,-y,z
1/2+x,1/2+y,z
1/2-x,1/2+y,-z
1/2-x,1/2-y,-z
1/2+x,1/2-y,z
loop_
_atom_site_type_symbol
_atom_site_label
_atom_site_fract_x
_atom_site_fract_y
_atom_site_fract_z
Si Si1 0.232553 0.117473 0.164708
Si Si2 0.127974 0.280775 0.354029
Si Si3 0.565094 0.149452 0.440152
Si Si4 0.170227 0.254801 0.120824
Si Si5 0.151762 0.772305 0.594536
Si Si6 0.148676 0.931185 0.946681
Si Si7 0.311995 0.569608 0.716278
Si Si8 0.164674 0.199892 0.884910
O O1 0.405733 0.116734 0.329540
O O2 0.169798 0.184697 0.086696
O O3 0.146244 0.097532 0.170758
O O4 0.206877 0.071196 0.076494
O O5 0.250000 0.250000 0.500000
O O6 0.062805 0.339432 0.349326
O O7 0.218687 0.306310 0.353219
O O8 0.008349 0.224259 0.245009
O O9 0.575184 0.215426 0.489832
O O10 0.699556 0.106876 0.575008
O O11 0.256850 0.247615 0.264702
O O12 0.265633 0.300007 0.142247
O O13 0.000000 0.280285 0.000000
O O14 0.000000 0.812716 0.500000
O O15 0.200657 0.870879 0.940413
O O16 0.969091 0.931238 0.797674
O O17 0.206507 0.000000 0.962103
O O18 0.244345 0.500000 0.673345
O O19 0.250000 0.250000 0.000000
#
# Coordination Sequence:
#
# PCOD8096347 Si02
#       8
#     8   8   8   8   8   8   8   8
#     4  12  21  34  54  79 117 151 188 226 272 333
#     4  10  20  33  53  77 111 146 178 230 280 329
#     4  11  20  35  51  78 112 147 185 227 269 328
#     4  12  22  33  55  84 114 145 184 238 289 338
#     4  11  19  33  50  77 110 144 179 224 287 330
#     4  11  24  40  56  78 112 152 193 233 278 337
#     4  11  23  36  54  80 115 160 191 217 268 336
#     4  12  22  37  57  84 109 147 190 235 289 336
#
# _framework density 18.677475000000001
#
# number of rings (size 3 to 8) (size 9 to 14) (size 15 to 20)
#    0.000    0.750    5.000    4.875    0.000    2.500 
#    0.000    0.000    0.000    0.375    0.000    0.875 
#    0.000   10.000    0.000    0.000    0.000    0.000 
#
# Total GULP energy -396457.427680 kJ/mol
# GULP energy per Si atom -12389.294615 kJ/mol
# Density = 1.863496 g / cm^3
# Si number density = 18.677475 Si / 1000 Ang^3
#
#
#
# Elastic Constant Matrix: (Units=GPa)
#
#
# Indices 1 2 3 4 5 6 
#
# 1 108.2726 32.1574 19.4467 -0.0025 1.8640 -0.0004
# 2 32.1574 97.2433 16.5607 -0.0036 -11.9179 -0.0018
# 3 19.4467 16.5607 85.3496 -0.0029 4.4782 -0.0008
# 4 -0.0025 -0.0036 -0.0029 12.7209 -0.0032 -0.1175
# 5 1.8640 -11.9179 4.4782 -0.0032 27.7481 -0.0009
# 6 -0.0004 -0.0018 -0.0008 -0.1175 -0.0009 20.6333
#
#
#
# Elastic Compliance Matrix: (Units=1/GPa)
#
#
# Indices 1 2 3 4 5 6 
#
# 1 0.010592 -0.003460 -0.001640 0.000000 -0.001933 0.000000
# 2 -0.003460 0.012483 -0.001944 0.000004 0.005907 0.000001
# 3 -0.001640 -0.001944 0.012612 0.000001 -0.002760 0.000000
# 4 0.000000 0.000004 0.000001 0.078615 0.000011 0.000448
# 5 -0.001933 0.005907 -0.002760 0.000011 0.039151 0.000002
# 6 0.000000 0.000001 0.000000 0.000448 0.000002 0.048468
#
#
# Mechanical properties :
#
#
# Convention : Reuss Voigt Hill
#
# Bulk Modulus (GPa) = 46.30028 47.46612 46.88320
# Shear Modulus (GPa) = 22.40061 27.06717 24.73389
#
# Velocity S-wave (km/s) = 3.46690 3.81095 3.64299
# Velocity P-wave (km/s) = 6.39289 6.69576 6.54608
#
# Compressibility (1/GPa) = 0.02159814
#
# Stress axis : x y z
#
# Youngs Moduli (GPa) = 94.41529 80.11092 79.28803
#
# Poissons Ratio (x) = 0.27719 0.13007
# Poissons Ratio (y) = 0.32668 0.15411
# Poissons Ratio (z) = 0.15489 0.15571
#
# Static dielectric constant tensor:
#      x y z
#    x 17.440020 0.000390 0.341110 
#    y 0.000390 3.477980 0.000020 
#    z 0.341110 0.000020 3.502160 
# 
# 
# High freq. dielectric constant tensor:
#      x y z
#    x 1.724470 0.000000 0.006500 
#    y 0.000000 1.674080 0.000000 
#    z 0.006500 0.000000 1.748790 
# 
# From -- ./inp_files/279140.got.cif
#   From: 2010.06.25/outbox.cif.g09.slc.cpg/sg12_140_cif.got.tgz:279140.got - 2010.06.28 00:19:55.
