data_PCOD8096749
_publ_section_title
;
Structure prediction by ZEFSAII (Michael W. Deem and Ramdas Pophale) SiO2 
 PCOD8096749
Probable space group: C 2/M
;
_chemical_formula_sum "Si O2"
_cell_formula_units_Z 48
_cell_length_a 14.102756
_cell_length_b 7.773925
_cell_length_c 27.170985
_cell_angle_alpha 90.000000
_cell_angle_beta 122.591574
_cell_angle_gamma 90.000000
_cell_volume 2509.781594
_symmetry_space_group_name_H-M "C 2/M"
_symmetry_group_IT_number 12
_symmetry_cell_setting 'monoclinic'
loop_
_space_group_symop_operation_xyz
x,y,z
-x,y,-z
-x,-y,-z
x,-y,z
1/2+x,1/2+y,z
1/2-x,1/2+y,-z
1/2-x,1/2-y,-z
1/2+x,1/2-y,z
loop_
_atom_site_type_symbol
_atom_site_label
_atom_site_fract_x
_atom_site_fract_y
_atom_site_fract_z
Si Si1 0.451625 0.699062 0.842474
Si Si2 0.495989 0.203795 0.246440
Si Si3 0.819108 0.000000 0.431093
Si Si4 0.601939 0.807570 0.377184
Si Si5 0.537254 0.500000 0.430587
Si Si6 0.748440 0.801495 0.845567
Si Si7 0.195402 0.798386 0.933561
O O1 0.454169 0.500000 0.856763
O O2 0.430264 0.726859 0.778492
O O3 0.350078 0.788643 0.844180
O O4 0.569940 0.782283 0.893430
O O5 0.549574 0.268294 0.312284
O O6 0.370093 0.281329 0.204917
O O7 0.496927 0.000000 0.244593
O O8 0.737780 0.169964 0.407705
O O9 0.889191 0.000000 0.500243
O O10 0.904360 0.000000 0.408114
O O11 0.569386 0.673226 0.410337
O O12 0.552414 0.000000 0.375858
O O13 0.769791 0.777141 0.909796
O O14 0.744551 0.000000 0.830432
O O15 0.190230 0.000000 0.925553
O O16 0.250000 0.750000 0.000000
#
# Coordination Sequence:
#
# PCOD8096749 Si02
#       7
#     8   8   4   8   4   8   8
#     4   9  19  33  52  74 100 131 172 212 257 325
#     4   9  18  34  52  76 109 133 169 225 272 320
#     4   9  22  40  57  91 123 147 217 242 280 374
#     4   9  21  38  57  88 121 152 201 249 288 354
#     4  11  20  40  63  83 119 171 189 248 308 334
#     4   9  18  34  53  73  98 135 168 209 269 320
#     4  10  20  34  50  71  98 130 169 214 258 312
#
# _framework density 19.125170000000001
#
# number of rings (size 3 to 8) (size 9 to 14) (size 15 to 20)
#    0.500    2.167    0.000    1.000    1.167    3.333 
#    1.500    4.167    0.000    0.000    0.000    0.000 
#    0.000    0.000    0.000    0.000    0.000    0.000 
#
# Total GULP energy -297420.040223 kJ/mol
# GULP energy per Si atom -12392.501676 kJ/mol
# Density = 1.908164 g / cm^3
# Si number density = 19.125170 Si / 1000 Ang^3
#
#
#
# Elastic Constant Matrix: (Units=GPa)
#
#
# Indices 1 2 3 4 5 6 
#
# 1 177.0470 35.7848 64.7447 0.0000 -12.6052 0.0000
# 2 35.7848 44.3834 17.5460 0.0000 -1.4973 0.0000
# 3 64.7447 17.5460 126.8214 0.0000 -9.0721 0.0000
# 4 0.0000 0.0000 0.0000 20.9343 0.0000 -6.2344
# 5 -12.6052 -1.4973 -9.0721 0.0000 18.1873 0.0000
# 6 0.0000 0.0000 0.0000 -6.2344 0.0000 23.2547
#
#
#
# Elastic Compliance Matrix: (Units=1/GPa)
#
#
# Indices 1 2 3 4 5 6 
#
# 1 0.008107 -0.005163 -0.003166 0.000000 0.003614 0.000000
# 2 -0.005163 0.027124 -0.001258 0.000000 -0.001973 0.000000
# 3 -0.003166 -0.001258 0.009863 0.000000 0.002622 0.000000
# 4 0.000000 0.000000 0.000000 0.051913 0.000000 0.013917
# 5 0.003614 -0.001973 0.002622 0.000000 0.058634 0.000000
# 6 0.000000 0.000000 0.000000 0.013917 0.000000 0.046733
#
#
# Mechanical properties :
#
#
# Convention : Reuss Voigt Hill
#
# Bulk Modulus (GPa) = 38.57929 64.93364 51.75647
# Shear Modulus (GPa) = 21.72136 27.82034 24.77085
#
# Velocity S-wave (km/s) = 3.37374 3.81812 3.60279
# Velocity P-wave (km/s) = 5.94911 7.31184 6.66539
#
# Compressibility (1/GPa) = 0.02592064
#
# Stress axis : x y z
#
# Youngs Moduli (GPa) = 123.35378 36.86728 101.38950
#
# Poissons Ratio (x) = 0.19034 0.32098
# Poissons Ratio (y) = 0.63684 0.12756
# Poissons Ratio (z) = 0.39052 0.04638
#
# Static dielectric constant tensor:
#      x y z
#    x 3.812470 0.000000 0.144280 
#    y 0.000000 3.262550 0.000000 
#    z 0.144280 0.000000 3.573940 
# 
# 
# High freq. dielectric constant tensor:
#      x y z
#    x 1.743330 0.000000 -0.002650 
#    y 0.000000 1.726840 0.000000 
#    z -0.002650 0.000000 1.743940 
# 
# From -- ./inp_files/357373.got.cif
#   From: 2010.06.25/outbox.cif.g09.slc.cpg/sg12_179_cif.got.tgz:357373.got - 2010.06.28 00:19:55.
