data_PCOD8096257
_publ_section_title
;
Structure prediction by ZEFSAII (Michael W. Deem and Ramdas Pophale) SiO2 
 PCOD8096257
Probable space group: C 2/M
;
_chemical_formula_sum "Si O2"
_cell_formula_units_Z 56
_cell_length_a 20.766583
_cell_length_b 8.821235
_cell_length_c 30.654123
_cell_angle_alpha 90.000000
_cell_angle_beta 146.826493
_cell_angle_gamma 90.000000
_cell_volume 3072.632156
_symmetry_space_group_name_H-M "C 2/M"
_symmetry_group_IT_number 12
_symmetry_cell_setting 'monoclinic'
loop_
_space_group_symop_operation_xyz
x,y,z
-x,y,-z
-x,-y,-z
x,-y,z
1/2+x,1/2+y,z
1/2-x,1/2+y,-z
1/2-x,1/2-y,-z
1/2+x,1/2-y,z
loop_
_atom_site_type_symbol
_atom_site_label
_atom_site_fract_x
_atom_site_fract_y
_atom_site_fract_z
Si Si1 0.580957 0.667719 0.503473
Si Si2 0.019861 0.320188 0.812845
Si Si3 0.746270 0.319578 0.899505
Si Si4 0.466598 0.180118 0.080629
Si Si5 0.302510 0.178338 0.835485
Si Si6 0.353113 0.677890 0.331792
Si Si7 0.722739 0.677379 0.337995
O O1 0.500000 0.664222 0.500000
O O2 0.632103 0.500000 0.523148
O O3 0.492531 0.719543 0.414244
O O4 0.689530 0.781514 0.572126
O O5 0.022140 0.500000 0.813000
O O6 0.125032 0.255887 0.843955
O O7 0.031186 0.258018 0.868758
O O8 0.899804 0.261520 0.723322
O O9 0.732125 0.500000 0.891695
O O10 0.779847 0.256057 0.870680
O O11 0.847178 0.264645 0.989976
O O12 0.578189 0.247847 0.117526
O O13 0.474306 0.000000 0.085224
O O14 0.191214 0.218757 0.741686
O O15 0.319601 0.000000 0.849074
O O16 0.333592 0.500000 0.331482
O O17 0.276377 0.771842 0.322460
O O18 0.700707 0.500000 0.325352
#
# Coordination Sequence:
#
# PCOD8096257 Si02
#       7
#     8   8   8   8   8   8   8
#     4   8  15  27  46  72 102 133 164 201 247 304
#     4  11  21  35  53  71 102 141 174 208 251 310
#     4  10  20  33  52  79 105 131 170 216 256 295
#     4   9  17  31  54  78  99 132 175 213 250 298
#     4   9  16  30  54  79 104 134 170 209 248 298
#     4   9  16  30  51  75 103 136 170 200 245 307
#     4  11  20  30  48  75 103 130 167 215 258 294
#
# _framework density 18.225415999999999
#
# number of rings (size 3 to 8) (size 9 to 14) (size 15 to 20)
#    0.000    2.429    1.429    3.429    0.000    4.286 
#    0.000    1.429    0.000    1.714    0.000    0.000 
#    0.000    0.000    0.000    0.000    0.000    0.000 
#
# Total GULP energy -347121.354364 kJ/mol
# GULP energy per Si atom -12397.191227 kJ/mol
# Density = 1.818393 g / cm^3
# Si number density = 18.225416 Si / 1000 Ang^3
#
#
#
# Elastic Constant Matrix: (Units=GPa)
#
#
# Indices 1 2 3 4 5 6 
#
# 1 90.4884 19.4108 36.7348 0.0001 16.1115 -0.0001
# 2 19.4108 40.6743 21.2509 0.0000 4.4304 -0.0002
# 3 36.7348 21.2509 122.8996 0.0001 20.6945 -0.0002
# 4 0.0001 0.0000 0.0001 16.4803 0.0000 7.3351
# 5 16.1115 4.4304 20.6945 0.0000 16.5139 0.0000
# 6 -0.0001 -0.0002 -0.0002 7.3351 0.0000 20.6764
#
#
#
# Elastic Compliance Matrix: (Units=1/GPa)
#
#
# Indices 1 2 3 4 5 6 
#
# 1 0.014754 -0.004956 -0.001715 0.000000 -0.010916 0.000000
# 2 -0.004956 0.028733 -0.003806 0.000000 0.001896 0.000000
# 3 -0.001715 -0.003806 0.011222 0.000000 -0.011368 0.000000
# 4 0.000000 0.000000 0.000000 0.072056 0.000000 -0.025563
# 5 -0.010916 0.001896 -0.011368 0.000000 0.084942 0.000000
# 6 0.000000 0.000000 0.000000 -0.025563 0.000000 0.057433
#
#
# Mechanical properties :
#
#
# Convention : Reuss Voigt Hill
#
# Bulk Modulus (GPa) = 29.62607 45.42838 37.52722
# Shear Modulus (GPa) = 16.59225 22.51183 19.55204
#
# Velocity S-wave (km/s) = 3.02054 3.51834 3.27890
# Velocity P-wave (km/s) = 5.33437 6.44088 5.91356
#
# Compressibility (1/GPa) = 0.03375406
#
# Stress axis : x y z
#
# Youngs Moduli (GPa) = 67.77806 34.80353 89.11273
#
# Poissons Ratio (x) = 0.17249 0.15283
# Poissons Ratio (y) = 0.33591 0.33919
# Poissons Ratio (z) = 0.11624 0.13247
#
# Static dielectric constant tensor:
#      x y z
#    x 3.177420 0.000000 -0.032240 
#    y 0.000000 3.012720 0.000000 
#    z -0.032240 0.000000 3.876240 
# 
# 
# High freq. dielectric constant tensor:
#      x y z
#    x 1.672240 0.000000 0.005930 
#    y 0.000000 1.672540 0.000000 
#    z 0.005930 0.000000 1.729370 
# 
# From -- ./inp_files/319720.got.cif
#   From: 2010.06.25/outbox.cif.g09.slc.cpg/sg12_160_cif.got.tgz:319720.got - 2010.06.28 00:19:55.
