data_PCOD8096163
_publ_section_title
;
Structure prediction by ZEFSAII (Michael W. Deem and Ramdas Pophale) SiO2 
 PCOD8096163
Probable space group: C 2/M
;
_chemical_formula_sum "Si O2"
_cell_formula_units_Z 64
_cell_length_a 20.629387
_cell_length_b 9.587467
_cell_length_c 24.618003
_cell_angle_alpha 90.000000
_cell_angle_beta 133.074159
_cell_angle_gamma 90.000000
_cell_volume 3556.686836
_symmetry_space_group_name_H-M "C 2/M"
_symmetry_group_IT_number 12
_symmetry_cell_setting 'monoclinic'
loop_
_space_group_symop_operation_xyz
x,y,z
-x,y,-z
-x,-y,-z
x,-y,z
1/2+x,1/2+y,z
1/2-x,1/2+y,-z
1/2-x,1/2-y,-z
1/2+x,1/2-y,z
loop_
_atom_site_type_symbol
_atom_site_label
_atom_site_fract_x
_atom_site_fract_y
_atom_site_fract_z
Si Si1 0.563938 0.665784 0.291516
Si Si2 0.589664 0.338234 0.583980
Si Si3 0.340936 0.347973 0.815071
Si Si4 0.183571 0.339618 0.996185
Si Si5 0.754270 0.163749 0.652368
Si Si6 0.746451 0.157431 0.154137
Si Si7 0.973039 0.156409 0.130123
Si Si8 0.568133 0.334700 0.694650
O O1 0.565844 0.500000 0.288985
O O2 0.666920 0.715293 0.343797
O O3 0.502449 0.715388 0.205959
O O4 0.519316 0.720511 0.322337
O O5 0.500000 0.316919 0.500000
O O6 0.618463 0.500000 0.602430
O O7 0.664762 0.253040 0.593818
O O8 0.573097 0.278671 0.635625
O O9 0.307877 0.500000 0.815383
O O10 0.286263 0.302118 0.731127
O O11 0.327144 0.240411 0.855161
O O12 0.443939 0.354600 0.861669
O O13 0.177951 0.500000 0.973624
O O14 0.088856 0.267732 0.935013
O O15 0.250000 0.250000 0.000000
O O16 0.221626 0.329932 0.077913
O O17 0.733835 0.000000 0.632089
O O18 0.845090 0.216566 0.222659
O O19 0.742189 0.000000 0.172726
O O20 0.929852 0.000000 0.110953
O O21 0.561464 0.500000 0.689846
#
# Coordination Sequence:
#
# PCOD8096163 Si02
#       8
#     8   8   8   8   8   8   8   8
#     4   8  15  30  54  77  98 133 179 214 246 302
#     4  10  20  33  52  78 106 136 168 206 256 311
#     4   9  18  32  52  77 101 130 167 210 259 308
#     4  11  23  36  50  71  99 133 174 217 263 310
#     4   9  17  32  54  78 102 132 170 211 254 302
#     4  10  20  33  52  74  97 133 176 213 251 302
#     4   9  18  34  53  73 101 134 170 212 260 310
#     4   9  16  30  52  75  98 130 173 213 249 297
#
# _framework density 17.994275999999999
#
# number of rings (size 3 to 8) (size 9 to 14) (size 15 to 20)
#    0.000    2.625    1.250    2.625    0.000    4.250 
#    0.000    5.000    0.000    1.500    0.000    0.000 
#    0.000    0.000    0.000    0.000    0.000    0.000 
#
# Total GULP energy -396590.832568 kJ/mol
# GULP energy per Si atom -12393.463518 kJ/mol
# Density = 1.795332 g / cm^3
# Si number density = 17.994276 Si / 1000 Ang^3
#
#
#
# Elastic Constant Matrix: (Units=GPa)
#
#
# Indices 1 2 3 4 5 6 
#
# 1 111.0427 38.3925 39.4896 0.0000 1.6374 0.0000
# 2 38.3925 59.7820 30.9497 0.0000 6.6287 0.0000
# 3 39.4896 30.9497 75.1712 0.0000 12.2732 0.0000
# 4 0.0000 0.0000 0.0000 22.3545 0.0000 5.5365
# 5 1.6374 6.6287 12.2732 0.0000 22.5626 0.0000
# 6 0.0000 0.0000 0.0000 5.5365 0.0000 28.5361
#
#
#
# Elastic Compliance Matrix: (Units=1/GPa)
#
#
# Indices 1 2 3 4 5 6 
#
# 1 0.012758 -0.006119 -0.004747 0.000000 0.003454 0.000000
# 2 -0.006119 0.024248 -0.006232 0.000000 -0.003290 0.000000
# 3 -0.004747 -0.006232 0.019762 0.000000 -0.008575 0.000000
# 4 0.000000 0.000000 0.000000 0.046992 0.000000 -0.009117
# 5 0.003454 -0.003290 -0.008575 0.000000 0.049701 0.000000
# 6 0.000000 0.000000 0.000000 -0.009117 0.000000 0.036812
#
#
# Mechanical properties :
#
#
# Convention : Reuss Voigt Hill
#
# Bulk Modulus (GPa) = 44.29998 51.51772 47.90885
# Shear Modulus (GPa) = 21.55223 23.83490 22.69357
#
# Velocity S-wave (km/s) = 3.46457 3.64343 3.55513
# Velocity P-wave (km/s) = 6.37783 6.81114 6.59804
#
# Compressibility (1/GPa) = 0.02257337
#
# Stress axis : x y z
#
# Youngs Moduli (GPa) = 78.38003 41.24012 50.60092
#
# Poissons Ratio (x) = 0.25235 0.24020
# Poissons Ratio (y) = 0.47960 0.31534
# Poissons Ratio (z) = 0.37206 0.25701
#
# Static dielectric constant tensor:
#      x y z
#    x 3.539080 0.000000 0.040570 
#    y 0.000000 3.196140 0.000000 
#    z 0.040570 0.000000 3.160420 
# 
# 
# High freq. dielectric constant tensor:
#      x y z
#    x 1.706100 0.000000 0.005420 
#    y 0.000000 1.669420 0.000000 
#    z 0.005420 0.000000 1.681910 
# 
# From -- ./inp_files/346216.got.cif
#   From: 2010.06.25/outbox.cif.g09.slc.cpg/sg12_174_cif.got.tgz:346216.got - 2010.06.28 00:19:55.
