data_PCOD8096393
_publ_section_title
;
Structure prediction by ZEFSAII (Michael W. Deem and Ramdas Pophale) SiO2 
 PCOD8096393
Probable space group: C 2/M
;
_chemical_formula_sum "Si O2"
_cell_formula_units_Z 64
_cell_length_a 14.431384
_cell_length_b 9.146611
_cell_length_c 26.056067
_cell_angle_alpha 90.000000
_cell_angle_beta 89.660673
_cell_angle_gamma 90.000000
_cell_volume 3439.295076
_symmetry_space_group_name_H-M "C 2/M"
_symmetry_group_IT_number 12
_symmetry_cell_setting 'monoclinic'
loop_
_space_group_symop_operation_xyz
x,y,z
-x,y,-z
-x,-y,-z
x,-y,z
1/2+x,1/2+y,z
1/2-x,1/2+y,-z
1/2-x,1/2-y,-z
1/2+x,1/2-y,z
loop_
_atom_site_type_symbol
_atom_site_label
_atom_site_fract_x
_atom_site_fract_y
_atom_site_fract_z
Si Si1 0.739050 0.329657 0.307532
Si Si2 0.895406 0.330580 0.761246
Si Si3 0.269707 0.172483 0.053072
Si Si4 0.891975 0.668688 0.225566
Si Si5 0.605173 0.828107 0.494164
Si Si6 0.618486 0.332513 0.137474
Si Si7 0.744025 0.329423 0.424231
Si Si8 0.405413 0.670538 0.123578
O O1 0.716171 0.500000 0.303598
O O2 0.649793 0.242236 0.288401
O O3 0.827656 0.286976 0.273196
O O4 0.761135 0.283006 0.365552
O O5 0.871587 0.500000 0.761676
O O6 0.853355 0.262383 0.813338
O O7 0.004127 0.298726 0.756856
O O8 0.184221 0.209416 0.090428
O O9 0.362444 0.241898 0.076232
O O10 0.283146 0.000000 0.044965
O O11 0.250000 0.250000 0.000000
O O12 0.879171 0.500000 0.209376
O O13 0.864616 0.766940 0.176925
O O14 0.500000 0.769504 0.500000
O O15 0.653572 0.753730 0.445200
O O16 0.663155 0.786025 0.544960
O O17 0.604835 0.000000 0.484095
O O18 0.630817 0.500000 0.154093
O O19 0.514549 0.299500 0.119819
O O20 0.723426 0.500000 0.429966
O O21 0.380851 0.500000 0.119580
#
# Coordination Sequence:
#
# PCOD8096393 Si02
#       8
#     8   8   8   8   8   8   8   8
#     4  10  20  34  51  72 106 144 170 201 253 311
#     4  10  20  33  53  80 105 132 173 217 251 292
#     4  11  23  38  55  77 104 135 171 212 260 311
#     4   9  19  35  53  75 104 138 171 205 251 305
#     4   9  18  34  56  77  99 132 173 216 260 305
#     4   9  20  38  57  75 103 141 172 203 255 316
#     4   9  19  34  51  75 104 135 172 211 254 305
#     4  10  20  36  57  79 103 134 172 212 252 302
#
# _framework density 18.608464999999999
#
# number of rings (size 3 to 8) (size 9 to 14) (size 15 to 20)
#    0.000    2.375    0.000    1.875    0.000    7.750 
#    0.000    5.000    0.000    0.000    0.000    0.000 
#    0.000    0.000    0.000    0.000    0.000    0.000 
#
# Total GULP energy -396925.403939 kJ/mol
# GULP energy per Si atom -12403.918873 kJ/mol
# Density = 1.856611 g / cm^3
# Si number density = 18.608465 Si / 1000 Ang^3
#
#
#
# Elastic Constant Matrix: (Units=GPa)
#
#
# Indices 1 2 3 4 5 6 
#
# 1 87.7261 34.3967 44.6861 0.0000 4.7678 0.0000
# 2 34.3967 65.6472 46.7725 0.0000 8.3740 0.0000
# 3 44.6861 46.7725 121.1534 0.0000 11.9756 0.0000
# 4 0.0000 0.0000 0.0000 33.7953 0.0000 2.1820
# 5 4.7678 8.3740 11.9756 0.0000 22.7072 0.0000
# 6 0.0000 0.0000 0.0000 2.1820 0.0000 30.6639
#
#
#
# Elastic Compliance Matrix: (Units=1/GPa)
#
#
# Indices 1 2 3 4 5 6 
#
# 1 0.015380 -0.005598 -0.003583 0.000000 0.000725 0.000000
# 2 -0.005598 0.023343 -0.006554 0.000000 -0.003977 0.000000
# 3 -0.003583 -0.006554 0.012441 0.000000 -0.003392 0.000000
# 4 0.000000 0.000000 0.000000 0.029727 0.000000 -0.002115
# 5 0.000725 -0.003977 -0.003392 0.000000 0.047142 0.000000
# 6 0.000000 0.000000 0.000000 -0.002115 0.000000 0.032762
#
#
# Mechanical properties :
#
#
# Convention : Reuss Voigt Hill
#
# Bulk Modulus (GPa) = 50.77778 58.47081 54.62430
# Shear Modulus (GPa) = 25.14718 27.34469 26.24594
#
# Velocity S-wave (km/s) = 3.68011 3.83753 3.75964
# Velocity P-wave (km/s) = 6.73827 7.15020 6.94729
#
# Compressibility (1/GPa) = 0.01969365
#
# Stress axis : x y z
#
# Youngs Moduli (GPa) = 65.02009 42.83961 80.37862
#
# Poissons Ratio (x) = 0.23982 0.28801
# Poissons Ratio (y) = 0.36398 0.52680
# Poissons Ratio (z) = 0.23298 0.28077
#
# Static dielectric constant tensor:
#      x y z
#    x 3.549330 0.000000 0.051700 
#    y 0.000000 3.425790 0.000000 
#    z 0.051700 0.000000 3.439510 
# 
# 
# High freq. dielectric constant tensor:
#      x y z
#    x 1.729030 0.000000 0.004130 
#    y 0.000000 1.722620 0.000000 
#    z 0.004130 0.000000 1.719220 
# 
# From -- ./inp_files/338684.got.cif
#   From: 2010.06.25/outbox.cif.g09.slc.cpg/sg12_170_cif.got.tgz:338684.got - 2010.06.28 00:19:55.
