data_PCOD8096248
_publ_section_title
;
Structure prediction by ZEFSAII (Michael W. Deem and Ramdas Pophale) SiO2 
 PCOD8096248
Probable space group: C 2/M
;
_chemical_formula_sum "Si O2"
_cell_formula_units_Z 64
_cell_length_a 29.622000
_cell_length_b 9.465494
_cell_length_c 11.657346
_cell_angle_alpha 90.000000
_cell_angle_beta 92.358512
_cell_angle_gamma 90.000000
_cell_volume 3265.797845
_symmetry_space_group_name_H-M "C 2/M"
_symmetry_group_IT_number 12
_symmetry_cell_setting 'monoclinic'
loop_
_space_group_symop_operation_xyz
x,y,z
-x,y,-z
-x,-y,-z
x,-y,z
1/2+x,1/2+y,z
1/2-x,1/2+y,-z
1/2-x,1/2-y,-z
1/2+x,1/2-y,z
loop_
_atom_site_type_symbol
_atom_site_label
_atom_site_fract_x
_atom_site_fract_y
_atom_site_fract_z
Si Si1 0.334687 0.339742 0.091863
Si Si2 0.081547 0.167824 0.745239
Si Si3 0.340082 0.338098 0.835059
Si Si4 0.391405 0.837137 0.468266
Si Si5 0.238966 0.339224 0.813910
Si Si6 0.289040 0.160414 0.445554
Si Si7 0.585525 0.839414 0.275807
Si Si8 0.995418 0.664803 0.134295
O O1 0.319339 0.500000 0.109493
O O2 0.371580 0.294734 0.188446
O O3 0.289839 0.246533 0.096599
O O4 0.355778 0.319144 0.968049
O O5 0.083194 0.238062 0.620160
O O6 0.042884 0.236335 0.818113
O O7 0.073421 0.000000 0.733974
O O8 0.342387 0.500000 0.795617
O O9 0.289540 0.278257 0.812479
O O10 0.372340 0.252476 0.756619
O O11 0.339462 0.787869 0.484705
O O12 0.420164 0.821875 0.587996
O O13 0.391506 0.000000 0.424893
O O14 0.241033 0.500000 0.857494
O O15 0.214329 0.324113 0.690547
O O16 0.250000 0.250000 0.500000
O O17 0.281531 0.000000 0.485110
O O18 0.540808 0.789946 0.205206
O O19 0.596592 0.000000 0.244053
O O20 0.983856 0.500000 0.154326
O O21 0.000000 0.696888 0.000000
#
# Coordination Sequence:
#
# PCOD8096248 Si02
#       8
#     8   8   8   8   8   8   8   8
#     4  10  21  36  54  81 115 150 189 233 283 338
#     4  11  23  38  60  88 116 151 194 238 288 343
#     4  10  21  36  55  82 117 151 185 234 289 337
#     4  10  21  39  59  81 115 153 191 236 285 339
#     4  10  20  34  53  80 111 148 193 232 278 338
#     4  10  20  33  52  78 109 149 192 233 278 327
#     4  10  22  39  60  86 112 146 192 234 281 342
#     4  10  22  41  64  89 116 148 188 234 288 349
#
# _framework density 19.597048000000001
#
# number of rings (size 3 to 8) (size 9 to 14) (size 15 to 20)
#    0.000    1.875    1.250    2.250    0.000    4.250 
#    0.000    2.500    0.000    0.000    0.000    0.000 
#    0.000    0.000    0.000    0.000    0.000    0.000 
#
# Total GULP energy -396893.816884 kJ/mol
# GULP energy per Si atom -12402.931778 kJ/mol
# Density = 1.955244 g / cm^3
# Si number density = 19.597048 Si / 1000 Ang^3
#
#
#
# Elastic Constant Matrix: (Units=GPa)
#
#
# Indices 1 2 3 4 5 6 
#
# 1 103.2368 65.7751 51.2616 0.0000 -8.5023 0.0000
# 2 65.7751 83.2463 41.8232 0.0000 -15.8044 0.0000
# 3 51.2616 41.8232 92.0015 0.0000 4.1073 0.0000
# 4 0.0000 0.0000 0.0000 27.5266 0.0000 -9.5238
# 5 -8.5023 -15.8044 4.1073 0.0000 37.5779 0.0000
# 6 0.0000 0.0000 0.0000 -9.5238 0.0000 37.4375
#
#
#
# Elastic Compliance Matrix: (Units=1/GPa)
#
#
# Indices 1 2 3 4 5 6 
#
# 1 0.021474 -0.014361 -0.005410 0.000000 -0.000590 0.000000
# 2 -0.014361 0.027499 -0.004894 0.000000 0.008851 0.000000
# 3 -0.005410 -0.004894 0.016335 0.000000 -0.005068 0.000000
# 4 0.000000 0.000000 0.000000 0.039835 0.000000 0.010134
# 5 -0.000590 0.008851 -0.005068 0.000000 0.030754 0.000000
# 6 0.000000 0.000000 0.000000 0.010134 0.000000 0.029289
#
#
# Mechanical properties :
#
#
# Convention : Reuss Voigt Hill
#
# Bulk Modulus (GPa) = 62.59014 66.24493 64.41753
# Shear Modulus (GPa) = 22.74351 28.48339 25.61345
#
# Velocity S-wave (km/s) = 3.41039 3.81655 3.61917
# Velocity P-wave (km/s) = 6.89316 7.30057 7.09979
#
# Compressibility (1/GPa) = 0.01597696
#
# Stress axis : x y z
#
# Youngs Moduli (GPa) = 46.56734 36.36502 61.21847
#
# Poissons Ratio (x) = 0.52225 0.33121
# Poissons Ratio (y) = 0.66877 0.29961
# Poissons Ratio (z) = 0.25194 0.17797
#
# Static dielectric constant tensor:
#      x y z
#    x 3.592640 0.000000 0.260300 
#    y 0.000000 3.525350 0.000000 
#    z 0.260300 0.000000 3.643850 
# 
# 
# High freq. dielectric constant tensor:
#      x y z
#    x 1.763400 0.000000 0.009230 
#    y 0.000000 1.757350 0.000000 
#    z 0.009230 0.000000 1.772120 
# 
# From -- ./inp_files/187500.got.cif
#   From: 2010.06.25/outbox.cif.g09.slc.cpg/sg12_94_cif.got.tgz:187500.got - 2010.06.28 00:19:55.
