data_PCOD8096745
_publ_section_title
;
Structure prediction by ZEFSAII (Michael W. Deem and Ramdas Pophale) SiO2 
 PCOD8096745
Probable space group: C 2/M
;
_chemical_formula_sum "Si O2"
_cell_formula_units_Z 56
_cell_length_a 24.286346
_cell_length_b 8.943540
_cell_length_c 18.943415
_cell_angle_alpha 90.000000
_cell_angle_beta 48.883690
_cell_angle_gamma 90.000000
_cell_volume 3099.858140
_symmetry_space_group_name_H-M "C 2/M"
_symmetry_group_IT_number 12
_symmetry_cell_setting 'monoclinic'
loop_
_space_group_symop_operation_xyz
x,y,z
-x,y,-z
-x,-y,-z
x,-y,z
1/2+x,1/2+y,z
1/2-x,1/2+y,-z
1/2-x,1/2-y,-z
1/2+x,1/2-y,z
loop_
_atom_site_type_symbol
_atom_site_label
_atom_site_fract_x
_atom_site_fract_y
_atom_site_fract_z
Si Si1 0.705786 0.173878 0.599284
Si Si2 0.696792 0.328373 0.991278
Si Si3 0.778854 0.822171 0.810334
Si Si4 0.409094 0.330903 0.800769
Si Si5 0.462030 0.169552 0.249955
Si Si6 0.210152 0.821858 0.744420
Si Si7 0.941822 0.323012 0.109157
O O1 0.750000 0.250000 0.500000
O O2 0.620367 0.192109 0.654318
O O3 0.725384 0.260162 0.654010
O O4 0.727003 0.000000 0.589272
O O5 0.719428 0.500000 0.959107
O O6 0.617901 0.318152 0.094897
O O7 0.750000 0.250000 0.000000
O O8 0.704679 0.235870 0.912194
O O9 0.850619 0.765802 0.793246
O O10 0.776578 0.743921 0.735954
O O11 0.776192 0.000000 0.806451
O O12 0.422689 0.500000 0.766946
O O13 0.487076 0.250652 0.735232
O O14 0.471248 0.227533 0.161434
O O15 0.487113 0.000000 0.230741
O O16 0.133575 0.763616 0.841061
O O17 0.211430 0.000000 0.743211
O O18 0.924930 0.500000 0.122890
O O19 0.000000 0.277596 0.000000
#
# Coordination Sequence:
#
# PCOD8096745 Si02
#       7
#     8   8   8   8   8   8   8
#     4  10  21  40  63  86 108 135 172 218 272 330
#     4   9  17  29  43  66  97 138 186 226 259 302
#     4  10  20  34  50  71 104 147 186 226 268 314
#     4   9  19  32  48  72 105 142 182 223 264 310
#     4   9  19  33  52  79 107 138 176 215 264 323
#     4  11  22  35  54  82 109 139 179 224 271 323
#     4   9  19  35  51  72 105 146 184 221 269 321
#
# _framework density 18.065342999999999
#
# number of rings (size 3 to 8) (size 9 to 14) (size 15 to 20)
#    0.000    2.429    0.000    4.286    2.000    6.571 
#    0.000    0.000    0.000    0.857    0.000    6.000 
#    0.000    0.000    0.000    0.000    0.000    0.000 
#
# Total GULP energy -347015.580496 kJ/mol
# GULP energy per Si atom -12393.413589 kJ/mol
# Density = 1.802423 g / cm^3
# Si number density = 18.065343 Si / 1000 Ang^3
#
#
#
# Elastic Constant Matrix: (Units=GPa)
#
#
# Indices 1 2 3 4 5 6 
#
# 1 121.0661 55.0694 42.3349 -0.0017 8.1600 -0.0010
# 2 55.0694 102.8106 41.0576 0.0016 3.2926 -0.0083
# 3 42.3349 41.0576 94.6753 -0.0010 7.8598 0.0045
# 4 -0.0017 0.0016 -0.0010 30.0579 0.0006 0.6674
# 5 8.1600 3.2926 7.8598 0.0006 15.9440 0.0008
# 6 -0.0010 -0.0083 0.0045 0.6674 0.0008 32.0807
#
#
#
# Elastic Compliance Matrix: (Units=1/GPa)
#
#
# Indices 1 2 3 4 5 6 
#
# 1 0.011787 -0.005095 -0.002761 0.000001 -0.003619 0.000000
# 2 -0.005095 0.013967 -0.003916 -0.000001 0.001654 0.000004
# 3 -0.002761 -0.003916 0.013879 0.000001 -0.004620 -0.000003
# 4 0.000001 -0.000001 0.000001 0.033284 -0.000002 -0.000692
# 5 -0.003619 0.001654 -0.004620 -0.000002 0.066508 -0.000001
# 6 0.000000 0.000004 -0.000003 -0.000692 -0.000001 0.031186
#
#
# Mechanical properties :
#
#
# Convention : Reuss Voigt Hill
#
# Bulk Modulus (GPa) = 62.15425 66.16398 64.15912
# Shear Modulus (GPa) = 25.06061 27.62253 26.34157
#
# Velocity S-wave (km/s) = 3.72858 3.91453 3.82269
# Velocity P-wave (km/s) = 7.28123 7.55882 7.42132
#
# Compressibility (1/GPa) = 0.01608900
#
# Stress axis : x y z
#
# Youngs Moduli (GPa) = 84.84032 71.59924 72.05381
#
# Poissons Ratio (x) = 0.36481 0.19890
# Poissons Ratio (y) = 0.43228 0.28215
# Poissons Ratio (z) = 0.23420 0.28037
#
# Static dielectric constant tensor:
#      x y z
#    x 3.340520 0.000000 0.111760 
#    y 0.000000 3.423260 -0.000010 
#    z 0.111760 -0.000010 3.265610 
# 
# 
# High freq. dielectric constant tensor:
#      x y z
#    x 1.697880 0.000000 0.008290 
#    y 0.000000 1.705550 0.000000 
#    z 0.008290 0.000000 1.668120 
# 
# From -- ./inp_files/288218.got.cif
#   From: 2010.06.25/outbox.cif.g09.slc.cpg/sg12_145_cif.got.tgz:288218.got - 2010.06.28 00:19:55.
