data_PCOD8096727
_publ_section_title
;
Structure prediction by ZEFSAII (Michael W. Deem and Ramdas Pophale) SiO2 
 PCOD8096727
Probable space group: C 2/M
;
_chemical_formula_sum "Si O2"
_cell_formula_units_Z 64
_cell_length_a 22.208629
_cell_length_b 14.096225
_cell_length_c 9.522818
_cell_angle_alpha 90.000000
_cell_angle_beta 96.852147
_cell_angle_gamma 90.000000
_cell_volume 2959.899084
_symmetry_space_group_name_H-M "C 2/M"
_symmetry_group_IT_number 12
_symmetry_cell_setting 'monoclinic'
loop_
_space_group_symop_operation_xyz
x,y,z
-x,y,-z
-x,-y,-z
x,-y,z
1/2+x,1/2+y,z
1/2-x,1/2+y,-z
1/2-x,1/2-y,-z
1/2+x,1/2-y,z
loop_
_atom_site_type_symbol
_atom_site_label
_atom_site_fract_x
_atom_site_fract_y
_atom_site_fract_z
Si Si1 0.467506 0.892309 0.245671
Si Si2 0.475013 0.608003 0.645666
Si Si3 0.645364 0.109198 0.582082
Si Si4 0.397238 0.205342 0.995116
Si Si5 0.078522 0.897777 0.897778
Si Si6 0.719589 0.194697 0.837854
Si Si7 0.283476 0.604660 0.095178
Si Si8 0.410925 0.790618 0.685150
O O1 0.413178 0.878122 0.338463
O O2 0.523064 0.834304 0.324468
O O3 0.488440 0.000000 0.240275
O O4 0.448044 0.858623 0.084826
O O5 0.500000 0.632481 0.500000
O O6 0.450943 0.500000 0.648519
O O7 0.531999 0.626108 0.762199
O O8 0.418699 0.677020 0.668803
O O9 0.702929 0.149698 0.684020
O O10 0.637903 0.169394 0.438427
O O11 0.657406 0.000000 0.547191
O O12 0.387266 0.175659 0.831520
O O13 0.423719 0.312882 0.991446
O O14 0.335735 0.196770 0.065925
O O15 0.145565 0.902459 0.850874
O O16 0.063132 0.000000 0.965201
O O17 0.742013 0.304722 0.822348
O O18 0.771335 0.130095 0.926202
O O19 0.254192 0.500000 0.121764
#
# Coordination Sequence:
#
# PCOD8096727 Si02
#       8
#     8   8   8   8   8   8   8   8
#     4  10  20  34  50  69  99 141 185 224 257 301
#     4  10  21  34  52  81 113 144 180 224 266 311
#     4  10  21  36  54  76 104 142 185 223 263 315
#     4  10  21  34  49  78 110 140 176 216 267 318
#     4   9  18  34  56  80 106 137 179 224 267 318
#     4   9  19  36  57  81 108 135 174 229 269 315
#     4   9  17  32  59  86 103 132 178 228 275 314
#     4  12  22  32  51  76 110 148 176 214 261 322
#
# _framework density 21.622358999999999
#
# number of rings (size 3 to 8) (size 9 to 14) (size 15 to 20)
#    0.000    2.125    1.250    2.250    3.500    3.500 
#    0.000    1.250    0.000    6.750    0.000    3.500 
#    0.000    0.000    0.000    0.000    0.000    0.000 
#
# Total GULP energy -396569.078985 kJ/mol
# GULP energy per Si atom -12392.783718 kJ/mol
# Density = 2.157315 g / cm^3
# Si number density = 21.622359 Si / 1000 Ang^3
#
#
#
# Elastic Constant Matrix: (Units=GPa)
#
#
# Indices 1 2 3 4 5 6 
#
# 1 24.6478 12.9605 14.9280 0.0000 16.9345 0.0000
# 2 12.9605 127.8376 34.3896 0.0000 11.2178 0.0000
# 3 14.9280 34.3896 124.1133 0.0000 23.2378 0.0000
# 4 0.0000 0.0000 0.0000 22.3577 0.0000 8.6968
# 5 16.9345 11.2178 23.2378 0.0000 28.4442 0.0000
# 6 0.0000 0.0000 0.0000 8.6968 0.0000 14.6337
#
#
#
# Elastic Compliance Matrix: (Units=1/GPa)
#
#
# Indices 1 2 3 4 5 6 
#
# 1 0.070197 -0.003600 0.000134 0.000000 -0.040482 0.000000
# 2 -0.003600 0.008705 -0.002051 0.000000 0.000386 0.000000
# 3 0.000134 -0.002051 0.010003 0.000000 -0.007443 0.000000
# 4 0.000000 0.000000 0.000000 0.058176 0.000000 -0.034574
# 5 -0.040482 0.000386 -0.007443 0.000000 0.065186 0.000000
# 6 0.000000 0.000000 0.000000 -0.034574 0.000000 0.088883
#
#
# Mechanical properties :
#
#
# Convention : Reuss Voigt Hill
#
# Bulk Modulus (GPa) = 12.84199 44.57276 28.70737
# Shear Modulus (GPa) = 14.78669 27.37516 21.08092
#
# Velocity S-wave (km/s) = 2.61791 3.56203 3.12582
# Velocity P-wave (km/s) = 3.88459 6.12996 5.13159
#
# Compressibility (1/GPa) = 0.07786955
#
# Stress axis : x y z
#
# Youngs Moduli (GPa) = 14.24562 114.87128 99.97053
#
# Poissons Ratio (x) = 0.41359 -0.01339
# Poissons Ratio (y) = 0.05129 0.20508
# Poissons Ratio (z) = -0.00191 0.23564
#
# Static dielectric constant tensor:
#      x y z
#    x 3.581370 0.000000 0.405040 
#    y 0.000000 4.453850 0.000000 
#    z 0.405040 0.000000 3.801770 
# 
# 
# High freq. dielectric constant tensor:
#      x y z
#    x 1.813630 0.000000 0.034030 
#    y 0.000000 1.870060 0.000000 
#    z 0.034030 0.000000 1.832920 
# 
# From -- ./inp_files/104543.got.cif
#   From: 2010.06.25/outbox.cif.g09.slc.cpg/sg12_53_cif.got.tgz:104543.got - 2010.06.28 00:19:55.
