data_PCOD8096519
_publ_section_title
;
Structure prediction by ZEFSAII (Michael W. Deem and Ramdas Pophale) SiO2 
 PCOD8096519
Probable space group: C 2/M
;
_chemical_formula_sum "Si O2"
_cell_formula_units_Z 56
_cell_length_a 28.833410
_cell_length_b 15.400758
_cell_length_c 8.720620
_cell_angle_alpha 90.000000
_cell_angle_beta 128.078355
_cell_angle_gamma 90.000000
_cell_volume 3048.266510
_symmetry_space_group_name_H-M "C 2/M"
_symmetry_group_IT_number 12
_symmetry_cell_setting 'monoclinic'
loop_
_space_group_symop_operation_xyz
x,y,z
-x,y,-z
-x,-y,-z
x,-y,z
1/2+x,1/2+y,z
1/2-x,1/2+y,-z
1/2-x,1/2-y,-z
1/2+x,1/2-y,z
loop_
_atom_site_type_symbol
_atom_site_label
_atom_site_fract_x
_atom_site_fract_y
_atom_site_fract_z
Si Si1 0.542251 0.000000 0.821214
Si Si2 0.764247 0.597070 0.775208
Si Si3 0.271797 0.404458 0.642144
Si Si4 0.690499 0.292292 0.816057
Si Si5 0.148565 0.645140 0.521904
Si Si6 0.849053 0.759115 0.951045
Si Si7 0.913088 0.500000 0.420632
Si Si8 0.562079 0.169774 0.061148
O O1 0.475675 0.000000 0.629927
O O2 0.584040 0.000000 0.757594
O O3 0.553736 0.917799 0.950195
O O4 0.789240 0.500000 0.855188
O O5 0.734778 0.605669 0.551163
O O6 0.711646 0.615587 0.790339
O O7 0.817228 0.665525 0.895439
O O8 0.298060 0.500000 0.735362
O O9 0.209066 0.398267 0.595441
O O10 0.313983 0.327432 0.778014
O O11 0.660464 0.239163 0.617711
O O12 0.750000 0.250000 0.000000
O O13 0.644782 0.299612 0.865048
O O14 0.120716 0.586381 0.597789
O O15 0.106734 0.652918 0.290513
O O16 0.912450 0.743544 0.001761
O O17 0.500000 0.203841 0.000000
#
# Coordination Sequence:
#
# PCOD8096519 Si02
#       8
#     4   8   8   8   8   8   4   8
#     4  11  24  41  54  87 124 163 214 250 282 366
#     4  10  20  33  54  83 116 155 192 235 297 365
#     4  11  21  35  59  88 116 158 198 244 307 366
#     4  10  21  37  52  82 119 158 195 244 302 361
#     4  12  20  36  58  83 119 162 196 246 297 356
#     4  11  22  39  55  83 123 154 200 252 301 362
#     4  11  23  38  59  84 127 164 204 250 299 353
#     4  12  24  38  60  82 116 162 211 246 297 351
#
# _framework density 18.371098
#
# number of rings (size 3 to 8) (size 9 to 14) (size 15 to 20)
#    0.000    1.000    6.429    2.786    1.000    0.571 
#    5.143    0.000    0.000    0.429    0.000    0.000 
#    0.000    4.571    0.000    0.000    0.000    0.000 
#
# Total GULP energy -347135.722414 kJ/mol
# GULP energy per Si atom -12397.704372 kJ/mol
# Density = 1.832928 g / cm^3
# Si number density = 18.371098 Si / 1000 Ang^3
#
#
#
# Elastic Constant Matrix: (Units=GPa)
#
#
# Indices 1 2 3 4 5 6 
#
# 1 148.9159 43.3753 31.7423 0.0000 -11.8591 0.0000
# 2 43.3753 61.3102 10.4684 0.0000 1.6355 0.0000
# 3 31.7423 10.4684 58.2168 0.0000 -7.7445 0.0000
# 4 0.0000 0.0000 0.0000 15.5785 0.0000 -15.4390
# 5 -11.8591 1.6355 -7.7445 0.0000 27.5497 0.0000
# 6 0.0000 0.0000 0.0000 -15.4390 0.0000 37.2954
#
#
#
# Elastic Compliance Matrix: (Units=1/GPa)
#
#
# Indices 1 2 3 4 5 6 
#
# 1 0.009590 -0.006256 -0.003642 0.000000 0.003476 0.000000
# 2 -0.006256 0.021006 -0.000925 0.000000 -0.004200 0.000000
# 3 -0.003642 -0.000925 0.019871 0.000000 0.004073 0.000000
# 4 0.000000 0.000000 0.000000 0.108846 0.000000 0.045058
# 5 0.003476 -0.004200 0.004073 0.000000 0.039189 0.000000
# 6 0.000000 0.000000 0.000000 0.045058 0.000000 0.045466
#
#
# Mechanical properties :
#
#
# Convention : Reuss Voigt Hill
#
# Bulk Modulus (GPa) = 34.69528 48.84608 41.77068
# Shear Modulus (GPa) = 18.16722 28.27517 23.22120
#
# Velocity S-wave (km/s) = 3.14809 3.92741 3.55914
# Velocity P-wave (km/s) = 5.66928 6.87112 6.29893
#
# Compressibility (1/GPa) = 0.02882237
#
# Stress axis : x y z
#
# Youngs Moduli (GPa) = 104.27018 47.60458 50.32454
#
# Poissons Ratio (x) = 0.29781 0.18327
# Poissons Ratio (y) = 0.65231 0.04655
# Poissons Ratio (z) = 0.37973 0.04404
#
# Static dielectric constant tensor:
#      x y z
#    x 3.934240 0.000000 -0.357240 
#    y 0.000000 3.625890 0.000000 
#    z -0.357240 0.000000 3.029310 
# 
# 
# High freq. dielectric constant tensor:
#      x y z
#    x 1.717840 0.000000 -0.030880 
#    y 0.000000 1.697080 0.000000 
#    z -0.030880 0.000000 1.707260 
# 
# From -- ./inp_files/111590.got.cif
#   From: 2010.06.25/outbox.cif.g09.slc.cpg/sg12_56_cif.got.tgz:111590.got - 2010.06.28 00:19:55.
