data_PCOD8096534
_publ_section_title
;
Structure prediction by ZEFSAII (Michael W. Deem and Ramdas Pophale) SiO2 
 PCOD8096534
Probable space group: C 2/M
;
_chemical_formula_sum "Si O2"
_cell_formula_units_Z 56
_cell_length_a 27.644785
_cell_length_b 22.730022
_cell_length_c 7.780257
_cell_angle_alpha 90.000000
_cell_angle_beta 145.319292
_cell_angle_gamma 90.000000
_cell_volume 2781.770636
_symmetry_space_group_name_H-M "C 2/M"
_symmetry_group_IT_number 12
_symmetry_cell_setting 'monoclinic'
loop_
_space_group_symop_operation_xyz
x,y,z
-x,y,-z
-x,-y,-z
x,-y,z
1/2+x,1/2+y,z
1/2-x,1/2+y,-z
1/2-x,1/2-y,-z
1/2+x,1/2-y,z
loop_
_atom_site_type_symbol
_atom_site_label
_atom_site_fract_x
_atom_site_fract_y
_atom_site_fract_z
Si Si1 0.596982 0.873888 0.839637
Si Si2 0.294188 0.930234 0.137375
Si Si3 0.962810 0.161191 0.063811
Si Si4 0.869804 0.131953 0.247970
Si Si5 0.660122 0.066093 0.348451
Si Si6 0.596651 0.257102 0.837234
Si Si7 0.354171 0.566074 0.853811
O O1 0.500000 0.874322 0.500000
O O2 0.647253 0.915347 0.853799
O O3 0.636990 0.807992 0.954141
O O4 0.600785 0.896007 0.048465
O O5 0.338302 0.911255 0.448329
O O6 0.274521 0.000000 0.083601
O O7 0.206356 0.893949 0.858574
O O8 0.039895 0.133352 0.396339
O O9 0.907860 0.213526 0.987679
O O10 0.000000 0.188626 0.000000
O O11 0.898299 0.106918 0.838316
O O12 0.849217 0.199478 0.128544
O O13 0.882305 0.090141 0.121075
O O14 0.753281 0.068924 0.537935
O O15 0.624184 0.000000 0.242183
O O16 0.500000 0.251760 0.500000
O O17 0.387405 0.500000 0.928635
#
# Coordination Sequence:
#
# PCOD8096534 Si02
#       7
#     8   8   8   8   8   8   8
#     4  11  23  40  61  84 110 147 196 240 293 339
#     4  10  22  39  61  87 115 150 188 232 288 343
#     4  10  20  33  54  85 118 151 188 228 274 330
#     4   9  18  36  58  78 115 155 186 227 275 332
#     4   9  20  39  58  84 120 147 183 239 288 338
#     4   8  18  39  56  78 114 150 188 233 275 330
#     4   9  18  34  55  79 116 157 188 225 275 331
#
# _framework density 20.131063999999999
#
# number of rings (size 3 to 8) (size 9 to 14) (size 15 to 20)
#    0.000    2.571    0.000    3.000    2.000    4.286 
#    7.714    7.857    0.000    0.000    0.000    0.000 
#    0.000    0.000    0.000    0.000    0.000    0.000 
#
# Total GULP energy -346988.356706 kJ/mol
# GULP energy per Si atom -12392.441311 kJ/mol
# Density = 2.008524 g / cm^3
# Si number density = 20.131064 Si / 1000 Ang^3
#
#
#
# Elastic Constant Matrix: (Units=GPa)
#
#
# Indices 1 2 3 4 5 6 
#
# 1 66.5436 18.3855 6.8752 0.0000 2.7643 0.0000
# 2 18.3855 109.6240 24.3217 0.0000 -2.6290 0.0000
# 3 6.8752 24.3217 54.5703 0.0000 -6.9314 0.0000
# 4 0.0000 0.0000 0.0000 21.1017 0.0000 6.6315
# 5 2.7643 -2.6290 -6.9314 0.0000 22.6430 0.0000
# 6 0.0000 0.0000 0.0000 6.6315 0.0000 20.0163
#
#
#
# Elastic Compliance Matrix: (Units=1/GPa)
#
#
# Indices 1 2 3 4 5 6 
#
# 1 0.015945 -0.002461 -0.001244 0.000000 -0.002613 0.000000
# 2 -0.002461 0.010504 -0.004347 0.000000 0.000189 0.000000
# 3 -0.001244 -0.004347 0.021199 0.000000 0.006136 0.000000
# 4 0.000000 0.000000 0.000000 0.052897 0.000000 -0.017525
# 5 -0.002613 0.000189 0.006136 0.000000 0.046383 0.000000
# 6 0.000000 0.000000 0.000000 -0.017525 0.000000 0.055765
#
#
# Mechanical properties :
#
#
# Convention : Reuss Voigt Hill
#
# Bulk Modulus (GPa) = 31.70290 36.65586 34.17938
# Shear Modulus (GPa) = 21.80438 24.82925 23.31682
#
# Velocity S-wave (km/s) = 3.29465 3.51576 3.40700
# Velocity P-wave (km/s) = 5.50049 5.89312 5.70019
#
# Compressibility (1/GPa) = 0.03154286
#
# Stress axis : x y z
#
# Youngs Moduli (GPa) = 62.71672 95.20288 47.17251
#
# Poissons Ratio (x) = 0.23428 0.05868
# Poissons Ratio (y) = 0.15433 0.20508
# Poissons Ratio (z) = 0.07802 0.41389
#
# Static dielectric constant tensor:
#      x y z
#    x 3.672390 0.000000 -0.010530 
#    y 0.000000 3.947710 0.000000 
#    z -0.010530 0.000000 3.558060 
# 
# 
# High freq. dielectric constant tensor:
#      x y z
#    x 1.775110 0.000000 -0.004430 
#    y 0.000000 1.787380 0.000000 
#    z -0.004430 0.000000 1.769110 
# 
# From -- ./inp_files/113397.got.cif
#   From: 2010.06.25/outbox.cif.g09.slc.cpg/sg12_57_cif.got.tgz:113397.got - 2010.06.28 00:19:55.
