data_PCOD8096171
_publ_section_title
;
Structure prediction by ZEFSAII (Michael W. Deem and Ramdas Pophale) SiO2 
 PCOD8096171
Probable space group: C 2/M
;
_chemical_formula_sum "Si O2"
_cell_formula_units_Z 56
_cell_length_a 12.277740
_cell_length_b 13.678159
_cell_length_c 18.312444
_cell_angle_alpha 90.000000
_cell_angle_beta 89.335104
_cell_angle_gamma 90.000000
_cell_volume 3075.127637
_symmetry_space_group_name_H-M "C 2/M"
_symmetry_group_IT_number 12
_symmetry_cell_setting 'monoclinic'
loop_
_space_group_symop_operation_xyz
x,y,z
-x,y,-z
-x,-y,-z
x,-y,z
1/2+x,1/2+y,z
1/2-x,1/2+y,-z
1/2-x,1/2-y,-z
1/2+x,1/2-y,z
loop_
_atom_site_type_symbol
_atom_site_label
_atom_site_fract_x
_atom_site_fract_y
_atom_site_fract_z
Si Si1 0.917376 0.888167 0.829716
Si Si2 0.172376 0.112545 0.859352
Si Si3 0.243591 0.890205 0.522651
Si Si4 0.383190 0.615209 0.987281
Si Si5 0.801670 0.269195 0.740149
Si Si6 0.561473 0.110846 0.370958
Si Si7 0.662224 0.217527 0.607219
O O1 0.848086 0.860439 0.904251
O O2 0.877872 0.819597 0.764862
O O3 0.045424 0.872822 0.841801
O O4 0.893640 0.000000 0.807424
O O5 0.245649 0.180840 0.809321
O O6 0.206148 0.000000 0.845992
O O7 0.195446 0.145533 0.944275
O O8 0.362171 0.884648 0.558865
O O9 0.257714 0.852779 0.439820
O O10 0.158216 0.823698 0.567999
O O11 0.197092 0.000000 0.522963
O O12 0.398952 0.500000 0.994399
O O13 0.500000 0.665981 0.000000
O O14 0.875063 0.349705 0.699790
O O15 0.709592 0.225739 0.687952
O O16 0.458642 0.177457 0.388412
O O17 0.524097 0.000000 0.355253
#
# Coordination Sequence:
#
# PCOD8096171 Si02
#       7
#     8   8   8   8   8   8   8
#     4   9  18  32  48  69  99 131 161 197 245 292
#     4   9  17  32  52  70  93 127 166 206 239 274
#     4   9  19  36  57  75  92 123 166 204 236 277
#     4   7  12  26  48  69  89 121 165 204 236 276
#     4  11  21  31  47  75 104 128 158 196 241 292
#     4  10  20  35  54  73  96 129 165 199 235 281
#     4  10  20  33  52  76 101 124 158 200 241 287
#
# _framework density 18.210628
#
# number of rings (size 3 to 8) (size 9 to 14) (size 15 to 20)
#    0.000    2.714    0.000    3.857    0.000    3.429 
#    0.000    0.714    0.000   12.000    0.000    0.000 
#    0.000   14.286    0.000    0.000    0.000    0.000 
#
# Total GULP energy -347005.058326 kJ/mol
# GULP energy per Si atom -12393.037797 kJ/mol
# Density = 1.816918 g / cm^3
# Si number density = 18.210628 Si / 1000 Ang^3
#
#
#
# Elastic Constant Matrix: (Units=GPa)
#
#
# Indices 1 2 3 4 5 6 
#
# 1 45.6721 33.3157 9.7027 0.0000 -14.9489 0.0000
# 2 33.3157 102.0402 20.8199 0.0000 -6.2441 0.0000
# 3 9.7027 20.8199 56.1058 0.0000 -14.2703 0.0000
# 4 0.0000 0.0000 0.0000 25.6901 0.0000 -2.9175
# 5 -14.9489 -6.2441 -14.2703 0.0000 17.0265 0.0000
# 6 0.0000 0.0000 0.0000 -2.9175 0.0000 24.8892
#
#
#
# Elastic Compliance Matrix: (Units=1/GPa)
#
#
# Indices 1 2 3 4 5 6 
#
# 1 0.042469 -0.012992 0.007306 0.000000 0.038646 0.000000
# 2 -0.012992 0.014585 -0.005981 0.000000 -0.011071 0.000000
# 3 0.007306 -0.005981 0.025232 0.000000 0.025369 0.000000
# 4 0.000000 0.000000 0.000000 0.039451 0.000000 0.004624
# 5 0.038646 -0.011071 0.025369 0.000000 0.109865 0.000000
# 6 0.000000 0.000000 0.000000 0.004624 0.000000 0.040720
#
#
# Mechanical properties :
#
#
# Convention : Reuss Voigt Hill
#
# Bulk Modulus (GPa) = 16.96291 36.83276 26.89783
# Shear Modulus (GPa) = 15.85755 22.85313 19.35534
#
# Velocity S-wave (km/s) = 2.95411 3.54635 3.26369
# Velocity P-wave (km/s) = 4.57938 6.08594 5.38560
#
# Compressibility (1/GPa) = 0.05895217
#
# Stress axis : x y z
#
# Youngs Moduli (GPa) = 23.54631 68.56436 39.63220
#
# Poissons Ratio (x) = 0.89079 -0.28956
# Poissons Ratio (y) = 0.30591 0.23705
# Poissons Ratio (z) = -0.17204 0.41011
#
# Static dielectric constant tensor:
#      x y z
#    x 2.989850 0.000000 -0.126530 
#    y 0.000000 3.337320 0.000000 
#    z -0.126530 0.000000 3.657630 
# 
# 
# High freq. dielectric constant tensor:
#      x y z
#    x 1.672570 0.000000 -0.013630 
#    y 0.000000 1.699380 0.000000 
#    z -0.013630 0.000000 1.720680 
# 
# From -- ./inp_files/204977.got.cif
#   From: 2010.06.25/outbox.cif.g09.slc.cpg/sg12_103_cif.got.tgz:204977.got - 2010.06.28 00:19:55.
