data_PCOD8096391
_publ_section_title
;
Structure prediction by ZEFSAII (Michael W. Deem and Ramdas Pophale) SiO2 
 PCOD8096391
Probable space group: C 2/M
;
_chemical_formula_sum "Si O2"
_cell_formula_units_Z 56
_cell_length_a 21.608152
_cell_length_b 9.314578
_cell_length_c 19.894528
_cell_angle_alpha 90.000000
_cell_angle_beta 130.182739
_cell_angle_gamma 90.000000
_cell_volume 3059.161304
_symmetry_space_group_name_H-M "C 2/M"
_symmetry_group_IT_number 12
_symmetry_cell_setting 'monoclinic'
loop_
_space_group_symop_operation_xyz
x,y,z
-x,y,-z
-x,-y,-z
x,-y,z
1/2+x,1/2+y,z
1/2-x,1/2+y,-z
1/2-x,1/2-y,-z
1/2+x,1/2-y,z
loop_
_atom_site_type_symbol
_atom_site_label
_atom_site_fract_x
_atom_site_fract_y
_atom_site_fract_z
Si Si1 0.619119 0.338429 0.038645
Si Si2 0.070996 0.165069 0.750135
Si Si3 0.446308 0.340077 0.861049
Si Si4 0.534086 0.669012 0.450556
Si Si5 0.669376 0.834715 0.465425
Si Si6 0.756279 0.833130 0.073925
Si Si7 0.052820 0.659757 0.259025
O O1 0.652653 0.500000 0.049583
O O2 0.599255 0.316007 0.101948
O O3 0.682810 0.215775 0.068226
O O4 0.541602 0.313241 0.937619
O O5 0.165072 0.201878 0.825618
O O6 0.038286 0.205132 0.652731
O O7 0.026461 0.253734 0.776154
O O8 0.052478 0.000000 0.752036
O O9 0.431056 0.500000 0.823300
O O10 0.409544 0.230448 0.781310
O O11 0.500000 0.716740 0.500000
O O12 0.555779 0.500000 0.465784
O O13 0.616380 0.755234 0.486988
O O14 0.750000 0.750000 0.500000
O O15 0.618672 0.836475 0.362518
O O16 0.688501 0.000000 0.501369
O O17 0.750811 0.000000 0.053214
O O18 0.750000 0.750000 0.000000
O O19 0.025157 0.500000 0.222390
#
# Coordination Sequence:
#
# PCOD8096391 Si02
#       7
#     8   8   8   8   8   8   8
#     4   9  19  35  52  72 101 136 175 214 254 306
#     4   9  19  35  53  75 104 139 175 210 257 320
#     4   9  18  34  54  73  99 137 174 210 257 313
#     4   9  18  36  61  83 107 144 182 221 277 335
#     4  10  21  37  56  81 112 142 179 226 272 324
#     4  11  22  34  50  74 105 139 175 216 260 306
#     4  10  20  33  53  80 104 131 171 218 260 304
#
# _framework density 18.305671
#
# number of rings (size 3 to 8) (size 9 to 14) (size 15 to 20)
#    0.000    2.429    0.000    3.000    0.000    7.714 
#    2.571    1.429    0.000    0.000    0.000    0.000 
#    0.000    0.000    0.000    0.000    0.000    0.000 
#
# Total GULP energy -347080.262676 kJ/mol
# GULP energy per Si atom -12395.723667 kJ/mol
# Density = 1.826401 g / cm^3
# Si number density = 18.305671 Si / 1000 Ang^3
#
#
#
# Elastic Constant Matrix: (Units=GPa)
#
#
# Indices 1 2 3 4 5 6 
#
# 1 112.2537 66.7359 48.2642 0.0000 4.6719 0.0000
# 2 66.7359 98.2478 45.3535 0.0000 -0.8038 0.0000
# 3 48.2642 45.3535 58.4504 0.0000 -8.6436 0.0000
# 4 0.0000 0.0000 0.0000 28.9412 0.0000 0.2949
# 5 4.6719 -0.8038 -8.6436 0.0000 30.7058 0.0000
# 6 0.0000 0.0000 0.0000 0.2949 0.0000 35.5116
#
#
#
# Elastic Compliance Matrix: (Units=1/GPa)
#
#
# Indices 1 2 3 4 5 6 
#
# 1 0.017873 -0.007775 -0.009555 0.000000 -0.005612 0.000000
# 2 -0.007775 0.019545 -0.008864 0.000000 -0.000800 0.000000
# 3 -0.009555 -0.008864 0.033449 0.000000 0.010637 0.000000
# 4 0.000000 0.000000 0.000000 0.034556 0.000000 -0.000287
# 5 -0.005612 -0.000800 0.010637 0.000000 0.036395 0.000000
# 6 0.000000 0.000000 0.000000 -0.000287 0.000000 0.028162
#
#
# Mechanical properties :
#
#
# Convention : Reuss Voigt Hill
#
# Bulk Modulus (GPa) = 54.11569 65.51769 59.81669
# Shear Modulus (GPa) = 21.87937 26.27161 24.07549
#
# Velocity S-wave (km/s) = 3.46095 3.79246 3.63049
# Velocity P-wave (km/s) = 6.75258 7.41928 7.09377
#
# Compressibility (1/GPa) = 0.01847893
#
# Stress axis : x y z
#
# Youngs Moduli (GPa) = 55.95138 51.16412 29.89653
#
# Poissons Ratio (x) = 0.39782 0.28565
# Poissons Ratio (y) = 0.43505 0.26499
# Poissons Ratio (z) = 0.53460 0.45349
#
# Static dielectric constant tensor:
#      x y z
#    x 3.425550 0.000000 -0.045640 
#    y 0.000000 3.083850 0.000000 
#    z -0.045640 0.000000 3.400770 
# 
# 
# High freq. dielectric constant tensor:
#      x y z
#    x 1.706870 0.000000 -0.007580 
#    y 0.000000 1.715420 0.000000 
#    z -0.007580 0.000000 1.704920 
# 
# From -- ./inp_files/280945.got.cif
#   From: 2010.06.25/outbox.cif.g09.slc.cpg/sg12_141_cif.got.tgz:280945.got - 2010.06.28 00:19:55.
