data_PCOD8096206
_publ_section_title
;
Structure prediction by ZEFSAII (Michael W. Deem and Ramdas Pophale) SiO2 
 PCOD8096206
Probable space group: C 2/M
;
_chemical_formula_sum "Si O2"
_cell_formula_units_Z 56
_cell_length_a 18.396023
_cell_length_b 11.974069
_cell_length_c 15.744282
_cell_angle_alpha 90.000000
_cell_angle_beta 61.048047
_cell_angle_gamma 90.000000
_cell_volume 3034.656177
_symmetry_space_group_name_H-M "C 2/M"
_symmetry_group_IT_number 12
_symmetry_cell_setting 'monoclinic'
loop_
_space_group_symop_operation_xyz
x,y,z
-x,y,-z
-x,-y,-z
x,-y,z
1/2+x,1/2+y,z
1/2-x,1/2+y,-z
1/2-x,1/2-y,-z
1/2+x,1/2-y,z
loop_
_atom_site_type_symbol
_atom_site_label
_atom_site_fract_x
_atom_site_fract_y
_atom_site_fract_z
Si Si1 0.002243 0.773093 0.903493
Si Si2 0.337182 0.621498 0.940259
Si Si3 0.050016 0.627855 0.548777
Si Si4 0.523862 0.123271 0.241134
Si Si5 0.260091 0.131547 0.546269
Si Si6 0.793817 0.684249 0.849110
Si Si7 0.320221 0.627198 0.231120
O O1 0.922574 0.851922 0.940052
O O2 0.995233 0.676998 0.838311
O O3 0.085506 0.841870 0.841116
O O4 0.000000 0.721795 0.000000
O O5 0.344552 0.500000 0.896702
O O6 0.319098 0.694322 0.867965
O O7 0.262904 0.624022 0.049471
O O8 0.019309 0.500000 0.572423
O O9 0.146478 0.636554 0.473226
O O10 0.000000 0.687140 0.500000
O O11 0.025569 0.684507 0.653293
O O12 0.621128 0.116356 0.209859
O O13 0.487553 0.000000 0.251406
O O14 0.250000 0.250000 0.500000
O O15 0.197299 0.145382 0.659765
O O16 0.246943 0.000000 0.514800
O O17 0.744488 0.698761 0.788627
O O18 0.305632 0.500000 0.212038
#
# Coordination Sequence:
#
# PCOD8096206 Si02
#       7
#     8   8   8   8   8   8   8
#     4  11  22  34  50  76 107 143 184 217 258 318
#     4  10  20  35  52  71 103 140 173 216 263 308
#     4   9  17  32  56  82 104 133 178 230 279 325
#     4  10  20  34  52  75 107 141 173 219 272 321
#     4  10  21  37  58  83 112 144 181 227 279 331
#     4  10  20  33  52  78 101 132 179 218 260 313
#     4  11  21  35  57  81 105 138 182 226 265 315
#
# _framework density 18.453491
#
# number of rings (size 3 to 8) (size 9 to 14) (size 15 to 20)
#    0.000    1.857    1.429    3.429    0.000    3.143 
#    0.000    1.429    0.000    0.429    0.000    0.000 
#    0.000    0.000    0.000    0.000    0.000    0.000 
#
# Total GULP energy -346873.978533 kJ/mol
# GULP energy per Si atom -12388.356376 kJ/mol
# Density = 1.841149 g / cm^3
# Si number density = 18.453491 Si / 1000 Ang^3
#
#
#
# Elastic Constant Matrix: (Units=GPa)
#
#
# Indices 1 2 3 4 5 6 
#
# 1 96.9095 32.3234 35.2277 0.0000 5.0450 0.0000
# 2 32.3234 88.3924 26.6252 0.0000 17.5858 0.0000
# 3 35.2277 26.6252 108.8154 0.0000 -0.1630 0.0000
# 4 0.0000 0.0000 0.0000 27.3127 0.0000 -9.3000
# 5 5.0450 17.5858 -0.1630 0.0000 26.9148 0.0000
# 6 0.0000 0.0000 0.0000 -9.3000 0.0000 19.7767
#
#
#
# Elastic Compliance Matrix: (Units=1/GPa)
#
#
# Indices 1 2 3 4 5 6 
#
# 1 0.012716 -0.003682 -0.003216 0.000000 0.000003 0.000000
# 2 -0.003682 0.015284 -0.002562 0.000000 -0.009312 0.000000
# 3 -0.003216 -0.002562 0.010861 0.000000 0.002342 0.000000
# 4 0.000000 0.000000 0.000000 0.043593 0.000000 0.020500
# 5 0.000003 -0.009312 0.002342 0.000000 0.043252 0.000000
# 6 0.000000 0.000000 0.000000 0.020500 0.000000 0.060204
#
#
# Mechanical properties :
#
#
# Convention : Reuss Voigt Hill
#
# Bulk Modulus (GPa) = 50.14456 53.60775 51.87615
# Shear Modulus (GPa) = 23.64335 28.13026 25.88680
#
# Velocity S-wave (km/s) = 3.58332 3.90858 3.74948
# Velocity P-wave (km/s) = 6.65979 7.03438 6.84965
#
# Compressibility (1/GPa) = 0.01994234
#
# Stress axis : x y z
#
# Youngs Moduli (GPa) = 78.64264 65.42919 92.07073
#
# Poissons Ratio (x) = 0.24090 0.29607
# Poissons Ratio (y) = 0.28955 0.23585
# Poissons Ratio (z) = 0.25289 0.16761
#
# Static dielectric constant tensor:
#      x y z
#    x 3.460370 0.000000 -0.056420 
#    y 0.000000 3.440660 0.000000 
#    z -0.056420 0.000000 3.583730 
# 
# 
# High freq. dielectric constant tensor:
#      x y z
#    x 1.718790 0.000000 -0.013450 
#    y 0.000000 1.692260 0.000000 
#    z -0.013450 0.000000 1.727310 
# 
# From -- ./inp_files/223105.got.cif
#   From: 2010.06.25/outbox.cif.g09.slc.cpg/sg12_112_cif.got.tgz:223105.got - 2010.06.28 00:19:55.
