data_PCOD8096923
_publ_section_title
;
Structure prediction by ZEFSAII (Michael W. Deem and Ramdas Pophale) SiO2 
 PCOD8096923
Probable space group: C 2/M
;
_chemical_formula_sum "Si O2"
_cell_formula_units_Z 44
_cell_length_a 17.054560
_cell_length_b 30.673268
_cell_length_c 5.238122
_cell_angle_alpha 90.000000
_cell_angle_beta 115.439270
_cell_angle_gamma 90.000000
_cell_volume 2474.478535
_symmetry_space_group_name_H-M "C 2/M"
_symmetry_group_IT_number 12
_symmetry_cell_setting 'monoclinic'
loop_
_space_group_symop_operation_xyz
x,y,z
-x,y,-z
-x,-y,-z
x,-y,z
1/2+x,1/2+y,z
1/2-x,1/2+y,-z
1/2-x,1/2-y,-z
1/2+x,1/2-y,z
loop_
_atom_site_type_symbol
_atom_site_label
_atom_site_fract_x
_atom_site_fract_y
_atom_site_fract_z
Si Si1 0.674165 0.129023 0.506260
Si Si2 0.672875 0.178259 0.016827
Si Si3 0.555832 0.049833 0.327408
Si Si4 0.500000 0.669638 0.500000
Si Si5 0.911526 0.233187 0.997706
Si Si6 0.163729 0.164566 0.473568
O O1 0.630449 0.155389 0.208659
O O2 0.642038 0.079324 0.457302
O O3 0.779885 0.130434 0.619371
O O4 0.644970 0.152075 0.726327
O O5 0.777812 0.177683 0.197437
O O6 0.640981 0.227619 0.947595
O O7 0.500000 0.059437 0.500000
O O8 0.588024 0.000000 0.365201
O O9 0.500000 0.061170 0.000000
O O10 0.435060 0.698636 0.245928
O O11 0.569992 0.642776 0.424448
O O12 0.853116 0.209238 0.703602
O O13 0.000000 0.251947 0.000000
#
# Coordination Sequence:
#
# PCOD8096923 Si02
#       6
#     8   8   8   4   8   8
#     4  10  22  36  54  80 106 137 180 222 267 310
#     4  10  22  35  53  75 108 141 183 227 267 308
#     4  10  21  39  61  84 113 145 173 210 266 332
#     4  10  20  34  52  68 105 140 191 220 268 312
#     4  10  21  34  48  74 103 150 186 225 268 314
#     4   9  21  35  52  73 103 142 188 226 267 310
#
# _framework density 17.781523
#
# number of rings (size 3 to 8) (size 9 to 14) (size 15 to 20)
#    1.091    1.091    0.000    2.727    5.091    3.636 
#    0.000    0.000    0.000    0.000    0.000    0.636 
#    0.000    8.727    0.000    1.455    0.000    0.182 
#
# Total GULP energy -272555.924752 kJ/mol
# GULP energy per Si atom -12388.905671 kJ/mol
# Density = 1.774105 g / cm^3
# Si number density = 17.781523 Si / 1000 Ang^3
#
#
#
# Elastic Constant Matrix: (Units=GPa)
#
#
# Indices 1 2 3 4 5 6 
#
# 1 99.7640 62.3941 41.8258 0.0000 4.9581 0.0000
# 2 62.3941 86.6459 36.6520 0.0000 9.7085 0.0000
# 3 41.8258 36.6520 96.2561 0.0000 -17.5409 0.0000
# 4 0.0000 0.0000 0.0000 52.7374 0.0000 -7.5138
# 5 4.9581 9.7085 -17.5409 0.0000 29.0479 0.0000
# 6 0.0000 0.0000 0.0000 -7.5138 0.0000 18.5146
#
#
#
# Elastic Compliance Matrix: (Units=1/GPa)
#
#
# Indices 1 2 3 4 5 6 
#
# 1 0.019348 -0.011954 -0.004190 0.000000 -0.001837 0.000000
# 2 -0.011954 0.023437 -0.005377 0.000000 -0.009040 0.000000
# 3 -0.004190 -0.005377 0.016535 0.000000 0.012497 0.000000
# 4 0.000000 0.000000 0.000000 0.020126 0.000000 0.008168
# 5 -0.001837 -0.009040 0.012497 0.000000 0.045307 0.000000
# 6 0.000000 0.000000 0.000000 0.008168 0.000000 0.057326
#
#
# Mechanical properties :
#
#
# Convention : Reuss Voigt Hill
#
# Bulk Modulus (GPa) = 61.43854 62.71220 62.07537
# Shear Modulus (GPa) = 21.68751 29.51292 25.60022
#
# Velocity S-wave (km/s) = 3.49616 4.07843 3.79847
# Velocity P-wave (km/s) = 7.13613 7.58438 7.36367
#
# Compressibility (1/GPa) = 0.01627643
#
# Stress axis : x y z
#
# Youngs Moduli (GPa) = 51.68458 42.66753 60.47948
#
# Poissons Ratio (x) = 0.51006 0.25342
# Poissons Ratio (y) = 0.61785 0.32521
# Poissons Ratio (z) = 0.21657 0.22943
#
# Static dielectric constant tensor:
#      x y z
#    x 3.463460 0.000000 -0.153840 
#    y 0.000000 2.866170 0.000000 
#    z -0.153840 0.000000 3.443430 
# 
# 
# High freq. dielectric constant tensor:
#      x y z
#    x 1.697140 0.000000 -0.012520 
#    y 0.000000 1.630900 0.000000 
#    z -0.012520 0.000000 1.701470 
# 
# From -- ./inp_files/18030.got.cif
#   From: 2010.06.25/outbox.cif.g09.slc.cpg/sg12_10_cif.got.tgz:18030.got - 2010.06.28 00:19:55.
