data_PCOD8096543
_publ_section_title
;
Structure prediction by ZEFSAII (Michael W. Deem and Ramdas Pophale) SiO2 
 PCOD8096543
Probable space group: C 2/M
;
_chemical_formula_sum "Si O2"
_cell_formula_units_Z 56
_cell_length_a 22.472519
_cell_length_b 8.701017
_cell_length_c 20.411778
_cell_angle_alpha 90.000000
_cell_angle_beta 43.361804
_cell_angle_gamma 90.000000
_cell_volume 2740.364294
_symmetry_space_group_name_H-M "C 2/M"
_symmetry_group_IT_number 12
_symmetry_cell_setting 'monoclinic'
loop_
_space_group_symop_operation_xyz
x,y,z
-x,y,-z
-x,-y,-z
x,-y,z
1/2+x,1/2+y,z
1/2-x,1/2+y,-z
1/2-x,1/2-y,-z
1/2+x,1/2-y,z
loop_
_atom_site_type_symbol
_atom_site_label
_atom_site_fract_x
_atom_site_fract_y
_atom_site_fract_z
Si Si1 0.013014 0.178433 0.289212
Si Si2 0.335829 0.182023 0.463143
Si Si3 0.881083 0.678561 0.181180
Si Si4 0.645343 0.818296 0.281438
Si Si5 0.041089 0.822592 0.120499
Si Si6 0.331817 0.680528 0.090803
Si Si7 0.808998 0.819359 0.622511
O O1 0.916638 0.245252 0.360076
O O2 0.064000 0.273082 0.302897
O O3 0.060572 0.202626 0.181438
O O4 0.009968 0.000000 0.311341
O O5 0.250000 0.250000 0.500000
O O6 0.344071 0.226581 0.532458
O O7 0.336172 0.000000 0.453881
O O8 0.883903 0.500000 0.164786
O O9 0.890741 0.759684 0.103228
O O10 0.791296 0.725814 0.287510
O O11 0.957773 0.725094 0.167624
O O12 0.733306 0.757583 0.175424
O O13 0.635912 0.734634 0.358811
O O14 0.646684 0.000000 0.291475
O O15 0.020407 0.000000 0.121709
O O16 0.124993 0.765651 0.012207
O O17 0.329960 0.500000 0.096901
O O18 0.822056 0.000000 0.600481
#
# Coordination Sequence:
#
# PCOD8096543 Si02
#       7
#     8   8   8   8   8   8   8
#     4  11  24  41  60  84 116 153 194 239 286 339
#     4  12  25  42  64  91 120 150 188 232 285 344
#     4  10  20  33  54  86 118 147 186 237 288 339
#     4  10  21  39  61  86 116 151 194 240 287 339
#     4  10  21  36  55  80 113 155 196 234 283 341
#     4   9  19  36  57  81 113 153 193 234 283 340
#     4  10  21  39  62  87 117 153 192 237 289 341
#
# _framework density 20.43524
#
# number of rings (size 3 to 8) (size 9 to 14) (size 15 to 20)
#    0.000    1.714    0.000    4.286    0.000    9.143 
#    0.000    2.857    0.000    0.000    0.000    0.000 
#    0.000    0.000    0.000    0.000    0.000    0.000 
#
# Total GULP energy -347324.440485 kJ/mol
# GULP energy per Si atom -12404.444303 kJ/mol
# Density = 2.038873 g / cm^3
# Si number density = 20.435240 Si / 1000 Ang^3
#
#
#
# Elastic Constant Matrix: (Units=GPa)
#
#
# Indices 1 2 3 4 5 6 
#
# 1 85.2104 0.9787 18.9590 0.0004 1.5040 -0.0001
# 2 0.9787 34.9385 17.1421 0.0014 2.5435 -0.0005
# 3 18.9590 17.1421 87.3604 0.0003 16.8242 -0.0002
# 4 0.0004 0.0014 0.0003 26.7721 -0.0002 -0.1544
# 5 1.5040 2.5435 16.8242 -0.0002 28.6646 0.0001
# 6 -0.0001 -0.0005 -0.0002 -0.1544 0.0001 35.8494
#
#
#
# Elastic Compliance Matrix: (Units=1/GPa)
#
#
# Indices 1 2 3 4 5 6 
#
# 1 0.012397 0.001102 -0.003115 0.000000 0.001080 0.000000
# 2 0.001102 0.031791 -0.006678 -0.000002 0.001041 0.000000
# 3 -0.003115 -0.006678 0.014981 0.000000 -0.008037 0.000000
# 4 0.000000 -0.000002 0.000000 0.037353 0.000000 0.000161
# 5 0.001080 0.001041 -0.008037 0.000000 0.039454 0.000000
# 6 0.000000 0.000000 0.000000 0.000161 0.000000 0.027895
#
#
# Mechanical properties :
#
#
# Convention : Reuss Voigt Hill
#
# Bulk Modulus (GPa) = 23.92980 31.29654 27.61317
# Shear Modulus (GPa) = 25.61710 29.61918 27.61814
#
# Velocity S-wave (km/s) = 3.54443 3.81125 3.68026
# Velocity P-wave (km/s) = 5.33724 5.89201 5.62147
#
# Compressibility (1/GPa) = 0.04178890
#
# Stress axis : x y z
#
# Youngs Moduli (GPa) = 80.66517 31.45495 66.75176
#
# Poissons Ratio (x) = -0.03467 0.20791
# Poissons Ratio (y) = -0.08891 0.44576
# Poissons Ratio (z) = 0.25124 0.21005
#
# Static dielectric constant tensor:
#      x y z
#    x 3.610630 0.000000 0.008410 
#    y 0.000000 3.688570 0.000000 
#    z 0.008410 0.000000 4.055740 
# 
# 
# High freq. dielectric constant tensor:
#      x y z
#    x 1.793060 0.000000 0.005830 
#    y 0.000000 1.802070 0.000000 
#    z 0.005830 0.000000 1.807800 
# 
# From -- ./inp_files/319684.got.cif
#   From: 2010.06.25/outbox.cif.g09.slc.cpg/sg12_160_cif.got.tgz:319684.got - 2010.06.28 00:19:55.
