data_PCOD8096100
_publ_section_title
;
Structure prediction by ZEFSAII (Michael W. Deem and Ramdas Pophale) SiO2 
 PCOD8096100
Probable space group: C 2/M
;
_chemical_formula_sum "Si O2"
_cell_formula_units_Z 64
_cell_length_a 17.733510
_cell_length_b 14.282937
_cell_length_c 14.859162
_cell_angle_alpha 90.000000
_cell_angle_beta 70.259887
_cell_angle_gamma 90.000000
_cell_volume 3542.454601
_symmetry_space_group_name_H-M "C 2/M"
_symmetry_group_IT_number 12
_symmetry_cell_setting 'monoclinic'
loop_
_space_group_symop_operation_xyz
x,y,z
-x,y,-z
-x,-y,-z
x,-y,z
1/2+x,1/2+y,z
1/2-x,1/2+y,-z
1/2-x,1/2-y,-z
1/2+x,1/2-y,z
loop_
_atom_site_type_symbol
_atom_site_label
_atom_site_fract_x
_atom_site_fract_y
_atom_site_fract_z
Si Si1 0.078735 0.105171 0.424438
Si Si2 0.172509 0.607278 0.916014
Si Si3 0.802210 0.246259 0.344513
Si Si4 0.929542 0.732897 0.160214
Si Si5 0.726065 0.605342 0.496463
Si Si6 0.813510 0.803914 0.761847
Si Si7 0.381360 0.244983 0.915024
Si Si8 0.593938 0.603435 0.959674
O O1 0.144512 0.106657 0.474730
O O2 0.110029 0.154488 0.321370
O O3 0.000000 0.154383 0.500000
O O4 0.056110 0.000000 0.404637
O O5 0.158420 0.500000 0.947252
O O6 0.102138 0.640624 0.877616
O O7 0.257876 0.617141 0.830665
O O8 0.168913 0.668653 0.008553
O O9 0.893724 0.259672 0.274946
O O10 0.790451 0.332527 0.417567
O O11 0.790404 0.147429 0.398545
O O12 0.740630 0.245189 0.285629
O O13 0.891195 0.824613 0.127541
O O14 0.024335 0.723026 0.121876
O O15 0.759403 0.500000 0.493425
O O16 0.848267 0.739056 0.827193
O O17 0.371397 0.348734 0.962938
O O18 0.634316 0.500000 0.930617
O O19 0.500000 0.588122 0.000000
#
# Coordination Sequence:
#
# PCOD8096100 Si02
#       8
#     8   8   8   8   8   8   8   8
#     4   9  18  31  49  78 106 127 160 207 258 313
#     4  10  20  36  55  74 104 145 184 220 257 304
#     4   9  19  34  51  74 101 132 176 209 254 316
#     4   9  19  32  51  77 103 137 180 220 256 308
#     4   9  18  34  54  72  99 134 169 210 256 309
#     4  10  20  34  51  75 106 138 170 214 264 317
#     4  10  20  33  51  78 107 137 178 221 263 309
#     4   8  15  29  45  67 103 139 167 201 249 305
#
# _framework density 18.066569000000001
#
# number of rings (size 3 to 8) (size 9 to 14) (size 15 to 20)
#    0.000    2.750    0.000    1.875    1.750    5.500 
#    0.000    0.625    0.000    0.000    0.000    0.875 
#    0.000    0.000    0.000    0.000    0.000    0.000 
#
# Total GULP energy -396602.540884 kJ/mol
# GULP energy per Si atom -12393.829403 kJ/mol
# Density = 1.802545 g / cm^3
# Si number density = 18.066569 Si / 1000 Ang^3
#
#
#
# Elastic Constant Matrix: (Units=GPa)
#
#
# Indices 1 2 3 4 5 6 
#
# 1 30.9049 15.7961 28.0563 0.0000 -7.7127 0.0000
# 2 15.7961 111.4806 46.6221 0.0000 0.7362 0.0000
# 3 28.0563 46.6221 121.0729 0.0000 -6.1282 0.0000
# 4 0.0000 0.0000 0.0000 5.5221 0.0000 8.8349
# 5 -7.7127 0.7362 -6.1282 0.0000 36.9298 0.0000
# 6 0.0000 0.0000 0.0000 8.8349 0.0000 -1.9900
#
#
#
# Elastic Compliance Matrix: (Units=1/GPa)
#
#
# Indices 1 2 3 4 5 6 
#
# 1 0.043488 -0.002576 -0.008696 0.000000 0.007691 0.000000
# 2 -0.002576 0.010875 -0.003660 0.000000 -0.001362 0.000000
# 3 -0.008696 -0.003660 0.011694 0.000000 0.000197 0.000000
# 4 0.000000 0.000000 0.000000 0.022349 0.000000 0.099219
# 5 0.007691 -0.001362 0.000197 0.000000 0.028744 0.000000
# 6 0.000000 0.000000 0.000000 0.099219 0.000000 -0.062015
#
#
# Mechanical properties :
#
#
# Convention : Reuss Voigt Hill
#
# Bulk Modulus (GPa) = 27.62974 49.37859 38.50417
# Shear Modulus (GPa) = 51.51335 19.62464 35.56900
#
# Velocity S-wave (km/s) = 5.34556 3.29939 4.44190
# Velocity P-wave (km/s) = 7.30934 6.47344 6.90405
#
# Compressibility (1/GPa) = 0.03619288
#
# Stress axis : x y z
#
# Youngs Moduli (GPa) = 22.99493 91.95734 85.51482
#
# Poissons Ratio (x) = 0.23687 0.74366
# Poissons Ratio (y) = 0.05923 0.31295
# Poissons Ratio (z) = 0.19997 0.33652
#
# Static dielectric constant tensor:
#      x y z
#    x 3.220300 0.000000 -0.119320 
#    y 0.000000 3.406310 0.000000 
#    z -0.119320 0.000000 3.510850 
# 
# 
# High freq. dielectric constant tensor:
#      x y z
#    x 1.686160 0.000000 -0.008370 
#    y 0.000000 1.680690 0.000000 
#    z -0.008370 0.000000 1.708040 
# 
# From -- ./inp_files/233125.got.cif
#   From: 2010.06.25/outbox.cif.g09.slc.cpg/sg12_117_cif.got.tgz:233125.got - 2010.06.28 00:19:55.
