data_PCOD8096781
_publ_section_title
;
Structure prediction by ZEFSAII (Michael W. Deem and Ramdas Pophale) SiO2 
 PCOD8096781
Probable space group: C 2/M
;
_chemical_formula_sum "Si O2"
_cell_formula_units_Z 48
_cell_length_a 24.093202
_cell_length_b 9.186669
_cell_length_c 13.495431
_cell_angle_alpha 90.000000
_cell_angle_beta 73.760493
_cell_angle_gamma 90.000000
_cell_volume 2867.849195
_symmetry_space_group_name_H-M "C 2/M"
_symmetry_group_IT_number 12
_symmetry_cell_setting 'monoclinic'
loop_
_space_group_symop_operation_xyz
x,y,z
-x,y,-z
-x,-y,-z
x,-y,z
1/2+x,1/2+y,z
1/2-x,1/2+y,-z
1/2-x,1/2-y,-z
1/2+x,1/2-y,z
loop_
_atom_site_type_symbol
_atom_site_label
_atom_site_fract_x
_atom_site_fract_y
_atom_site_fract_z
Si Si1 0.271846 0.172866 0.891401
Si Si2 0.504863 0.326427 0.384754
Si Si3 0.613913 0.671117 0.636125
Si Si4 0.872763 0.164209 0.745297
Si Si5 0.210011 0.169383 0.725386
Si Si6 0.806079 0.836796 0.575202
O O1 0.336199 0.229877 0.834926
O O2 0.226800 0.221979 0.827262
O O3 0.273544 0.000000 0.905308
O O4 0.250000 0.250000 0.000000
O O5 0.500000 0.266225 0.500000
O O6 0.507362 0.500000 0.387794
O O7 0.450709 0.265966 0.346260
O O8 0.562396 0.271690 0.299304
O O9 0.609433 0.500000 0.619637
O O10 0.642736 0.704778 0.730050
O O11 0.656676 0.735339 0.531312
O O12 0.846288 0.161998 0.650410
O O13 0.872736 0.000000 0.790127
O O14 0.249247 0.242167 0.621636
O O15 0.222798 0.000000 0.711322
O O16 0.786090 0.000000 0.558338
#
# Coordination Sequence:
#
# PCOD8096781 Si02
#       6
#     8   8   8   8   8   8
#     4  10  20  34  51  68  87 113 149 195 242 279
#     4   9  14  23  42  69  98 127 157 182 205 248
#     4   9  15  24  40  64  95 126 151 178 213 255
#     4   9  16  27  46  72  96 119 152 187 218 259
#     4   9  18  29  42  64  92 117 145 186 232 269
#     4   9  15  24  41  64  92 124 153 178 208 258
#
# _framework density 16.737279999999998
#
# number of rings (size 3 to 8) (size 9 to 14) (size 15 to 20)
#    0.000    2.833    1.667    1.000    0.000    0.667 
#    0.000    0.000    0.000    3.500    0.000    7.000 
#    0.000    0.000    0.000    0.000    0.000    0.000 
#
# Total GULP energy -297381.525142 kJ/mol
# GULP energy per Si atom -12390.896881 kJ/mol
# Density = 1.669919 g / cm^3
# Si number density = 16.737280 Si / 1000 Ang^3
#
#
#
# Elastic Constant Matrix: (Units=GPa)
#
#
# Indices 1 2 3 4 5 6 
#
# 1 141.9659 26.6862 57.7566 0.0000 -10.3494 0.0000
# 2 26.6862 34.7221 29.1314 0.0000 -4.9933 0.0000
# 3 57.7566 29.1314 97.4386 0.0000 -11.1343 0.0000
# 4 0.0000 0.0000 0.0000 15.2807 0.0000 -3.8861
# 5 -10.3494 -4.9933 -11.1343 0.0000 13.4594 0.0000
# 6 0.0000 0.0000 0.0000 -3.8861 0.0000 16.6565
#
#
#
# Elastic Compliance Matrix: (Units=1/GPa)
#
#
# Indices 1 2 3 4 5 6 
#
# 1 0.009662 -0.003337 -0.004442 0.000000 0.002517 0.000000
# 2 -0.003337 0.039934 -0.009455 0.000000 0.004427 0.000000
# 3 -0.004442 -0.009455 0.016490 0.000000 0.006718 0.000000
# 4 0.000000 0.000000 0.000000 0.069570 0.000000 0.016231
# 5 0.002517 0.004427 0.006718 0.000000 0.083433 0.000000
# 6 0.000000 0.000000 0.000000 0.016231 0.000000 0.063823
#
#
# Mechanical properties :
#
#
# Convention : Reuss Voigt Hill
#
# Bulk Modulus (GPa) = 31.62734 55.69721 43.66227
# Shear Modulus (GPa) = 15.24760 19.78282 17.51521
#
# Velocity S-wave (km/s) = 3.02155 3.44170 3.23844
# Velocity P-wave (km/s) = 5.57766 7.01023 6.33457
#
# Compressibility (1/GPa) = 0.03161822
#
# Stress axis : x y z
#
# Youngs Moduli (GPa) = 103.50075 25.04102 60.64209
#
# Poissons Ratio (x) = 0.08357 0.26935
# Poissons Ratio (y) = 0.34541 0.57338
# Poissons Ratio (z) = 0.45971 0.23677
#
# Static dielectric constant tensor:
#      x y z
#    x 3.530160 0.000000 0.007320 
#    y 0.000000 2.933230 0.000000 
#    z 0.007320 0.000000 2.982450 
# 
# 
# High freq. dielectric constant tensor:
#      x y z
#    x 1.653350 0.000000 0.003170 
#    y 0.000000 1.609810 0.000000 
#    z 0.003170 0.000000 1.616720 
# 
# From -- ./inp_files/236582.got.cif
#   From: 2010.06.25/outbox.cif.g09.slc.cpg/sg12_119_cif.got.tgz:236582.got - 2010.06.28 00:19:55.
