data_PCOD8096224
_publ_section_title
;
Structure prediction by ZEFSAII (Michael W. Deem and Ramdas Pophale) SiO2 
 PCOD8096224
Probable space group: C 2/M
;
_chemical_formula_sum "Si O2"
_cell_formula_units_Z 64
_cell_length_a 19.961280
_cell_length_b 9.666941
_cell_length_c 20.259825
_cell_angle_alpha 90.000000
_cell_angle_beta 59.113140
_cell_angle_gamma 90.000000
_cell_volume 3355.002729
_symmetry_space_group_name_H-M "C 2/M"
_symmetry_group_IT_number 12
_symmetry_cell_setting 'monoclinic'
loop_
_space_group_symop_operation_xyz
x,y,z
-x,y,-z
-x,-y,-z
x,-y,z
1/2+x,1/2+y,z
1/2-x,1/2+y,-z
1/2-x,1/2-y,-z
1/2+x,1/2-y,z
loop_
_atom_site_type_symbol
_atom_site_label
_atom_site_fract_x
_atom_site_fract_y
_atom_site_fract_z
Si Si1 0.534420 0.664845 0.673870
Si Si2 0.746189 0.840749 0.904123
Si Si3 0.929863 0.835888 0.489511
Si Si4 0.364641 0.657111 0.744838
Si Si5 0.976073 0.157434 0.083010
Si Si6 0.644035 0.653485 0.029989
Si Si7 0.709644 0.342353 0.353254
Si Si8 0.636763 0.666055 0.746674
O O1 0.530900 0.500000 0.673549
O O2 0.566671 0.720676 0.587337
O O3 0.446402 0.726250 0.725180
O O4 0.586450 0.715505 0.708793
O O5 0.787431 0.778053 0.818002
O O6 0.810406 0.810062 0.927306
O O7 0.720851 0.000000 0.911517
O O8 0.668055 0.754802 0.957906
O O9 0.842547 0.794117 0.558181
O O10 0.000000 0.773832 0.500000
O O11 0.938186 0.000000 0.486634
O O12 0.366046 0.500000 0.770679
O O13 0.354662 0.664481 0.671957
O O14 0.905378 0.219287 0.163746
O O15 0.052204 0.167819 0.091221
O O16 0.952929 0.000000 0.078633
O O17 0.000000 0.228757 0.000000
O O18 0.664606 0.500000 0.994979
O O19 0.741668 0.500000 0.344449
O O20 0.779803 0.237997 0.303191
O O21 0.646285 0.500000 0.742300
#
# Coordination Sequence:
#
# PCOD8096224 Si02
#       8
#     8   8   8   8   8   8   8   8
#     4   9  16  29  52  78 101 130 172 213 244 288
#     4   9  17  28  45  70  97 119 151 202 255 293
#     4   9  15  28  51  80 105 127 165 211 248 287
#     4   9  16  28  49  74  98 128 167 211 248 286
#     4   9  18  32  49  67  92 130 171 202 233 284
#     4   9  17  30  47  67  90 122 161 202 243 289
#     4  10  20  33  52  78 105 132 165 208 253 297
#     4  10  21  35  52  76 104 134 168 208 254 300
#
# _framework density 19.075990999999998
#
# number of rings (size 3 to 8) (size 9 to 14) (size 15 to 20)
#    0.000    2.750    1.250    0.750    1.750    3.500 
#    0.000    0.625    0.000    4.125    0.000    0.000 
#    0.000    0.000    0.000    0.000    0.000    0.000 
#
# Total GULP energy -396422.513415 kJ/mol
# GULP energy per Si atom -12388.203544 kJ/mol
# Density = 1.903257 g / cm^3
# Si number density = 19.075991 Si / 1000 Ang^3
#
#
#
# Elastic Constant Matrix: (Units=GPa)
#
#
# Indices 1 2 3 4 5 6 
#
# 1 63.7134 11.2710 30.2773 0.0000 -7.0790 0.0000
# 2 11.2710 28.2742 25.4368 0.0001 -6.3337 -0.0002
# 3 30.2773 25.4368 140.6098 0.0000 -7.3917 0.0000
# 4 0.0000 0.0001 0.0000 17.5819 0.0000 -7.3068
# 5 -7.0790 -6.3337 -7.3917 0.0000 30.1647 0.0000
# 6 0.0000 -0.0002 0.0000 -7.3068 0.0000 15.0506
#
#
#
# Elastic Compliance Matrix: (Units=1/GPa)
#
#
# Indices 1 2 3 4 5 6 
#
# 1 0.018135 -0.003870 -0.003063 0.000000 0.002693 0.000000
# 2 -0.003870 0.044620 -0.006882 0.000000 0.006774 0.000001
# 3 -0.003063 -0.006882 0.009019 0.000000 0.000046 0.000000
# 4 0.000000 0.000000 0.000000 0.071252 0.000000 0.034591
# 5 0.002693 0.006774 0.000046 0.000000 0.035217 0.000000
# 6 0.000000 0.000001 0.000000 0.034591 0.000000 0.083236
#
#
# Mechanical properties :
#
#
# Convention : Reuss Voigt Hill
#
# Bulk Modulus (GPa) = 22.65410 40.72972 31.69191
# Shear Modulus (GPa) = 16.45690 23.60028 20.02859
#
# Velocity S-wave (km/s) = 2.94037 3.52116 3.24379
# Velocity P-wave (km/s) = 4.84037 6.15866 5.53887
#
# Compressibility (1/GPa) = 0.04414211
#
# Stress axis : x y z
#
# Youngs Moduli (GPa) = 55.14271 22.41151 110.87742
#
# Poissons Ratio (x) = 0.08673 0.33965
# Poissons Ratio (y) = 0.21340 0.76311
# Poissons Ratio (z) = 0.16892 0.15425
#
# Static dielectric constant tensor:
#      x y z
#    x 3.440550 0.000000 0.039840 
#    y 0.000000 2.952140 0.000000 
#    z 0.039840 0.000000 3.906350 
# 
# 
# High freq. dielectric constant tensor:
#      x y z
#    x 1.740680 0.000000 -0.001800 
#    y 0.000000 1.666970 0.000000 
#    z -0.001800 0.000000 1.763870 
# 
# From -- ./inp_files/319887.got.cif
#   From: 2010.06.25/outbox.cif.g09.slc.cpg/sg12_160_cif.got.tgz:319887.got - 2010.06.28 00:19:55.
