data_PCOD8096337
_publ_section_title
;
Structure prediction by ZEFSAII (Michael W. Deem and Ramdas Pophale) SiO2 
 PCOD8096337
Probable space group: C 2/M
;
_chemical_formula_sum "Si O2"
_cell_formula_units_Z 48
_cell_length_a 27.062684
_cell_length_b 13.965615
_cell_length_c 10.891235
_cell_angle_alpha 90.000000
_cell_angle_beta 144.692908
_cell_angle_gamma 90.000000
_cell_volume 2379.056858
_symmetry_space_group_name_H-M "C 2/M"
_symmetry_group_IT_number 12
_symmetry_cell_setting 'monoclinic'
loop_
_space_group_symop_operation_xyz
x,y,z
-x,y,-z
-x,-y,-z
x,-y,z
1/2+x,1/2+y,z
1/2-x,1/2+y,-z
1/2-x,1/2-y,-z
1/2+x,1/2-y,z
loop_
_atom_site_type_symbol
_atom_site_label
_atom_site_fract_x
_atom_site_fract_y
_atom_site_fract_z
Si Si1 0.347672 0.500000 0.827053
Si Si2 0.899004 0.293500 0.784510
Si Si3 0.789152 0.000000 0.376535
Si Si4 0.508852 0.669698 0.380249
Si Si5 0.471171 0.500000 0.771810
Si Si6 0.844555 0.795631 0.925113
Si Si7 0.830296 0.500000 0.664558
Si Si8 0.826980 0.207055 0.392336
O O1 0.341019 0.408958 0.901405
O O2 0.268751 0.500000 0.576183
O O3 0.445909 0.500000 0.968150
O O4 0.851282 0.261035 0.810587
O O5 0.881972 0.406626 0.726263
O O6 0.858726 0.230114 0.595263
O O7 0.000000 0.274112 0.000000
O O8 0.876407 0.000000 0.642629
O O9 0.692880 0.000000 0.238121
O O10 0.798168 0.903562 0.315834
O O11 0.500000 0.629071 0.500000
O O12 0.521743 0.590353 0.303273
O O13 0.595700 0.733531 0.544619
O O14 0.424626 0.731542 0.174962
O O15 0.755729 0.768896 0.810337
#
# Coordination Sequence:
#
# PCOD8096337 Si02
#       8
#     4   8   4   8   4   8   4   8
#     4  10  20  33  52  86 112 148 181 225 284 342
#     4  12  23  38  56  86 115 155 186 232 285 338
#     4  10  20  33  52  86 112 148 181 225 284 342
#     4  10  21  37  59  84 110 149 198 236 281 335
#     4   8  19  35  54  82 114 145 176 238 297 330
#     4  11  21  38  58  83 120 149 186 237 286 340
#     4  12  21  35  56  82 116 154 194 219 273 348
#     4  11  21  38  58  83 120 149 186 237 286 340
#
# _framework density 20.176061000000001
#
# number of rings (size 3 to 8) (size 9 to 14) (size 15 to 20)
#    0.000    1.333    5.000    2.000    0.000    1.000 
#    0.000    0.000    0.000    0.000    0.000    5.833 
#    0.000    0.000    0.000    0.000    0.000    0.000 
#
# Total GULP energy -297328.354039 kJ/mol
# GULP energy per Si atom -12388.681418 kJ/mol
# Density = 2.013014 g / cm^3
# Si number density = 20.176061 Si / 1000 Ang^3
#
#
#
# Elastic Constant Matrix: (Units=GPa)
#
#
# Indices 1 2 3 4 5 6 
#
# 1 42.1403 13.8301 28.1670 0.0000 21.7272 0.0000
# 2 13.8301 104.8188 20.0377 0.0000 13.0631 0.0000
# 3 28.1670 20.0377 73.6075 0.0000 38.8006 0.0000
# 4 0.0000 0.0000 0.0000 15.7721 0.0000 0.9132
# 5 21.7272 13.0631 38.8006 0.0000 41.3173 0.0000
# 6 0.0000 0.0000 0.0000 0.9132 0.0000 26.1925
#
#
#
# Elastic Compliance Matrix: (Units=1/GPa)
#
#
# Indices 1 2 3 4 5 6 
#
# 1 0.034715 -0.001871 -0.006859 0.000000 -0.011222 0.000000
# 2 -0.001871 0.010195 -0.001741 0.000000 -0.000605 0.000000
# 3 -0.006859 -0.001741 0.028700 0.000000 -0.022794 0.000000
# 4 0.000000 0.000000 0.000000 0.063531 0.000000 -0.002215
# 5 -0.011222 -0.000605 -0.022794 0.000000 0.051701 0.000000
# 6 0.000000 0.000000 0.000000 -0.002215 0.000000 0.038256
#
#
# Mechanical properties :
#
#
# Convention : Reuss Voigt Hill
#
# Bulk Modulus (GPa) = 18.98653 38.29293 28.63973
# Shear Modulus (GPa) = 18.82554 27.22517 23.02535
#
# Velocity S-wave (km/s) = 3.05792 3.67738 3.38186
# Velocity P-wave (km/s) = 4.67960 6.08698 5.42909
#
# Compressibility (1/GPa) = 0.05266892
#
# Stress axis : x y z
#
# Youngs Moduli (GPa) = 28.80585 98.08498 34.84349
#
# Poissons Ratio (x) = 0.18347 0.23901
# Poissons Ratio (y) = 0.05388 0.06065
# Poissons Ratio (z) = 0.19759 0.17073
#
# Static dielectric constant tensor:
#      x y z
#    x 3.565580 0.000000 0.600020 
#    y 0.000000 3.628980 0.000000 
#    z 0.600020 0.000000 3.999930 
# 
# 
# High freq. dielectric constant tensor:
#      x y z
#    x 1.766700 0.000000 0.041400 
#    y 0.000000 1.774870 0.000000 
#    z 0.041400 0.000000 1.791250 
# 
# From -- ./inp_files/189400.got.cif
#   From: 2010.06.25/outbox.cif.g09.slc.cpg/sg12_95_cif.got.tgz:189400.got - 2010.06.28 00:19:55.
