data_PCOD8096117
_publ_section_title
;
Structure prediction by ZEFSAII (Michael W. Deem and Ramdas Pophale) SiO2 
 PCOD8096117
Probable space group: C 2/M
;
_chemical_formula_sum "Si O2"
_cell_formula_units_Z 56
_cell_length_a 16.761773
_cell_length_b 14.054378
_cell_length_c 11.482087
_cell_angle_alpha 90.000000
_cell_angle_beta 84.938414
_cell_angle_gamma 90.000000
_cell_volume 2694.359552
_symmetry_space_group_name_H-M "C 2/M"
_symmetry_group_IT_number 12
_symmetry_cell_setting 'monoclinic'
loop_
_space_group_symop_operation_xyz
x,y,z
-x,y,-z
-x,-y,-z
x,-y,z
1/2+x,1/2+y,z
1/2-x,1/2+y,-z
1/2-x,1/2-y,-z
1/2+x,1/2-y,z
loop_
_atom_site_type_symbol
_atom_site_label
_atom_site_fract_x
_atom_site_fract_y
_atom_site_fract_z
Si Si1 0.434503 0.214234 0.091646
Si Si2 0.006136 0.841120 0.246657
Si Si3 0.883179 0.106152 0.972913
Si Si4 0.852572 0.894772 0.381426
Si Si5 0.415646 0.251202 0.559675
Si Si6 0.702755 0.111608 0.008561
Si Si7 0.189297 0.610905 0.276912
O O1 0.473230 0.232886 0.213892
O O2 0.500000 0.163800 0.000000
O O3 0.423450 0.325479 0.060798
O O4 0.352612 0.157012 0.086176
O O5 0.930942 0.905286 0.291214
O O6 0.063841 0.893397 0.148971
O O7 0.063431 0.830867 0.349349
O O8 0.880632 0.000000 0.026088
O O9 0.792438 0.142459 0.962175
O O10 0.862331 0.807759 0.471219
O O11 0.779995 0.869267 0.304400
O O12 0.838389 0.000000 0.441184
O O13 0.500000 0.209791 0.500000
O O14 0.367741 0.165645 0.626002
O O15 0.680114 0.146253 0.142990
O O16 0.691242 0.000000 0.001077
O O17 0.167209 0.500000 0.287440
#
# Coordination Sequence:
#
# PCOD8096117 Si02
#       7
#     8   8   8   8   8   8   8
#     4  10  20  33  51  78 110 145 184 225 267 320
#     4  10  21  34  54  81 115 149 180 221 273 327
#     4  10  20  33  52  80 112 145 180 220 270 330
#     4  10  21  37  59  85 111 143 185 231 279 331
#     4  10  22  39  57  80 108 142 186 234 282 327
#     4  10  21  37  57  82 113 150 188 224 268 326
#     4  10  20  37  60  82 108 145 187 231 278 327
#
# _framework density 20.78416
#
# number of rings (size 3 to 8) (size 9 to 14) (size 15 to 20)
#    0.000    2.000    0.000    3.857    0.000    9.143 
#    0.000    0.714    0.000    4.286    0.000    0.000 
#    0.000    0.000    0.000    0.000    0.000    0.000 
#
# Total GULP energy -346931.878172 kJ/mol
# GULP energy per Si atom -12390.424220 kJ/mol
# Density = 2.073685 g / cm^3
# Si number density = 20.784160 Si / 1000 Ang^3
#
#
#
# Elastic Constant Matrix: (Units=GPa)
#
#
# Indices 1 2 3 4 5 6 
#
# 1 96.9759 29.0320 15.0740 0.0000 -5.2734 0.0000
# 2 29.0320 45.7259 19.1218 0.0000 -11.2784 0.0000
# 3 15.0740 19.1218 58.7578 0.0000 -0.0643 0.0000
# 4 0.0000 0.0000 0.0000 16.0829 0.0000 -14.3612
# 5 -5.2734 -11.2784 -0.0643 0.0000 30.0940 0.0000
# 6 0.0000 0.0000 0.0000 -14.3612 0.0000 9.3475
#
#
#
# Elastic Compliance Matrix: (Units=1/GPa)
#
#
# Indices 1 2 3 4 5 6 
#
# 1 0.012775 -0.008022 -0.000668 0.000000 -0.000769 0.000000
# 2 -0.008022 0.033372 -0.008790 0.000000 0.011083 0.000000
# 3 -0.000668 -0.008790 0.020047 0.000000 -0.003369 0.000000
# 4 0.000000 0.000000 0.000000 -0.167195 0.000000 -0.256872
# 5 -0.000769 0.011083 -0.003369 0.000000 0.037241 0.000000
# 6 0.000000 0.000000 0.000000 -0.256872 0.000000 -0.287667
#
#
# Mechanical properties :
#
#
# Convention : Reuss Voigt Hill
#
# Bulk Modulus (GPa) = 32.01525 36.43501 34.22513
# Shear Modulus (GPa) = -16.33688 20.32033 1.99172
#
# Velocity S-wave (km/s) = -2.80666 3.13019 0.97998
# Velocity P-wave (km/s) = 2.22127 5.53465 4.21701
#
# Compressibility (1/GPa) = 0.03123511
#
# Stress axis : x y z
#
# Youngs Moduli (GPa) = 78.27607 29.96519 49.88196
#
# Poissons Ratio (x) = 0.24037 0.03331
# Poissons Ratio (y) = 0.62791 0.43848
# Poissons Ratio (z) = 0.05227 0.26340
#
# Static dielectric constant tensor:
#      x y z
#    x 4.039120 0.000000 -0.014580 
#    y 0.000000 3.473880 0.000000 
#    z -0.014580 0.000000 3.787530 
# 
# 
# High freq. dielectric constant tensor:
#      x y z
#    x 1.831500 0.000000 0.004940 
#    y 0.000000 1.794830 0.000000 
#    z 0.004940 0.000000 1.801140 
# 
# From -- ./inp_files/143738.got.cif
#   From: 2010.06.25/outbox.cif.g09.slc.cpg/sg12_72_cif.got.tgz:143738.got - 2010.06.28 00:19:55.
