data_PCOD8096064
_publ_section_title
;
Structure prediction by ZEFSAII (Michael W. Deem and Ramdas Pophale) SiO2 
 PCOD8096064
Probable space group: C 2/M
;
_chemical_formula_sum "Si O2"
_cell_formula_units_Z 64
_cell_length_a 30.512564
_cell_length_b 8.867288
_cell_length_c 16.403516
_cell_angle_alpha 90.000000
_cell_angle_beta 131.659114
_cell_angle_gamma 90.000000
_cell_volume 3315.832481
_symmetry_space_group_name_H-M "C 2/M"
_symmetry_group_IT_number 12
_symmetry_cell_setting 'monoclinic'
loop_
_space_group_symop_operation_xyz
x,y,z
-x,y,-z
-x,-y,-z
x,-y,z
1/2+x,1/2+y,z
1/2-x,1/2+y,-z
1/2-x,1/2-y,-z
1/2+x,1/2-y,z
loop_
_atom_site_type_symbol
_atom_site_label
_atom_site_fract_x
_atom_site_fract_y
_atom_site_fract_z
Si Si1 0.637987 0.173151 0.079441
Si Si2 0.082979 0.822392 0.861378
Si Si3 0.564535 0.165861 0.561796
Si Si4 0.153996 0.667889 0.810317
Si Si5 0.049286 0.179090 0.285215
Si Si6 0.634851 0.672453 0.525616
Si Si7 0.445177 0.172581 0.879345
Si Si8 0.728111 0.320885 0.764770
O O1 0.614077 0.190062 0.141618
O O2 0.704980 0.228652 0.162163
O O3 0.633008 0.000000 0.043711
O O4 0.598996 0.277113 0.973151
O O5 0.133523 0.751149 0.867011
O O6 0.015376 0.766085 0.763076
O O7 0.086609 0.000000 0.854887
O O8 0.500000 0.214701 0.500000
O O9 0.595707 0.157278 0.686370
O O10 0.587119 0.304462 0.536708
O O11 0.569562 0.000000 0.524900
O O12 0.177414 0.500000 0.861544
O O13 0.204215 0.752982 0.820365
O O14 0.104071 0.246172 0.407201
O O15 0.061553 0.227364 0.208665
O O16 0.050520 0.000000 0.292233
O O17 0.647354 0.500000 0.521924
O O18 0.694084 0.742857 0.640730
O O19 0.456069 0.000000 0.866183
O O20 0.500000 0.231046 0.000000
O O21 0.719529 0.500000 0.758498
#
# Coordination Sequence:
#
# PCOD8096064 Si02
#       8
#     8   8   8   8   8   8   8   8
#     4  10  21  38  58  79 103 137 179 222 267 314
#     4  11  22  34  52  80 110 141 178 218 265 317
#     4   9  17  29  46  71 102 137 176 216 260 306
#     4  10  20  33  51  76 108 143 179 220 262 308
#     4  10  21  35  54  82 113 140 171 215 267 320
#     4   9  18  33  52  75 103 138 175 212 256 308
#     4  10  20  36  58  82 107 136 173 217 268 320
#     4   9  19  37  58  76 103 143 183 219 257 307
#
# _framework density 19.301338000000001
#
# number of rings (size 3 to 8) (size 9 to 14) (size 15 to 20)
#    0.000    2.250    1.250    1.500    0.000    3.500 
#    0.000    0.625    0.000    0.000    0.000    0.000 
#    0.000    0.000    0.000    0.000    0.000    0.000 
#
# Total GULP energy -396461.367065 kJ/mol
# GULP energy per Si atom -12389.417721 kJ/mol
# Density = 1.925741 g / cm^3
# Si number density = 19.301338 Si / 1000 Ang^3
#
#
#
# Elastic Constant Matrix: (Units=GPa)
#
#
# Indices 1 2 3 4 5 6 
#
# 1 98.1100 19.6484 27.1944 0.0000 4.0527 0.0000
# 2 19.6484 32.5386 16.4695 0.0000 -0.4934 0.0000
# 3 27.1944 16.4695 81.6556 0.0000 -7.3992 0.0000
# 4 0.0000 0.0000 0.0000 22.5640 0.0000 -7.5226
# 5 4.0527 -0.4934 -7.3992 0.0000 25.0433 0.0000
# 6 0.0000 0.0000 0.0000 -7.5226 0.0000 24.4014
#
#
#
# Elastic Compliance Matrix: (Units=1/GPa)
#
#
# Indices 1 2 3 4 5 6 
#
# 1 0.012393 -0.005903 -0.003215 0.000000 -0.003072 0.000000
# 2 -0.005903 0.037086 -0.005509 0.000000 0.000058 0.000000
# 3 -0.003215 -0.005509 0.014864 0.000000 0.004803 0.000000
# 4 0.000000 0.000000 0.000000 0.049395 0.000000 0.015228
# 5 -0.003072 0.000058 0.004803 0.000000 0.041848 0.000000
# 6 0.000000 0.000000 0.000000 0.015228 0.000000 0.045676
#
#
# Mechanical properties :
#
#
# Convention : Reuss Voigt Hill
#
# Bulk Modulus (GPa) = 28.49870 37.65876 33.07873
# Shear Modulus (GPa) = 20.64307 24.33453 22.48880
#
# Velocity S-wave (km/s) = 3.27389 3.55458 3.41712
# Velocity P-wave (km/s) = 5.39336 6.03325 5.72226
#
# Compressibility (1/GPa) = 0.03508932
#
# Stress axis : x y z
#
# Youngs Moduli (GPa) = 80.69204 26.96412 67.27794
#
# Poissons Ratio (x) = 0.15916 0.21630
# Poissons Ratio (y) = 0.47629 0.37064
# Poissons Ratio (z) = 0.25943 0.14855
#
# Static dielectric constant tensor:
#      x y z
#    x 3.409140 0.000000 0.162950 
#    y 0.000000 3.442790 0.000000 
#    z 0.162950 0.000000 3.741280 
# 
# 
# High freq. dielectric constant tensor:
#      x y z
#    x 1.740510 0.000000 0.007310 
#    y 0.000000 1.736990 0.000000 
#    z 0.007310 0.000000 1.754660 
# 
# From -- ./inp_files/249157.got.cif
#   From: 2010.06.25/outbox.cif.g09.slc.cpg/sg12_125_cif.got.tgz:249157.got - 2010.06.28 00:19:55.
