data_PCOD8096635
_publ_section_title
;
Structure prediction by ZEFSAII (Michael W. Deem and Ramdas Pophale) SiO2 
 PCOD8096635
Probable space group: C 2/M
;
_chemical_formula_sum "Si O2"
_cell_formula_units_Z 56
_cell_length_a 14.835909
_cell_length_b 14.252919
_cell_length_c 18.518530
_cell_angle_alpha 90.000000
_cell_angle_beta 43.096894
_cell_angle_gamma 90.000000
_cell_volume 2675.432994
_symmetry_space_group_name_H-M "C 2/M"
_symmetry_group_IT_number 12
_symmetry_cell_setting 'monoclinic'
loop_
_space_group_symop_operation_xyz
x,y,z
-x,y,-z
-x,-y,-z
x,-y,z
1/2+x,1/2+y,z
1/2-x,1/2+y,-z
1/2-x,1/2-y,-z
1/2+x,1/2-y,z
loop_
_atom_site_type_symbol
_atom_site_label
_atom_site_fract_x
_atom_site_fract_y
_atom_site_fract_z
Si Si1 0.991609 0.104509 0.086811
Si Si2 0.588428 0.728410 0.384230
Si Si3 0.235786 0.891761 0.674090
Si Si4 0.416422 0.214964 0.899361
Si Si5 0.990455 0.195849 0.285999
Si Si6 0.236336 0.101957 0.095165
Si Si7 0.666137 0.892226 0.807786
O O1 0.843282 0.107523 0.204006
O O2 0.077556 0.174845 0.083485
O O3 0.051964 0.000000 0.059333
O O4 0.000000 0.138954 0.000000
O O5 0.500000 0.684894 0.500000
O O6 0.631941 0.833337 0.384532
O O7 0.495807 0.727447 0.366542
O O8 0.718154 0.665631 0.298776
O O9 0.154219 0.837626 0.657422
O O10 0.268195 0.000000 0.631964
O O11 0.445777 0.215607 0.796046
O O12 0.525707 0.149764 0.870669
O O13 0.274896 0.176830 0.010008
O O14 0.087859 0.108683 0.213179
O O15 0.331011 0.117694 0.107921
O O16 0.256627 0.000000 0.049112
O O17 0.676954 0.000000 0.776119
#
# Coordination Sequence:
#
# PCOD8096635 Si02
#       7
#     8   8   8   8   8   8   8
#     4   9  17  29  53  86 118 158 204 239 288 364
#     4  11  24  43  68  90 120 159 215 269 325 373
#     4  10  21  42  66  90 126 168 207 258 317 376
#     4  11  19  34  56  87 124 166 196 242 305 370
#     4  10  22  39  62  90 125 162 209 256 306 370
#     4  10  20  33  56  90 125 162 201 241 292 370
#     4  10  20  37  59  87 122 160 201 252 311 372
#
# _framework density 20.931190999999998
#
# number of rings (size 3 to 8) (size 9 to 14) (size 15 to 20)
#    0.000    1.857    2.857    2.571    2.000    3.429 
#    0.000    1.429    0.000    0.000    0.000    0.000 
#    0.000    0.000    0.000    0.000    0.000    0.000 
#
# Total GULP energy -346974.069117 kJ/mol
# GULP energy per Si atom -12391.931040 kJ/mol
# Density = 2.088355 g / cm^3
# Si number density = 20.931191 Si / 1000 Ang^3
#
#
#
# Elastic Constant Matrix: (Units=GPa)
#
#
# Indices 1 2 3 4 5 6 
#
# 1 93.4524 30.4507 29.8863 0.0000 22.0555 0.0000
# 2 30.4507 119.3695 26.7955 0.0000 4.5065 0.0000
# 3 29.8863 26.7955 78.4789 0.0000 17.6571 0.0000
# 4 0.0000 0.0000 0.0000 14.4980 0.0000 2.1598
# 5 22.0555 4.5065 17.6571 0.0000 28.8346 0.0000
# 6 0.0000 0.0000 0.0000 2.1598 0.0000 3.3468
#
#
#
# Elastic Compliance Matrix: (Units=1/GPa)
#
#
# Indices 1 2 3 4 5 6 
#
# 1 0.014590 -0.002807 -0.002535 0.000000 -0.009169 0.000000
# 2 -0.002807 0.009620 -0.002738 0.000000 0.002320 0.000000
# 3 -0.002535 -0.002738 0.016365 0.000000 -0.007654 0.000000
# 4 0.000000 0.000000 0.000000 0.076311 0.000000 -0.049246
# 5 -0.009169 0.002320 -0.007654 0.000000 0.046018 0.000000
# 6 0.000000 0.000000 0.000000 -0.049246 0.000000 0.330571
#
#
# Mechanical properties :
#
#
# Convention : Reuss Voigt Hill
#
# Bulk Modulus (GPa) = 40.95693 51.72952 46.34322
# Shear Modulus (GPa) = 9.65676 22.94711 16.30193
#
# Velocity S-wave (km/s) = 2.15025 3.31465 2.79379
# Velocity P-wave (km/s) = 5.07688 6.27829 5.70927
#
# Compressibility (1/GPa) = 0.02441590
#
# Stress axis : x y z
#
# Youngs Moduli (GPa) = 68.54149 103.94680 61.10779
#
# Poissons Ratio (x) = 0.29174 0.15490
# Poissons Ratio (y) = 0.19237 0.16730
# Poissons Ratio (z) = 0.17374 0.28459
#
# Static dielectric constant tensor:
#      x y z
#    x 4.003990 0.000000 0.206270 
#    y 0.000000 3.894030 0.000000 
#    z 0.206270 0.000000 3.577310 
# 
# 
# High freq. dielectric constant tensor:
#      x y z
#    x 1.831180 0.000000 0.000390 
#    y 0.000000 1.819010 0.000000 
#    z 0.000390 0.000000 1.795550 
# 
# From -- ./inp_files/270214.got.cif
#   From: 2010.06.25/outbox.cif.g09.slc.cpg/sg12_136_cif.got.tgz:270214.got - 2010.06.28 00:19:55.
