data_PCOD8096594
_publ_section_title
;
Structure prediction by ZEFSAII (Michael W. Deem and Ramdas Pophale) SiO2 
 PCOD8096594
Probable space group: C 2/M
;
_chemical_formula_sum "Si O2"
_cell_formula_units_Z 48
_cell_length_a 12.709330
_cell_length_b 22.821119
_cell_length_c 8.632306
_cell_angle_alpha 90.000000
_cell_angle_beta 87.815015
_cell_angle_gamma 90.000000
_cell_volume 2501.903455
_symmetry_space_group_name_H-M "C 2/M"
_symmetry_group_IT_number 12
_symmetry_cell_setting 'monoclinic'
loop_
_space_group_symop_operation_xyz
x,y,z
-x,y,-z
-x,-y,-z
x,-y,z
1/2+x,1/2+y,z
1/2-x,1/2+y,-z
1/2-x,1/2-y,-z
1/2+x,1/2-y,z
loop_
_atom_site_type_symbol
_atom_site_label
_atom_site_fract_x
_atom_site_fract_y
_atom_site_fract_z
Si Si1 0.380893 0.769057 0.508801
Si Si2 0.215856 0.829648 0.337829
Si Si3 0.184198 0.321362 0.165572
Si Si4 0.651439 0.934687 0.605459
Si Si5 0.572636 0.933170 0.262361
Si Si6 0.379635 0.705626 0.975872
O O1 0.500000 0.788753 0.500000
O O2 0.324616 0.791624 0.355172
O O3 0.366968 0.698849 0.534086
O O4 0.327393 0.801077 0.657560
O O5 0.244652 0.896587 0.367889
O O6 0.167119 0.826292 0.171786
O O7 0.132378 0.386229 0.148023
O O8 0.128113 0.275964 0.049068
O O9 0.309186 0.319202 0.121135
O O10 0.620967 0.928134 0.429424
O O11 0.551650 0.917629 0.719453
O O12 0.686800 0.000000 0.642397
O O13 0.587835 0.000000 0.198240
O O14 0.500000 0.687650 0.000000
#
# Coordination Sequence:
#
# PCOD8096594 Si02
#       6
#     8   8   8   8   8   8
#     4  10  20  33  55  87 113 140 184 235 285 337
#     4  10  20  34  55  80 109 149 188 228 279 330
#     4  10  20  36  58  80 114 148 185 228 285 338
#     4   9  17  32  55  86 117 144 177 227 288 336
#     4   9  17  31  57  88 116 143 174 225 288 343
#     4  10  24  40  54  78 112 157 193 229 277 328
#
# _framework density 19.185393000000001
#
# number of rings (size 3 to 8) (size 9 to 14) (size 15 to 20)
#    0.000    2.333    1.667    2.000    0.000   14.667 
#    0.000    0.833    0.000    5.000    0.000    0.000 
#    0.000    0.000    0.000    0.000    0.000    0.000 
#
# Total GULP energy -297324.329619 kJ/mol
# GULP energy per Si atom -12388.513734 kJ/mol
# Density = 1.914173 g / cm^3
# Si number density = 19.185393 Si / 1000 Ang^3
#
#
#
# Elastic Constant Matrix: (Units=GPa)
#
#
# Indices 1 2 3 4 5 6 
#
# 1 100.4265 29.3661 51.3456 0.0000 4.8144 0.0000
# 2 29.3661 133.0188 31.9658 0.0000 -7.9109 0.0000
# 3 51.3456 31.9658 60.9370 0.0000 1.8792 0.0000
# 4 0.0000 0.0000 0.0000 22.4361 0.0000 -4.2084
# 5 4.8144 -7.9109 1.8792 0.0000 29.8843 0.0000
# 6 0.0000 0.0000 0.0000 -4.2084 0.0000 29.1747
#
#
#
# Elastic Compliance Matrix: (Units=1/GPa)
#
#
# Indices 1 2 3 4 5 6 
#
# 1 0.017633 -0.000527 -0.014518 0.000000 -0.002067 0.000000
# 2 -0.000527 0.008819 -0.004265 0.000000 0.002688 0.000000
# 3 -0.014518 -0.004265 0.030903 0.000000 -0.000733 0.000000
# 4 0.000000 0.000000 0.000000 0.045811 0.000000 0.006608
# 5 -0.002067 0.002688 -0.000733 0.000000 0.034553 0.000000
# 6 0.000000 0.000000 0.000000 0.006608 0.000000 0.035229
#
#
# Mechanical properties :
#
#
# Convention : Reuss Voigt Hill
#
# Bulk Modulus (GPa) = 53.37368 57.74858 55.56113
# Shear Modulus (GPa) = 22.95555 28.41266 25.68410
#
# Velocity S-wave (km/s) = 3.46282 3.85249 3.66284
# Velocity P-wave (km/s) = 6.62333 7.06785 6.84920
#
# Compressibility (1/GPa) = 0.01873583
#
# Stress axis : x y z
#
# Youngs Moduli (GPa) = 56.71107 113.39383 32.35954
#
# Poissons Ratio (x) = 0.05976 0.46978
# Poissons Ratio (y) = 0.02989 0.13801
# Poissons Ratio (z) = 0.82331 0.48361
#
# Static dielectric constant tensor:
#      x y z
#    x 3.521550 0.000000 -0.111730 
#    y 0.000000 3.825160 0.000000 
#    z -0.111730 0.000000 3.302340 
# 
# 
# High freq. dielectric constant tensor:
#      x y z
#    x 1.729710 0.000000 0.003800 
#    y 0.000000 1.736320 0.000000 
#    z 0.003800 0.000000 1.729930 
# 
# From -- ./inp_files/51995.got.cif
#   From: 2010.06.25/outbox.cif.g09.slc.cpg/sg12_26_cif.got.tgz:51995.got - 2010.06.28 00:19:55.
