data_PCOD8096197
_publ_section_title
;
Structure prediction by ZEFSAII (Michael W. Deem and Ramdas Pophale) SiO2 
 PCOD8096197
Probable space group: C 2/M
;
_chemical_formula_sum "Si O2"
_cell_formula_units_Z 64
_cell_length_a 15.507561
_cell_length_b 9.470116
_cell_length_c 30.670903
_cell_angle_alpha 90.000000
_cell_angle_beta 50.721234
_cell_angle_gamma 90.000000
_cell_volume 3486.649880
_symmetry_space_group_name_H-M "C 2/M"
_symmetry_group_IT_number 12
_symmetry_cell_setting 'monoclinic'
loop_
_space_group_symop_operation_xyz
x,y,z
-x,y,-z
-x,-y,-z
x,-y,z
1/2+x,1/2+y,z
1/2-x,1/2+y,-z
1/2-x,1/2-y,-z
1/2+x,1/2-y,z
loop_
_atom_site_type_symbol
_atom_site_label
_atom_site_fract_x
_atom_site_fract_y
_atom_site_fract_z
Si Si1 0.737674 0.160350 0.179386
Si Si2 0.168582 0.834342 0.364860
Si Si3 0.813321 0.167506 0.249785
Si Si4 0.431265 0.335756 0.824726
Si Si5 0.753063 0.836286 0.564226
Si Si6 0.227577 0.838789 0.049620
Si Si7 0.586763 0.663868 0.565602
Si Si8 0.875254 0.846288 0.055477
O O1 0.768920 0.219815 0.216948
O O2 0.638549 0.248957 0.188753
O O3 0.852990 0.165797 0.114467
O O4 0.693985 0.000000 0.197007
O O5 0.241816 0.744762 0.308746
O O6 0.204777 0.791666 0.401826
O O7 0.040776 0.790671 0.398751
O O8 0.186581 0.000000 0.350646
O O9 0.941075 0.213229 0.216401
O O10 0.800635 0.000000 0.258377
O O11 0.417445 0.500000 0.817044
O O12 0.388841 0.309587 0.888135
O O13 0.641950 0.749807 0.587674
O O14 0.852165 0.799336 0.499174
O O15 0.721310 0.000000 0.572414
O O16 0.321327 0.792694 0.053230
O O17 0.241392 0.000000 0.032007
O O18 0.250000 0.750000 0.000000
O O19 0.598056 0.500000 0.573525
O O20 0.825350 0.000000 0.056095
O O21 0.000000 0.842393 0.000000
#
# Coordination Sequence:
#
# PCOD8096197 Si02
#       8
#     8   8   8   8   8   8   8   8
#     4   9  19  36  56  77 103 135 176 219 263 317
#     4  10  21  36  54  79 109 142 181 223 265 314
#     4  10  22  38  56  77 104 144 184 220 265 318
#     4   9  20  38  57  75 103 139 176 218 266 318
#     4   9  18  34  56  81 110 144 180 219 266 315
#     4  10  20  33  52  77 105 133 167 212 264 321
#     4   9  18  34  56  81 110 144 179 218 267 318
#     4   9  18  32  54  78 101 132 168 209 263 324
#
# _framework density 18.355729
#
# number of rings (size 3 to 8) (size 9 to 14) (size 15 to 20)
#    0.000    2.625    0.000    0.750    1.750    5.250 
#    0.000    5.000    0.000    3.750    0.000    0.000 
#    0.000    0.000    0.000    0.000    0.000    0.000 
#
# Total GULP energy -396617.003029 kJ/mol
# GULP energy per Si atom -12394.281345 kJ/mol
# Density = 1.831395 g / cm^3
# Si number density = 18.355729 Si / 1000 Ang^3
#
#
#
# Elastic Constant Matrix: (Units=GPa)
#
#
# Indices 1 2 3 4 5 6 
#
# 1 140.1824 60.2763 80.7684 0.0000 -11.9729 0.0000
# 2 60.2763 65.6779 58.6977 0.0000 -4.2515 0.0000
# 3 80.7684 58.6977 122.0175 0.0000 -11.0570 0.0000
# 4 0.0000 0.0000 0.0000 30.3056 0.0000 8.0996
# 5 -11.9729 -4.2515 -11.0570 0.0000 11.9380 0.0000
# 6 0.0000 0.0000 0.0000 8.0996 0.0000 21.9184
#
#
#
# Elastic Compliance Matrix: (Units=1/GPa)
#
#
# Indices 1 2 3 4 5 6 
#
# 1 0.013904 -0.008147 -0.004676 0.000000 0.006712 0.000000
# 2 -0.008147 0.031557 -0.010381 0.000000 -0.006547 0.000000
# 3 -0.004676 -0.010381 0.016948 0.000000 0.007309 0.000000
# 4 0.000000 0.000000 0.000000 0.036613 0.000000 -0.013530
# 5 0.006712 -0.006547 0.007309 0.000000 0.094936 0.000000
# 6 0.000000 0.000000 0.000000 -0.013530 0.000000 0.050624
#
#
# Mechanical properties :
#
#
# Convention : Reuss Voigt Hill
#
# Bulk Modulus (GPa) = 62.50234 80.81806 71.66020
# Shear Modulus (GPa) = 16.87343 21.37476 19.12409
#
# Velocity S-wave (km/s) = 3.03520 3.41614 3.23129
# Velocity P-wave (km/s) = 6.81232 7.72557 7.28327
#
# Compressibility (1/GPa) = 0.01599940
#
# Stress axis : x y z
#
# Youngs Moduli (GPa) = 71.92041 31.68902 59.00573
#
# Poissons Ratio (x) = 0.25816 0.27594
# Poissons Ratio (y) = 0.58592 0.61256
# Poissons Ratio (z) = 0.33633 0.32897
#
# Static dielectric constant tensor:
#      x y z
#    x 3.127490 0.000000 0.384590 
#    y 0.000000 3.475860 0.000000 
#    z 0.384590 0.000000 4.269870 
# 
# 
# High freq. dielectric constant tensor:
#      x y z
#    x 1.706390 0.000000 0.002330 
#    y 0.000000 1.709700 0.000000 
#    z 0.002330 0.000000 1.717430 
# 
# From -- ./inp_files/375462.got.cif
#   From: 2010.06.25/outbox.cif.g09.slc.cpg/sg12_188_cif.got.tgz:375462.got - 2010.06.28 00:19:55.
