data_PCOD8096019
_publ_section_title
;
Structure prediction by ZEFSAII (Michael W. Deem and Ramdas Pophale) SiO2 
 PCOD8096019
Probable space group: C 2/M
;
_chemical_formula_sum "Si O2"
_cell_formula_units_Z 64
_cell_length_a 14.665234
_cell_length_b 8.559830
_cell_length_c 26.053692
_cell_angle_alpha 90.000000
_cell_angle_beta 89.604883
_cell_angle_gamma 90.000000
_cell_volume 3270.491951
_symmetry_space_group_name_H-M "C 2/M"
_symmetry_group_IT_number 12
_symmetry_cell_setting 'monoclinic'
loop_
_space_group_symop_operation_xyz
x,y,z
-x,y,-z
-x,-y,-z
x,-y,z
1/2+x,1/2+y,z
1/2-x,1/2+y,-z
1/2-x,1/2-y,-z
1/2+x,1/2-y,z
loop_
_atom_site_type_symbol
_atom_site_label
_atom_site_fract_x
_atom_site_fract_y
_atom_site_fract_z
Si Si1 0.752741 0.682164 0.191931
Si Si2 0.748224 0.185241 0.922509
Si Si3 0.391597 0.317296 0.371526
Si Si4 0.891854 0.818067 0.726928
Si Si5 0.103723 0.815049 0.996653
Si Si6 0.098549 0.821772 0.744164
Si Si7 0.261057 0.316896 0.556226
Si Si8 0.415824 0.818511 0.617659
O O1 0.735082 0.500000 0.187953
O O2 0.741896 0.753947 0.135064
O O3 0.678280 0.753346 0.231375
O O4 0.852939 0.715271 0.213683
O O5 0.654255 0.251434 0.946049
O O6 0.740055 0.000000 0.922656
O O7 0.837434 0.240152 0.954062
O O8 0.416115 0.500000 0.374843
O O9 0.368790 0.272242 0.312900
O O10 0.306304 0.275523 0.406265
O O11 0.478229 0.219849 0.390337
O O12 0.880345 0.723619 0.674467
O O13 0.991309 0.793838 0.750432
O O14 0.873569 0.000000 0.714702
O O15 0.100721 0.000000 0.993147
O O16 0.000000 0.748689 0.000000
O O17 0.124870 0.000000 0.755327
O O18 0.239762 0.500000 0.557074
O O19 0.250000 0.250000 0.500000
O O20 0.362725 0.282730 0.575448
O O21 0.398132 0.000000 0.607399
#
# Coordination Sequence:
#
# PCOD8096019 Si02
#       8
#     8   8   8   8   8   8   8   8
#     4  10  20  33  51  75 108 144 174 212 265 320
#     4   9  19  34  50  75 107 135 170 218 269 318
#     4  10  21  40  62  85 112 145 185 231 279 327
#     4   9  19  36  55  77 107 145 182 218 265 318
#     4   9  18  34  56  76  96 131 178 221 263 316
#     4   9  19  34  54  79 107 139 178 219 260 311
#     4  12  25  41  60  85 114 146 185 231 281 333
#     4  11  22  38  60  86 114 148 187 227 273 330
#
# _framework density 19.568921
#
# number of rings (size 3 to 8) (size 9 to 14) (size 15 to 20)
#    0.000    2.125    0.000    4.125    0.000    7.250 
#    0.000    5.000    0.000    0.000    0.000    0.000 
#    0.000    0.000    0.000    0.000    0.000    0.000 
#
# Total GULP energy -396864.312578 kJ/mol
# GULP energy per Si atom -12402.009768 kJ/mol
# Density = 1.952438 g / cm^3
# Si number density = 19.568921 Si / 1000 Ang^3
#
#
#
# Elastic Constant Matrix: (Units=GPa)
#
#
# Indices 1 2 3 4 5 6 
#
# 1 95.0969 14.8094 40.3339 0.0000 9.5962 0.0000
# 2 14.8094 39.5402 20.1047 0.0000 -0.5476 0.0000
# 3 40.3339 20.1047 92.8660 0.0000 18.6465 0.0000
# 4 0.0000 0.0000 0.0000 28.5284 0.0000 1.1240
# 5 9.5962 -0.5476 18.6465 0.0000 19.5769 0.0000
# 6 0.0000 0.0000 0.0000 1.1240 0.0000 31.8528
#
#
#
# Elastic Compliance Matrix: (Units=1/GPa)
#
#
# Indices 1 2 3 4 5 6 
#
# 1 0.013126 -0.002524 -0.004758 0.000000 -0.001972 0.000000
# 2 -0.002524 0.030018 -0.007196 0.000000 0.008930 0.000000
# 3 -0.004758 -0.007196 0.017267 0.000000 -0.014315 0.000000
# 4 0.000000 0.000000 0.000000 0.035102 0.000000 -0.001239
# 5 -0.001972 0.008930 -0.014315 0.000000 0.065932 0.000000
# 6 0.000000 0.000000 0.000000 -0.001239 0.000000 0.031438
#
#
# Mechanical properties :
#
#
# Convention : Reuss Voigt Hill
#
# Bulk Modulus (GPa) = 31.79124 41.99989 36.89556
# Shear Modulus (GPa) = 21.52165 26.14198 23.83181
#
# Velocity S-wave (km/s) = 3.31990 3.65895 3.49354
# Velocity P-wave (km/s) = 5.56567 6.27373 5.93028
#
# Compressibility (1/GPa) = 0.03145521
#
# Stress axis : x y z
#
# Youngs Moduli (GPa) = 76.18526 33.31288 57.91381
#
# Poissons Ratio (x) = 0.08408 0.27558
# Poissons Ratio (y) = 0.19229 0.41673
# Poissons Ratio (z) = 0.36252 0.23971
#
# Static dielectric constant tensor:
#      x y z
#    x 3.630770 0.000000 -0.004230 
#    y 0.000000 3.418670 0.000000 
#    z -0.004230 0.000000 3.719990 
# 
# 
# High freq. dielectric constant tensor:
#      x y z
#    x 1.769100 0.000000 0.002120 
#    y 0.000000 1.752850 0.000000 
#    z 0.002120 0.000000 1.761020 
# 
# From -- ./inp_files/338833.got.cif
#   From: 2010.06.25/outbox.cif.g09.slc.cpg/sg12_170_cif.got.tgz:338833.got - 2010.06.28 00:19:55.
