data_PCOD8096667
_publ_section_title
;
Structure prediction by ZEFSAII (Michael W. Deem and Ramdas Pophale) SiO2 
 PCOD8096667
Probable space group: C 2/M
;
_chemical_formula_sum "Si O2"
_cell_formula_units_Z 48
_cell_length_a 24.795791
_cell_length_b 21.536620
_cell_length_c 11.373377
_cell_angle_alpha 90.000000
_cell_angle_beta 23.601716
_cell_angle_gamma 90.000000
_cell_volume 2431.719636
_symmetry_space_group_name_H-M "C 2/M"
_symmetry_group_IT_number 12
_symmetry_cell_setting 'monoclinic'
loop_
_space_group_symop_operation_xyz
x,y,z
-x,y,-z
-x,-y,-z
x,-y,z
1/2+x,1/2+y,z
1/2-x,1/2+y,-z
1/2-x,1/2-y,-z
1/2+x,1/2-y,z
loop_
_atom_site_type_symbol
_atom_site_label
_atom_site_fract_x
_atom_site_fract_y
_atom_site_fract_z
Si Si1 0.016026 0.429331 0.842562
Si Si2 0.988938 0.127917 0.887647
Si Si3 0.379383 0.239551 0.160168
Si Si4 0.745763 0.572251 0.783293
Si Si5 0.658413 0.072393 0.160168
Si Si6 0.716586 0.869731 0.805796
O O1 0.058713 0.500000 0.778004
O O2 0.135392 0.395572 0.531233
O O3 0.873314 0.426610 0.062069
O O4 0.000000 0.395196 0.000000
O O5 0.133558 0.125761 0.539969
O O6 0.925853 0.196122 0.009457
O O7 0.897424 0.083740 0.990615
O O8 0.000000 0.103525 0.000000
O O9 0.250000 0.250000 0.500000
O O10 0.350130 0.193888 0.109298
O O11 0.500000 0.213127 0.000000
O O12 0.777073 0.500000 0.725853
O O13 0.756847 0.595428 0.895313
O O14 0.500000 0.080725 0.500000
O O15 0.689050 0.000000 0.066521
O O16 0.710467 0.121312 0.958286
#
# Coordination Sequence:
#
# PCOD8096667 Si02
#       6
#     8   8   8   8   8   8
#     4  10  20  33  57  93 122 157 210 261 315 382
#     4  11  24  41  61  95 130 161 210 269 327 386
#     4  11  23  42  64  92 127 165 210 269 330 388
#     4  10  22  40  62  89 131 171 205 261 320 379
#     4  10  21  41  66  95 127 169 222 262 305 376
#     4  12  22  37  66  90 120 171 215 259 318 378
#
# _framework density 19.739117
#
# number of rings (size 3 to 8) (size 9 to 14) (size 15 to 20)
#    0.000    1.333    5.000    2.000    2.333    2.333 
#    0.000    2.500    0.000    0.000    0.000    0.000 
#    0.000    0.000    0.000    0.000    0.000    0.000 
#
# Total GULP energy -297480.085969 kJ/mol
# GULP energy per Si atom -12395.003582 kJ/mol
# Density = 1.969419 g / cm^3
# Si number density = 19.739117 Si / 1000 Ang^3
#
#
#
# Elastic Constant Matrix: (Units=GPa)
#
#
# Indices 1 2 3 4 5 6 
#
# 1 173.8720 25.7570 62.6030 0.0005 9.5246 -0.0007
# 2 25.7570 26.8192 18.4223 0.0023 9.6088 -0.0007
# 3 62.6030 18.4223 149.7863 0.0029 0.5749 0.0002
# 4 0.0005 0.0023 0.0029 23.1493 0.0008 -3.4977
# 5 9.5246 9.6088 0.5749 0.0008 38.9013 0.0002
# 6 -0.0007 -0.0007 0.0002 -3.4977 0.0002 35.1379
#
#
#
# Elastic Compliance Matrix: (Units=1/GPa)
#
#
# Indices 1 2 3 4 5 6 
#
# 1 0.007447 -0.005290 -0.002460 0.000001 -0.000480 0.000000
# 2 -0.005290 0.048773 -0.003747 -0.000004 -0.010697 0.000001
# 3 -0.002460 -0.003747 0.008160 -0.000001 0.001407 0.000000
# 4 0.000001 -0.000004 -0.000001 0.043857 0.000000 0.004366
# 5 -0.000480 -0.010697 0.001407 0.000000 0.028445 0.000000
# 6 0.000000 0.000001 0.000000 0.004366 0.000000 0.028894
#
#
# Mechanical properties :
#
#
# Convention : Reuss Voigt Hill
#
# Bulk Modulus (GPa) = 24.16246 62.67134 43.41690
# Shear Modulus (GPa) = 24.70775 35.68404 30.19590
#
# Velocity S-wave (km/s) = 3.54180 4.25642 3.91544
# Velocity P-wave (km/s) = 5.38454 7.48163 6.51798
#
# Compressibility (1/GPa) = 0.04138652
#
# Stress axis : x y z
#
# Youngs Moduli (GPa) = 134.28076 20.50300 122.55317
#
# Poissons Ratio (x) = 0.10847 0.30148
# Poissons Ratio (y) = 0.71038 0.45915
# Poissons Ratio (z) = 0.33033 0.07682
#
# Static dielectric constant tensor:
#      x y z
#    x 4.366240 0.000010 -0.156070 
#    y 0.000010 3.452110 0.000000 
#    z -0.156070 0.000000 3.877020 
# 
# 
# High freq. dielectric constant tensor:
#      x y z
#    x 1.777900 0.000000 -0.002460 
#    y 0.000000 1.747240 0.000000 
#    z -0.002460 0.000000 1.775720 
# 
# From -- ./inp_files/185006.got.cif
#   From: 2010.06.25/outbox.cif.g09.slc.cpg/sg12_93_cif.got.tgz:185006.got - 2010.06.28 00:19:55.
