data_PCOD8096544
_publ_section_title
;
Structure prediction by ZEFSAII (Michael W. Deem and Ramdas Pophale) SiO2 
 PCOD8096544
Probable space group: C 2/M
;
_chemical_formula_sum "Si O2"
_cell_formula_units_Z 56
_cell_length_a 9.437208
_cell_length_b 22.573294
_cell_length_c 14.666996
_cell_angle_alpha 90.000000
_cell_angle_beta 120.239922
_cell_angle_gamma 90.000000
_cell_volume 2699.325326
_symmetry_space_group_name_H-M "C 2/M"
_symmetry_group_IT_number 12
_symmetry_cell_setting 'monoclinic'
loop_
_space_group_symop_operation_xyz
x,y,z
-x,y,-z
-x,-y,-z
x,-y,z
1/2+x,1/2+y,z
1/2-x,1/2+y,-z
1/2-x,1/2-y,-z
1/2+x,1/2-y,z
loop_
_atom_site_type_symbol
_atom_site_label
_atom_site_fract_x
_atom_site_fract_y
_atom_site_fract_z
Si Si1 0.196771 0.685551 0.324350
Si Si2 0.075937 0.711509 0.616673
Si Si3 0.602392 0.653678 0.197692
Si Si4 0.718826 0.119405 0.915218
Si Si5 0.845758 0.066547 0.143013
Si Si6 0.624447 0.933460 0.242966
Si Si7 0.983310 0.725167 0.101483
O O1 0.367089 0.721117 0.389752
O O2 0.214365 0.613969 0.340715
O O3 0.138540 0.694207 0.200798
O O4 0.060405 0.712464 0.348819
O O5 0.234167 0.673475 0.696658
O O6 0.000000 0.683525 0.500000
O O7 0.643114 0.619635 0.117311
O O8 0.497982 0.607756 0.224831
O O9 0.478311 0.707326 0.133895
O O10 0.565427 0.083340 0.825618
O O11 0.679074 0.189336 0.920373
O O12 0.780582 0.087269 0.024571
O O13 0.698657 0.070413 0.166369
O O14 0.912316 0.000000 0.156754
O O15 0.644304 0.000000 0.289672
O O16 0.000000 0.718941 0.000000
#
# Coordination Sequence:
#
# PCOD8096544 Si02
#       7
#     8   8   8   8   8   8   8
#     4  10  22  40  63  97 122 159 204 255 312 368
#     4  11  23  44  67  94 119 157 205 265 327 372
#     4  11  24  38  55  90 125 156 204 261 312 368
#     4  11  20  37  58  87 124 165 208 246 291 362
#     4  11  24  38  58  86 123 174 208 241 298 363
#     4  10  21  38  61  87 126 169 210 244 288 361
#     4  10  20  33  54  86 128 161 189 236 306 366
#
# _framework density 20.745923999999999
#
# number of rings (size 3 to 8) (size 9 to 14) (size 15 to 20)
#    0.000    1.429    2.857    4.286    4.000    6.286 
#    0.000    0.000    0.000    2.143    0.000    0.000 
#    0.000    0.000    0.000    0.000    0.000    0.000 
#
# Total GULP energy -347110.977110 kJ/mol
# GULP energy per Si atom -12396.820611 kJ/mol
# Density = 2.069870 g / cm^3
# Si number density = 20.745924 Si / 1000 Ang^3
#
#
#
# Elastic Constant Matrix: (Units=GPa)
#
#
# Indices 1 2 3 4 5 6 
#
# 1 63.5760 57.4319 12.4807 0.0000 -1.7935 0.0000
# 2 57.4319 152.0170 12.9306 0.0000 0.6783 0.0000
# 3 12.4807 12.9306 71.9236 0.0000 -3.5894 0.0000
# 4 0.0000 0.0000 0.0000 15.1672 0.0000 -0.4908
# 5 -1.7935 0.6783 -3.5894 0.0000 15.2508 0.0000
# 6 0.0000 0.0000 0.0000 -0.4908 0.0000 28.3623
#
#
#
# Elastic Compliance Matrix: (Units=1/GPa)
#
#
# Indices 1 2 3 4 5 6 
#
# 1 0.024461 -0.009042 -0.002485 0.000000 0.002694 0.000000
# 2 -0.009042 0.010028 -0.000313 0.000000 -0.001583 0.000000
# 3 -0.002485 -0.000313 0.014548 0.000000 0.003146 0.000000
# 4 0.000000 0.000000 0.000000 0.065969 0.000000 0.001142
# 5 0.002694 -0.001583 0.003146 0.000000 0.066698 0.000000
# 6 0.000000 0.000000 0.000000 0.001142 0.000000 0.035278
#
#
# Mechanical properties :
#
#
# Convention : Reuss Voigt Hill
#
# Bulk Modulus (GPa) = 39.43507 50.35590 44.89549
# Shear Modulus (GPa) = 20.07116 25.40096 22.73606
#
# Velocity S-wave (km/s) = 3.11380 3.50291 3.31407
# Velocity P-wave (km/s) = 5.65487 6.37855 6.02758
#
# Compressibility (1/GPa) = 0.02535814
#
# Stress axis : x y z
#
# Youngs Moduli (GPa) = 40.88103 99.72094 68.73790
#
# Poissons Ratio (x) = 0.90169 0.17079
# Poissons Ratio (y) = 0.36965 0.02150
# Poissons Ratio (z) = 0.10157 0.03119
#
# Static dielectric constant tensor:
#      x y z
#    x 3.816300 0.000000 0.050660 
#    y 0.000000 4.220070 0.000000 
#    z 0.050660 0.000000 3.524670 
# 
# 
# High freq. dielectric constant tensor:
#      x y z
#    x 1.819130 0.000000 0.001440 
#    y 0.000000 1.814020 0.000000 
#    z 0.001440 0.000000 1.776790 
# 
# From -- ./inp_files/198350.got.cif
#   From: 2010.06.25/outbox.cif.g09.slc.cpg/sg12_100_cif.got.tgz:198350.got - 2010.06.28 00:19:55.
