data_PCOD8096532
_publ_section_title
;
Structure prediction by ZEFSAII (Michael W. Deem and Ramdas Pophale) SiO2 
 PCOD8096532
Probable space group: C 2/M
;
_chemical_formula_sum "Si O2"
_cell_formula_units_Z 56
_cell_length_a 9.243115
_cell_length_b 26.445003
_cell_length_c 13.795171
_cell_angle_alpha 90.000000
_cell_angle_beta 118.869718
_cell_angle_gamma 90.000000
_cell_volume 2952.937459
_symmetry_space_group_name_H-M "C 2/M"
_symmetry_group_IT_number 12
_symmetry_cell_setting 'monoclinic'
loop_
_space_group_symop_operation_xyz
x,y,z
-x,y,-z
-x,-y,-z
x,-y,z
1/2+x,1/2+y,z
1/2-x,1/2+y,-z
1/2-x,1/2-y,-z
1/2+x,1/2-y,z
loop_
_atom_site_type_symbol
_atom_site_label
_atom_site_fract_x
_atom_site_fract_y
_atom_site_fract_z
Si Si1 0.296775 0.057114 0.225155
Si Si2 0.475747 0.709709 0.648515
Si Si3 0.726184 0.194002 0.398180
Si Si4 0.565511 0.442215 0.421079
Si Si5 0.836565 0.944076 0.011707
Si Si6 0.912044 0.402640 0.567988
Si Si7 0.997873 0.883434 0.780452
O O1 0.473251 0.060240 0.332791
O O2 0.176278 0.098235 0.233722
O O3 0.226556 0.000000 0.218712
O O4 0.310586 0.067628 0.112978
O O5 0.427871 0.767137 0.658899
O O6 0.324531 0.692060 0.531878
O O7 0.650931 0.706056 0.650435
O O8 0.488371 0.676384 0.751800
O O9 0.640731 0.139494 0.370500
O O10 0.500000 0.419070 0.500000
O O11 0.514377 0.500000 0.392502
O O12 0.761902 0.436022 0.478654
O O13 0.467300 0.410901 0.309441
O O14 0.853530 0.899855 0.098415
O O15 0.811875 0.000000 0.051682
O O16 0.000000 0.944462 0.000000
O O17 0.000000 0.379720 0.500000
#
# Coordination Sequence:
#
# PCOD8096532 Si02
#       7
#     8   8   8   8   8   8   8
#     4  10  20  33  54  85 117 147 186 230 273 328
#     4  10  21  35  56  77 109 141 189 227 281 326
#     4  10  22  36  53  79 111 144 180 234 275 339
#     4  11  22  33  48  75 113 150 181 220 274 336
#     4   8  16  31  52  80 110 144 187 231 270 321
#     4  12  22  33  54  81 116 147 182 222 287 334
#     4  11  18  32  55  79 108 146 186 228 278 330
#
# _framework density 18.964165999999999
#
# number of rings (size 3 to 8) (size 9 to 14) (size 15 to 20)
#    0.000    1.714    2.857    3.429    6.000    0.571 
#    0.000    0.000    0.000    4.286    0.000   10.000 
#    0.000    0.000    0.000    0.000    0.000    0.000 
#
# Total GULP energy -346985.954051 kJ/mol
# GULP energy per Si atom -12392.355502 kJ/mol
# Density = 1.892100 g / cm^3
# Si number density = 18.964166 Si / 1000 Ang^3
#
#
#
# Elastic Constant Matrix: (Units=GPa)
#
#
# Indices 1 2 3 4 5 6 
#
# 1 66.0070 13.4473 18.3488 0.0000 -7.4666 0.0000
# 2 13.4473 72.2467 34.0503 0.0000 -6.3785 0.0000
# 3 18.3488 34.0503 104.6418 0.0000 -1.4737 0.0000
# 4 0.0000 0.0000 0.0000 29.0718 0.0000 -3.7568
# 5 -7.4666 -6.3785 -1.4737 0.0000 16.9552 0.0000
# 6 0.0000 0.0000 0.0000 -3.7568 0.0000 24.4113
#
#
#
# Elastic Compliance Matrix: (Units=1/GPa)
#
#
# Indices 1 2 3 4 5 6 
#
# 1 0.016862 -0.001417 -0.002402 0.000000 0.006684 0.000000
# 2 -0.001417 0.017036 -0.005220 0.000000 0.005331 0.000000
# 3 -0.002402 -0.005220 0.011648 0.000000 -0.002009 0.000000
# 4 0.000000 0.000000 0.000000 0.035096 0.000000 0.005401
# 5 0.006684 0.005331 -0.002009 0.000000 0.063754 0.000000
# 6 0.000000 0.000000 0.000000 0.005401 0.000000 0.041796
#
#
# Mechanical properties :
#
#
# Convention : Reuss Voigt Hill
#
# Bulk Modulus (GPa) = 36.40389 41.62092 39.01241
# Shear Modulus (GPa) = 23.42752 25.89092 24.65922
#
# Velocity S-wave (km/s) = 3.51858 3.69894 3.60989
# Velocity P-wave (km/s) = 5.97871 6.34332 6.16371
#
# Compressibility (1/GPa) = 0.02746959
#
# Stress axis : x y z
#
# Youngs Moduli (GPa) = 59.30419 58.69905 85.85272
#
# Poissons Ratio (x) = 0.08315 0.20619
# Poissons Ratio (y) = 0.08401 0.44816
# Poissons Ratio (z) = 0.14243 0.30641
#
# Static dielectric constant tensor:
#      x y z
#    x 3.266020 0.000000 -0.008020 
#    y 0.000000 3.416150 0.000000 
#    z -0.008020 0.000000 3.789270 
# 
# 
# High freq. dielectric constant tensor:
#      x y z
#    x 1.711570 0.000000 -0.004230 
#    y 0.000000 1.729530 0.000000 
#    z -0.004230 0.000000 1.722030 
# 
# From -- ./inp_files/124331.got.cif
#   From: 2010.06.25/outbox.cif.g09.slc.cpg/sg12_63_cif.got.tgz:124331.got - 2010.06.28 00:19:55.
