data_PCOD8096097
_publ_section_title
;
Structure prediction by ZEFSAII (Michael W. Deem and Ramdas Pophale) SiO2 
 PCOD8096097
Probable space group: C 2/M
;
_chemical_formula_sum "Si O2"
_cell_formula_units_Z 64
_cell_length_a 16.002147
_cell_length_b 30.898140
_cell_length_c 9.292323
_cell_angle_alpha 90.000000
_cell_angle_beta 132.131357
_cell_angle_gamma 90.000000
_cell_volume 3407.295299
_symmetry_space_group_name_H-M "C 2/M"
_symmetry_group_IT_number 12
_symmetry_cell_setting 'monoclinic'
loop_
_space_group_symop_operation_xyz
x,y,z
-x,y,-z
-x,-y,-z
x,-y,z
1/2+x,1/2+y,z
1/2-x,1/2+y,-z
1/2-x,1/2-y,-z
1/2+x,1/2-y,z
loop_
_atom_site_type_symbol
_atom_site_label
_atom_site_fract_x
_atom_site_fract_y
_atom_site_fract_z
Si Si1 0.890038 0.952301 0.076866
Si Si2 0.208823 0.209914 0.796501
Si Si3 0.745832 0.126539 0.956484
Si Si4 0.496033 0.151220 0.329649
Si Si5 0.340039 0.287518 0.581615
Si Si6 0.637039 0.547613 0.295594
Si Si7 0.259029 0.129889 0.387886
Si Si8 0.934565 0.741096 0.153202
O O1 0.022790 0.944167 0.254088
O O2 0.855047 0.000000 0.094142
O O3 0.815061 0.916956 0.076843
O O4 0.876483 0.950685 0.890824
O O5 0.160264 0.198015 0.585415
O O6 0.122496 0.244366 0.763537
O O7 0.211410 0.167675 0.902850
O O8 0.331528 0.233734 0.920928
O O9 0.611835 0.120814 0.831214
O O10 0.764434 0.133184 0.808711
O O11 0.500000 0.164121 0.500000
O O12 0.610133 0.127396 0.418332
O O13 0.494382 0.195243 0.239345
O O14 0.250000 0.250000 0.500000
O O15 0.307268 0.328839 0.634034
O O16 0.466407 0.273986 0.779439
O O17 0.685691 0.500000 0.394042
O O18 0.718806 0.587113 0.426007
#
# Coordination Sequence:
#
# PCOD8096097 Si02
#       8
#     8   8   8   8   8   8   8   8
#     4   8  14  28  50  77 103 130 168 218 267 315
#     4  10  23  38  55  74 103 147 178 217 268 318
#     4   9  19  34  53  74 101 141 178 212 267 323
#     4   9  16  31  49  67 101 137 168 209 261 310
#     4  12  24  36  53  80 109 139 181 229 259 304
#     4   8  15  29  49  74 106 134 164 215 275 315
#     4  10  20  33  51  78 104 135 177 223 261 313
#     4  10  21  38  55  69 104 145 181 210 268 316
#
# _framework density 18.783225999999999
#
# number of rings (size 3 to 8) (size 9 to 14) (size 15 to 20)
#    0.000    2.500    1.250    1.875    7.000    0.500 
#    0.000    0.625    0.000    4.500    0.000    1.750 
#    0.000    3.250    0.000    0.000    0.000    0.000 
#
# Total GULP energy -396481.771896 kJ/mol
# GULP energy per Si atom -12390.055372 kJ/mol
# Density = 1.874047 g / cm^3
# Si number density = 18.783226 Si / 1000 Ang^3
#
#
#
# Elastic Constant Matrix: (Units=GPa)
#
#
# Indices 1 2 3 4 5 6 
#
# 1 75.7181 64.0055 28.1710 0.0000 27.9439 0.0000
# 2 64.0055 146.4716 34.9945 0.0000 26.6252 0.0000
# 3 28.1710 34.9945 39.4928 0.0000 14.8792 0.0000
# 4 0.0000 0.0000 0.0000 20.1994 0.0000 10.2405
# 5 27.9439 26.6252 14.8792 0.0000 29.1031 0.0000
# 6 0.0000 0.0000 0.0000 10.2405 0.0000 32.5765
#
#
#
# Elastic Compliance Matrix: (Units=1/GPa)
#
#
# Indices 1 2 3 4 5 6 
#
# 1 0.028598 -0.007730 -0.007269 0.000000 -0.016671 0.000000
# 2 -0.007730 0.011368 -0.004257 0.000000 -0.000802 0.000000
# 3 -0.007269 -0.004257 0.037382 0.000000 -0.008237 0.000000
# 4 0.000000 0.000000 0.000000 0.058892 0.000000 -0.018513
# 5 -0.016671 -0.000802 -0.008237 0.000000 0.055312 0.000000
# 6 0.000000 0.000000 0.000000 -0.018513 0.000000 0.036517
#
#
# Mechanical properties :
#
#
# Convention : Reuss Voigt Hill
#
# Bulk Modulus (GPa) = 25.74969 57.33605 41.54287
# Shear Modulus (GPa) = 17.88741 25.34323 21.61532
#
# Velocity S-wave (km/s) = 3.08930 3.67720 3.39599
# Velocity P-wave (km/s) = 5.14428 6.97284 6.12716
#
# Compressibility (1/GPa) = 0.03883542
#
# Stress axis : x y z
#
# Youngs Moduli (GPa) = 34.96782 87.96766 26.75053
#
# Poissons Ratio (x) = 0.67995 0.19446
# Poissons Ratio (y) = 0.27029 0.11389
# Poissons Ratio (z) = 0.25419 0.37451
#
# Static dielectric constant tensor:
#      x y z
#    x 3.506840 0.000000 0.372100 
#    y 0.000000 3.466490 0.000000 
#    z 0.372100 0.000000 3.374050 
# 
# 
# High freq. dielectric constant tensor:
#      x y z
#    x 1.723500 0.000000 0.024340 
#    y 0.000000 1.722080 0.000000 
#    z 0.024340 0.000000 1.703810 
# 
# From -- ./inp_files/68656.got.cif
#   From: 2010.06.25/outbox.cif.g09.slc.cpg/sg12_35_cif.got.tgz:68656.got - 2010.06.28 00:19:55.
