data_PCOD8096426
_publ_section_title
;
Structure prediction by ZEFSAII (Michael W. Deem and Ramdas Pophale) SiO2 
 PCOD8096426
Probable space group: C 2/M
;
_chemical_formula_sum "Si O2"
_cell_formula_units_Z 56
_cell_length_a 21.377278
_cell_length_b 9.485447
_cell_length_c 29.833043
_cell_angle_alpha 90.000000
_cell_angle_beta 152.573912
_cell_angle_gamma 90.000000
_cell_volume 2786.348573
_symmetry_space_group_name_H-M "C 2/M"
_symmetry_group_IT_number 12
_symmetry_cell_setting 'monoclinic'
loop_
_space_group_symop_operation_xyz
x,y,z
-x,y,-z
-x,-y,-z
x,-y,z
1/2+x,1/2+y,z
1/2-x,1/2+y,-z
1/2-x,1/2-y,-z
1/2+x,1/2-y,z
loop_
_atom_site_type_symbol
_atom_site_label
_atom_site_fract_x
_atom_site_fract_y
_atom_site_fract_z
Si Si1 0.369607 0.832074 0.049974
Si Si2 0.148486 0.342690 0.273147
Si Si3 0.539402 0.340686 0.369108
Si Si4 0.380792 0.844823 0.395022
Si Si5 0.214718 0.657118 0.417419
Si Si6 0.316098 0.845488 0.257543
Si Si7 0.491417 0.334404 0.941664
O O1 0.492821 0.812715 0.162980
O O2 0.407662 0.759110 0.025893
O O3 0.336686 0.000000 0.021691
O O4 0.250000 0.750000 0.000000
O O5 0.188418 0.500000 0.284199
O O6 0.241727 0.239016 0.304925
O O7 0.182830 0.314248 0.346137
O O8 0.507033 0.500000 0.335560
O O9 0.623536 0.329541 0.469487
O O10 0.633846 0.276459 0.391426
O O11 0.393568 0.264182 0.275262
O O12 0.500000 0.769947 0.500000
O O13 0.412776 0.855863 0.362816
O O14 0.356997 0.000000 0.401037
O O15 0.165690 0.500000 0.400691
O O16 0.162652 0.797345 0.170726
O O17 0.309910 0.000000 0.230240
O O18 0.526056 0.500000 0.956202
O O19 0.500000 0.294504 0.000000
#
# Coordination Sequence:
#
# PCOD8096426 Si02
#       7
#     8   8   8   8   8   8   8
#     4  11  24  42  65  91 121 158 204 260 318 374
#     4  10  21  37  58  83 111 149 193 236 288 350
#     4  10  20  33  53  81 112 150 193 236 282 340
#     4  10  20  33  54  85 117 149 185 227 282 344
#     4   9  19  36  54  76 112 153 192 234 283 344
#     4  10  20  35  55  80 113 149 183 229 288 345
#     4  10  22  42  66  89 117 158 205 252 308 373
#
# _framework density 20.097988000000001
#
# number of rings (size 3 to 8) (size 9 to 14) (size 15 to 20)
#    0.000    2.000    1.429    1.714    0.000    4.571 
#    0.000    5.714    0.000    0.000    0.000    0.000 
#    0.000    0.000    0.000    0.000    0.000    0.000 
#
# Total GULP energy -346928.416483 kJ/mol
# GULP energy per Si atom -12390.300589 kJ/mol
# Density = 2.005224 g / cm^3
# Si number density = 20.097988 Si / 1000 Ang^3
#
#
#
# Elastic Constant Matrix: (Units=GPa)
#
#
# Indices 1 2 3 4 5 6 
#
# 1 79.9567 59.9337 27.7060 0.0021 12.8787 -0.0002
# 2 59.9337 117.4220 35.8961 0.0022 16.5462 -0.0004
# 3 27.7060 35.8961 66.7677 0.0123 4.1569 -0.0039
# 4 0.0021 0.0022 0.0123 28.8993 -0.0012 5.6965
# 5 12.8787 16.5462 4.1569 -0.0012 32.8591 0.0002
# 6 -0.0002 -0.0004 -0.0039 5.6965 0.0002 29.7520
#
#
#
# Elastic Compliance Matrix: (Units=1/GPa)
#
#
# Indices 1 2 3 4 5 6 
#
# 1 0.021232 -0.009280 -0.003623 0.000001 -0.003190 -0.000001
# 2 -0.009280 0.014945 -0.003973 0.000001 -0.003386 -0.000001
# 3 -0.003623 -0.003973 0.018550 -0.000008 0.001074 0.000004
# 4 0.000001 0.000001 -0.000008 0.035960 0.000002 -0.006885
# 5 -0.003190 -0.003386 0.001074 0.000002 0.033252 -0.000001
# 6 -0.000001 -0.000001 0.000004 -0.006885 -0.000001 0.034929
#
#
# Mechanical properties :
#
#
# Convention : Reuss Voigt Hill
#
# Bulk Modulus (GPa) = 47.67588 56.80200 52.23894
# Shear Modulus (GPa) = 25.04871 27.67614 26.36242
#
# Velocity S-wave (km/s) = 3.53417 3.71490 3.62566
# Velocity P-wave (km/s) = 6.35822 6.83554 6.60120
#
# Compressibility (1/GPa) = 0.02097497
#
# Stress axis : x y z
#
# Youngs Moduli (GPa) = 47.09855 66.91389 53.90933
#
# Poissons Ratio (x) = 0.62097 0.19529
# Poissons Ratio (y) = 0.43708 0.21418
# Poissons Ratio (z) = 0.17062 0.26584
#
# Static dielectric constant tensor:
#      x y z
#    x 3.424120 0.000000 -0.073670 
#    y 0.000000 3.823570 0.000000 
#    z -0.073670 0.000000 3.776790 
# 
# 
# High freq. dielectric constant tensor:
#      x y z
#    x 1.767710 0.000000 -0.004880 
#    y 0.000000 1.789300 0.000000 
#    z -0.004880 0.000000 1.786850 
# 
# From -- ./inp_files/380806.got.cif
#   From: 2010.06.25/outbox.cif.g09.slc.cpg/sg12_191_cif.got.tgz:380806.got - 2010.06.28 00:19:55.
