data_PCOD8096574
_publ_section_title
;
Structure prediction by ZEFSAII (Michael W. Deem and Ramdas Pophale) SiO2 
 PCOD8096574
Probable space group: C 2/M
;
_chemical_formula_sum "Si O2"
_cell_formula_units_Z 56
_cell_length_a 20.685532
_cell_length_b 9.174407
_cell_length_c 23.810981
_cell_angle_alpha 90.000000
_cell_angle_beta 141.007772
_cell_angle_gamma 90.000000
_cell_volume 2843.289171
_symmetry_space_group_name_H-M "C 2/M"
_symmetry_group_IT_number 12
_symmetry_cell_setting 'monoclinic'
loop_
_space_group_symop_operation_xyz
x,y,z
-x,y,-z
-x,-y,-z
x,-y,z
1/2+x,1/2+y,z
1/2-x,1/2+y,-z
1/2-x,1/2-y,-z
1/2+x,1/2-y,z
loop_
_atom_site_type_symbol
_atom_site_label
_atom_site_fract_x
_atom_site_fract_y
_atom_site_fract_z
Si Si1 0.115555 0.332544 0.575199
Si Si2 0.334531 0.667877 0.020483
Si Si3 0.891275 0.659892 0.632305
Si Si4 0.205668 0.168235 0.224520
Si Si5 0.055820 0.835094 0.222506
Si Si6 0.616371 0.172302 0.061870
Si Si7 0.842447 0.159195 0.501613
O O1 0.114834 0.500000 0.556008
O O2 0.176988 0.312050 0.674963
O O3 0.174458 0.244412 0.567425
O O4 0.000000 0.271213 0.500000
O O5 0.301591 0.500000 0.987571
O O6 0.438775 0.674167 0.125440
O O7 0.250000 0.750000 0.000000
O O8 0.350108 0.748121 0.972041
O O9 0.943259 0.500000 0.662495
O O10 0.932294 0.733862 0.715917
O O11 0.918899 0.755830 0.595985
O O12 0.769547 0.640612 0.548233
O O13 0.127890 0.220695 0.220697
O O14 0.191460 0.270964 0.161393
O O15 0.182848 0.000000 0.193055
O O16 0.087967 0.000000 0.260234
O O17 0.630275 0.000000 0.063565
O O18 0.500000 0.213523 0.000000
O O19 0.891287 0.000000 0.523699
#
# Coordination Sequence:
#
# PCOD8096574 Si02
#       7
#     8   8   8   8   8   8   8
#     4  10  21  38  59  83 115 154 196 244 299 356
#     4  11  24  43  65  90 124 161 201 250 311 374
#     4  10  20  33  55  84 112 145 189 239 288 343
#     4  10  20  37  62  89 118 155 201 251 303 361
#     4  10  20  36  61  88 115 151 195 245 299 359
#     4  11  23  39  64  96 127 160 206 258 305 366
#     4  10  20  34  54  80 112 149 189 236 289 342
#
# _framework density 19.695499000000002
#
# number of rings (size 3 to 8) (size 9 to 14) (size 15 to 20)
#    0.000    1.714    2.857    1.714    0.000    4.286 
#    2.571    0.000    0.000    0.000    0.000    0.000 
#    0.000    0.000    0.000    0.000    0.000    0.000 
#
# Total GULP energy -347213.298208 kJ/mol
# GULP energy per Si atom -12400.474936 kJ/mol
# Density = 1.965067 g / cm^3
# Si number density = 19.695499 Si / 1000 Ang^3
#
#
#
# Elastic Constant Matrix: (Units=GPa)
#
#
# Indices 1 2 3 4 5 6 
#
# 1 80.4218 48.0320 39.4595 0.0000 -6.3101 0.0000
# 2 48.0320 131.4583 62.6285 0.0000 -22.6214 0.0001
# 3 39.4595 62.6285 105.9630 0.0000 -17.3853 0.0000
# 4 0.0000 0.0000 0.0000 34.0898 0.0000 -6.1895
# 5 -6.3101 -22.6214 -17.3853 0.0000 37.8544 0.0000
# 6 0.0000 0.0001 0.0000 -6.1895 0.0000 28.2345
#
#
#
# Elastic Compliance Matrix: (Units=1/GPa)
#
#
# Indices 1 2 3 4 5 6 
#
# 1 0.016973 -0.004666 -0.003846 0.000000 -0.001725 0.000000
# 2 -0.004666 0.012383 -0.004861 0.000000 0.004390 0.000000
# 3 -0.003846 -0.004861 0.014233 0.000000 0.002991 0.000000
# 4 0.000000 0.000000 0.000000 0.030550 0.000000 0.006697
# 5 -0.001725 0.004390 0.002991 0.000000 0.030126 0.000000
# 6 0.000000 0.000000 0.000000 0.006697 0.000000 0.036886
#
#
# Mechanical properties :
#
#
# Convention : Reuss Voigt Hill
#
# Bulk Modulus (GPa) = 59.37125 68.67591 64.02358
# Shear Modulus (GPa) = 28.81643 31.21727 30.01685
#
# Velocity S-wave (km/s) = 3.82919 3.98552 3.90814
# Velocity P-wave (km/s) = 7.05410 7.49157 7.27613
#
# Compressibility (1/GPa) = 0.01684317
#
# Stress axis : x y z
#
# Youngs Moduli (GPa) = 58.91739 80.75441 70.25855
#
# Poissons Ratio (x) = 0.37683 0.27019
# Poissons Ratio (y) = 0.27493 0.34153
# Poissons Ratio (z) = 0.22657 0.39255
#
# Static dielectric constant tensor:
#      x y z
#    x 3.425870 0.000000 -0.004830 
#    y 0.000000 3.855480 0.000000 
#    z -0.004830 0.000000 3.555210 
# 
# 
# High freq. dielectric constant tensor:
#      x y z
#    x 1.746180 0.000000 -0.011600 
#    y 0.000000 1.777450 0.000000 
#    z -0.011600 0.000000 1.770750 
# 
# From -- ./inp_files/348627.got.cif
#   From: 2010.06.25/outbox.cif.g09.slc.cpg/sg12_175_cif.got.tgz:348627.got - 2010.06.28 00:19:55.
