data_PCOD8096003
_publ_section_title
;
Structure prediction by ZEFSAII (Michael W. Deem and Ramdas Pophale) SiO2 
 PCOD8096003
Probable space group: C 2/M
;
_chemical_formula_sum "Si O2"
_cell_formula_units_Z 56
_cell_length_a 15.480326
_cell_length_b 9.500082
_cell_length_c 19.313832
_cell_angle_alpha 90.000000
_cell_angle_beta 88.956729
_cell_angle_gamma 90.000000
_cell_volume 2839.905615
_symmetry_space_group_name_H-M "C 2/M"
_symmetry_group_IT_number 12
_symmetry_cell_setting 'monoclinic'
loop_
_space_group_symop_operation_xyz
x,y,z
-x,y,-z
-x,-y,-z
x,-y,z
1/2+x,1/2+y,z
1/2-x,1/2+y,-z
1/2-x,1/2-y,-z
1/2+x,1/2-y,z
loop_
_atom_site_type_symbol
_atom_site_label
_atom_site_fract_x
_atom_site_fract_y
_atom_site_fract_z
Si Si1 0.016974 0.334175 0.421368
Si Si2 0.090663 0.160940 0.796718
Si Si3 0.108746 0.841519 0.200679
Si Si4 0.141824 0.842512 0.945787
Si Si5 0.334030 0.339355 0.649071
Si Si6 0.142634 0.663073 0.670273
Si Si7 0.845659 0.342184 0.929673
O O1 0.030936 0.500000 0.414543
O O2 0.934719 0.283485 0.377761
O O3 0.000000 0.288071 0.500000
O O4 0.104831 0.261660 0.395496
O O5 0.106260 0.219562 0.874014
O O6 0.144807 0.251557 0.741711
O O7 0.991081 0.175174 0.778778
O O8 0.123409 0.000000 0.792179
O O9 0.160665 0.806855 0.269377
O O10 0.136313 0.730746 0.143189
O O11 0.128566 0.000000 0.173749
O O12 0.244381 0.846292 0.943328
O O13 0.105023 0.000000 0.958556
O O14 0.108542 0.743717 0.008701
O O15 0.362042 0.500000 0.633719
O O16 0.233936 0.313174 0.629525
O O17 0.130386 0.500000 0.689525
O O18 0.883854 0.500000 0.927672
#
# Coordination Sequence:
#
# PCOD8096003 Si02
#       7
#     8   8   8   8   8   8   8
#     4  10  22  40  60  86 121 155 187 228 281 339
#     4  10  20  35  56  80 107 144 190 234 280 339
#     4  10  20  34  53  77 108 142 180 231 284 334
#     4   9  19  35  52  72 102 140 183 231 281 334
#     4  10  21  38  60  87 116 150 193 236 282 335
#     4  10  21  37  59  86 117 151 189 237 286 331
#     4  10  20  33  51  75 103 139 184 231 280 335
#
# _framework density 19.718966000000002
#
# number of rings (size 3 to 8) (size 9 to 14) (size 15 to 20)
#    0.000    2.143    1.429    1.286    0.000    4.286 
#    0.000    2.857    0.000    0.000    0.000    0.000 
#    0.000    0.000    0.000    0.000    0.000    0.000 
#
# Total GULP energy -347263.184629 kJ/mol
# GULP energy per Si atom -12402.256594 kJ/mol
# Density = 1.967408 g / cm^3
# Si number density = 19.718966 Si / 1000 Ang^3
#
#
#
# Elastic Constant Matrix: (Units=GPa)
#
#
# Indices 1 2 3 4 5 6 
#
# 1 42.0995 20.7629 18.5556 0.0000 -4.7206 0.0000
# 2 20.7629 89.8008 55.4528 0.0000 -15.7136 0.0000
# 3 18.5556 55.4528 99.2714 0.0000 -9.6764 0.0000
# 4 0.0000 0.0000 0.0000 34.4485 0.0000 -5.9087
# 5 -4.7206 -15.7136 -9.6764 0.0000 26.7133 0.0000
# 6 0.0000 0.0000 0.0000 -5.9087 0.0000 24.3507
#
#
#
# Elastic Compliance Matrix: (Units=1/GPa)
#
#
# Indices 1 2 3 4 5 6 
#
# 1 0.027216 -0.004594 -0.002400 0.000000 0.001238 0.000000
# 2 -0.004594 0.019056 -0.009094 0.000000 0.007104 0.000000
# 3 -0.002400 -0.009094 0.015590 0.000000 -0.000126 0.000000
# 4 0.000000 0.000000 0.000000 0.030290 0.000000 0.007350
# 5 0.001238 0.007104 -0.000126 0.000000 0.041786 0.000000
# 6 0.000000 0.000000 0.000000 0.007350 0.000000 0.042850
#
#
# Mechanical properties :
#
#
# Convention : Reuss Voigt Hill
#
# Bulk Modulus (GPa) = 33.68625 46.74603 40.21614
# Shear Modulus (GPa) = 22.84587 26.19586 24.52086
#
# Velocity S-wave (km/s) = 3.40747 3.64876 3.53018
# Velocity P-wave (km/s) = 5.70977 6.44274 6.08729
#
# Compressibility (1/GPa) = 0.02968570
#
# Stress axis : x y z
#
# Youngs Moduli (GPa) = 36.74373 52.47587 64.14567
#
# Poissons Ratio (x) = 0.24106 0.15398
# Poissons Ratio (y) = 0.16879 0.58333
# Poissons Ratio (z) = 0.08820 0.47720
#
# Static dielectric constant tensor:
#      x y z
#    x 3.558960 0.000000 0.175730 
#    y 0.000000 3.666290 0.000000 
#    z 0.175730 0.000000 3.514770 
# 
# 
# High freq. dielectric constant tensor:
#      x y z
#    x 1.768600 0.000000 0.008390 
#    y 0.000000 1.763570 0.000000 
#    z 0.008390 0.000000 1.764440 
# 
# From -- ./inp_files/308967.got.cif
#   From: 2010.06.25/outbox.cif.g09.slc.cpg/sg12_155_cif.got.tgz:308967.got - 2010.06.28 00:19:55.
