data_PCOD8096099
_publ_section_title
;
Structure prediction by ZEFSAII (Michael W. Deem and Ramdas Pophale) SiO2 
 PCOD8096099
Probable space group: C 2/M
;
_chemical_formula_sum "Si O2"
_cell_formula_units_Z 56
_cell_length_a 27.110850
_cell_length_b 9.753141
_cell_length_c 19.402496
_cell_angle_alpha 90.000000
_cell_angle_beta 147.046184
_cell_angle_gamma 90.000000
_cell_volume 2790.708464
_symmetry_space_group_name_H-M "C 2/M"
_symmetry_group_IT_number 12
_symmetry_cell_setting 'monoclinic'
loop_
_space_group_symop_operation_xyz
x,y,z
-x,y,-z
-x,-y,-z
x,-y,z
1/2+x,1/2+y,z
1/2-x,1/2+y,-z
1/2-x,1/2-y,-z
1/2+x,1/2-y,z
loop_
_atom_site_type_symbol
_atom_site_label
_atom_site_fract_x
_atom_site_fract_y
_atom_site_fract_z
Si Si1 0.194548 0.649393 0.520265
Si Si2 0.041758 0.651772 0.871685
Si Si3 0.596860 0.846967 0.085013
Si Si4 0.884075 0.156491 0.675975
Si Si5 0.258869 0.846732 0.277201
Si Si6 0.660099 0.838015 0.878582
Si Si7 0.089342 0.337497 0.645492
O O1 0.166116 0.500000 0.456196
O O2 0.135374 0.770723 0.419730
O O3 0.300618 0.673307 0.629677
O O4 0.176343 0.648184 0.580102
O O5 0.998996 0.500000 0.811283
O O6 0.093668 0.695882 0.863755
O O7 0.967452 0.763201 0.806519
O O8 0.106862 0.650500 0.013984
O O9 0.674724 0.745852 0.200995
O O10 0.614108 0.000000 0.135089
O O11 0.500000 0.794462 0.000000
O O12 0.910651 0.000000 0.693092
O O13 0.320202 0.785575 0.287888
O O14 0.223878 0.000000 0.217684
O O15 0.605853 0.792863 0.744871
O O16 0.685329 0.000000 0.905181
O O17 0.750000 0.750000 0.000000
O O18 0.083034 0.500000 0.633374
O O19 0.000000 0.277143 0.500000
#
# Coordination Sequence:
#
# PCOD8096099 Si02
#       7
#     8   8   8   8   8   8   8
#     4   9  19  34  52  76 107 140 174 214 265 325
#     4  10  21  35  54  78 105 143 183 217 269 327
#     4  10  21  36  54  79 113 150 183 220 272 335
#     4  10  20  33  51  78 107 137 175 220 266 314
#     4  10  20  34  57  82 106 141 183 228 276 322
#     4  10  21  37  59  83 110 146 187 236 286 334
#     4   9  19  35  57  85 112 144 191 238 283 336
#
# _framework density 20.066589
#
# number of rings (size 3 to 8) (size 9 to 14) (size 15 to 20)
#    0.000    2.286    0.000    2.143    2.000    2.571 
#    0.000    0.000    0.000    0.857    0.000    0.000 
#    0.000    0.000    0.000    0.000    0.000    0.000 
#
# Total GULP energy -346988.940483 kJ/mol
# GULP energy per Si atom -12392.462160 kJ/mol
# Density = 2.002092 g / cm^3
# Si number density = 20.066589 Si / 1000 Ang^3
#
#
#
# Elastic Constant Matrix: (Units=GPa)
#
#
# Indices 1 2 3 4 5 6 
#
# 1 82.1306 10.7564 15.9711 0.0000 -16.6794 0.0000
# 2 10.7564 81.5502 29.7657 0.0000 8.9004 0.0000
# 3 15.9711 29.7657 83.6598 0.0000 -4.1995 0.0000
# 4 0.0000 0.0000 0.0000 31.4163 0.0000 1.0538
# 5 -16.6794 8.9004 -4.1995 0.0000 29.4681 0.0000
# 6 0.0000 0.0000 0.0000 1.0538 0.0000 17.5227
#
#
#
# Elastic Compliance Matrix: (Units=1/GPa)
#
#
# Indices 1 2 3 4 5 6 
#
# 1 0.014544 -0.002317 -0.001515 0.000000 0.008716 0.000000
# 2 -0.002317 0.015235 -0.005313 0.000000 -0.006670 0.000000
# 3 -0.001515 -0.005313 0.014272 0.000000 0.002781 0.000000
# 4 0.000000 0.000000 0.000000 0.031895 0.000000 -0.001918
# 5 0.008716 -0.006670 0.002781 0.000000 0.041279 0.000000
# 6 0.000000 0.000000 0.000000 -0.001918 0.000000 0.057184
#
#
# Mechanical properties :
#
#
# Convention : Reuss Voigt Hill
#
# Bulk Modulus (GPa) = 38.81659 40.03637 39.42648
# Shear Modulus (GPa) = 24.84025 28.40458 26.62241
#
# Velocity S-wave (km/s) = 3.52218 3.76642 3.64635
# Velocity P-wave (km/s) = 5.99391 6.23776 6.11705
#
# Compressibility (1/GPa) = 0.02576218
#
# Stress axis : x y z
#
# Youngs Moduli (GPa) = 68.75812 65.63735 70.06558
#
# Poissons Ratio (x) = 0.15206 0.10613
# Poissons Ratio (y) = 0.15929 0.37227
# Poissons Ratio (z) = 0.10415 0.34874
#
# Static dielectric constant tensor:
#      x y z
#    x 3.707310 0.000000 -0.130760 
#    y 0.000000 3.560350 0.000000 
#    z -0.130760 0.000000 3.511640 
# 
# 
# High freq. dielectric constant tensor:
#      x y z
#    x 1.790530 0.000000 -0.011260 
#    y 0.000000 1.762580 0.000000 
#    z -0.011260 0.000000 1.774380 
# 
# From -- ./inp_files/329649.got.cif
#   From: 2010.06.25/outbox.cif.g09.slc.cpg/sg12_165_cif.got.tgz:329649.got - 2010.06.28 00:19:55.
