data_PCOD8096436
_publ_section_title
;
Structure prediction by ZEFSAII (Michael W. Deem and Ramdas Pophale) SiO2 
 PCOD8096436
Probable space group: C 2/M
;
_chemical_formula_sum "Si O2"
_cell_formula_units_Z 56
_cell_length_a 25.010949
_cell_length_b 13.084905
_cell_length_c 13.512182
_cell_angle_alpha 90.000000
_cell_angle_beta 138.215517
_cell_angle_gamma 90.000000
_cell_volume 2946.564544
_symmetry_space_group_name_H-M "C 2/M"
_symmetry_group_IT_number 12
_symmetry_cell_setting 'monoclinic'
loop_
_space_group_symop_operation_xyz
x,y,z
-x,y,-z
-x,-y,-z
x,-y,z
1/2+x,1/2+y,z
1/2-x,1/2+y,-z
1/2-x,1/2-y,-z
1/2+x,1/2-y,z
loop_
_atom_site_type_symbol
_atom_site_label
_atom_site_fract_x
_atom_site_fract_y
_atom_site_fract_z
Si Si1 0.289509 0.192394 0.921534
Si Si2 0.381614 0.617232 0.604986
Si Si3 0.958969 0.383925 0.212866
Si Si4 0.330482 0.615873 0.092501
Si Si5 0.054197 0.711364 0.168412
Si Si6 0.498700 0.692558 0.381988
Si Si7 0.209351 0.382167 0.291943
O O1 0.364129 0.130369 0.069223
O O2 0.295004 0.312087 0.957371
O O3 0.209355 0.143777 0.857140
O O4 0.285760 0.187553 0.798541
O O5 0.398686 0.500000 0.654599
O O6 0.419626 0.682933 0.745408
O O7 0.420528 0.646228 0.553032
O O8 0.286759 0.638720 0.466641
O O9 0.977829 0.500000 0.268727
O O10 0.991758 0.312696 0.346405
O O11 0.001685 0.357465 0.168881
O O12 0.311766 0.500000 0.036006
O O13 0.425428 0.630974 0.232478
O O14 0.131500 0.645427 0.247270
O O15 0.000000 0.740067 0.000000
O O16 0.500000 0.676433 0.500000
O O17 0.205087 0.500000 0.252550
#
# Coordination Sequence:
#
# PCOD8096436 Si02
#       7
#     8   8   8   8   8   8   8
#     4  10  20  33  53  82 109 141 185 232 279 332
#     4  10  23  40  57  82 115 152 190 232 283 337
#     4  10  20  35  55  82 113 144 185 233 283 334
#     4  10  20  34  53  78 111 146 185 232 279 329
#     4  11  22  37  59  86 114 147 189 238 283 333
#     4  10  21  36  55  81 111 147 191 232 273 334
#     4  11  21  36  60  84 111 146 189 235 282 333
#
# _framework density 19.005182999999999
#
# number of rings (size 3 to 8) (size 9 to 14) (size 15 to 20)
#    0.000    1.714    1.429    3.429    0.000    3.429 
#    0.000    0.714    0.000    9.429    0.000    0.000 
#    0.000    0.000    0.000    0.000    0.000    0.000 
#
# Total GULP energy -347340.708545 kJ/mol
# GULP energy per Si atom -12405.025305 kJ/mol
# Density = 1.896193 g / cm^3
# Si number density = 19.005183 Si / 1000 Ang^3
#
#
#
# Elastic Constant Matrix: (Units=GPa)
#
#
# Indices 1 2 3 4 5 6 
#
# 1 82.9598 23.6855 26.6217 0.0000 7.0530 0.0000
# 2 23.6855 134.9324 37.2177 0.0000 0.7261 0.0000
# 3 26.6217 37.2177 69.6342 0.0000 7.1581 0.0000
# 4 0.0000 0.0000 0.0000 19.8111 0.0000 4.3256
# 5 7.0530 0.7261 7.1581 0.0000 29.3233 0.0000
# 6 0.0000 0.0000 0.0000 4.3256 0.0000 16.2271
#
#
#
# Elastic Compliance Matrix: (Units=1/GPa)
#
#
# Indices 1 2 3 4 5 6 
#
# 1 0.014031 -0.001214 -0.004484 0.000000 -0.002250 0.000000
# 2 -0.001214 0.008823 -0.004369 0.000000 0.001140 0.000000
# 3 -0.004484 -0.004369 0.018759 0.000000 -0.003392 0.000000
# 4 0.000000 0.000000 0.000000 0.053596 0.000000 -0.014287
# 5 -0.002250 0.001140 -0.003392 0.000000 0.035444 0.000000
# 6 0.000000 0.000000 0.000000 -0.014287 0.000000 0.065434
#
#
# Mechanical properties :
#
#
# Convention : Reuss Voigt Hill
#
# Bulk Modulus (GPa) = 46.55667 51.39737 48.97702
# Shear Modulus (GPa) = 22.38345 26.40575 24.39460
#
# Velocity S-wave (km/s) = 3.43557 3.73151 3.58659
# Velocity P-wave (km/s) = 6.34724 6.75782 6.55575
#
# Compressibility (1/GPa) = 0.02147920
#
# Stress axis : x y z
#
# Youngs Moduli (GPa) = 71.27163 113.33877 53.30854
#
# Poissons Ratio (x) = 0.13760 0.23903
# Poissons Ratio (y) = 0.08653 0.23289
# Poissons Ratio (z) = 0.31958 0.49515
#
# Static dielectric constant tensor:
#      x y z
#    x 3.641960 0.000000 0.231280 
#    y 0.000000 3.498530 0.000000 
#    z 0.231280 0.000000 3.327710 
# 
# 
# High freq. dielectric constant tensor:
#      x y z
#    x 1.751640 0.000000 0.018040 
#    y 0.000000 1.740060 0.000000 
#    z 0.018040 0.000000 1.728110 
# 
# From -- ./inp_files/245706.got.cif
#   From: 2010.06.25/outbox.cif.g09.slc.cpg/sg12_123_cif.got.tgz:245706.got - 2010.06.28 00:19:55.
