data_PCOD8096042
_publ_section_title
;
Structure prediction by ZEFSAII (Michael W. Deem and Ramdas Pophale) SiO2 
 PCOD8096042
Probable space group: C 2/M
;
_chemical_formula_sum "Si O2"
_cell_formula_units_Z 64
_cell_length_a 28.525081
_cell_length_b 9.256137
_cell_length_c 13.836755
_cell_angle_alpha 90.000000
_cell_angle_beta 105.018282
_cell_angle_gamma 90.000000
_cell_volume 3528.560229
_symmetry_space_group_name_H-M "C 2/M"
_symmetry_group_IT_number 12
_symmetry_cell_setting 'monoclinic'
loop_
_space_group_symop_operation_xyz
x,y,z
-x,y,-z
-x,-y,-z
x,-y,z
1/2+x,1/2+y,z
1/2-x,1/2+y,-z
1/2-x,1/2-y,-z
1/2+x,1/2-y,z
loop_
_atom_site_type_symbol
_atom_site_label
_atom_site_fract_x
_atom_site_fract_y
_atom_site_fract_z
Si Si1 0.135994 0.832848 0.242210
Si Si2 0.557589 0.162145 0.529199
Si Si3 0.233679 0.834005 0.397498
Si Si4 0.552977 0.666364 0.341543
Si Si5 0.270414 0.832507 0.211899
Si Si6 0.321721 0.830617 0.905900
Si Si7 0.862135 0.333151 0.137346
Si Si8 0.441199 0.669378 0.281366
O O1 0.178769 0.791064 0.339637
O O2 0.084128 0.800667 0.262806
O O3 0.139723 0.736789 0.148342
O O4 0.141384 0.000000 0.215096
O O5 0.500000 0.159025 0.500000
O O6 0.574692 0.237602 0.439668
O O7 0.576601 0.253854 0.629847
O O8 0.579163 0.000000 0.545978
O O9 0.250000 0.750000 0.500000
O O10 0.268819 0.797554 0.325496
O O11 0.237062 0.000000 0.427578
O O12 0.557880 0.500000 0.376353
O O13 0.497286 0.704505 0.288313
O O14 0.231100 0.738571 0.133875
O O15 0.323260 0.794404 0.199663
O O16 0.257363 0.000000 0.186428
O O17 0.317746 0.000000 0.884512
O O18 0.339882 0.794785 0.022348
O O19 0.877803 0.500000 0.151613
O O20 0.909536 0.234491 0.177455
O O21 0.431947 0.500000 0.286695
#
# Coordination Sequence:
#
# PCOD8096042 Si02
#       8
#     8   8   8   8   8   8   8   8
#     4   9  19  36  55  73  99 137 175 210 253 305
#     4   9  17  30  49  72 100 134 167 204 254 304
#     4   9  18  32  50  73 101 131 161 198 244 292
#     4   9  18  34  54  75 100 134 178 219 250 294
#     4   9  19  36  55  74 100 136 171 203 249 308
#     4  10  20  34  54  79 102 127 166 215 261 307
#     4  10  21  36  53  75 104 134 167 212 262 309
#     4  10  20  33  51  76 104 134 172 217 258 298
#
# _framework density 18.137709000000001
#
# number of rings (size 3 to 8) (size 9 to 14) (size 15 to 20)
#    0.000    2.625    0.000    2.250    0.000    7.000 
#    0.000    3.125    0.000    3.750    0.000    0.000 
#    0.000    0.000    0.000    0.000    0.000    0.000 
#
# Total GULP energy -396835.230557 kJ/mol
# GULP energy per Si atom -12401.100955 kJ/mol
# Density = 1.809643 g / cm^3
# Si number density = 18.137709 Si / 1000 Ang^3
#
#
#
# Elastic Constant Matrix: (Units=GPa)
#
#
# Indices 1 2 3 4 5 6 
#
# 1 93.5578 43.8744 51.4501 0.0000 -10.2264 0.0000
# 2 43.8744 91.7352 62.9983 0.0000 -1.2637 0.0000
# 3 51.4501 62.9983 114.8676 0.0000 -3.7957 0.0000
# 4 0.0000 0.0000 0.0000 36.8361 0.0000 1.4783
# 5 -10.2264 -1.2637 -3.7957 0.0000 19.7668 0.0000
# 6 0.0000 0.0000 0.0000 1.4783 0.0000 25.0787
#
#
#
# Elastic Compliance Matrix: (Units=1/GPa)
#
#
# Indices 1 2 3 4 5 6 
#
# 1 0.016045 -0.004495 -0.004485 0.000000 0.007152 0.000000
# 2 -0.004495 0.018757 -0.008364 0.000000 -0.002733 0.000000
# 3 -0.004485 -0.008364 0.015304 0.000000 0.000084 0.000000
# 4 0.000000 0.000000 0.000000 0.027212 0.000000 -0.001604
# 5 0.007152 -0.002733 0.000084 0.000000 0.054131 0.000000
# 6 0.000000 0.000000 0.000000 -0.001604 0.000000 0.039969
#
#
# Mechanical properties :
#
#
# Convention : Reuss Voigt Hill
#
# Bulk Modulus (GPa) = 64.85913 68.53402 66.69657
# Shear Modulus (GPa) = 23.66906 25.79219 24.73063
#
# Velocity S-wave (km/s) = 3.61635 3.77506 3.69656
# Velocity P-wave (km/s) = 7.29892 7.54114 7.42102
#
# Compressibility (1/GPa) = 0.01541803
#
# Stress axis : x y z
#
# Youngs Moduli (GPa) = 62.32552 53.31269 65.34054
#
# Poissons Ratio (x) = 0.23966 0.29304
# Poissons Ratio (y) = 0.28018 0.54651
# Poissons Ratio (z) = 0.27952 0.44591
#
# Static dielectric constant tensor:
#      x y z
#    x 3.393790 0.000000 -0.111890 
#    y 0.000000 3.404350 0.000000 
#    z -0.111890 0.000000 3.244500 
# 
# 
# High freq. dielectric constant tensor:
#      x y z
#    x 1.694310 0.000000 -0.005740 
#    y 0.000000 1.706270 0.000000 
#    z -0.005740 0.000000 1.695950 
# 
# From -- ./inp_files/244158.got.cif
#   From: 2010.06.25/outbox.cif.g09.slc.cpg/sg12_123_cif.got.tgz:244158.got - 2010.06.28 00:19:55.
