data_PCOD8096451
_publ_section_title
;
Structure prediction by ZEFSAII (Michael W. Deem and Ramdas Pophale) SiO2 
 PCOD8096451
Probable space group: C 2/M
;
_chemical_formula_sum "Si O2"
_cell_formula_units_Z 40
_cell_length_a 17.955528
_cell_length_b 7.635694
_cell_length_c 26.937309
_cell_angle_alpha 90.000000
_cell_angle_beta 32.726934
_cell_angle_gamma 90.000000
_cell_volume 1996.667460
_symmetry_space_group_name_H-M "C 2/M"
_symmetry_group_IT_number 12
_symmetry_cell_setting 'monoclinic'
loop_
_space_group_symop_operation_xyz
x,y,z
-x,y,-z
-x,-y,-z
x,-y,z
1/2+x,1/2+y,z
1/2-x,1/2+y,-z
1/2-x,1/2-y,-z
1/2+x,1/2-y,z
loop_
_atom_site_type_symbol
_atom_site_label
_atom_site_fract_x
_atom_site_fract_y
_atom_site_fract_z
Si Si1 0.357097 0.307979 0.748948
Si Si2 0.949980 0.000000 0.607542
Si Si3 0.408458 0.295324 0.906153
Si Si4 0.777772 0.000000 0.605398
Si Si5 0.556465 0.302546 0.918152
Si Si6 0.054930 0.791003 0.724537
O O1 0.310128 0.500000 0.794925
O O2 0.424649 0.326944 0.656069
O O3 0.221547 0.190243 0.822873
O O4 0.468231 0.231569 0.724936
O O5 0.841186 0.000000 0.624438
O O6 0.105332 0.000000 0.501900
O O7 0.432323 0.500000 0.892932
O O8 0.492026 0.208603 0.905509
O O9 0.469022 0.224984 0.820496
O O10 0.250000 0.250000 0.000000
O O11 0.694497 0.179902 0.644850
O O12 0.499857 0.500000 0.950321
O O13 0.500000 0.208731 0.000000
O O14 0.087967 0.000000 0.705992
#
# Coordination Sequence:
#
# PCOD8096451 Si02
#       6
#     8   4   8   4   8   8
#     4   9  20  38  56  80 121 145 190 248 289 345
#     4   9  22  42  59  92 117 147 203 251 290 375
#     4  10  21  34  52  82 118 153 198 242 286 351
#     4  11  22  40  70  84 118 161 195 247 311 347
#     4  10  20  33  53  82 116 154 197 238 286 355
#     4  10  22  39  59  91 119 154 201 246 291 360
#
# _framework density 20.033382
#
# number of rings (size 3 to 8) (size 9 to 14) (size 15 to 20)
#    0.600    1.600    0.000    2.400    2.800    2.000 
#    0.000    3.000    0.000    0.000    0.000    0.000 
#    0.000    0.000    0.000    0.000    0.000    0.000 
#
# Total GULP energy -247888.825203 kJ/mol
# GULP energy per Si atom -12394.441260 kJ/mol
# Density = 1.998779 g / cm^3
# Si number density = 20.033382 Si / 1000 Ang^3
#
#
#
# Elastic Constant Matrix: (Units=GPa)
#
#
# Indices 1 2 3 4 5 6 
#
# 1 189.7101 23.0137 97.8137 0.0408 2.3684 -0.0539
# 2 23.0137 42.7285 27.7335 0.0665 -5.3057 0.0151
# 3 97.8137 27.7335 165.5516 0.0140 2.4787 -0.0239
# 4 0.0408 0.0665 0.0140 23.8908 -0.0105 -7.5523
# 5 2.3684 -5.3057 2.4787 -0.0105 39.6869 0.0185
# 6 -0.0539 0.0151 -0.0239 -7.5523 0.0185 8.1972
#
#
#
# Elastic Compliance Matrix: (Units=1/GPa)
#
#
# Indices 1 2 3 4 5 6 
#
# 1 0.007653 -0.001388 -0.004283 0.000009 -0.000375 0.000049
# 2 -0.001388 0.027093 -0.003777 -0.000133 0.003941 -0.000201
# 3 -0.004283 -0.003777 0.009216 0.000020 -0.000825 0.000026
# 4 0.000009 -0.000133 0.000020 0.059058 -0.000029 0.054413
# 5 -0.000375 0.003941 -0.000825 -0.000029 0.025798 -0.000097
# 6 0.000049 -0.000201 0.000026 0.054413 -0.000097 0.172127
#
#
# Mechanical properties :
#
#
# Convention : Reuss Voigt Hill
#
# Bulk Modulus (GPa) = 39.89816 77.23465 58.56640
# Shear Modulus (GPa) = 15.23472 30.98358 23.10915
#
# Velocity S-wave (km/s) = 2.76065 3.93695 3.40005
# Velocity P-wave (km/s) = 5.48823 7.70083 6.68668
#
# Compressibility (1/GPa) = 0.02506381
#
# Stress axis : x y z
#
# Youngs Moduli (GPa) = 130.67156 36.91031 108.50312
#
# Poissons Ratio (x) = 0.05124 0.46476
# Poissons Ratio (y) = 0.18140 0.40986
# Poissons Ratio (z) = 0.55971 0.13943
#
# Static dielectric constant tensor:
#      x y z
#    x 4.022540 0.000010 0.209150 
#    y 0.000010 3.347150 -0.000060 
#    z 0.209150 -0.000060 3.424470 
# 
# 
# High freq. dielectric constant tensor:
#      x y z
#    x 1.805080 0.000000 0.002910 
#    y 0.000000 1.756210 0.000000 
#    z 0.002910 0.000000 1.771860 
# 
# From -- ./inp_files/377391.got.cif
#   From: 2010.06.25/outbox.cif.g09.slc.cpg/sg12_189_cif.got.tgz:377391.got - 2010.06.28 00:19:55.
