data_PCOD8096681
_publ_section_title
;
Structure prediction by ZEFSAII (Michael W. Deem and Ramdas Pophale) SiO2 
 PCOD8096681
Probable space group: C 2/M
;
_chemical_formula_sum "Si O2"
_cell_formula_units_Z 48
_cell_length_a 29.162371
_cell_length_b 17.799779
_cell_length_c 14.556707
_cell_angle_alpha 90.000000
_cell_angle_beta 18.354787
_cell_angle_gamma 90.000000
_cell_volume 2379.432947
_symmetry_space_group_name_H-M "C 2/M"
_symmetry_group_IT_number 12
_symmetry_cell_setting 'monoclinic'
loop_
_space_group_symop_operation_xyz
x,y,z
-x,y,-z
-x,-y,-z
x,-y,z
1/2+x,1/2+y,z
1/2-x,1/2+y,-z
1/2-x,1/2-y,-z
1/2+x,1/2-y,z
loop_
_atom_site_type_symbol
_atom_site_label
_atom_site_fract_x
_atom_site_fract_y
_atom_site_fract_z
Si Si1 0.136036 0.853302 0.689028
Si Si2 0.834478 0.414860 0.166230
Si Si3 0.614525 0.797912 0.447625
Si Si4 0.789302 0.342760 0.062635
Si Si5 0.106434 0.311087 0.673445
Si Si6 0.169699 0.583175 0.198591
O O1 0.186975 0.901985 0.504798
O O2 0.080005 0.772226 0.761369
O O3 0.268590 0.851684 0.507794
O O4 0.000000 0.892127 0.000000
O O5 0.890373 0.500000 0.072192
O O6 0.799878 0.402267 0.125125
O O7 0.956326 0.356815 0.970802
O O8 0.441754 0.799349 0.761729
O O9 0.659017 0.809129 0.468459
O O10 0.696662 0.862994 0.234269
O O11 0.663373 0.716772 0.320439
O O12 0.747494 0.385971 0.048839
O O13 0.229285 0.500000 0.109210
O O14 0.000000 0.579103 0.500000
#
# Coordination Sequence:
#
# PCOD8096681 Si02
#       6
#     8   8   8   8   8   8
#     4  11  22  37  61  84 118 154 195 245 303 351
#     4  11  23  39  60  88 119 156 200 244 294 352
#     4  10  20  33  59  86 114 151 197 239 285 348
#     4  10  20  36  59  87 117 153 193 241 286 346
#     4  10  21  37  58  87 115 156 199 245 287 352
#     4   9  18  34  56  86 120 152 190 238 290 340
#
# _framework density 20.172875000000001
#
# number of rings (size 3 to 8) (size 9 to 14) (size 15 to 20)
#    0.000    1.833    1.667    3.500    2.333    5.667 
#    0.000    0.000    0.000    5.000    0.000    0.000 
#    0.000    0.000    0.000    0.000    0.000    0.000 
#
# Total GULP energy -297667.202972 kJ/mol
# GULP energy per Si atom -12402.800124 kJ/mol
# Density = 2.012696 g / cm^3
# Si number density = 20.172875 Si / 1000 Ang^3
#
#
#
# Elastic Constant Matrix: (Units=GPa)
#
#
# Indices 1 2 3 4 5 6 
#
# 1 90.4684 23.0527 38.4083 -0.0017 28.3804 0.0001
# 2 23.0527 101.9501 35.0720 -0.0011 9.1110 0.0004
# 3 38.4083 35.0720 95.3756 -0.0020 30.3990 0.0007
# 4 -0.0017 -0.0011 -0.0020 9.2562 0.0021 -5.7726
# 5 28.3804 9.1110 30.3990 0.0021 26.0703 -0.0003
# 6 0.0001 0.0004 0.0007 -5.7726 -0.0003 18.0767
#
#
#
# Elastic Compliance Matrix: (Units=1/GPa)
#
#
# Indices 1 2 3 4 5 6 
#
# 1 0.017317 -0.002139 -0.000663 0.000008 -0.017330 0.000002
# 2 -0.002139 0.011526 -0.004513 -0.000001 0.003562 0.000000
# 3 -0.000663 -0.004513 0.018586 0.000009 -0.019373 0.000002
# 4 0.000008 -0.000001 0.000009 0.134902 -0.000029 0.043079
# 5 -0.017330 0.003562 -0.019373 -0.000029 0.078569 -0.000007
# 6 0.000002 0.000000 0.000002 0.043079 -0.000007 0.069077
#
#
# Mechanical properties :
#
#
# Convention : Reuss Voigt Hill
#
# Bulk Modulus (GPa) = 30.48775 53.42889 41.95832
# Shear Modulus (GPa) = 14.06315 23.43139 18.74727
#
# Velocity S-wave (km/s) = 2.64319 3.41182 3.05180
# Velocity P-wave (km/s) = 4.94584 6.48565 5.76737
#
# Compressibility (1/GPa) = 0.03280006
#
# Stress axis : x y z
#
# Youngs Moduli (GPa) = 57.74738 86.75768 53.80351
#
# Poissons Ratio (x) = 0.18554 0.03570
# Poissons Ratio (y) = 0.12350 0.24279
# Poissons Ratio (z) = 0.03831 0.39150
#
# Static dielectric constant tensor:
#      x y z
#    x 3.791450 0.000000 0.372980 
#    y 0.000000 3.594040 0.000000 
#    z 0.372980 0.000000 3.629390 
# 
# 
# High freq. dielectric constant tensor:
#      x y z
#    x 1.792670 0.000000 0.030570 
#    y 0.000000 1.775400 0.000000 
#    z 0.030570 0.000000 1.777720 
# 
# From -- ./inp_files/251426.got.cif
#   From: 2010.06.25/outbox.cif.g09.slc.cpg/sg12_126_cif.got.tgz:251426.got - 2010.06.28 00:19:55.
