data_PCOD8096516
_publ_section_title
;
Structure prediction by ZEFSAII (Michael W. Deem and Ramdas Pophale) SiO2 
 PCOD8096516
Probable space group: C 2/M
;
_chemical_formula_sum "Si O2"
_cell_formula_units_Z 56
_cell_length_a 24.805629
_cell_length_b 8.584313
_cell_length_c 14.913221
_cell_angle_alpha 90.000000
_cell_angle_beta 74.180549
_cell_angle_gamma 90.000000
_cell_volume 3055.335941
_symmetry_space_group_name_H-M "C 2/M"
_symmetry_group_IT_number 12
_symmetry_cell_setting 'monoclinic'
loop_
_space_group_symop_operation_xyz
x,y,z
-x,y,-z
-x,-y,-z
x,-y,z
1/2+x,1/2+y,z
1/2-x,1/2+y,-z
1/2-x,1/2-y,-z
1/2+x,1/2-y,z
loop_
_atom_site_type_symbol
_atom_site_label
_atom_site_fract_x
_atom_site_fract_y
_atom_site_fract_z
Si Si1 0.208242 0.820132 0.890865
Si Si2 0.102676 0.680553 0.271233
Si Si3 0.178387 0.180438 0.100040
Si Si4 0.682073 0.818096 0.396566
Si Si5 0.514932 0.180867 0.593331
Si Si6 0.130446 0.819426 0.593696
Si Si7 0.798288 0.320003 0.289063
O O1 0.273630 0.783226 0.875648
O O2 0.183463 0.717707 0.821207
O O3 0.202515 0.000000 0.867433
O O4 0.173552 0.779410 0.996718
O O5 0.114142 0.500000 0.247742
O O6 0.120145 0.777649 0.175102
O O7 0.138979 0.737536 0.339670
O O8 0.037578 0.713096 0.318431
O O9 0.193797 0.000000 0.105977
O O10 0.668949 0.722813 0.491826
O O11 0.745111 0.785081 0.338307
O O12 0.674223 0.000000 0.420712
O O13 0.500000 0.234828 0.500000
O O14 0.565741 0.282971 0.605820
O O15 0.532621 0.000000 0.584680
O O16 0.149978 0.720681 0.670519
O O17 0.137847 0.000000 0.612048
O O18 0.782245 0.500000 0.305767
#
# Coordination Sequence:
#
# PCOD8096516 Si02
#       7
#     8   8   8   8   8   8   8
#     4  10  20  35  54  80 114 149 183 226 280 333
#     4  10  20  34  58  83 113 150 184 229 280 327
#     4  10  20  33  54  83 115 147 183 228 277 332
#     4  11  21  37  57  82 115 152 186 226 275 331
#     4  10  20  39  60  80 109 148 190 231 276 324
#     4  12  25  39  56  81 113 151 190 232 276 331
#     4  12  24  38  57  82 112 150 189 232 279 334
#
# _framework density 18.328590999999999
#
# number of rings (size 3 to 8) (size 9 to 14) (size 15 to 20)
#    0.000    1.286    2.857    4.286    0.000    3.143 
#    0.000    0.000    0.000    0.857    0.000    6.000 
#    0.000    0.000    0.000    0.000    0.000    0.000 
#
# Total GULP energy -347366.135205 kJ/mol
# GULP energy per Si atom -12405.933400 kJ/mol
# Density = 1.828687 g / cm^3
# Si number density = 18.328591 Si / 1000 Ang^3
#
#
#
# Elastic Constant Matrix: (Units=GPa)
#
#
# Indices 1 2 3 4 5 6 
#
# 1 72.5262 20.6198 39.1625 0.0000 8.8482 0.0000
# 2 20.6198 58.8979 35.2370 0.0000 1.5788 0.0000
# 3 39.1625 35.2370 124.0189 0.0000 5.7028 0.0000
# 4 0.0000 0.0000 0.0000 32.2545 0.0000 -0.5143
# 5 8.8482 1.5788 5.7028 0.0000 22.8555 0.0000
# 6 0.0000 0.0000 0.0000 -0.5143 0.0000 27.1914
#
#
#
# Elastic Compliance Matrix: (Units=1/GPa)
#
#
# Indices 1 2 3 4 5 6 
#
# 1 0.017821 -0.003465 -0.004387 0.000000 -0.005565 0.000000
# 2 -0.003465 0.021130 -0.004961 0.000000 0.001120 0.000000
# 3 -0.004387 -0.004961 0.010889 0.000000 -0.000676 0.000000
# 4 0.000000 0.000000 0.000000 0.031013 0.000000 0.000587
# 5 -0.005565 0.001120 -0.000676 0.000000 0.045999 0.000000
# 6 0.000000 0.000000 0.000000 0.000587 0.000000 0.036787
#
#
# Mechanical properties :
#
#
# Convention : Reuss Voigt Hill
#
# Bulk Modulus (GPa) = 41.29864 49.49795 45.39829
# Shear Modulus (GPa) = 25.33745 27.15519 26.24632
#
# Velocity S-wave (km/s) = 3.72210 3.85330 3.78827
# Velocity P-wave (km/s) = 6.40728 6.84556 6.63005
#
# Compressibility (1/GPa) = 0.02421387
#
# Stress axis : x y z
#
# Youngs Moduli (GPa) = 56.11302 47.32719 91.83437
#
# Poissons Ratio (x) = 0.16400 0.40288
# Poissons Ratio (y) = 0.19445 0.45556
# Poissons Ratio (z) = 0.24617 0.23478
#
# Static dielectric constant tensor:
#      x y z
#    x 3.166270 0.000000 0.048800 
#    y 0.000000 3.330900 0.000000 
#    z 0.048800 0.000000 3.530890 
# 
# 
# High freq. dielectric constant tensor:
#      x y z
#    x 1.684450 0.000000 0.000320 
#    y 0.000000 1.716990 0.000000 
#    z 0.000320 0.000000 1.716330 
# 
# From -- ./inp_files/237471.got.cif
#   From: 2010.06.25/outbox.cif.g09.slc.cpg/sg12_119_cif.got.tgz:237471.got - 2010.06.28 00:19:55.
