data_PCOD8096238
_publ_section_title
;
Structure prediction by ZEFSAII (Michael W. Deem and Ramdas Pophale) SiO2 
 PCOD8096238
Probable space group: C 2/M
;
_chemical_formula_sum "Si O2"
_cell_formula_units_Z 64
_cell_length_a 22.265054
_cell_length_b 9.037126
_cell_length_c 24.152384
_cell_angle_alpha 90.000000
_cell_angle_beta 45.596027
_cell_angle_gamma 90.000000
_cell_volume 3471.924154
_symmetry_space_group_name_H-M "C 2/M"
_symmetry_group_IT_number 12
_symmetry_cell_setting 'monoclinic'
loop_
_space_group_symop_operation_xyz
x,y,z
-x,y,-z
-x,-y,-z
x,-y,z
1/2+x,1/2+y,z
1/2-x,1/2+y,-z
1/2-x,1/2-y,-z
1/2+x,1/2-y,z
loop_
_atom_site_type_symbol
_atom_site_label
_atom_site_fract_x
_atom_site_fract_y
_atom_site_fract_z
Si Si1 0.401587 0.672829 0.052550
Si Si2 0.304846 0.667799 0.419966
Si Si3 0.422714 0.335840 0.510146
Si Si4 0.772690 0.829582 0.042843
Si Si5 0.723667 0.175505 0.786522
Si Si6 0.482017 0.330021 0.353005
Si Si7 0.736031 0.174353 0.349270
Si Si8 0.852474 0.672333 0.778173
O O1 0.381279 0.500000 0.075222
O O2 0.360894 0.716795 0.018044
O O3 0.356525 0.768843 0.128028
O O4 0.500000 0.705459 0.000000
O O5 0.275956 0.500000 0.444245
O O6 0.250000 0.750000 0.500000
O O7 0.403592 0.687910 0.363303
O O8 0.285905 0.726040 0.371215
O O9 0.500000 0.353403 0.500000
O O10 0.381997 0.500000 0.526956
O O11 0.454269 0.270868 0.431228
O O12 0.359895 0.223660 0.580506
O O13 0.695124 0.795929 0.133694
O O14 0.779044 0.000000 0.022976
O O15 0.750000 0.750000 0.000000
O O16 0.717173 0.237688 0.729147
O O17 0.809734 0.236656 0.756550
O O18 0.725546 0.000000 0.784895
O O19 0.513115 0.500000 0.336824
O O20 0.552499 0.228200 0.279606
O O21 0.739678 0.000000 0.334881
O O22 0.849384 0.500000 0.765171
#
# Coordination Sequence:
#
# PCOD8096238 Si02
#       8
#     8   8   8   8   8   8   8   8
#     4   9  19  39  64  88 118 153 191 234 284 341
#     4  10  21  37  56  77 106 148 190 231 279 334
#     4  10  20  33  52  78 107 139 179 229 280 328
#     4   9  19  36  59  87 117 151 186 228 280 335
#     4  11  22  37  59  85 114 148 185 231 284 332
#     4  10  20  35  54  79 111 145 185 228 278 333
#     4  11  22  36  55  79 108 144 189 231 275 332
#     4  10  21  38  59  84 114 147 186 230 279 332
#
# _framework density 18.433582000000001
#
# number of rings (size 3 to 8) (size 9 to 14) (size 15 to 20)
#    0.000    2.000    1.250    3.375    0.000    5.500 
#    2.250    0.000    0.000    0.000    0.000    0.000 
#    0.000    0.000    0.000    0.000    0.000    0.000 
#
# Total GULP energy -396703.548826 kJ/mol
# GULP energy per Si atom -12396.985901 kJ/mol
# Density = 1.839163 g / cm^3
# Si number density = 18.433582 Si / 1000 Ang^3
#
#
#
# Elastic Constant Matrix: (Units=GPa)
#
#
# Indices 1 2 3 4 5 6 
#
# 1 124.3791 51.5611 64.1703 0.0001 16.0654 -0.0002
# 2 51.5611 96.9473 59.4514 0.0004 9.0070 -0.0009
# 3 64.1703 59.4514 98.2115 -0.0001 12.1143 0.0000
# 4 0.0001 0.0004 -0.0001 38.1470 0.0000 -1.2806
# 5 16.0654 9.0070 12.1143 0.0000 31.1431 0.0000
# 6 -0.0002 -0.0009 0.0000 -1.2806 0.0000 31.3897
#
#
#
# Elastic Compliance Matrix: (Units=1/GPa)
#
#
# Indices 1 2 3 4 5 6 
#
# 1 0.012863 -0.002590 -0.006418 0.000000 -0.003390 0.000000
# 2 -0.002590 0.016952 -0.008539 0.000000 -0.000245 0.000000
# 3 -0.006418 -0.008539 0.019781 0.000000 -0.001914 0.000000
# 4 0.000000 0.000000 0.000000 0.026250 0.000000 0.001071
# 5 -0.003390 -0.000245 -0.001914 0.000000 0.034674 0.000000
# 6 0.000000 0.000000 0.000000 0.001071 0.000000 0.031901
#
#
# Mechanical properties :
#
#
# Convention : Reuss Voigt Hill
#
# Bulk Modulus (GPa) = 68.96374 74.43372 71.69873
# Shear Modulus (GPa) = 27.41992 29.75963 28.58978
#
# Velocity S-wave (km/s) = 3.86099 4.02235 3.94250
# Velocity P-wave (km/s) = 7.57427 7.87651 7.72687
#
# Compressibility (1/GPa) = 0.01450037
#
# Stress axis : x y z
#
# Youngs Moduli (GPa) = 77.74260 58.99175 50.55396
#
# Poissons Ratio (x) = 0.15280 0.32448
# Poissons Ratio (y) = 0.20137 0.43167
# Poissons Ratio (z) = 0.49899 0.50372
#
# Static dielectric constant tensor:
#      x y z
#    x 3.605360 0.000000 0.030190 
#    y 0.000000 3.431230 0.000000 
#    z 0.030190 0.000000 3.319990 
# 
# 
# High freq. dielectric constant tensor:
#      x y z
#    x 1.723060 0.000000 0.004030 
#    y 0.000000 1.715190 0.000000 
#    z 0.004030 0.000000 1.708250 
# 
# From -- ./inp_files/345981.got.cif
#   From: 2010.06.25/outbox.cif.g09.slc.cpg/sg12_173_cif.got.tgz:345981.got - 2010.06.28 00:19:55.
