data_PCOD8096058
_publ_section_title
;
Structure prediction by ZEFSAII (Michael W. Deem and Ramdas Pophale) SiO2 
 PCOD8096058
Probable space group: C 2/M
;
_chemical_formula_sum "Si O2"
_cell_formula_units_Z 64
_cell_length_a 19.581817
_cell_length_b 8.938331
_cell_length_c 19.777748
_cell_angle_alpha 90.000000
_cell_angle_beta 94.243819
_cell_angle_gamma 90.000000
_cell_volume 3452.183436
_symmetry_space_group_name_H-M "C 2/M"
_symmetry_group_IT_number 12
_symmetry_cell_setting 'monoclinic'
loop_
_space_group_symop_operation_xyz
x,y,z
-x,y,-z
-x,-y,-z
x,-y,z
1/2+x,1/2+y,z
1/2-x,1/2+y,-z
1/2-x,1/2-y,-z
1/2+x,1/2-y,z
loop_
_atom_site_type_symbol
_atom_site_label
_atom_site_fract_x
_atom_site_fract_y
_atom_site_fract_z
Si Si1 0.626192 0.326856 0.801547
Si Si2 0.322443 0.323639 0.516806
Si Si3 0.671497 0.327305 0.944536
Si Si4 0.560562 0.824360 0.554778
Si Si5 0.777595 0.323666 0.778924
Si Si6 0.693779 0.328926 0.089251
Si Si7 0.139082 0.826463 0.329435
Si Si8 0.516648 0.323562 0.688787
O O1 0.628497 0.500000 0.784604
O O2 0.614668 0.298878 0.881550
O O3 0.699972 0.261029 0.782941
O O4 0.562111 0.261964 0.754975
O O5 0.316147 0.500000 0.508095
O O6 0.250000 0.250000 0.500000
O O7 0.371659 0.261351 0.462659
O O8 0.351703 0.278241 0.592205
O O9 0.698105 0.500000 0.939668
O O10 0.731600 0.211201 0.933550
O O11 0.643816 0.301643 0.019672
O O12 0.500000 0.780157 0.500000
O O13 0.540976 0.770231 0.627085
O O14 0.575301 0.000000 0.556174
O O15 0.779718 0.500000 0.778021
O O16 0.824264 0.268677 0.846005
O O17 0.807149 0.264617 0.711072
O O18 0.690981 0.500000 0.112568
O O19 0.062199 0.786923 0.300524
O O20 0.155486 0.000000 0.320690
O O21 0.525369 0.500000 0.674640
#
# Coordination Sequence:
#
# PCOD8096058 Si02
#       8
#     8   8   8   8   8   8   8   8
#     4   8  16  31  52  79 103 131 172 216 262 312
#     4  11  24  41  60  84 112 141 179 224 274 324
#     4   8  14  26  45  72 104 134 170 214 260 310
#     4  11  23  39  59  83 110 142 182 224 267 321
#     4  10  20  33  51  76 107 139 176 218 263 318
#     4   9  15  25  45  72 103 137 171 212 261 311
#     4  10  22  38  55  77 106 138 176 220 265 319
#     4  10  20  37  59  79 104 141 179 219 269 321
#
# _framework density 18.538992
#
# number of rings (size 3 to 8) (size 9 to 14) (size 15 to 20)
#    0.000    2.375    1.250    2.250    1.750    2.500 
#    0.000    2.500    0.000    0.750    0.000    5.250 
#    0.000    0.000    0.000    0.000    0.000    0.000 
#
# Total GULP energy -396579.015532 kJ/mol
# GULP energy per Si atom -12393.094235 kJ/mol
# Density = 1.849680 g / cm^3
# Si number density = 18.538992 Si / 1000 Ang^3
#
#
#
# Elastic Constant Matrix: (Units=GPa)
#
#
# Indices 1 2 3 4 5 6 
#
# 1 79.7771 26.8990 28.7717 0.0000 17.5906 0.0000
# 2 26.8990 51.0520 24.4152 0.0000 5.2261 0.0000
# 3 28.7717 24.4152 80.6136 0.0000 27.1849 0.0000
# 4 0.0000 0.0000 0.0000 30.6514 0.0000 -4.3501
# 5 17.5906 5.2261 27.1849 0.0000 29.1221 0.0000
# 6 0.0000 0.0000 0.0000 -4.3501 0.0000 21.6514
#
#
#
# Elastic Compliance Matrix: (Units=1/GPa)
#
#
# Indices 1 2 3 4 5 6 
#
# 1 0.017330 -0.007771 -0.001126 0.000000 -0.008022 0.000000
# 2 -0.007771 0.026631 -0.007681 0.000000 0.007085 0.000000
# 3 -0.001126 -0.007681 0.021073 0.000000 -0.017612 0.000000
# 4 0.000000 0.000000 0.000000 0.033583 0.000000 0.006747
# 5 -0.008022 0.007085 -0.017612 0.000000 0.054352 0.000000
# 6 0.000000 0.000000 0.000000 0.006747 0.000000 0.047542
#
#
# Mechanical properties :
#
#
# Convention : Reuss Voigt Hill
#
# Bulk Modulus (GPa) = 31.37226 41.29048 36.33137
# Shear Modulus (GPa) = 20.46715 25.04209 22.75462
#
# Velocity S-wave (km/s) = 3.32626 3.67928 3.50722
# Velocity P-wave (km/s) = 5.63126 6.35375 6.00338
#
# Compressibility (1/GPa) = 0.03187530
#
# Stress axis : x y z
#
# Youngs Moduli (GPa) = 57.70247 37.55057 47.45520
#
# Poissons Ratio (x) = 0.29182 0.05346
# Poissons Ratio (y) = 0.44842 0.36452
# Poissons Ratio (z) = 0.06500 0.28844
#
# Static dielectric constant tensor:
#      x y z
#    x 3.257450 0.000000 0.305880 
#    y 0.000000 3.314660 0.000000 
#    z 0.305880 0.000000 3.863350 
# 
# 
# High freq. dielectric constant tensor:
#      x y z
#    x 1.683210 0.000000 0.013010 
#    y 0.000000 1.711820 0.000000 
#    z 0.013010 0.000000 1.738880 
# 
# From -- ./inp_files/313993.got.cif
#   From: 2010.06.25/outbox.cif.g09.slc.cpg/sg12_157_cif.got.tgz:313993.got - 2010.06.28 00:19:55.
