data_PCOD8096850
_publ_section_title
;
Structure prediction by ZEFSAII (Michael W. Deem and Ramdas Pophale) SiO2 
 PCOD8096850
Probable space group: C 2/M
;
_chemical_formula_sum "Si O2"
_cell_formula_units_Z 64
_cell_length_a 14.818033
_cell_length_b 9.298533
_cell_length_c 25.398095
_cell_angle_alpha 90.000000
_cell_angle_beta 72.136784
_cell_angle_gamma 90.000000
_cell_volume 3330.795536
_symmetry_space_group_name_H-M "C 2/M"
_symmetry_group_IT_number 12
_symmetry_cell_setting 'monoclinic'
loop_
_space_group_symop_operation_xyz
x,y,z
-x,y,-z
-x,-y,-z
x,-y,z
1/2+x,1/2+y,z
1/2-x,1/2+y,-z
1/2-x,1/2-y,-z
1/2+x,1/2-y,z
loop_
_atom_site_type_symbol
_atom_site_label
_atom_site_fract_x
_atom_site_fract_y
_atom_site_fract_z
Si Si1 0.848016 0.836590 0.939253
Si Si2 0.402750 0.663189 0.818234
Si Si3 0.194785 0.329435 0.633948
Si Si4 0.915782 0.329993 0.447440
Si Si5 0.873741 0.670204 0.570722
Si Si6 0.580091 0.169269 0.757083
Si Si7 0.315406 0.831254 0.156812
Si Si8 0.165027 0.164771 0.945781
O O1 0.922245 0.820038 0.877813
O O2 0.769144 0.715599 0.944710
O O3 0.804533 0.000000 0.943749
O O4 0.896816 0.816832 0.988630
O O5 0.418537 0.500000 0.796879
O O6 0.476153 0.761332 0.773631
O O7 0.295499 0.712224 0.823765
O O8 0.208857 0.500000 0.629231
O O9 0.140690 0.267726 0.592258
O O10 0.296535 0.254112 0.618744
O O11 0.136436 0.281561 0.695430
O O12 0.916341 0.500000 0.445422
O O13 0.866490 0.281181 0.510748
O O14 0.024640 0.278629 0.425362
O O15 0.858988 0.500000 0.579515
O O16 0.638753 0.223756 0.797218
O O17 0.565780 0.000000 0.760804
O O18 0.370302 0.757386 0.097717
O O19 0.328336 0.000000 0.147570
O O20 0.167703 0.000000 0.926970
#
# Coordination Sequence:
#
# PCOD8096850 Si02
#       8
#     8   8   8   8   8   8   8   8
#     4   8  15  28  46  71 102 130 155 195 255 308
#     4   9  18  34  54  71  93 128 165 202 246 295
#     4  10  20  34  51  73 102 134 167 208 251 287
#     4   8  16  32  53  76 105 136 163 197 247 300
#     4   9  17  32  54  78 103 134 167 198 242 301
#     4  10  22  37  51  70  99 134 171 208 248 294
#     4   9  19  36  52  68  98 135 163 199 256 305
#     4   9  15  25  47  76  98 122 162 204 243 298
#
# _framework density 19.21463
#
# number of rings (size 3 to 8) (size 9 to 14) (size 15 to 20)
#    0.000    3.000    0.000    2.250    0.000    4.500 
#    0.000    2.500    0.000    3.750    0.000    0.000 
#    0.000    0.000    0.000    0.000    0.000    0.000 
#
# Total GULP energy -396577.272352 kJ/mol
# GULP energy per Si atom -12393.039761 kJ/mol
# Density = 1.917090 g / cm^3
# Si number density = 19.214630 Si / 1000 Ang^3
#
#
#
# Elastic Constant Matrix: (Units=GPa)
#
#
# Indices 1 2 3 4 5 6 
#
# 1 40.0753 9.6169 10.2341 0.0000 -0.9162 0.0000
# 2 9.6169 32.0026 17.8483 0.0000 -4.2129 0.0000
# 3 10.2341 17.8483 69.3613 0.0000 -4.5949 0.0000
# 4 0.0000 0.0000 0.0000 27.5646 0.0000 -5.3603
# 5 -0.9162 -4.2129 -4.5949 0.0000 28.9245 0.0000
# 6 0.0000 0.0000 0.0000 -5.3603 0.0000 21.2662
#
#
#
# Elastic Compliance Matrix: (Units=1/GPa)
#
#
# Indices 1 2 3 4 5 6 
#
# 1 0.027192 -0.006985 -0.002249 0.000000 -0.000513 0.000000
# 2 -0.006985 0.038710 -0.008663 0.000000 0.004041 0.000000
# 3 -0.002249 -0.008663 0.017070 0.000000 0.001379 0.000000
# 4 0.000000 0.000000 0.000000 0.038148 0.000000 0.009615
# 5 -0.000513 0.004041 0.001379 0.000000 0.035364 0.000000
# 6 0.000000 0.000000 0.000000 0.009615 0.000000 0.049447
#
#
# Mechanical properties :
#
#
# Convention : Reuss Voigt Hill
#
# Bulk Modulus (GPa) = 21.19602 24.09311 22.64456
# Shear Modulus (GPa) = 19.42140 22.46706 20.94423
#
# Velocity S-wave (km/s) = 3.18270 3.42317 3.30512
# Velocity P-wave (km/s) = 4.95593 5.30945 5.13573
#
# Compressibility (1/GPa) = 0.04717866
#
# Stress axis : x y z
#
# Youngs Moduli (GPa) = 36.77600 25.83339 58.58395
#
# Poissons Ratio (x) = 0.18044 0.13174
# Poissons Ratio (y) = 0.25687 0.50749
# Poissons Ratio (z) = 0.08270 0.22379
#
# Static dielectric constant tensor:
#      x y z
#    x 3.380430 0.000000 0.253260 
#    y 0.000000 3.251230 0.000000 
#    z 0.253260 0.000000 3.799520 
# 
# 
# High freq. dielectric constant tensor:
#      x y z
#    x 1.727450 0.000000 0.007280 
#    y 0.000000 1.726990 0.000000 
#    z 0.007280 0.000000 1.753350 
# 
# From -- ./inp_files/359743.got.cif
#   From: 2010.06.25/outbox.cif.g09.slc.cpg/sg12_180_cif.got.tgz:359743.got - 2010.06.28 00:19:55.
