data_PCOD8096861
_publ_section_title
;
Structure prediction by ZEFSAII (Michael W. Deem and Ramdas Pophale) SiO2 
 PCOD8096861
Probable space group: C 2/M
;
_chemical_formula_sum "Si O2"
_cell_formula_units_Z 48
_cell_length_a 31.279536
_cell_length_b 8.977114
_cell_length_c 9.714172
_cell_angle_alpha 90.000000
_cell_angle_beta 90.369057
_cell_angle_gamma 90.000000
_cell_volume 2727.682528
_symmetry_space_group_name_H-M "C 2/M"
_symmetry_group_IT_number 12
_symmetry_cell_setting 'monoclinic'
loop_
_space_group_symop_operation_xyz
x,y,z
-x,y,-z
-x,-y,-z
x,-y,z
1/2+x,1/2+y,z
1/2-x,1/2+y,-z
1/2-x,1/2-y,-z
1/2+x,1/2-y,z
loop_
_atom_site_type_symbol
_atom_site_label
_atom_site_fract_x
_atom_site_fract_y
_atom_site_fract_z
Si Si1 0.464070 0.674462 0.901397
Si Si2 0.540451 0.324034 0.410207
Si Si3 0.629544 0.326829 0.099885
Si Si4 0.786533 0.324045 0.912064
Si Si5 0.783544 0.669927 0.596162
Si Si6 0.377583 0.172989 0.612538
O O1 0.472813 0.500000 0.891804
O O2 0.467777 0.735552 0.745393
O O3 0.417194 0.705236 0.967938
O O4 0.500000 0.749878 0.000000
O O5 0.500000 0.278322 0.500000
O O6 0.549398 0.500000 0.416621
O O7 0.582047 0.236308 0.473328
O O8 0.641579 0.500000 0.090784
O O9 0.667470 0.232628 0.029429
O O10 0.624629 0.279295 0.256666
O O11 0.784645 0.500000 0.928143
O O12 0.781472 0.271564 0.753526
O O13 0.750000 0.250000 0.000000
O O14 0.769689 0.500000 0.596064
O O15 0.750000 0.750000 0.500000
O O16 0.831653 0.690381 0.535358
O O17 0.384203 0.000000 0.654219
#
# Coordination Sequence:
#
# PCOD8096861 Si02
#       6
#     8   8   8   8   8   8
#     4   8  14  26  45  67  90 117 150 188 227 269
#     4   9  17  29  46  68  91 118 155 192 229 276
#     4   9  16  28  48  70  92 123 160 193 231 279
#     4  10  20  34  51  73  99 127 161 199 240 286
#     4   9  19  33  50  72  96 124 160 199 239 286
#     4   9  17  30  47  68  94 123 157 192 230 282
#
# _framework density 17.597356000000001
#
# number of rings (size 3 to 8) (size 9 to 14) (size 15 to 20)
#    0.000    3.000    0.000    3.500    0.000    4.333 
#    0.000    1.667    0.000   16.500    0.000    0.000 
#    0.000    0.000    0.000    0.000    0.000    0.000 
#
# Total GULP energy -297345.577875 kJ/mol
# GULP energy per Si atom -12389.399078 kJ/mol
# Density = 1.755730 g / cm^3
# Si number density = 17.597356 Si / 1000 Ang^3
#
#
#
# Elastic Constant Matrix: (Units=GPa)
#
#
# Indices 1 2 3 4 5 6 
#
# 1 181.5096 61.6360 62.9122 0.0000 -7.2936 0.0000
# 2 61.6360 61.1063 27.7545 0.0000 -0.7522 0.0000
# 3 62.9122 27.7545 55.1552 0.0000 -2.5389 0.0000
# 4 0.0000 0.0000 0.0000 17.9713 0.0000 -2.3794
# 5 -7.2936 -0.7522 -2.5389 0.0000 30.9447 0.0000
# 6 0.0000 0.0000 0.0000 -2.3794 0.0000 34.7225
#
#
#
# Elastic Compliance Matrix: (Units=1/GPa)
#
#
# Indices 1 2 3 4 5 6 
#
# 1 0.011116 -0.007088 -0.009034 0.000000 0.001707 0.000000
# 2 -0.007088 0.025737 -0.004933 0.000000 -0.001450 0.000000
# 3 -0.009034 -0.004933 0.030931 0.000000 0.000288 0.000000
# 4 0.000000 0.000000 0.000000 0.056154 0.000000 0.003848
# 5 0.001707 -0.001450 0.000288 0.000000 0.032706 0.000000
# 6 0.000000 0.000000 0.000000 0.003848 0.000000 0.029063
#
#
# Mechanical properties :
#
#
# Convention : Reuss Voigt Hill
#
# Bulk Modulus (GPa) = 38.95002 66.93073 52.94038
# Shear Modulus (GPa) = 21.15271 26.42560 23.78916
#
# Velocity S-wave (km/s) = 3.47080 3.87936 3.68075
# Velocity P-wave (km/s) = 6.18418 7.62778 6.94360
#
# Compressibility (1/GPa) = 0.02567393
#
# Stress axis : x y z
#
# Youngs Moduli (GPa) = 89.95891 38.85428 32.33011
#
# Poissons Ratio (x) = 0.27541 0.29208
# Poissons Ratio (y) = 0.63765 0.15948
# Poissons Ratio (z) = 0.81270 0.19166
#
# Static dielectric constant tensor:
#      x y z
#    x 3.904000 0.000000 0.017180 
#    y 0.000000 3.212740 0.000000 
#    z 0.017180 0.000000 2.955910 
# 
# 
# High freq. dielectric constant tensor:
#      x y z
#    x 1.705220 0.000000 -0.003510 
#    y 0.000000 1.671690 0.000000 
#    z -0.003510 0.000000 1.628430 
# 
# From -- ./inp_files/179260.got.cif
#   From: 2010.06.25/outbox.cif.g09.slc.cpg/sg12_90_cif.got.tgz:179260.got - 2010.06.28 00:19:55.
