data_PCOD8096063
_publ_section_title
;
Structure prediction by ZEFSAII (Michael W. Deem and Ramdas Pophale) SiO2 
 PCOD8096063
Probable space group: C 2/M
;
_chemical_formula_sum "Si O2"
_cell_formula_units_Z 64
_cell_length_a 22.784154
_cell_length_b 8.755335
_cell_length_c 21.664422
_cell_angle_alpha 90.000000
_cell_angle_beta 125.177042
_cell_angle_gamma 90.000000
_cell_volume 3532.438098
_symmetry_space_group_name_H-M "C 2/M"
_symmetry_group_IT_number 12
_symmetry_cell_setting 'monoclinic'
loop_
_space_group_symop_operation_xyz
x,y,z
-x,y,-z
-x,-y,-z
x,-y,z
1/2+x,1/2+y,z
1/2-x,1/2+y,-z
1/2-x,1/2-y,-z
1/2+x,1/2-y,z
loop_
_atom_site_type_symbol
_atom_site_label
_atom_site_fract_x
_atom_site_fract_y
_atom_site_fract_z
Si Si1 0.941737 0.174267 0.124778
Si Si2 0.080063 0.678351 0.263937
Si Si3 0.074996 0.321399 0.014404
Si Si4 0.287855 0.680260 0.850407
Si Si5 0.788414 0.823451 0.081843
Si Si6 0.641536 0.670868 0.414571
Si Si7 0.792434 0.671399 0.437174
Si Si8 0.725346 0.179120 0.285034
O O1 0.874270 0.190804 0.129374
O O2 0.006286 0.279864 0.186176
O O3 0.968581 0.000000 0.137882
O O4 0.915215 0.227201 0.041973
O O5 0.083763 0.500000 0.278002
O O6 0.083421 0.757280 0.332918
O O7 0.146323 0.729038 0.260820
O O8 0.082068 0.500000 0.004359
O O9 0.136529 0.267724 0.098242
O O10 0.000000 0.280877 0.000000
O O11 0.299622 0.500000 0.861944
O O12 0.233361 0.733438 0.870148
O O13 0.255664 0.726711 0.764801
O O14 0.764384 0.000000 0.071855
O O15 0.750000 0.750000 0.000000
O O16 0.616771 0.500000 0.414944
O O17 0.718638 0.673741 0.429597
O O18 0.644694 0.763419 0.480767
O O19 0.812868 0.500000 0.429655
O O20 0.784817 0.776442 0.372040
O O21 0.729677 0.000000 0.273945
#
# Coordination Sequence:
#
# PCOD8096063 Si02
#       8
#     8   8   8   8   8   8   8   8
#     4  11  23  37  55  78 102 133 173 217 265 313
#     4  10  20  33  51  76 108 143 176 214 262 313
#     4  11  23  37  54  76 104 138 172 209 258 315
#     4  12  24  37  55  78 103 136 175 218 266 312
#     4  11  23  40  60  79 100 131 174 223 269 314
#     4   9  16  27  45  70 103 141 177 213 254 305
#     4   9  16  27  45  71 103 139 177 214 255 307
#     4  10  20  34  51  75 108 143 177 215 261 313
#
# _framework density 18.117798000000001
#
# number of rings (size 3 to 8) (size 9 to 14) (size 15 to 20)
#    0.000    1.625    1.250    4.500    0.000   10.000 
#    0.000    0.000    0.000    0.000    0.000    0.875 
#    0.000    7.000    0.000    0.000    0.000    0.000 
#
# Total GULP energy -396919.623036 kJ/mol
# GULP energy per Si atom -12403.738220 kJ/mol
# Density = 1.807656 g / cm^3
# Si number density = 18.117798 Si / 1000 Ang^3
#
#
#
# Elastic Constant Matrix: (Units=GPa)
#
#
# Indices 1 2 3 4 5 6 
#
# 1 62.0172 31.3653 19.9941 0.0000 -16.7045 0.0000
# 2 31.3653 81.3229 20.6461 0.0000 -5.9366 0.0000
# 3 19.9941 20.6461 89.5107 0.0000 -21.6668 0.0000
# 4 0.0000 0.0000 0.0000 39.2691 0.0000 -2.6872
# 5 -16.7045 -5.9366 -21.6668 0.0000 14.5836 0.0000
# 6 0.0000 0.0000 0.0000 -2.6872 0.0000 22.9571
#
#
#
# Elastic Compliance Matrix: (Units=1/GPa)
#
#
# Indices 1 2 3 4 5 6 
#
# 1 0.029470 -0.009851 0.004512 0.000000 0.036449 0.000000
# 2 -0.009851 0.016371 -0.004206 0.000000 -0.010869 0.000000
# 3 0.004512 -0.004206 0.018693 0.000000 0.031229 0.000000
# 4 0.000000 0.000000 0.000000 0.025671 0.000000 0.003005
# 5 0.036449 -0.010869 0.031229 0.000000 0.152292 0.000000
# 6 0.000000 0.000000 0.000000 0.003005 0.000000 0.043911
#
#
# Mechanical properties :
#
#
# Convention : Reuss Voigt Hill
#
# Bulk Modulus (GPa) = 22.00538 41.87352 31.93945
# Shear Modulus (GPa) = 15.59357 26.08498 20.83927
#
# Velocity S-wave (km/s) = 2.93691 3.79851 3.39515
# Velocity P-wave (km/s) = 4.86546 6.51155 5.74774
#
# Compressibility (1/GPa) = 0.04544344
#
# Stress axis : x y z
#
# Youngs Moduli (GPa) = 33.93335 61.08546 53.49497
#
# Poissons Ratio (x) = 0.60174 -0.24139
# Poissons Ratio (y) = 0.33427 0.22503
# Poissons Ratio (z) = -0.15312 0.25695
#
# Static dielectric constant tensor:
#      x y z
#    x 3.111250 0.000000 -0.102630 
#    y 0.000000 3.499690 0.000000 
#    z -0.102630 0.000000 3.411590 
# 
# 
# High freq. dielectric constant tensor:
#      x y z
#    x 1.659110 0.000000 -0.012050 
#    y 0.000000 1.721460 0.000000 
#    z -0.012050 0.000000 1.707160 
# 
# From -- ./inp_files/324211.got.cif
#   From: 2010.06.25/outbox.cif.g09.slc.cpg/sg12_163_cif.got.tgz:324211.got - 2010.06.28 00:19:55.
