data_PCOD8096154
_publ_section_title
;
Structure prediction by ZEFSAII (Michael W. Deem and Ramdas Pophale) SiO2 
 PCOD8096154
Probable space group: C 2/M
;
_chemical_formula_sum "Si O2"
_cell_formula_units_Z 56
_cell_length_a 11.425317
_cell_length_b 21.956092
_cell_length_c 12.702643
_cell_angle_alpha 90.000000
_cell_angle_beta 107.143767
_cell_angle_gamma 90.000000
_cell_volume 3044.942161
_symmetry_space_group_name_H-M "C 2/M"
_symmetry_group_IT_number 12
_symmetry_cell_setting 'monoclinic'
loop_
_space_group_symop_operation_xyz
x,y,z
-x,y,-z
-x,-y,-z
x,-y,z
1/2+x,1/2+y,z
1/2-x,1/2+y,-z
1/2-x,1/2-y,-z
1/2+x,1/2-y,z
loop_
_atom_site_type_symbol
_atom_site_label
_atom_site_fract_x
_atom_site_fract_y
_atom_site_fract_z
Si Si1 0.382827 0.373223 0.145815
Si Si2 0.396586 0.752092 0.064586
Si Si3 0.864452 0.072374 0.487321
Si Si4 0.297199 0.430866 0.918371
Si Si5 0.958969 0.385658 0.108576
Si Si6 0.121650 0.928404 0.280744
Si Si7 0.797199 0.427995 0.749349
O O1 0.415853 0.301638 0.155001
O O2 0.478908 0.411441 0.239232
O O3 0.253859 0.388678 0.166102
O O4 0.378390 0.392910 0.022266
O O5 0.421997 0.816466 0.127231
O O6 0.500000 0.744143 0.000000
O O7 0.250000 0.750000 0.000000
O O8 0.823605 0.095728 0.593432
O O9 0.766067 0.094741 0.375466
O O10 0.000000 0.098700 0.500000
O O11 0.870356 0.000000 0.487510
O O12 0.345321 0.500000 0.934304
O O13 0.155148 0.430035 0.907832
O O14 0.313992 0.400956 0.806296
O O15 0.060491 0.410090 0.217254
O O16 0.000000 0.391750 0.000000
O O17 0.136190 0.000000 0.282494
O O18 0.778352 0.500000 0.763615
#
# Coordination Sequence:
#
# PCOD8096154 Si02
#       7
#     8   8   8   8   8   8   8
#     4  12  20  32  56  85 113 146 178 236 292 339
#     4  11  22  39  56  79 118 160 205 231 275 350
#     4   9  17  33  55  79 111 146 188 232 277 345
#     4  11  21  32  50  82 118 145 173 224 296 351
#     4  11  22  37  54  79 114 155 192 231 277 344
#     4  10  20  33  51  82 113 142 181 228 287 340
#     4  11  21  35  59  90 116 146 190 240 293 343
#
# _framework density 18.391154
#
# number of rings (size 3 to 8) (size 9 to 14) (size 15 to 20)
#    0.000    1.286    4.286    3.857    0.000    1.714 
#    0.000    0.714    0.000    4.286    3.714    0.000 
#    0.000    0.000    0.000    0.000    0.000    0.000 
#
# Total GULP energy -347021.988618 kJ/mol
# GULP energy per Si atom -12393.642451 kJ/mol
# Density = 1.834929 g / cm^3
# Si number density = 18.391154 Si / 1000 Ang^3
#
#
#
# Elastic Constant Matrix: (Units=GPa)
#
#
# Indices 1 2 3 4 5 6 
#
# 1 64.0250 10.6305 24.2414 0.0000 10.0943 0.0000
# 2 10.6305 47.2388 26.9586 0.0000 -6.8181 0.0000
# 3 24.2414 26.9586 123.7594 0.0000 6.4912 0.0000
# 4 0.0000 0.0000 0.0000 9.4802 0.0000 2.2751
# 5 10.0943 -6.8181 6.4912 0.0000 28.1819 0.0000
# 6 0.0000 0.0000 0.0000 2.2751 0.0000 27.7446
#
#
#
# Elastic Compliance Matrix: (Units=1/GPa)
#
#
# Indices 1 2 3 4 5 6 
#
# 1 0.018230 -0.003727 -0.002398 0.000000 -0.006879 0.000000
# 2 -0.003727 0.026447 -0.005503 0.000000 0.009001 0.000000
# 3 -0.002398 -0.005503 0.009893 0.000000 -0.002751 0.000000
# 4 0.000000 0.000000 0.000000 0.107600 0.000000 -0.008824
# 5 -0.006879 0.009001 -0.002751 0.000000 0.040759 0.000000
# 6 0.000000 0.000000 0.000000 -0.008824 0.000000 0.036767
#
#
# Mechanical properties :
#
#
# Convention : Reuss Voigt Hill
#
# Bulk Modulus (GPa) = 31.93422 39.85381 35.89401
# Shear Modulus (GPa) = 18.28882 24.62753 21.45818
#
# Velocity S-wave (km/s) = 3.15689 3.66334 3.41950
# Velocity P-wave (km/s) = 5.53981 6.29369 5.92875
#
# Compressibility (1/GPa) = 0.03131437
#
# Stress axis : x y z
#
# Youngs Moduli (GPa) = 54.85387 37.81082 101.08137
#
# Poissons Ratio (x) = 0.14091 0.24242
# Poissons Ratio (y) = 0.20442 0.55627
# Poissons Ratio (z) = 0.13155 0.20808
#
# Static dielectric constant tensor:
#      x y z
#    x 3.549730 0.000000 -0.088960 
#    y 0.000000 3.279180 0.000000 
#    z -0.088960 0.000000 3.637670 
# 
# 
# High freq. dielectric constant tensor:
#      x y z
#    x 1.718310 0.000000 0.001270 
#    y 0.000000 1.689400 0.000000 
#    z 0.001270 0.000000 1.699980 
# 
# From -- ./inp_files/133960.got.cif
#   From: 2010.06.25/outbox.cif.g09.slc.cpg/sg12_67_cif.got.tgz:133960.got - 2010.06.28 00:19:55.
