data_PCOD8096505
_publ_section_title
;
Structure prediction by ZEFSAII (Michael W. Deem and Ramdas Pophale) SiO2 
 PCOD8096505
Probable space group: C 2/M
;
_chemical_formula_sum "Si O2"
_cell_formula_units_Z 56
_cell_length_a 8.430887
_cell_length_b 31.432438
_cell_length_c 13.516719
_cell_angle_alpha 90.000000
_cell_angle_beta 52.639052
_cell_angle_gamma 90.000000
_cell_volume 2847.055976
_symmetry_space_group_name_H-M "C 2/M"
_symmetry_group_IT_number 12
_symmetry_cell_setting 'monoclinic'
loop_
_space_group_symop_operation_xyz
x,y,z
-x,y,-z
-x,-y,-z
x,-y,z
1/2+x,1/2+y,z
1/2-x,1/2+y,-z
1/2-x,1/2-y,-z
1/2+x,1/2-y,z
loop_
_atom_site_type_symbol
_atom_site_label
_atom_site_fract_x
_atom_site_fract_y
_atom_site_fract_z
Si Si1 0.028684 0.223443 0.871996
Si Si2 0.205383 0.856224 0.390122
Si Si3 0.172927 0.000000 0.293193
Si Si4 0.708667 0.844942 0.971821
Si Si5 0.079214 0.693823 0.208598
Si Si6 0.376881 0.590425 0.769882
Si Si7 0.221145 0.500000 0.533603
Si Si8 0.301861 0.912070 0.533493
O O1 0.258574 0.208116 0.770295
O O2 0.876672 0.189997 0.879868
O O3 0.987813 0.268073 0.836982
O O4 0.000000 0.228397 0.000000
O O5 0.384149 0.823132 0.337621
O O6 0.202619 0.876161 0.281936
O O7 0.226048 0.894629 0.458407
O O8 0.000000 0.832428 0.500000
O O9 0.207918 0.957273 0.214770
O O10 0.319836 0.000000 0.332368
O O11 0.954536 0.000000 0.421068
O O12 0.790098 0.891347 0.906368
O O13 0.500000 0.833118 0.000000
O O14 0.675419 0.843526 0.103232
O O15 0.618704 0.589861 0.680660
O O16 0.123078 0.459336 0.519757
O O17 0.500000 0.888135 0.500000
#
# Coordination Sequence:
#
# PCOD8096505 Si02
#       8
#     8   8   4   8   8   8   4   8
#     4  10  22  36  59  88 106 142 188 242 276 321
#     4  10  21  36  56  81 112 156 181 224 278 337
#     4   9  16  32  53  82 111 148 187 229 271 326
#     4  11  20  35  59  84 108 144 186 236 278 327
#     4  11  21  38  60  82 115 141 186 234 283 330
#     4  10  20  34  58  80 115 148 187 229 273 337
#     4   9  15  30  54  80 106 145 193 229 272 313
#     4  10  20  33  54  82 113 143 188 232 277 326
#
# _framework density 19.669440000000002
#
# number of rings (size 3 to 8) (size 9 to 14) (size 15 to 20)
#    0.000    1.857    2.857    3.214    2.000    0.000 
#    0.000    1.071    0.000    0.000    0.000    4.500 
#    0.000    0.000    0.000    0.000    0.000    0.000 
#
# Total GULP energy -347045.378348 kJ/mol
# GULP energy per Si atom -12394.477798 kJ/mol
# Density = 1.962467 g / cm^3
# Si number density = 19.669440 Si / 1000 Ang^3
#
#
#
# Elastic Constant Matrix: (Units=GPa)
#
#
# Indices 1 2 3 4 5 6 
#
# 1 103.1953 28.6056 32.2994 0.0000 -28.6781 0.0000
# 2 28.6056 95.6161 47.8678 0.0000 -11.2655 0.0000
# 3 32.2994 47.8678 71.9961 0.0000 -17.2965 0.0000
# 4 0.0000 0.0000 0.0000 22.4558 0.0000 -7.7859
# 5 -28.6781 -11.2655 -17.2965 0.0000 30.5000 0.0000
# 6 0.0000 0.0000 0.0000 -7.7859 0.0000 13.8817
#
#
#
# Elastic Compliance Matrix: (Units=1/GPa)
#
#
# Indices 1 2 3 4 5 6 
#
# 1 0.014034 -0.001610 -0.002545 0.000000 0.011158 0.000000
# 2 -0.001610 0.015861 -0.010165 0.000000 -0.001419 0.000000
# 3 -0.002545 -0.010165 0.023517 0.000000 0.007189 0.000000
# 4 0.000000 0.000000 0.000000 0.055282 0.000000 0.031006
# 5 0.011158 -0.001419 0.007189 0.000000 0.046831 0.000000
# 6 0.000000 0.000000 0.000000 0.031006 0.000000 0.089428
#
#
# Mechanical properties :
#
#
# Convention : Reuss Voigt Hill
#
# Bulk Modulus (GPa) = 40.36655 54.26146 47.31401
# Shear Modulus (GPa) = 17.73997 24.16983 20.95490
#
# Velocity S-wave (km/s) = 3.00643 3.50923 3.26752
# Velocity P-wave (km/s) = 5.71126 6.63823 6.19212
#
# Compressibility (1/GPa) = 0.02477299
#
# Stress axis : x y z
#
# Youngs Moduli (GPa) = 71.25579 63.04580 42.52326
#
# Poissons Ratio (x) = 0.10149 0.10823
# Poissons Ratio (y) = 0.11471 0.43223
# Poissons Ratio (z) = 0.18136 0.64083
#
# Static dielectric constant tensor:
#      x y z
#    x 3.767770 0.000000 -0.286900 
#    y 0.000000 3.575320 0.000000 
#    z -0.286900 0.000000 3.451520 
# 
# 
# High freq. dielectric constant tensor:
#      x y z
#    x 1.773610 0.000000 -0.017470 
#    y 0.000000 1.753180 0.000000 
#    z -0.017470 0.000000 1.732700 
# 
# From -- ./inp_files/200875.got.cif
#   From: 2010.06.25/outbox.cif.g09.slc.cpg/sg12_101_cif.got.tgz:200875.got - 2010.06.28 00:19:55.
