data_PCOD8096812
_publ_section_title
;
Structure prediction by ZEFSAII (Michael W. Deem and Ramdas Pophale) SiO2 
 PCOD8096812
Probable space group: C 2/M
;
_chemical_formula_sum "Si O2"
_cell_formula_units_Z 64
_cell_length_a 14.150810
_cell_length_b 8.616614
_cell_length_c 31.341947
_cell_angle_alpha 90.000000
_cell_angle_beta 64.930455
_cell_angle_gamma 90.000000
_cell_volume 3461.572416
_symmetry_space_group_name_H-M "C 2/M"
_symmetry_group_IT_number 12
_symmetry_cell_setting 'monoclinic'
loop_
_space_group_symop_operation_xyz
x,y,z
-x,y,-z
-x,-y,-z
x,-y,z
1/2+x,1/2+y,z
1/2-x,1/2+y,-z
1/2-x,1/2-y,-z
1/2+x,1/2-y,z
loop_
_atom_site_type_symbol
_atom_site_label
_atom_site_fract_x
_atom_site_fract_y
_atom_site_fract_z
Si Si1 0.242686 0.816573 0.870045
Si Si2 0.520425 0.683729 0.880724
Si Si3 0.279511 0.183120 0.620577
Si Si4 0.983666 0.817324 0.622204
Si Si5 0.063992 0.182270 0.697820
Si Si6 0.186127 0.317352 0.051072
Si Si7 0.050800 0.183849 0.197937
Si Si8 0.301725 0.816213 0.448084
O O1 0.131483 0.753054 0.875506
O O2 0.259772 0.761345 0.915395
O O3 0.331195 0.745558 0.822657
O O4 0.248708 0.000000 0.864907
O O5 0.513272 0.500000 0.886047
O O6 0.432135 0.755868 0.928007
O O7 0.504642 0.739773 0.835023
O O8 0.385885 0.223135 0.623584
O O9 0.182910 0.239989 0.668671
O O10 0.273268 0.272413 0.576940
O O11 0.271611 0.000000 0.612999
O O12 0.995336 0.772938 0.669728
O O13 0.086028 0.764462 0.577435
O O14 0.967042 0.000000 0.618649
O O15 0.013109 0.257032 0.749986
O O16 0.065338 0.000000 0.703667
O O17 0.185192 0.500000 0.047600
O O18 0.250000 0.250000 0.000000
O O19 0.053921 0.000000 0.199952
O O20 0.250000 0.750000 0.500000
O O21 0.315591 0.000000 0.448356
#
# Coordination Sequence:
#
# PCOD8096812 Si02
#       8
#     8   8   8   8   8   8   8   8
#     4   9  19  34  50  72 101 131 163 208 256 301
#     4   9  18  33  52  72  98 131 167 203 248 300
#     4  10  20  36  56  80 109 141 178 221 265 312
#     4  10  20  36  55  78 109 143 178 218 261 309
#     4   8  17  33  52  75 106 138 170 211 258 303
#     4  10  20  34  51  71  98 128 163 205 252 301
#     4   9  17  32  53  75 100 134 171 208 248 297
#     4  11  22  38  58  81 108 140 177 218 266 317
#
# _framework density 18.488707999999999
#
# number of rings (size 3 to 8) (size 9 to 14) (size 15 to 20)
#    0.000    2.500    0.000    3.000    0.000    3.000 
#    0.000   10.000    0.000    0.000    0.000    0.000 
#    0.000    0.000    0.000    0.000    0.000    0.000 
#
# Total GULP energy -396814.693306 kJ/mol
# GULP energy per Si atom -12400.459166 kJ/mol
# Density = 1.844663 g / cm^3
# Si number density = 18.488708 Si / 1000 Ang^3
#
#
#
# Elastic Constant Matrix: (Units=GPa)
#
#
# Indices 1 2 3 4 5 6 
#
# 1 129.7010 15.0280 57.4110 0.0000 -9.0351 0.0000
# 2 15.0280 32.2727 22.7108 0.0000 -2.3257 0.0000
# 3 57.4110 22.7108 159.5613 0.0000 -11.0950 0.0000
# 4 0.0000 0.0000 0.0000 24.9665 0.0000 -3.8013
# 5 -9.0351 -2.3257 -11.0950 0.0000 15.8455 0.0000
# 6 0.0000 0.0000 0.0000 -3.8013 0.0000 29.3076
#
#
#
# Elastic Compliance Matrix: (Units=1/GPa)
#
#
# Indices 1 2 3 4 5 6 
#
# 1 0.009447 -0.002152 -0.002880 0.000000 0.003054 0.000000
# 2 -0.002152 0.034969 -0.004133 0.000000 0.001012 0.000000
# 3 -0.002880 -0.004133 0.008131 0.000000 0.003445 0.000000
# 4 0.000000 0.000000 0.000000 0.040861 0.000000 0.005300
# 5 0.003054 0.001012 0.003445 0.000000 0.067411 0.000000
# 6 0.000000 0.000000 0.000000 0.005300 0.000000 0.034808
#
#
# Mechanical properties :
#
#
# Convention : Reuss Voigt Hill
#
# Bulk Modulus (GPa) = 29.22485 56.87051 43.04768
# Shear Modulus (GPa) = 22.18635 29.11625 25.65130
#
# Velocity S-wave (km/s) = 3.46785 3.97270 3.72883
# Velocity P-wave (km/s) = 5.64587 7.20204 6.47091
#
# Compressibility (1/GPa) = 0.03421746
#
# Stress axis : x y z
#
# Youngs Moduli (GPa) = 105.85199 28.59661 122.98134
#
# Poissons Ratio (x) = 0.06154 0.35424
# Poissons Ratio (y) = 0.22780 0.50823
# Poissons Ratio (z) = 0.30490 0.11818
#
# Static dielectric constant tensor:
#      x y z
#    x 3.511060 0.000000 -0.008550 
#    y 0.000000 3.286750 0.000000 
#    z -0.008550 0.000000 3.649290 
# 
# 
# High freq. dielectric constant tensor:
#      x y z
#    x 1.719640 0.000000 -0.004780 
#    y 0.000000 1.709150 0.000000 
#    z -0.004780 0.000000 1.722650 
# 
# From -- ./inp_files/374806.got.cif
#   From: 2010.06.25/outbox.cif.g09.slc.cpg/sg12_188_cif.got.tgz:374806.got - 2010.06.28 00:19:55.
