data_PCOD8096552
_publ_section_title
;
Structure prediction by ZEFSAII (Michael W. Deem and Ramdas Pophale) SiO2 
 PCOD8096552
Probable space group: C 2/M
;
_chemical_formula_sum "Si O2"
_cell_formula_units_Z 44
_cell_length_a 9.412617
_cell_length_b 27.840516
_cell_length_c 12.655017
_cell_angle_alpha 90.000000
_cell_angle_beta 132.948870
_cell_angle_gamma 90.000000
_cell_volume 2427.386576
_symmetry_space_group_name_H-M "C 2/M"
_symmetry_group_IT_number 12
_symmetry_cell_setting 'monoclinic'
loop_
_space_group_symop_operation_xyz
x,y,z
-x,y,-z
-x,-y,-z
x,-y,z
1/2+x,1/2+y,z
1/2-x,1/2+y,-z
1/2-x,1/2-y,-z
1/2+x,1/2-y,z
loop_
_atom_site_type_symbol
_atom_site_label
_atom_site_fract_x
_atom_site_fract_y
_atom_site_fract_z
Si Si1 0.737606 0.446038 0.727720
Si Si2 0.867674 0.347626 0.838817
Si Si3 0.438630 0.186681 0.645686
Si Si4 0.016884 0.208267 0.387437
Si Si5 0.000000 0.620708 0.500000
Si Si6 0.205996 0.053942 0.466805
O O1 0.821622 0.500000 0.787532
O O2 0.865129 0.405527 0.849818
O O3 0.523442 0.443111 0.668523
O O4 0.742862 0.431710 0.606978
O O5 0.959618 0.333156 0.773975
O O6 0.649246 0.327373 0.737181
O O7 0.000000 0.326616 0.000000
O O8 0.224118 0.181834 0.483216
O O9 0.499571 0.242300 0.685745
O O10 0.570361 0.154396 0.634017
O O11 0.000000 0.223738 0.500000
O O12 0.818788 0.588186 0.443432
O O13 0.280043 0.000000 0.483917
#
# Coordination Sequence:
#
# PCOD8096552 Si02
#       6
#     8   8   8   8   4   8
#     4   9  18  35  53  76 107 143 181 217 267 328
#     4  11  22  35  54  79 109 144 182 222 265 319
#     4  10  20  33  55  80 104 141 179 223 270 315
#     4   9  19  36  55  76 105 138 185 224 264 317
#     4  12  17  28  54  86 110 128 173 234 272 318
#     4   9  18  30  52  82 109 135 173 231 279 311
#
# _framework density 18.126491000000001
#
# number of rings (size 3 to 8) (size 9 to 14) (size 15 to 20)
#    0.000    2.182    2.727    2.455    5.091    1.091 
#    0.000    0.000    0.000    0.000    0.000    2.545 
#    0.000    0.000    0.000    0.000    0.000    0.000 
#
# Total GULP energy -272684.365287 kJ/mol
# GULP energy per Si atom -12394.743877 kJ/mol
# Density = 1.808523 g / cm^3
# Si number density = 18.126491 Si / 1000 Ang^3
#
#
#
# Elastic Constant Matrix: (Units=GPa)
#
#
# Indices 1 2 3 4 5 6 
#
# 1 91.1324 46.3693 24.5778 0.0000 -14.4538 0.0000
# 2 46.3693 105.5357 45.0430 0.0000 -10.7700 0.0000
# 3 24.5778 45.0430 77.3616 0.0000 -9.1890 0.0000
# 4 0.0000 0.0000 0.0000 14.8639 0.0000 -0.3640
# 5 -14.4538 -10.7700 -9.1890 0.0000 13.8297 0.0000
# 6 0.0000 0.0000 0.0000 -0.3640 0.0000 38.3332
#
#
#
# Elastic Compliance Matrix: (Units=1/GPa)
#
#
# Indices 1 2 3 4 5 6 
#
# 1 0.015796 -0.005570 -0.000358 0.000000 0.011934 0.000000
# 2 -0.005570 0.014950 -0.006779 0.000000 0.001318 0.000000
# 3 -0.000358 -0.006779 0.017713 0.000000 0.006116 0.000000
# 4 0.000000 0.000000 0.000000 0.067293 0.000000 0.000639
# 5 0.011934 0.001318 0.006116 0.000000 0.089871 0.000000
# 6 0.000000 0.000000 0.000000 0.000639 0.000000 0.026093
#
#
# Mechanical properties :
#
#
# Convention : Reuss Voigt Hill
#
# Bulk Modulus (GPa) = 43.38959 56.22332 49.80646
# Shear Modulus (GPa) = 18.88134 23.94131 21.41132
#
# Velocity S-wave (km/s) = 3.23095 3.63821 3.44061
# Velocity P-wave (km/s) = 6.15693 6.98093 6.58184
#
# Compressibility (1/GPa) = 0.02304700
#
# Stress axis : x y z
#
# Youngs Moduli (GPa) = 63.30597 66.88854 56.45458
#
# Poissons Ratio (x) = 0.37255 0.02021
# Poissons Ratio (y) = 0.35260 0.38268
# Poissons Ratio (z) = 0.02267 0.45341
#
# Static dielectric constant tensor:
#      x y z
#    x 3.456110 0.000000 -0.038000 
#    y 0.000000 3.547860 0.000000 
#    z -0.038000 0.000000 2.835560 
# 
# 
# High freq. dielectric constant tensor:
#      x y z
#    x 1.699980 0.000000 -0.008460 
#    y 0.000000 1.729750 0.000000 
#    z -0.008460 0.000000 1.644640 
# 
# From -- ./inp_files/125423.got.cif
#   From: 2010.06.25/outbox.cif.g09.slc.cpg/sg12_63_cif.got.tgz:125423.got - 2010.06.28 00:19:55.
