data_PCOD8096949
_publ_section_title
;
Structure prediction by ZEFSAII (Michael W. Deem and Ramdas Pophale) SiO2 
 PCOD8096949
Probable space group: C 2/M
;
_chemical_formula_sum "Si O2"
_cell_formula_units_Z 48
_cell_length_a 31.835690
_cell_length_b 9.381085
_cell_length_c 20.381305
_cell_angle_alpha 90.000000
_cell_angle_beta 25.476474
_cell_angle_gamma 90.000000
_cell_volume 2618.240973
_symmetry_space_group_name_H-M "C 2/M"
_symmetry_group_IT_number 12
_symmetry_cell_setting 'monoclinic'
loop_
_space_group_symop_operation_xyz
x,y,z
-x,y,-z
-x,-y,-z
x,-y,z
1/2+x,1/2+y,z
1/2-x,1/2+y,-z
1/2-x,1/2-y,-z
1/2+x,1/2-y,z
loop_
_atom_site_type_symbol
_atom_site_label
_atom_site_fract_x
_atom_site_fract_y
_atom_site_fract_z
Si Si1 0.650478 0.668321 0.793849
Si Si2 0.479926 0.833445 0.791272
Si Si3 0.393547 0.334126 0.625114
Si Si4 0.231990 0.333557 0.959144
Si Si5 0.510743 0.331061 0.878651
Si Si6 0.360039 0.167551 0.540186
O O1 0.644773 0.500000 0.801568
O O2 0.603444 0.720290 0.791601
O O3 0.761292 0.722954 0.643920
O O4 0.587114 0.720457 0.945617
O O5 0.518091 0.747158 0.799429
O O6 0.548323 0.792297 0.633856
O O7 0.486536 0.000000 0.798485
O O8 0.370543 0.786398 0.927693
O O9 0.500000 0.290809 0.500000
O O10 0.387410 0.500000 0.615674
O O11 0.316778 0.292348 0.789238
O O12 0.369205 0.244885 0.595829
O O13 0.231862 0.500000 0.976264
O O14 0.250000 0.250000 0.000000
O O15 0.511136 0.500000 0.865979
O O16 0.354269 0.000000 0.562058
#
# Coordination Sequence:
#
# PCOD8096949 Si02
#       6
#     8   8   8   8   8   8
#     4   8  16  32  52  74  98 126 166 209 241 279
#     4  10  21  34  48  73 106 131 157 201 250 291
#     4  10  21  36  53  74 100 128 162 206 247 284
#     4  10  21  36  53  74 101 130 161 201 246 291
#     4   9  17  32  54  74  95 129 169 204 240 286
#     4  10  20  34  52  73 100 133 165 199 242 292
#
# _framework density 18.332920000000001
#
# number of rings (size 3 to 8) (size 9 to 14) (size 15 to 20)
#    0.000    2.500    0.000    3.000    0.000    3.000 
#    0.000    2.500    0.000    0.000    0.000    0.000 
#    0.000    0.000    0.000    0.000    0.000    0.000 
#
# Total GULP energy -297621.685901 kJ/mol
# GULP energy per Si atom -12400.903579 kJ/mol
# Density = 1.829119 g / cm^3
# Si number density = 18.332920 Si / 1000 Ang^3
#
#
#
# Elastic Constant Matrix: (Units=GPa)
#
#
# Indices 1 2 3 4 5 6 
#
# 1 156.8388 57.8230 86.4221 -0.0013 3.3399 0.0006
# 2 57.8230 43.0651 40.9054 -0.0046 8.2486 0.0023
# 3 86.4221 40.9054 144.2158 -0.0036 -12.8018 0.0020
# 4 -0.0013 -0.0046 -0.0036 15.0341 0.0015 7.7427
# 5 3.3399 8.2486 -12.8018 0.0015 35.5186 -0.0003
# 6 0.0006 0.0023 0.0020 7.7427 -0.0003 35.9547
#
#
#
# Elastic Compliance Matrix: (Units=1/GPa)
#
#
# Indices 1 2 3 4 5 6 
#
# 1 0.014347 -0.015473 -0.004142 -0.000006 0.000751 0.000002
# 2 -0.015473 0.053240 -0.007022 0.000018 -0.013440 -0.000007
# 3 -0.004142 -0.007022 0.011970 0.000000 0.006334 0.000000
# 4 -0.000006 0.000018 0.000000 0.074812 -0.000007 -0.016111
# 5 0.000751 -0.013440 0.006334 -0.000007 0.033488 0.000002
# 6 0.000002 -0.000007 0.000000 -0.016111 0.000002 0.031282
#
#
# Mechanical properties :
#
#
# Convention : Reuss Voigt Hill
#
# Bulk Modulus (GPa) = 38.04670 79.38007 58.71338
# Shear Modulus (GPa) = 17.78258 27.89944 22.84101
#
# Velocity S-wave (km/s) = 3.11783 3.90529 3.53356
# Velocity P-wave (km/s) = 5.81029 7.98299 6.98168
#
# Compressibility (1/GPa) = 0.02628349
#
# Stress axis : x y z
#
# Youngs Moduli (GPa) = 69.70162 18.78285 83.54158
#
# Poissons Ratio (x) = 0.29063 0.34603
# Poissons Ratio (y) = 1.07850 0.58661
# Poissons Ratio (z) = 0.28870 0.13189
#
# Static dielectric constant tensor:
#      x y z
#    x 3.550930 0.000000 -0.350190 
#    y 0.000000 3.117900 0.000000 
#    z -0.350190 0.000000 3.745640 
# 
# 
# High freq. dielectric constant tensor:
#      x y z
#    x 1.722360 0.000000 -0.006440 
#    y 0.000000 1.686610 0.000000 
#    z -0.006440 0.000000 1.722710 
# 
# From -- ./inp_files/213527.got.cif
#   From: 2010.06.25/outbox.cif.g09.slc.cpg/sg12_107_cif.got.tgz:213527.got - 2010.06.28 00:19:55.
