data_PCOD8096166
_publ_section_title
;
Structure prediction by ZEFSAII (Michael W. Deem and Ramdas Pophale) SiO2 
 PCOD8096166
Probable space group: C 2/M
;
_chemical_formula_sum "Si O2"
_cell_formula_units_Z 56
_cell_length_a 9.329936
_cell_length_b 16.065904
_cell_length_c 19.406006
_cell_angle_alpha 90.000000
_cell_angle_beta 89.140961
_cell_angle_gamma 90.000000
_cell_volume 2908.514135
_symmetry_space_group_name_H-M "C 2/M"
_symmetry_group_IT_number 12
_symmetry_cell_setting 'monoclinic'
loop_
_space_group_symop_operation_xyz
x,y,z
-x,y,-z
-x,-y,-z
x,-y,z
1/2+x,1/2+y,z
1/2-x,1/2+y,-z
1/2-x,1/2-y,-z
1/2+x,1/2-y,z
loop_
_atom_site_type_symbol
_atom_site_label
_atom_site_fract_x
_atom_site_fract_y
_atom_site_fract_z
Si Si1 0.176321 0.402477 0.926741
Si Si2 0.696326 0.343955 0.808457
Si Si3 0.159262 0.000000 0.414953
Si Si4 0.351330 0.667414 0.659456
Si Si5 0.319767 0.500000 0.428489
Si Si6 0.368779 0.317497 0.816304
Si Si7 0.184923 0.838088 0.651906
Si Si8 0.637143 0.907138 0.076110
O O1 0.193060 0.500000 0.921650
O O2 0.300092 0.372228 0.875565
O O3 0.019208 0.369182 0.902686
O O4 0.201280 0.367283 0.004912
O O5 0.537806 0.314519 0.826391
O O6 0.811760 0.274415 0.825327
O O7 0.709739 0.371822 0.729211
O O8 0.747808 0.412958 0.862442
O O9 0.212469 0.914747 0.377831
O O10 0.222621 0.000000 0.491279
O O11 0.988620 0.000000 0.415170
O O12 0.329086 0.649113 0.740406
O O13 0.269415 0.751895 0.636643
O O14 0.517891 0.681095 0.639490
O O15 0.257933 0.414252 0.395968
O O16 0.599148 0.000000 0.053967
#
# Coordination Sequence:
#
# PCOD8096166 Si02
#       8
#     8   8   4   8   4   8   8   8
#     4   9  19  35  52  72 101 135 171 214 264 315
#     4  10  20  33  52  75 102 134 174 219 263 312
#     4   9  18  34  57  83 110 145 182 214 263 327
#     4   9  19  35  55  80 111 143 180 224 268 317
#     4   9  18  34  57  83 110 145 182 214 263 327
#     4  10  20  33  52  75 102 134 174 219 263 312
#     4   9  19  35  55  80 111 143 180 224 268 317
#     4   9  19  35  52  72 101 135 171 214 264 315
#
# _framework density 19.253817000000002
#
# number of rings (size 3 to 8) (size 9 to 14) (size 15 to 20)
#    0.000    2.714    0.000    1.714    2.000    3.429 
#    0.000    2.143    0.000    0.857    0.000    0.000 
#    0.000    0.000    0.000    0.000    0.000    0.000 
#
# Total GULP energy -346913.318531 kJ/mol
# GULP energy per Si atom -12389.761376 kJ/mol
# Density = 1.920999 g / cm^3
# Si number density = 19.253817 Si / 1000 Ang^3
#
#
#
# Elastic Constant Matrix: (Units=GPa)
#
#
# Indices 1 2 3 4 5 6 
#
# 1 70.1370 28.6613 43.0085 0.0000 10.2929 0.0000
# 2 28.6613 91.8104 54.1927 0.0000 8.6805 0.0000
# 3 43.0085 54.1927 109.6617 0.0000 9.9484 0.0000
# 4 0.0000 0.0000 0.0000 35.3319 0.0000 -1.3436
# 5 10.2929 8.6805 9.9484 0.0000 22.8171 0.0000
# 6 0.0000 0.0000 0.0000 -1.3436 0.0000 28.6844
#
#
#
# Elastic Compliance Matrix: (Units=1/GPa)
#
#
# Indices 1 2 3 4 5 6 
#
# 1 0.019690 -0.001930 -0.006278 0.000000 -0.005411 0.000000
# 2 -0.001930 0.015721 -0.006818 0.000000 -0.002138 0.000000
# 3 -0.006278 -0.006818 0.015054 0.000000 -0.001138 0.000000
# 4 0.000000 0.000000 0.000000 0.028354 0.000000 0.001328
# 5 -0.005411 -0.002138 -0.001138 0.000000 0.047577 0.000000
# 6 0.000000 0.000000 0.000000 0.001328 0.000000 0.034924
#
#
# Mechanical properties :
#
#
# Convention : Reuss Voigt Hill
#
# Bulk Modulus (GPa) = 48.98758 58.14822 53.56790
# Shear Modulus (GPa) = 25.23009 27.08312 26.15661
#
# Velocity S-wave (km/s) = 3.62386 3.75458 3.68980
# Velocity P-wave (km/s) = 6.55806 7.00445 6.78493
#
# Compressibility (1/GPa) = 0.02041334
#
# Stress axis : x y z
#
# Youngs Moduli (GPa) = 50.78707 63.60843 66.42842
#
# Poissons Ratio (x) = 0.12274 0.41703
# Poissons Ratio (y) = 0.09800 0.45294
# Poissons Ratio (z) = 0.31883 0.43371
#
# Static dielectric constant tensor:
#      x y z
#    x 3.375750 0.000000 -0.045530 
#    y 0.000000 3.437860 0.000000 
#    z -0.045530 0.000000 3.677720 
# 
# 
# High freq. dielectric constant tensor:
#      x y z
#    x 1.732000 0.000000 0.003040 
#    y 0.000000 1.742920 0.000000 
#    z 0.003040 0.000000 1.753130 
# 
# From -- ./inp_files/300205.got.cif
#   From: 2010.06.25/outbox.cif.g09.slc.cpg/sg12_151_cif.got.tgz:300205.got - 2010.06.28 00:19:55.
