data_PCOD8096774
_publ_section_title
;
Structure prediction by ZEFSAII (Michael W. Deem and Ramdas Pophale) SiO2 
 PCOD8096774
Probable space group: C 2/M
;
_chemical_formula_sum "Si O2"
_cell_formula_units_Z 56
_cell_length_a 24.992772
_cell_length_b 15.640627
_cell_length_c 24.188318
_cell_angle_alpha 90.000000
_cell_angle_beta 161.448382
_cell_angle_gamma 90.000000
_cell_volume 3008.280301
_symmetry_space_group_name_H-M "C 2/M"
_symmetry_group_IT_number 12
_symmetry_cell_setting 'monoclinic'
loop_
_space_group_symop_operation_xyz
x,y,z
-x,y,-z
-x,-y,-z
x,-y,z
1/2+x,1/2+y,z
1/2-x,1/2+y,-z
1/2-x,1/2-y,-z
1/2+x,1/2-y,z
loop_
_atom_site_type_symbol
_atom_site_label
_atom_site_fract_x
_atom_site_fract_y
_atom_site_fract_z
Si Si1 0.479269 0.259795 0.330598
Si Si2 0.118573 0.597648 0.437422
Si Si3 0.540296 0.337565 0.270136
Si Si4 0.457486 0.095133 0.895823
Si Si5 0.115150 0.281939 0.964105
Si Si6 0.063002 0.096926 0.501241
Si Si7 0.192218 0.405870 0.945257
O O1 0.595000 0.175216 0.459081
O O2 0.541078 0.292479 0.330604
O O3 0.496651 0.336575 0.391164
O O4 0.284083 0.227977 0.143365
O O5 0.108337 0.500000 0.451323
O O6 0.290976 0.606725 0.571827
O O7 0.958774 0.619938 0.242763
O O8 0.531637 0.269529 0.211129
O O9 0.377216 0.396950 0.099780
O O10 0.542711 0.171033 0.945953
O O11 0.261583 0.098657 0.693502
O O12 0.525076 0.000000 0.946000
O O13 0.500000 0.115703 0.000000
O O14 0.195315 0.350169 0.002113
O O15 0.000000 0.125342 0.500000
O O16 0.998013 0.000000 0.424357
O O17 0.159199 0.500000 0.933825
#
# Coordination Sequence:
#
# PCOD8096774 Si02
#       7
#     8   8   8   8   8   8   8
#     4  11  21  37  57  80 116 149 189 242 287 342
#     4  11  22  35  54  79 111 150 191 236 285 337
#     4  11  21  36  52  81 113 150 191 238 287 347
#     4  10  21  36  54  79 112 150 191 232 280 342
#     4  11  20  35  54  78 110 150 188 237 289 341
#     4  10  22  38  58  86 116 149 191 236 282 340
#     4  10  20  34  50  76 111 146 188 231 280 342
#
# _framework density 18.615286999999999
#
# number of rings (size 3 to 8) (size 9 to 14) (size 15 to 20)
#    0.000    1.429    2.857    3.857    2.000    4.571 
#    0.000    0.000    0.000    0.429    0.000    0.000 
#    0.000    5.714    0.000    0.000    0.000    0.000 
#
# Total GULP energy -346905.931568 kJ/mol
# GULP energy per Si atom -12389.497556 kJ/mol
# Density = 1.857292 g / cm^3
# Si number density = 18.615287 Si / 1000 Ang^3
#
#
#
# Elastic Constant Matrix: (Units=GPa)
#
#
# Indices 1 2 3 4 5 6 
#
# 1 72.0505 48.6423 27.2112 -0.0672 2.1260 -0.0415
# 2 48.6423 101.8634 29.4913 -0.0744 -0.3697 -0.0522
# 3 27.2112 29.4913 91.7090 -0.0954 10.0578 -0.0774
# 4 -0.0672 -0.0744 -0.0954 44.5285 0.0038 28.2165
# 5 2.1260 -0.3697 10.0578 0.0038 29.0939 0.0095
# 6 -0.0415 -0.0522 -0.0774 28.2165 0.0095 67.6124
#
#
#
# Elastic Compliance Matrix: (Units=1/GPa)
#
#
# Indices 1 2 3 4 5 6 
#
# 1 0.021398 -0.009261 -0.003312 0.000011 -0.000536 -0.000002
# 2 -0.009261 0.014888 -0.002219 0.000006 0.001633 0.000001
# 3 -0.003312 -0.002219 0.013072 0.000017 -0.004305 0.000005
# 4 0.000011 0.000006 0.000017 0.030532 -0.000006 -0.012742
# 5 -0.000536 0.001633 -0.004305 -0.000006 0.035920 -0.000006
# 6 -0.000002 0.000001 0.000005 -0.012742 -0.000006 0.020108
#
#
# Mechanical properties :
#
#
# Convention : Reuss Voigt Hill
#
# Bulk Modulus (GPa) = 50.57031 52.92359 51.74695
# Shear Modulus (GPa) = 29.05405 38.93217 33.99311
#
# Velocity S-wave (km/s) = 3.95494 4.57815 4.27791
# Velocity P-wave (km/s) = 6.93400 7.51252 7.22905
#
# Compressibility (1/GPa) = 0.01977445
#
# Stress axis : x y z
#
# Youngs Moduli (GPa) = 46.73283 67.16905 76.49667
#
# Poissons Ratio (x) = 0.62207 0.25337
# Poissons Ratio (y) = 0.43280 0.16972
# Poissons Ratio (z) = 0.15478 0.14903
#
# Static dielectric constant tensor:
#      x y z
#    x 3.176690 0.000080 0.169390 
#    y 0.000080 3.842890 0.000460 
#    z 0.169390 0.000460 3.748900 
# 
# 
# High freq. dielectric constant tensor:
#      x y z
#    x 1.684450 0.000000 0.016580 
#    y 0.000000 1.723530 0.000000 
#    z 0.016580 0.000000 1.742350 
# 
# From -- ./inp_files/349720.got.cif
#   From: 2010.06.25/outbox.cif.g09.slc.cpg/sg12_175_cif.got.tgz:349720.got - 2010.06.28 00:19:55.
