data_PCOD8096664
_publ_section_title
;
Structure prediction by ZEFSAII (Michael W. Deem and Ramdas Pophale) SiO2 
 PCOD8096664
Probable space group: C 2/M
;
_chemical_formula_sum "Si O2"
_cell_formula_units_Z 56
_cell_length_a 20.312867
_cell_length_b 8.842519
_cell_length_c 29.954913
_cell_angle_alpha 90.000000
_cell_angle_beta 146.673084
_cell_angle_gamma 90.000000
_cell_volume 2956.079538
_symmetry_space_group_name_H-M "C 2/M"
_symmetry_group_IT_number 12
_symmetry_cell_setting 'monoclinic'
loop_
_space_group_symop_operation_xyz
x,y,z
-x,y,-z
-x,-y,-z
x,-y,z
1/2+x,1/2+y,z
1/2-x,1/2+y,-z
1/2-x,1/2-y,-z
1/2+x,1/2-y,z
loop_
_atom_site_type_symbol
_atom_site_label
_atom_site_fract_x
_atom_site_fract_y
_atom_site_fract_z
Si Si1 0.578693 0.176360 0.925581
Si Si2 0.552391 0.676713 0.746628
Si Si3 0.695279 0.323990 0.345735
Si Si4 0.792279 0.323280 0.092683
Si Si5 0.580764 0.824133 0.668240
Si Si6 0.664983 0.324370 0.227425
Si Si7 0.566569 0.321374 0.493632
O O1 0.620813 0.215729 0.899386
O O2 0.442199 0.227551 0.854338
O O3 0.592377 0.000000 0.943671
O O4 0.658301 0.268475 0.005985
O O5 0.567287 0.500000 0.745438
O O6 0.430543 0.714788 0.703227
O O7 0.663150 0.732998 0.838999
O O8 0.549118 0.766880 0.699046
O O9 0.726706 0.500000 0.366288
O O10 0.692343 0.268331 0.292974
O O11 0.796766 0.233426 0.429619
O O12 0.790855 0.500000 0.102857
O O13 0.720071 0.792038 0.737765
O O14 0.498366 0.737585 0.586842
O O15 0.551187 0.000000 0.647386
O O16 0.627670 0.500000 0.206714
O O17 0.500000 0.257524 0.500000
O O18 0.563767 0.500000 0.491223
#
# Coordination Sequence:
#
# PCOD8096664 Si02
#       7
#     8   8   8   8   8   8   8
#     4  10  20  33  57  90 120 152 194 244 290 337
#     4  11  23  40  61  87 121 155 193 242 294 347
#     4  10  21  38  62  87 115 154 196 240 291 347
#     4  10  20  35  57  86 121 157 194 237 289 348
#     4  11  24  41  62  85 118 159 195 236 293 356
#     4  10  20  37  60  87 116 152 197 241 288 347
#     4  11  23  38  60  90 120 150 193 247 294 339
#
# _framework density 18.944009000000001
#
# number of rings (size 3 to 8) (size 9 to 14) (size 15 to 20)
#    0.000    1.571    2.857    2.143    0.000    5.143 
#    0.000    0.714    0.000    4.286    0.000    0.000 
#    0.000    0.000    0.000    0.000    0.000    0.000 
#
# Total GULP energy -347387.195930 kJ/mol
# GULP energy per Si atom -12406.685569 kJ/mol
# Density = 1.890089 g / cm^3
# Si number density = 18.944009 Si / 1000 Ang^3
#
#
#
# Elastic Constant Matrix: (Units=GPa)
#
#
# Indices 1 2 3 4 5 6 
#
# 1 60.7296 24.4348 17.1910 0.0000 -9.1104 -0.0001
# 2 24.4348 37.0467 27.9341 0.0001 15.3886 -0.0002
# 3 17.1910 27.9341 107.1138 0.0000 1.7159 -0.0001
# 4 0.0000 0.0001 0.0000 39.9035 0.0000 -0.9415
# 5 -9.1104 15.3886 1.7159 0.0000 21.3800 0.0001
# 6 -0.0001 -0.0002 -0.0001 -0.9415 0.0001 29.1358
#
#
#
# Elastic Compliance Matrix: (Units=1/GPa)
#
#
# Indices 1 2 3 4 5 6 
#
# 1 0.057406 -0.078850 0.010062 0.000000 0.080408 -0.000001
# 2 -0.078850 0.160099 -0.026747 0.000000 -0.146686 0.000001
# 3 0.010062 -0.026747 0.014338 0.000000 0.022389 0.000000
# 4 0.000000 0.000000 0.000000 0.025080 0.000000 0.000810
# 5 0.080408 -0.146686 0.022389 0.000000 0.184819 -0.000002
# 6 -0.000001 0.000001 0.000000 0.000810 -0.000002 0.034348
#
#
# Mechanical properties :
#
#
# Convention : Reuss Voigt Hill
#
# Bulk Modulus (GPa) = 24.52678 38.22332 31.37505
# Shear Modulus (GPa) = 7.34482 27.10588 17.22535
#
# Velocity S-wave (km/s) = 1.97118 3.78675 3.01869
# Velocity P-wave (km/s) = 4.26096 6.27217 5.36171
#
# Compressibility (1/GPa) = 0.04077177
#
# Stress axis : x y z
#
# Youngs Moduli (GPa) = 17.41968 6.24613 69.74596
#
# Poissons Ratio (x) = 0.49251 -0.70177
# Poissons Ratio (y) = 1.37355 1.86552
# Poissons Ratio (z) = -0.17527 0.16707
#
# Static dielectric constant tensor:
#      x y z
#    x 3.401320 0.000000 0.013640 
#    y 0.000000 3.463610 0.000000 
#    z 0.013640 0.000000 3.495970 
# 
# 
# High freq. dielectric constant tensor:
#      x y z
#    x 1.720880 0.000000 0.003400 
#    y 0.000000 1.744100 0.000000 
#    z 0.003400 0.000000 1.748310 
# 
# From -- ./inp_files/380660.got.cif
#   From: 2010.06.25/outbox.cif.g09.slc.cpg/sg12_191_cif.got.tgz:380660.got - 2010.06.28 00:19:55.
