data_PCOD8096614
_publ_section_title
;
Structure prediction by ZEFSAII (Michael W. Deem and Ramdas Pophale) SiO2 
 PCOD8096614
Probable space group: C 2/M
;
_chemical_formula_sum "Si O2"
_cell_formula_units_Z 56
_cell_length_a 16.581123
_cell_length_b 13.105338
_cell_length_c 14.292488
_cell_angle_alpha 90.000000
_cell_angle_beta 69.160941
_cell_angle_gamma 90.000000
_cell_volume 2902.605789
_symmetry_space_group_name_H-M "C 2/M"
_symmetry_group_IT_number 12
_symmetry_cell_setting 'monoclinic'
loop_
_space_group_symop_operation_xyz
x,y,z
-x,y,-z
-x,-y,-z
x,-y,z
1/2+x,1/2+y,z
1/2-x,1/2+y,-z
1/2-x,1/2-y,-z
1/2+x,1/2-y,z
loop_
_atom_site_type_symbol
_atom_site_label
_atom_site_fract_x
_atom_site_fract_y
_atom_site_fract_z
Si Si1 0.316690 0.282976 0.050652
Si Si2 0.637457 0.500000 0.921099
Si Si3 0.132449 0.618013 0.597961
Si Si4 0.061675 0.618603 0.293717
Si Si5 0.211636 0.382140 0.378489
Si Si6 0.485203 0.500000 0.853314
Si Si7 0.539775 0.721192 0.152366
Si Si8 0.841320 0.733597 0.236439
O O1 0.302118 0.399157 0.094629
O O2 0.303701 0.210665 0.147906
O O3 0.250000 0.250000 0.000000
O O4 0.412040 0.273325 0.967361
O O5 0.586268 0.500000 0.842978
O O6 0.569425 0.500000 0.030831
O O7 0.137009 0.500000 0.578187
O O8 0.187675 0.666418 0.490022
O O9 0.171716 0.641913 0.684378
O O10 0.032954 0.653274 0.631995
O O11 0.061329 0.500000 0.259148
O O12 0.128267 0.635964 0.348868
O O13 0.086848 0.697203 0.200558
O O14 0.235886 0.500000 0.374649
O O15 0.296490 0.330409 0.302543
O O16 0.459719 0.603881 0.807427
O O17 0.441339 0.748540 0.175498
#
# Coordination Sequence:
#
# PCOD8096614 Si02
#       8
#     8   4   8   8   8   4   8   8
#     4  11  22  37  54  81 115 143 181 226 271 323
#     4   9  18  34  56  78 100 144 185 220 266 308
#     4   9  19  37  56  78 110 147 181 224 279 331
#     4   9  18  35  58  83 112 145 182 226 277 330
#     4  10  20  33  56  86 109 135 185 236 275 318
#     4   9  16  32  58  76 104 145 186 223 256 318
#     4  10  20  35  54  83 112 147 181 226 272 323
#     4  11  21  33  56  81 110 142 185 225 271 328
#
# _framework density 19.293008
#
# number of rings (size 3 to 8) (size 9 to 14) (size 15 to 20)
#    0.000    2.143    1.429    2.143    2.000    1.714 
#    2.571    0.000    1.571    3.429    0.000    2.000 
#    0.000    0.000    0.000    0.000    0.000    0.000 
#
# Total GULP energy -346921.083486 kJ/mol
# GULP energy per Si atom -12390.038696 kJ/mol
# Density = 1.924910 g / cm^3
# Si number density = 19.293008 Si / 1000 Ang^3
#
#
#
# Elastic Constant Matrix: (Units=GPa)
#
#
# Indices 1 2 3 4 5 6 
#
# 1 61.2536 7.9318 20.9899 0.0000 9.1813 0.0000
# 2 7.9318 41.2601 9.8959 0.0000 6.5897 0.0000
# 3 20.9899 9.8959 95.8196 0.0000 10.7119 0.0000
# 4 0.0000 0.0000 0.0000 29.3924 0.0000 2.4997
# 5 9.1813 6.5897 10.7119 0.0000 22.8425 0.0000
# 6 0.0000 0.0000 0.0000 2.4997 0.0000 26.4173
#
#
#
# Elastic Compliance Matrix: (Units=1/GPa)
#
#
# Indices 1 2 3 4 5 6 
#
# 1 0.018492 -0.001919 -0.003254 0.000000 -0.005353 0.000000
# 2 -0.001919 0.025940 -0.001592 0.000000 -0.005965 0.000000
# 3 -0.003254 -0.001592 0.011731 0.000000 -0.003734 0.000000
# 4 0.000000 0.000000 0.000000 0.034298 0.000000 -0.003245
# 5 -0.005353 -0.005965 -0.003734 0.000000 0.049402 0.000000
# 6 0.000000 0.000000 0.000000 -0.003245 0.000000 0.038161
#
#
# Mechanical properties :
#
#
# Convention : Reuss Voigt Hill
#
# Bulk Modulus (GPa) = 23.45647 30.66317 27.05982
# Shear Modulus (GPa) = 24.29962 26.36480 25.33221
#
# Velocity S-wave (km/s) = 3.55280 3.70069 3.62750
# Velocity P-wave (km/s) = 5.38649 5.84706 5.62149
#
# Compressibility (1/GPa) = 0.04263216
#
# Stress axis : x y z
#
# Youngs Moduli (GPa) = 54.07884 38.55056 85.24474
#
# Poissons Ratio (x) = 0.07400 0.27739
# Poissons Ratio (y) = 0.10380 0.13568
# Poissons Ratio (z) = 0.17598 0.06136
#
# Static dielectric constant tensor:
#      x y z
#    x 3.391060 0.000000 -0.031480 
#    y 0.000000 3.764650 0.000000 
#    z -0.031480 0.000000 3.929660 
# 
# 
# High freq. dielectric constant tensor:
#      x y z
#    x 1.737140 0.000000 -0.012900 
#    y 0.000000 1.734260 0.000000 
#    z -0.012900 0.000000 1.759200 
# 
# From -- ./inp_files/223767.got.cif
#   From: 2010.06.25/outbox.cif.g09.slc.cpg/sg12_112_cif.got.tgz:223767.got - 2010.06.28 00:19:55.
