data_PCOD8096178
_publ_section_title
;
Structure prediction by ZEFSAII (Michael W. Deem and Ramdas Pophale) SiO2 
 PCOD8096178
Probable space group: C 2/M
;
_chemical_formula_sum "Si O2"
_cell_formula_units_Z 48
_cell_length_a 18.225283
_cell_length_b 9.239481
_cell_length_c 15.486781
_cell_angle_alpha 90.000000
_cell_angle_beta 89.761872
_cell_angle_gamma 90.000000
_cell_volume 2607.829919
_symmetry_space_group_name_H-M "C 2/M"
_symmetry_group_IT_number 12
_symmetry_cell_setting 'monoclinic'
loop_
_space_group_symop_operation_xyz
x,y,z
-x,y,-z
-x,-y,-z
x,-y,z
1/2+x,1/2+y,z
1/2-x,1/2+y,-z
1/2-x,1/2-y,-z
1/2+x,1/2-y,z
loop_
_atom_site_type_symbol
_atom_site_label
_atom_site_fract_x
_atom_site_fract_y
_atom_site_fract_z
Si Si1 0.674745 0.167102 0.489454
Si Si2 0.172987 0.171690 0.995349
Si Si3 0.665436 0.330303 0.327310
Si Si4 0.916046 0.828889 0.172261
Si Si5 0.836386 0.335893 0.319880
Si Si6 0.580727 0.671675 0.158730
O O1 0.750000 0.250000 0.500000
O O2 0.632236 0.243883 0.410254
O O3 0.633305 0.179862 0.581830
O O4 0.689572 0.000000 0.466539
O O5 0.133612 0.220228 0.907582
O O6 0.184931 0.000000 0.999701
O O7 0.250000 0.250000 0.000000
O O8 0.123252 0.228787 0.074446
O O9 0.653894 0.500000 0.343930
O O10 0.750905 0.292398 0.313977
O O11 0.622088 0.273512 0.244069
O O12 0.883883 0.768345 0.260807
O O13 0.998041 0.767273 0.158027
O O14 0.918127 0.000000 0.180477
O O15 0.846086 0.500000 0.287197
O O16 0.579698 0.500000 0.156456
#
# Coordination Sequence:
#
# PCOD8096178 Si02
#       6
#     8   8   8   8   8   8
#     4   9  17  30  49  73 100 130 166 207 250 293
#     4  10  20  35  55  77 101 129 164 205 246 292
#     4   9  17  31  52  74  97 130 169 206 247 293
#     4  10  20  33  52  76  99 130 170 205 240 289
#     4   9  18  32  50  73 101 132 162 200 254 299
#     4   9  18  34  53  73 101 134 165 201 247 295
#
# _framework density 18.406108
#
# number of rings (size 3 to 8) (size 9 to 14) (size 15 to 20)
#    0.000    2.667    0.000    3.000    0.000    7.333 
#    0.000    3.333    0.000    7.000    0.000    0.000 
#    0.000    0.000    0.000    0.000    0.000    0.000 
#
# Total GULP energy -297535.824276 kJ/mol
# GULP energy per Si atom -12397.326011 kJ/mol
# Density = 1.836421 g / cm^3
# Si number density = 18.406108 Si / 1000 Ang^3
#
#
#
# Elastic Constant Matrix: (Units=GPa)
#
#
# Indices 1 2 3 4 5 6 
#
# 1 107.3584 28.8973 61.8949 0.0000 -9.9555 0.0000
# 2 28.8973 46.7722 46.5259 0.0000 -4.9922 0.0000
# 3 61.8949 46.5259 149.3978 0.0000 -12.5214 0.0000
# 4 0.0000 0.0000 0.0000 30.3132 0.0000 -3.0927
# 5 -9.9555 -4.9922 -12.5214 0.0000 11.8556 0.0000
# 6 0.0000 0.0000 0.0000 -3.0927 0.0000 23.0486
#
#
#
# Elastic Compliance Matrix: (Units=1/GPa)
#
#
# Indices 1 2 3 4 5 6 
#
# 1 0.012984 -0.003689 -0.003782 0.000000 0.005356 0.000000
# 2 -0.003689 0.032130 -0.008342 0.000000 0.001622 0.000000
# 3 -0.003782 -0.008342 0.011298 0.000000 0.005244 0.000000
# 4 0.000000 0.000000 0.000000 0.033447 0.000000 0.004488
# 5 0.005356 0.001622 0.005244 0.000000 0.095067 0.000000
# 6 0.000000 0.000000 0.000000 0.004488 0.000000 0.043989
#
#
# Mechanical properties :
#
#
# Convention : Reuss Voigt Hill
#
# Bulk Modulus (GPa) = 40.34273 64.24051 52.29162
# Shear Modulus (GPa) = 18.60102 24.12416 21.36259
#
# Velocity S-wave (km/s) = 3.18243 3.62423 3.41049
# Velocity P-wave (km/s) = 5.95563 7.24506 6.63176
#
# Compressibility (1/GPa) = 0.02478761
#
# Stress axis : x y z
#
# Youngs Moduli (GPa) = 77.01539 31.12322 88.51366
#
# Poissons Ratio (x) = 0.11480 0.33474
# Poissons Ratio (y) = 0.28408 0.73838
# Poissons Ratio (z) = 0.29125 0.25963
#
# Static dielectric constant tensor:
#      x y z
#    x 3.286630 0.000000 0.120120 
#    y 0.000000 3.243280 0.000000 
#    z 0.120120 0.000000 3.969640 
# 
# 
# High freq. dielectric constant tensor:
#      x y z
#    x 1.692640 0.000000 0.003850 
#    y 0.000000 1.692200 0.000000 
#    z 0.003850 0.000000 1.734730 
# 
# From -- ./inp_files/221661.got.cif
#   From: 2010.06.25/outbox.cif.g09.slc.cpg/sg12_111_cif.got.tgz:221661.got - 2010.06.28 00:19:55.
