data_PCOD8096615
_publ_section_title
;
Structure prediction by ZEFSAII (Michael W. Deem and Ramdas Pophale) SiO2 
 PCOD8096615
Probable space group: C 2/M
;
_chemical_formula_sum "Si O2"
_cell_formula_units_Z 56
_cell_length_a 10.741496
_cell_length_b 18.183296
_cell_length_c 14.816454
_cell_angle_alpha 90.000000
_cell_angle_beta 100.873668
_cell_angle_gamma 90.000000
_cell_volume 2841.929319
_symmetry_space_group_name_H-M "C 2/M"
_symmetry_group_IT_number 12
_symmetry_cell_setting 'monoclinic'
loop_
_space_group_symop_operation_xyz
x,y,z
-x,y,-z
-x,-y,-z
x,-y,z
1/2+x,1/2+y,z
1/2-x,1/2+y,-z
1/2-x,1/2-y,-z
1/2+x,1/2-y,z
loop_
_atom_site_type_symbol
_atom_site_label
_atom_site_fract_x
_atom_site_fract_y
_atom_site_fract_z
Si Si1 0.278709 0.837168 0.101417
Si Si2 0.468755 0.582685 0.891580
Si Si3 0.140863 0.912456 0.538580
Si Si4 0.070604 0.582525 0.740809
Si Si5 0.717991 0.336838 0.892428
Si Si6 0.787418 0.582870 0.730972
Si Si7 0.366965 0.087401 0.445255
O O1 0.160205 0.871950 0.139113
O O2 0.402550 0.867565 0.168099
O O3 0.281821 0.750301 0.110609
O O4 0.277847 0.862025 0.996405
O O5 0.457868 0.500000 0.848582
O O6 0.578303 0.629422 0.858102
O O7 0.500000 0.576520 0.000000
O O8 0.182146 0.888667 0.645385
O O9 0.243841 0.880656 0.481035
O O10 0.000000 0.880415 0.500000
O O11 0.139584 0.000000 0.531059
O O12 0.112691 0.500000 0.771482
O O13 0.145257 0.609786 0.661849
O O14 0.921478 0.585226 0.697884
O O15 0.800239 0.366542 0.820976
O O16 0.755233 0.500000 0.758120
O O17 0.500000 0.120536 0.500000
O O18 0.370929 0.000000 0.456428
#
# Coordination Sequence:
#
# PCOD8096615 Si02
#       7
#     8   8   8   8   8   8   8
#     4  10  22  37  55  81 111 151 199 236 283 352
#     4   9  18  35  56  76 104 146 194 240 286 341
#     4   9  17  30  52  84 117 147 185 233 283 343
#     4  10  20  33  56  86 113 145 189 237 281 338
#     4  10  22  37  56  78 114 156 188 237 296 345
#     4  10  20  34  55  86 117 147 185 233 291 344
#     4   9  15  29  51  76 110 148 183 225 281 338
#
# _framework density 19.704923999999998
#
# number of rings (size 3 to 8) (size 9 to 14) (size 15 to 20)
#    0.000    2.429    1.429    0.857    2.000    3.429 
#    0.000    4.286    0.000    1.714    0.000    0.000 
#    0.000    0.000    0.000    0.000    0.000    0.000 
#
# Total GULP energy -347097.950676 kJ/mol
# GULP energy per Si atom -12396.355381 kJ/mol
# Density = 1.966007 g / cm^3
# Si number density = 19.704924 Si / 1000 Ang^3
#
#
#
# Elastic Constant Matrix: (Units=GPa)
#
#
# Indices 1 2 3 4 5 6 
#
# 1 110.4900 29.1499 51.4765 0.0000 -0.3042 0.0000
# 2 29.1499 67.9363 36.4839 0.0000 -0.8147 0.0000
# 3 51.4765 36.4839 128.8618 0.0000 -0.2337 0.0000
# 4 0.0000 0.0000 0.0000 17.2782 0.0000 0.3525
# 5 -0.3042 -0.8147 -0.2337 0.0000 34.6643 0.0000
# 6 0.0000 0.0000 0.0000 0.3525 0.0000 23.4007
#
#
#
# Elastic Compliance Matrix: (Units=1/GPa)
#
#
# Indices 1 2 3 4 5 6 
#
# 1 0.011596 -0.002934 -0.003801 0.000000 0.000007 0.000000
# 2 -0.002934 0.018106 -0.003954 0.000000 0.000373 0.000000
# 3 -0.003801 -0.003954 0.010398 0.000000 -0.000056 0.000000
# 4 0.000000 0.000000 0.000000 0.057894 0.000000 -0.000872
# 5 0.000007 0.000373 -0.000056 0.000000 0.028857 0.000000
# 6 0.000000 0.000000 0.000000 -0.000872 0.000000 0.042747
#
#
# Mechanical properties :
#
#
# Convention : Reuss Voigt Hill
#
# Bulk Modulus (GPa) = 53.41291 60.16766 56.79029
# Shear Modulus (GPa) = 25.35286 27.74717 26.55002
#
# Velocity S-wave (km/s) = 3.59085 3.75658 3.67465
# Velocity P-wave (km/s) = 6.66014 7.02969 6.84741
#
# Compressibility (1/GPa) = 0.01872207
#
# Stress axis : x y z
#
# Youngs Moduli (GPa) = 86.23870 55.22960 96.17132
#
# Poissons Ratio (x) = 0.16204 0.36559
# Poissons Ratio (y) = 0.25301 0.38023
# Poissons Ratio (z) = 0.32784 0.21836
#
# Static dielectric constant tensor:
#      x y z
#    x 3.740410 0.000000 0.010690 
#    y 0.000000 3.155240 0.000000 
#    z 0.010690 0.000000 3.487680 
# 
# 
# High freq. dielectric constant tensor:
#      x y z
#    x 1.769860 0.000000 -0.000120 
#    y 0.000000 1.726320 0.000000 
#    z -0.000120 0.000000 1.766110 
# 
# From -- ./inp_files/206261.got.cif
#   From: 2010.06.25/outbox.cif.g09.slc.cpg/sg12_104_cif.got.tgz:206261.got - 2010.06.28 00:19:55.
