data_PCOD8096965
_publ_section_title
;
Structure prediction by ZEFSAII (Michael W. Deem and Ramdas Pophale) SiO2 
 PCOD8096965
Probable space group: C 2/M
;
_chemical_formula_sum "Si O2"
_cell_formula_units_Z 56
_cell_length_a 18.655751
_cell_length_b 9.366078
_cell_length_c 29.314604
_cell_angle_alpha 90.000000
_cell_angle_beta 37.147536
_cell_angle_gamma 90.000000
_cell_volume 3093.126174
_symmetry_space_group_name_H-M "C 2/M"
_symmetry_group_IT_number 12
_symmetry_cell_setting 'monoclinic'
loop_
_space_group_symop_operation_xyz
x,y,z
-x,y,-z
-x,-y,-z
x,-y,z
1/2+x,1/2+y,z
1/2-x,1/2+y,-z
1/2-x,1/2-y,-z
1/2+x,1/2-y,z
loop_
_atom_site_type_symbol
_atom_site_label
_atom_site_fract_x
_atom_site_fract_y
_atom_site_fract_z
Si Si1 0.500058 0.668987 0.137381
Si Si2 0.335390 0.333728 0.865086
Si Si3 0.593012 0.331889 0.991936
Si Si4 0.586938 0.337351 0.273854
Si Si5 0.764287 0.665054 0.731865
Si Si6 0.129996 0.833954 0.555495
Si Si7 0.516281 0.838257 0.438852
O O1 0.500348 0.500000 0.141324
O O2 0.588066 0.729933 0.131629
O O3 0.543282 0.719644 0.065881
O O4 0.366300 0.726828 0.213338
O O5 0.305377 0.500000 0.887760
O O6 0.411982 0.309283 0.780594
O O7 0.214465 0.248540 0.920922
O O8 0.617820 0.500000 0.978789
O O9 0.500000 0.288351 0.000000
O O10 0.619851 0.500000 0.269046
O O11 0.683700 0.241126 0.249986
O O12 0.453991 0.302624 0.358428
O O13 0.754168 0.500000 0.750650
O O14 0.847414 0.688465 0.645455
O O15 0.250000 0.750000 0.500000
O O16 0.066815 0.777153 0.542407
O O17 0.157956 0.000000 0.535388
O O18 0.500000 0.812104 0.500000
O O19 0.478539 0.000000 0.444513
#
# Coordination Sequence:
#
# PCOD8096965 Si02
#       7
#     8   8   8   8   8   8   8
#     4   9  18  32  50  73  99 128 163 202 245 292
#     4  10  20  34  52  74 100 129 162 201 246 294
#     4  10  20  34  52  73  98 129 164 202 244 291
#     4   9  19  34  51  72  99 130 163 204 250 293
#     4   9  17  32  54  74  96 131 170 204 241 294
#     4  10  20  34  52  74 102 135 171 212 256 302
#     4   9  18  32  52  78 104 132 169 211 254 303
#
# _framework density 18.104659999999999
#
# number of rings (size 3 to 8) (size 9 to 14) (size 15 to 20)
#    0.000    2.571    0.000    1.714    0.000    4.000 
#    0.000    5.714    0.000    0.000    0.000    0.000 
#    0.000    0.000    0.000    0.000    0.000    0.000 
#
# Total GULP energy -347203.462106 kJ/mol
# GULP energy per Si atom -12400.123647 kJ/mol
# Density = 1.806345 g / cm^3
# Si number density = 18.104660 Si / 1000 Ang^3
#
#
#
# Elastic Constant Matrix: (Units=GPa)
#
#
# Indices 1 2 3 4 5 6 
#
# 1 140.5013 52.9375 83.9993 -0.0001 -2.0899 0.0000
# 2 52.9375 62.7019 51.7202 -0.0001 -9.2006 -0.0010
# 3 83.9993 51.7202 124.7456 0.0000 -5.1709 0.0000
# 4 -0.0001 -0.0001 0.0000 24.2878 0.0000 -2.1099
# 5 -2.0899 -9.2006 -5.1709 0.0000 37.6223 0.0000
# 6 0.0000 -0.0010 0.0000 -2.1099 0.0000 24.7164
#
#
#
# Elastic Compliance Matrix: (Units=1/GPa)
#
#
# Indices 1 2 3 4 5 6 
#
# 1 0.013257 -0.006101 -0.006466 0.000000 -0.001644 0.000000
# 2 -0.006101 0.027853 -0.007213 0.000000 0.005481 0.000001
# 3 -0.006466 -0.007213 0.015360 0.000000 -0.000012 0.000000
# 4 0.000000 0.000000 0.000000 0.041480 0.000000 0.003541
# 5 -0.001644 0.005481 -0.000012 0.000000 0.027827 0.000000
# 6 0.000000 0.000001 0.000000 0.003541 0.000000 0.040761
#
#
# Mechanical properties :
#
#
# Convention : Reuss Voigt Hill
#
# Bulk Modulus (GPa) = 59.13013 78.36254 68.74634
# Shear Modulus (GPa) = 23.61451 26.61142 25.11297
#
# Velocity S-wave (km/s) = 3.61547 3.83804 3.72842
# Velocity P-wave (km/s) = 7.08237 7.93838 7.52256
#
# Compressibility (1/GPa) = 0.01691185
#
# Stress axis : x y z
#
# Youngs Moduli (GPa) = 75.43231 35.90294 65.10405
#
# Poissons Ratio (x) = 0.21903 0.42094
# Poissons Ratio (y) = 0.46018 0.46959
# Poissons Ratio (z) = 0.48771 0.25896
#
# Static dielectric constant tensor:
#      x y z
#    x 3.488230 -0.000010 -0.042280 
#    y -0.000010 3.241680 0.000010 
#    z -0.042280 0.000010 3.585890 
# 
# 
# High freq. dielectric constant tensor:
#      x y z
#    x 1.698940 0.000000 0.001210 
#    y 0.000000 1.684850 0.000000 
#    z 0.001210 0.000000 1.714810 
# 
# From -- ./inp_files/377654.got.cif
#   From: 2010.06.25/outbox.cif.g09.slc.cpg/sg12_189_cif.got.tgz:377654.got - 2010.06.28 00:19:55.
