data_PCOD8096170
_publ_section_title
;
Structure prediction by ZEFSAII (Michael W. Deem and Ramdas Pophale) SiO2 
 PCOD8096170
Probable space group: C 2/M
;
_chemical_formula_sum "Si O2"
_cell_formula_units_Z 48
_cell_length_a 9.643757
_cell_length_b 18.610782
_cell_length_c 13.342674
_cell_angle_alpha 90.000000
_cell_angle_beta 88.411826
_cell_angle_gamma 90.000000
_cell_volume 2393.794652
_symmetry_space_group_name_H-M "C 2/M"
_symmetry_group_IT_number 12
_symmetry_cell_setting 'monoclinic'
loop_
_space_group_symop_operation_xyz
x,y,z
-x,y,-z
-x,-y,-z
x,-y,z
1/2+x,1/2+y,z
1/2-x,1/2+y,-z
1/2-x,1/2-y,-z
1/2+x,1/2-y,z
loop_
_atom_site_type_symbol
_atom_site_label
_atom_site_fract_x
_atom_site_fract_y
_atom_site_fract_z
Si Si1 0.695769 0.083599 0.988818
Si Si2 0.528285 0.141102 0.154129
Si Si3 0.843710 0.421533 0.312216
Si Si4 0.086804 0.920763 0.166335
Si Si5 0.486415 0.716703 0.262768
Si Si6 0.747068 0.718822 0.390215
O O1 0.593835 0.130837 0.923277
O O2 0.855008 0.094184 0.948133
O O3 0.653460 0.000000 0.982165
O O4 0.673879 0.112524 0.103469
O O5 0.490047 0.096502 0.255389
O O6 0.537879 0.225147 0.180751
O O7 0.853547 0.500000 0.363360
O O8 0.723270 0.420012 0.232190
O O9 0.811631 0.361424 0.396272
O O10 0.980423 0.860166 0.206023
O O11 0.015256 0.000000 0.172470
O O12 0.590105 0.715286 0.355049
O O13 0.334432 0.733489 0.309321
O O14 0.750000 0.750000 0.500000
#
# Coordination Sequence:
#
# PCOD8096170 Si02
#       6
#     8   8   8   8   8   8
#     4   9  15  26  48  75 101 135 177 208 231 278
#     4   9  15  24  44  74 102 124 158 207 249 279
#     4   8  14  27  48  70  92 122 163 206 242 282
#     4   8  15  28  45  67  95 128 166 201 232 280
#     4  10  20  33  52  75  99 130 164 206 260 299
#     4  10  20  35  54  74  98 127 163 209 258 311
#
# _framework density 20.051846000000001
#
# number of rings (size 3 to 8) (size 9 to 14) (size 15 to 20)
#    0.000    3.000    0.000    4.500    0.000    0.667 
#    0.000    0.833    0.000   20.000    0.000    4.667 
#    0.000    0.000    0.000    0.000    0.000    0.000 
#
# Total GULP energy -297403.274404 kJ/mol
# GULP energy per Si atom -12391.803100 kJ/mol
# Density = 2.000621 g / cm^3
# Si number density = 20.051846 Si / 1000 Ang^3
#
#
#
# Elastic Constant Matrix: (Units=GPa)
#
#
# Indices 1 2 3 4 5 6 
#
# 1 29.7989 14.4263 3.6696 0.0000 -11.8237 0.0000
# 2 14.4263 159.4271 42.7644 0.0000 -22.6571 0.0000
# 3 3.6696 42.7644 62.1915 0.0000 -20.2920 0.0000
# 4 0.0000 0.0000 0.0000 29.0465 0.0000 -4.2929
# 5 -11.8237 -22.6571 -20.2920 0.0000 21.6506 0.0000
# 6 0.0000 0.0000 0.0000 -4.2929 0.0000 23.3390
#
#
#
# Elastic Compliance Matrix: (Units=1/GPa)
#
#
# Indices 1 2 3 4 5 6 
#
# 1 0.045861 -0.002110 0.008926 0.000000 0.031203 0.000000
# 2 -0.002110 0.008098 -0.004401 0.000000 0.003198 0.000000
# 3 0.008926 -0.004401 0.026890 0.000000 0.025471 0.000000
# 4 0.000000 0.000000 0.000000 0.035390 0.000000 0.006510
# 5 0.031203 0.003198 0.025471 0.000000 0.090448 0.000000
# 6 0.000000 0.000000 0.000000 0.006510 0.000000 0.044044
#
#
# Mechanical properties :
#
#
# Convention : Reuss Voigt Hill
#
# Bulk Modulus (GPa) = 11.67133 41.45980 26.56557
# Shear Modulus (GPa) = 18.21757 27.51104 22.86430
#
# Velocity S-wave (km/s) = 3.01744 3.70806 3.38044
# Velocity P-wave (km/s) = 4.23948 6.24933 5.33982
#
# Compressibility (1/GPa) = 0.08568002
#
# Stress axis : x y z
#
# Youngs Moduli (GPa) = 21.80487 123.48303 37.18921
#
# Poissons Ratio (x) = 0.26051 -0.33194
# Poissons Ratio (y) = 0.04600 0.16365
# Poissons Ratio (z) = -0.19462 0.54340
#
# Static dielectric constant tensor:
#      x y z
#    x 3.403700 0.000000 -0.389380 
#    y 0.000000 3.907890 0.000000 
#    z -0.389380 0.000000 3.468080 
# 
# 
# High freq. dielectric constant tensor:
#      x y z
#    x 1.754470 0.000000 -0.026740 
#    y 0.000000 1.788990 0.000000 
#    z -0.026740 0.000000 1.754250 
# 
# From -- ./inp_files/131178.got.cif
#   From: 2010.06.25/outbox.cif.g09.slc.cpg/sg12_66_cif.got.tgz:131178.got - 2010.06.28 00:19:55.
