data_PCOD8096698
_publ_section_title
;
Structure prediction by ZEFSAII (Michael W. Deem and Ramdas Pophale) SiO2 
 PCOD8096698
Probable space group: C 2/M
;
_chemical_formula_sum "Si O2"
_cell_formula_units_Z 44
_cell_length_a 17.450761
_cell_length_b 22.531266
_cell_length_c 12.032380
_cell_angle_alpha 90.000000
_cell_angle_beta 149.618225
_cell_angle_gamma 90.000000
_cell_volume 2392.739696
_symmetry_space_group_name_H-M "C 2/M"
_symmetry_group_IT_number 12
_symmetry_cell_setting 'monoclinic'
loop_
_space_group_symop_operation_xyz
x,y,z
-x,y,-z
-x,-y,-z
x,-y,z
1/2+x,1/2+y,z
1/2-x,1/2+y,-z
1/2-x,1/2-y,-z
1/2+x,1/2-y,z
loop_
_atom_site_type_symbol
_atom_site_label
_atom_site_fract_x
_atom_site_fract_y
_atom_site_fract_z
Si Si1 0.879813 0.319423 0.754101
Si Si2 0.052515 0.229907 0.344104
Si Si3 0.531297 0.376794 0.912711
Si Si4 0.851314 0.395577 0.368835
Si Si5 0.500000 0.780863 0.500000
Si Si6 0.223168 0.432708 0.482063
O O1 0.942448 0.290916 0.718831
O O2 0.722202 0.288906 0.590534
O O3 0.853341 0.389660 0.703846
O O4 0.000000 0.308777 0.000000
O O5 0.968442 0.179888 0.167317
O O6 0.958511 0.240242 0.341128
O O7 0.403837 0.422997 0.714489
O O8 0.500000 0.354761 0.000000
O O9 0.692651 0.411263 0.109155
O O10 0.862920 0.323519 0.371273
O O11 0.851732 0.418265 0.494043
O O12 0.000000 0.426134 0.500000
O O13 0.190133 0.500000 0.404984
#
# Coordination Sequence:
#
# PCOD8096698 Si02
#       6
#     8   8   8   8   4   8
#     4  10  20  34  56  79 104 143 180 219 262 313
#     4  10  20  34  52  80 113 142 173 209 266 327
#     4   9  19  34  56  78 105 144 180 216 260 319
#     4   9  19  34  49  80 113 135 170 220 265 316
#     4  10  20  34  47  80 117 140 162 214 264 336
#     4  10  20  37  55  76 104 139 186 227 262 309
#
# _framework density 18.388963
#
# number of rings (size 3 to 8) (size 9 to 14) (size 15 to 20)
#    0.545    1.818    1.818    0.545    5.091    4.727 
#    3.273    0.000    0.000    0.000    0.000    2.545 
#    0.000    0.000    0.000    0.000    0.000    0.000 
#
# Total GULP energy -272653.154796 kJ/mol
# GULP energy per Si atom -12393.325218 kJ/mol
# Density = 1.834711 g / cm^3
# Si number density = 18.388963 Si / 1000 Ang^3
#
#
#
# Elastic Constant Matrix: (Units=GPa)
#
#
# Indices 1 2 3 4 5 6 
#
# 1 73.3130 33.3654 23.5969 0.0000 -2.6459 0.0000
# 2 33.3654 107.6380 23.8241 0.0000 -13.5584 0.0000
# 3 23.5969 23.8241 99.3863 0.0000 -1.5861 0.0000
# 4 0.0000 0.0000 0.0000 11.0945 0.0000 -1.3713
# 5 -2.6459 -13.5584 -1.5861 0.0000 30.3983 0.0000
# 6 0.0000 0.0000 0.0000 -1.3713 0.0000 19.7211
#
#
#
# Elastic Compliance Matrix: (Units=1/GPa)
#
#
# Indices 1 2 3 4 5 6 
#
# 1 0.016634 -0.004620 -0.002854 0.000000 -0.000762 0.000000
# 2 -0.004620 0.011677 -0.001627 0.000000 0.004721 0.000000
# 3 -0.002854 -0.001627 0.011123 0.000000 -0.000394 0.000000
# 4 0.000000 0.000000 0.000000 0.090916 0.000000 0.006322
# 5 -0.000762 0.004721 -0.000394 0.000000 0.034916 0.000000
# 6 0.000000 0.000000 0.000000 0.006322 0.000000 0.051147
#
#
# Mechanical properties :
#
#
# Convention : Reuss Voigt Hill
#
# Bulk Modulus (GPa) = 47.09872 49.10113 48.09992
# Shear Modulus (GPa) = 20.68742 25.54618 23.11680
#
# Velocity S-wave (km/s) = 3.35773 3.73126 3.54941
# Velocity P-wave (km/s) = 6.37970 6.73219 6.55831
#
# Compressibility (1/GPa) = 0.02123200
#
# Stress axis : x y z
#
# Youngs Moduli (GPa) = 60.11767 85.63520 89.90353
#
# Poissons Ratio (x) = 0.39568 0.25658
# Poissons Ratio (y) = 0.27777 0.14626
# Poissons Ratio (z) = 0.17157 0.13932
#
# Static dielectric constant tensor:
#      x y z
#    x 3.238190 0.000000 0.079290 
#    y 0.000000 3.182300 0.000000 
#    z 0.079290 0.000000 3.293500 
# 
# 
# High freq. dielectric constant tensor:
#      x y z
#    x 1.698420 0.000000 0.004300 
#    y 0.000000 1.695220 0.000000 
#    z 0.004300 0.000000 1.706880 
# 
# From -- ./inp_files/160377.got.cif
#   From: 2010.06.25/outbox.cif.g09.slc.cpg/sg12_81_cif.got.tgz:160377.got - 2010.06.28 00:19:55.
