data_PCOD8096013
_publ_section_title
;
Structure prediction by ZEFSAII (Michael W. Deem and Ramdas Pophale) SiO2 
 PCOD8096013
Probable space group: C 2/M
;
_chemical_formula_sum "Si O2"
_cell_formula_units_Z 56
_cell_length_a 18.760465
_cell_length_b 8.902068
_cell_length_c 22.861164
_cell_angle_alpha 90.000000
_cell_angle_beta 52.639512
_cell_angle_gamma 90.000000
_cell_volume 3034.651976
_symmetry_space_group_name_H-M "C 2/M"
_symmetry_group_IT_number 12
_symmetry_cell_setting 'monoclinic'
loop_
_space_group_symop_operation_xyz
x,y,z
-x,y,-z
-x,-y,-z
x,-y,z
1/2+x,1/2+y,z
1/2-x,1/2+y,-z
1/2-x,1/2-y,-z
1/2+x,1/2-y,z
loop_
_atom_site_type_symbol
_atom_site_label
_atom_site_fract_x
_atom_site_fract_y
_atom_site_fract_z
Si Si1 0.902040 0.327814 0.560216
Si Si2 0.249275 0.675491 0.562651
Si Si3 0.326179 0.669960 0.121143
Si Si4 0.273484 0.169100 0.719804
Si Si5 0.873884 0.672816 0.275089
Si Si6 0.488482 0.674053 0.129092
Si Si7 0.328382 0.823194 0.998599
O O1 0.900218 0.500000 0.539918
O O2 0.832949 0.236147 0.556559
O O3 0.874265 0.315532 0.643312
O O4 0.000000 0.258572 0.500000
O O5 0.261855 0.500000 0.548720
O O6 0.250000 0.750000 0.500000
O O7 0.155215 0.710732 0.643496
O O8 0.334551 0.500000 0.092654
O O9 0.235216 0.688506 0.205655
O O10 0.412742 0.707846 0.118034
O O11 0.317808 0.783316 0.071985
O O12 0.213850 0.296753 0.719953
O O13 0.236221 0.000000 0.723068
O O14 0.902242 0.500000 0.254282
O O15 0.954637 0.775562 0.210518
O O16 0.514043 0.500000 0.118168
O O17 0.575727 0.768461 0.071003
O O18 0.321880 0.000000 0.994176
O O19 0.250000 0.750000 0.000000
#
# Coordination Sequence:
#
# PCOD8096013 Si02
#       7
#     8   8   8   8   8   8   8
#     4   9  17  31  52  77 105 138 175 214 259 312
#     4  10  20  33  51  75 105 141 178 218 261 306
#     4   9  18  34  56  80 105 134 171 214 259 310
#     4   8  15  29  50  75 103 136 170 210 261 308
#     4   9  17  30  50  77 104 132 172 219 261 301
#     4  10  20  36  59  83 106 134 169 211 260 312
#     4  12  25  39  55  76 106 141 175 213 259 310
#
# _framework density 18.453516
#
# number of rings (size 3 to 8) (size 9 to 14) (size 15 to 20)
#    0.000    2.429    0.000    3.857    0.000    6.571 
#    0.000    1.429    0.000    6.857    0.000    0.000 
#    0.000    0.000    0.000    0.000    0.000    0.000 
#
# Total GULP energy -346983.244122 kJ/mol
# GULP energy per Si atom -12392.258719 kJ/mol
# Density = 1.841152 g / cm^3
# Si number density = 18.453516 Si / 1000 Ang^3
#
#
#
# Elastic Constant Matrix: (Units=GPa)
#
#
# Indices 1 2 3 4 5 6 
#
# 1 67.3685 43.4080 62.9281 0.0000 -4.8143 0.0000
# 2 43.4080 105.9182 68.0168 0.0000 3.5846 -0.0002
# 3 62.9281 68.0168 170.7530 0.0000 -9.0581 0.0000
# 4 0.0000 0.0000 0.0000 32.3806 0.0000 1.1614
# 5 -4.8143 3.5846 -9.0581 0.0000 24.2237 0.0000
# 6 0.0000 -0.0002 0.0000 1.1614 0.0000 25.7714
#
#
#
# Elastic Compliance Matrix: (Units=1/GPa)
#
#
# Indices 1 2 3 4 5 6 
#
# 1 0.025329 -0.006209 -0.006678 0.000000 0.003456 0.000000
# 2 -0.006209 0.014569 -0.003770 0.000000 -0.004800 0.000000
# 3 -0.006678 -0.003770 0.009976 0.000000 0.002961 0.000000
# 4 0.000000 0.000000 0.000000 0.030933 0.000000 -0.001394
# 5 0.003456 -0.004800 0.002961 0.000000 0.043786 0.000000
# 6 0.000000 0.000000 0.000000 -0.001394 0.000000 0.038865
#
#
# Mechanical properties :
#
#
# Convention : Reuss Voigt Hill
#
# Bulk Modulus (GPa) = 60.38354 76.97172 68.67763
# Shear Modulus (GPa) = 24.71659 27.78759 26.25209
#
# Velocity S-wave (km/s) = 3.66375 3.88469 3.77584
# Velocity P-wave (km/s) = 7.11972 7.86911 7.50377
#
# Compressibility (1/GPa) = 0.01656081
#
# Stress axis : x y z
#
# Youngs Moduli (GPa) = 39.47984 68.63829 100.23861
#
# Poissons Ratio (x) = 0.42619 0.66940
# Poissons Ratio (y) = 0.24514 0.37787
# Poissons Ratio (z) = 0.26365 0.25875
#
# Static dielectric constant tensor:
#      x y z
#    x 3.002940 0.000000 -0.093950 
#    y 0.000000 3.452010 0.000000 
#    z -0.093950 0.000000 3.874770 
# 
# 
# High freq. dielectric constant tensor:
#      x y z
#    x 1.663620 0.000000 -0.010150 
#    y 0.000000 1.721280 0.000000 
#    z -0.010150 0.000000 1.743640 
# 
# From -- ./inp_files/313777.got.cif
#   From: 2010.06.25/outbox.cif.g09.slc.cpg/sg12_157_cif.got.tgz:313777.got - 2010.06.28 00:19:55.
