data_PCOD8096886
_publ_section_title
;
Structure prediction by ZEFSAII (Michael W. Deem and Ramdas Pophale) SiO2 
 PCOD8096886
Probable space group: C 2/M
;
_chemical_formula_sum "Si O2"
_cell_formula_units_Z 64
_cell_length_a 14.462563
_cell_length_b 9.268918
_cell_length_c 27.058525
_cell_angle_alpha 90.000000
_cell_angle_beta 104.931342
_cell_angle_gamma 90.000000
_cell_volume 3504.784443
_symmetry_space_group_name_H-M "C 2/M"
_symmetry_group_IT_number 12
_symmetry_cell_setting 'monoclinic'
loop_
_space_group_symop_operation_xyz
x,y,z
-x,y,-z
-x,-y,-z
x,-y,z
1/2+x,1/2+y,z
1/2-x,1/2+y,-z
1/2-x,1/2-y,-z
1/2+x,1/2-y,z
loop_
_atom_site_type_symbol
_atom_site_label
_atom_site_fract_x
_atom_site_fract_y
_atom_site_fract_z
Si Si1 0.961874 0.165143 0.232125
Si Si2 0.721899 0.332547 0.425433
Si Si3 0.248460 0.829847 0.765469
Si Si4 0.463197 0.167069 0.941259
Si Si5 0.391615 0.669253 0.493388
Si Si6 0.702059 0.329852 0.132397
Si Si7 0.657112 0.667172 0.308005
Si Si8 0.914671 0.664856 0.134874
O O1 0.046052 0.200233 0.282015
O O2 0.862968 0.209545 0.244332
O O3 0.978223 0.249617 0.183340
O O4 0.960584 0.000000 0.216276
O O5 0.748196 0.500000 0.432241
O O6 0.643353 0.291595 0.456128
O O7 0.820727 0.246028 0.445087
O O8 0.675409 0.290461 0.367004
O O9 0.309226 0.750015 0.816507
O O10 0.277543 0.768700 0.716519
O O11 0.268670 0.000000 0.771275
O O12 0.374492 0.268684 0.916424
O O13 0.549246 0.198049 0.915114
O O14 0.430860 0.000000 0.935136
O O15 0.500000 0.211775 0.000000
O O16 0.500000 0.725676 0.500000
O O17 0.386383 0.500000 0.482025
O O18 0.687465 0.500000 0.138208
O O19 0.804006 0.290383 0.122527
O O20 0.682046 0.500000 0.300926
O O21 0.928334 0.500000 0.151288
#
# Coordination Sequence:
#
# PCOD8096886 Si02
#       8
#     8   8   8   8   8   8   8   8
#     4   9  19  34  52  74 100 132 168 204 246 299
#     4   9  19  34  51  75 106 136 168 209 256 302
#     4  10  20  34  53  77 102 132 171 209 248 298
#     4  10  21  36  53  75 103 133 166 207 255 303
#     4   9  18  34  56  77  99 133 175 215 253 296
#     4  10  20  35  54  75 101 133 169 209 252 300
#     4  10  20  34  51  74 107 140 167 204 254 301
#     4   9  19  35  53  73 100 133 167 205 249 297
#
# _framework density 18.260750000000002
#
# number of rings (size 3 to 8) (size 9 to 14) (size 15 to 20)
#    0.000    2.500    0.000    1.500    0.000    6.500 
#    0.000    2.500    0.000    0.000    0.000    0.000 
#    0.000    0.000    0.000    0.000    0.000    0.000 
#
# Total GULP energy -396889.781224 kJ/mol
# GULP energy per Si atom -12402.805663 kJ/mol
# Density = 1.821919 g / cm^3
# Si number density = 18.260750 Si / 1000 Ang^3
#
#
#
# Elastic Constant Matrix: (Units=GPa)
#
#
# Indices 1 2 3 4 5 6 
#
# 1 106.8680 49.1685 67.7017 0.0000 7.0693 0.0000
# 2 49.1685 69.5124 61.2072 0.0000 4.1102 0.0000
# 3 67.7017 61.2072 155.0257 0.0000 5.4854 0.0000
# 4 0.0000 0.0000 0.0000 31.7671 0.0000 3.8133
# 5 7.0693 4.1102 5.4854 0.0000 19.9408 0.0000
# 6 0.0000 0.0000 0.0000 3.8133 0.0000 18.8152
#
#
#
# Elastic Compliance Matrix: (Units=1/GPa)
#
#
# Indices 1 2 3 4 5 6 
#
# 1 0.015268 -0.007431 -0.003632 0.000000 -0.002882 0.000000
# 2 -0.007431 0.025763 -0.006899 0.000000 -0.000778 0.000000
# 3 -0.003632 -0.006899 0.010769 0.000000 -0.000253 0.000000
# 4 0.000000 0.000000 0.000000 0.032264 0.000000 -0.006539
# 5 -0.002882 -0.000778 -0.000253 0.000000 0.051400 0.000000
# 6 0.000000 0.000000 0.000000 -0.006539 0.000000 0.054474
#
#
# Mechanical properties :
#
#
# Convention : Reuss Voigt Hill
#
# Bulk Modulus (GPa) = 62.98650 76.39565 69.69108
# Shear Modulus (GPa) = 21.63070 24.32654 22.97862
#
# Velocity S-wave (km/s) = 3.44546 3.65386 3.55119
# Velocity P-wave (km/s) = 7.09901 7.72837 7.42037
#
# Compressibility (1/GPa) = 0.01587642
#
# Stress axis : x y z
#
# Youngs Moduli (GPa) = 65.49817 38.81561 92.85687
#
# Poissons Ratio (x) = 0.28845 0.33722
# Poissons Ratio (y) = 0.48673 0.64061
# Poissons Ratio (z) = 0.23786 0.26778
#
# Static dielectric constant tensor:
#      x y z
#    x 3.504970 0.000000 -0.006020 
#    y 0.000000 3.352970 0.000000 
#    z -0.006020 0.000000 3.362300 
# 
# 
# High freq. dielectric constant tensor:
#      x y z
#    x 1.713730 0.000000 0.000670 
#    y 0.000000 1.706770 0.000000 
#    z 0.000670 0.000000 1.703210 
# 
# From -- ./inp_files/359696.got.cif
#   From: 2010.06.25/outbox.cif.g09.slc.cpg/sg12_180_cif.got.tgz:359696.got - 2010.06.28 00:19:55.
