data_PCOD8096720
_publ_section_title
;
Structure prediction by ZEFSAII (Michael W. Deem and Ramdas Pophale) SiO2 
 PCOD8096720
Probable space group: C 2/M
;
_chemical_formula_sum "Si O2"
_cell_formula_units_Z 40
_cell_length_a 28.108793
_cell_length_b 13.171391
_cell_length_c 11.760703
_cell_angle_alpha 90.000000
_cell_angle_beta 30.226663
_cell_angle_gamma 90.000000
_cell_volume 2191.994142
_symmetry_space_group_name_H-M "C 2/M"
_symmetry_group_IT_number 12
_symmetry_cell_setting 'monoclinic'
loop_
_space_group_symop_operation_xyz
x,y,z
-x,y,-z
-x,-y,-z
x,-y,z
1/2+x,1/2+y,z
1/2-x,1/2+y,-z
1/2-x,1/2-y,-z
1/2+x,1/2-y,z
loop_
_atom_site_type_symbol
_atom_site_label
_atom_site_fract_x
_atom_site_fract_y
_atom_site_fract_z
Si Si1 0.842093 0.274534 0.043271
Si Si2 0.014236 0.381062 0.101405
Si Si3 0.988110 0.882677 0.658894
Si Si4 0.109677 0.617401 0.276774
Si Si5 0.135416 0.268336 0.442985
O O1 0.893600 0.320989 0.046569
O O2 0.843117 0.357411 0.940623
O O3 0.891937 0.171315 0.898025
O O4 0.733969 0.254890 0.301981
O O5 0.029590 0.500000 0.089518
O O6 0.922707 0.347000 0.360587
O O7 0.000000 0.353319 0.000000
O O8 0.076862 0.834659 0.542466
O O9 0.000000 0.868104 0.500000
O O10 0.981725 0.000000 0.706413
O O11 0.122235 0.500000 0.277618
O O12 0.160614 0.679595 0.270859
O O13 0.000000 0.650040 0.500000
#
# Coordination Sequence:
#
# PCOD8096720 Si02
#       5
#     8   8   8   8   8
#     4  11  21  36  56  83 114 145 185 226 277 333
#     4  10  22  41  62  82 107 143 189 239 283 325
#     4  10  20  34  49  75 116 151 180 215 263 325
#     4  11  19  32  56  85 117 149 180 224 278 335
#     4  11  21  36  56  83 114 145 185 226 277 333
#
# _framework density 18.248224
#
# number of rings (size 3 to 8) (size 9 to 14) (size 15 to 20)
#    0.000    1.400    6.000    1.800    0.000    4.000 
#    0.000    0.000    0.000    9.600    0.000    0.000 
#    0.000    0.000    0.000    0.000    0.000    0.000 
#
# Total GULP energy -248087.487195 kJ/mol
# GULP energy per Si atom -12404.374360 kJ/mol
# Density = 1.820669 g / cm^3
# Si number density = 18.248224 Si / 1000 Ang^3
#
#
#
# Elastic Constant Matrix: (Units=GPa)
#
#
# Indices 1 2 3 4 5 6 
#
# 1 105.6095 44.7131 38.6219 0.0000 -8.4311 0.0000
# 2 44.7131 100.8046 24.0650 0.0000 -9.6080 0.0000
# 3 38.6219 24.0650 58.9106 0.0000 -31.2965 0.0000
# 4 0.0000 0.0000 0.0000 10.1185 0.0000 3.9074
# 5 -8.4311 -9.6080 -31.2965 0.0000 35.0325 0.0000
# 6 0.0000 0.0000 0.0000 3.9074 0.0000 24.5626
#
#
#
# Elastic Compliance Matrix: (Units=1/GPa)
#
#
# Indices 1 2 3 4 5 6 
#
# 1 0.015533 -0.004612 -0.013295 0.000000 -0.009404 0.000000
# 2 -0.004612 0.012428 -0.001584 0.000000 0.000884 0.000000
# 3 -0.013295 -0.001584 0.046455 0.000000 0.037867 0.000000
# 4 0.000000 0.000000 0.000000 0.105298 0.000000 -0.016751
# 5 -0.009404 0.000884 0.037867 0.000000 0.060353 0.000000
# 6 0.000000 0.000000 0.000000 -0.016751 0.000000 0.043377
#
#
# Mechanical properties :
#
#
# Convention : Reuss Voigt Hill
#
# Bulk Modulus (GPa) = 28.22142 53.34718 40.78430
# Shear Modulus (GPa) = 14.95940 24.47102 19.71521
#
# Velocity S-wave (km/s) = 2.86627 3.66595 3.29050
# Velocity P-wave (km/s) = 5.14324 6.87143 6.06916
#
# Compressibility (1/GPa) = 0.03543408
#
# Stress axis : x y z
#
# Youngs Moduli (GPa) = 64.37913 80.46164 21.52607
#
# Poissons Ratio (x) = 0.37111 0.28620
# Poissons Ratio (y) = 0.29693 0.03409
# Poissons Ratio (z) = 0.85595 0.12742
#
# Static dielectric constant tensor:
#      x y z
#    x 3.356330 0.000000 -0.117050 
#    y 0.000000 3.410000 0.000000 
#    z -0.117050 0.000000 3.240240 
# 
# 
# High freq. dielectric constant tensor:
#      x y z
#    x 1.696970 0.000000 -0.010290 
#    y 0.000000 1.717070 0.000000 
#    z -0.010290 0.000000 1.691330 
# 
# From -- ./inp_files/141370.got.cif
#   From: 2010.06.25/outbox.cif.g09.slc.cpg/sg12_71_cif.got.tgz:141370.got - 2010.06.28 00:19:55.
