data_PCOD8096932
_publ_section_title
;
Structure prediction by ZEFSAII (Michael W. Deem and Ramdas Pophale) SiO2 
 PCOD8096932
Probable space group: C 2/M
;
_chemical_formula_sum "Si O2"
_cell_formula_units_Z 56
_cell_length_a 14.646867
_cell_length_b 9.492954
_cell_length_c 24.365744
_cell_angle_alpha 90.000000
_cell_angle_beta 115.540083
_cell_angle_gamma 90.000000
_cell_volume 3056.813853
_symmetry_space_group_name_H-M "C 2/M"
_symmetry_group_IT_number 12
_symmetry_cell_setting 'monoclinic'
loop_
_space_group_symop_operation_xyz
x,y,z
-x,y,-z
-x,-y,-z
x,-y,z
1/2+x,1/2+y,z
1/2-x,1/2+y,-z
1/2-x,1/2-y,-z
1/2+x,1/2-y,z
loop_
_atom_site_type_symbol
_atom_site_label
_atom_site_fract_x
_atom_site_fract_y
_atom_site_fract_z
Si Si1 0.388873 0.164711 0.491791
Si Si2 0.223276 0.653043 0.942993
Si Si3 0.930970 0.153853 0.936768
Si Si4 0.627052 0.832933 0.812943
Si Si5 0.698300 0.162446 0.413792
Si Si6 0.826449 0.831140 0.805351
Si Si7 0.593744 0.164973 0.273374
O O1 0.500000 0.215855 0.500000
O O2 0.372353 0.197976 0.552024
O O3 0.300921 0.246931 0.436630
O O4 0.376239 0.000000 0.475563
O O5 0.188717 0.500000 0.956878
O O6 0.319625 0.632841 0.930080
O O7 0.139337 0.719966 0.879882
O O8 0.250000 0.750000 0.000000
O O9 0.914306 0.221120 0.871789
O O10 0.983249 0.000000 0.942627
O O11 0.000000 0.239458 0.000000
O O12 0.716687 0.777944 0.797171
O O13 0.521470 0.780687 0.760799
O O14 0.632823 0.000000 0.816763
O O15 0.630681 0.198906 0.343883
O O16 0.731655 0.000000 0.423671
O O17 0.840036 0.754839 0.751322
O O18 0.831398 0.000000 0.799812
O O19 0.603364 0.000000 0.261694
#
# Coordination Sequence:
#
# PCOD8096932 Si02
#       7
#     8   8   8   8   8   8   8
#     4   9  18  34  57  82 107 135 170 210 244 283
#     4   9  17  29  46  67  90 119 156 200 252 305
#     4   8  15  28  45  65  90 119 154 201 256 305
#     4   8  17  34  50  67  97 134 166 202 255 313
#     4   9  19  34  51  77 108 138 170 204 250 300
#     4   9  18  33  52  72  94 128 175 215 249 301
#     4  10  20  34  52  72 103 141 168 202 257 309
#
# _framework density 18.319728999999999
#
# number of rings (size 3 to 8) (size 9 to 14) (size 15 to 20)
#    0.000    3.143    0.000    1.714    2.000    2.000 
#    0.000    6.429    0.000    0.857    0.000    0.000 
#    0.000    0.000    0.000    0.000    0.000    0.000 
#
# Total GULP energy -346870.792650 kJ/mol
# GULP energy per Si atom -12388.242595 kJ/mol
# Density = 1.827803 g / cm^3
# Si number density = 18.319729 Si / 1000 Ang^3
#
#
#
# Elastic Constant Matrix: (Units=GPa)
#
#
# Indices 1 2 3 4 5 6 
#
# 1 107.8430 35.2741 63.3696 0.0000 10.0561 0.0000
# 2 35.2741 42.9885 47.7160 0.0000 1.5290 0.0000
# 3 63.3696 47.7160 156.2475 0.0000 13.1702 0.0000
# 4 0.0000 0.0000 0.0000 22.4352 0.0000 0.6499
# 5 10.0561 1.5290 13.1702 0.0000 27.7479 0.0000
# 6 0.0000 0.0000 0.0000 0.6499 0.0000 22.3768
#
#
#
# Elastic Compliance Matrix: (Units=1/GPa)
#
#
# Indices 1 2 3 4 5 6 
#
# 1 0.013926 -0.008085 -0.002907 0.000000 -0.003222 0.000000
# 2 -0.008085 0.040176 -0.009428 0.000000 0.005191 0.000000
# 3 -0.002907 -0.009428 0.010756 0.000000 -0.003532 0.000000
# 4 0.000000 0.000000 0.000000 0.044610 0.000000 -0.001296
# 5 -0.003222 0.005191 -0.003532 0.000000 0.038597 0.000000
# 6 0.000000 0.000000 0.000000 -0.001296 0.000000 0.044727
#
#
# Mechanical properties :
#
#
# Convention : Reuss Voigt Hill
#
# Bulk Modulus (GPa) = 41.63601 66.64425 54.14013
# Shear Modulus (GPa) = 20.69202 25.22662 22.95932
#
# Velocity S-wave (km/s) = 3.36444 3.71485 3.54398
# Velocity P-wave (km/s) = 6.15381 7.40658 6.80907
#
# Compressibility (1/GPa) = 0.02401767
#
# Stress axis : x y z
#
# Youngs Moduli (GPa) = 71.80735 24.89023 92.97103
#
# Poissons Ratio (x) = 0.20125 0.27030
# Poissons Ratio (y) = 0.58060 0.87650
# Poissons Ratio (z) = 0.20877 0.23466
#
# Static dielectric constant tensor:
#      x y z
#    x 3.387810 0.000000 0.119770 
#    y 0.000000 2.993800 0.000000 
#    z 0.119770 0.000000 3.469730 
# 
# 
# High freq. dielectric constant tensor:
#      x y z
#    x 1.704080 0.000000 0.006130 
#    y 0.000000 1.673100 0.000000 
#    z 0.006130 0.000000 1.720760 
# 
# From -- ./inp_files/338205.got.cif
#   From: 2010.06.25/outbox.cif.g09.slc.cpg/sg12_170_cif.got.tgz:338205.got - 2010.06.28 00:19:55.
