data_PCOD8096660
_publ_section_title
;
Structure prediction by ZEFSAII (Michael W. Deem and Ramdas Pophale) SiO2 
 PCOD8096660
Probable space group: C 2/M
;
_chemical_formula_sum "Si O2"
_cell_formula_units_Z 64
_cell_length_a 18.586954
_cell_length_b 23.472510
_cell_length_c 7.965227
_cell_angle_alpha 90.000000
_cell_angle_beta 121.347710
_cell_angle_gamma 90.000000
_cell_volume 2967.816002
_symmetry_space_group_name_H-M "C 2/M"
_symmetry_group_IT_number 12
_symmetry_cell_setting 'monoclinic'
loop_
_space_group_symop_operation_xyz
x,y,z
-x,y,-z
-x,-y,-z
x,-y,z
1/2+x,1/2+y,z
1/2-x,1/2+y,-z
1/2-x,1/2-y,-z
1/2+x,1/2-y,z
loop_
_atom_site_type_symbol
_atom_site_label
_atom_site_fract_x
_atom_site_fract_y
_atom_site_fract_z
Si Si1 0.472385 0.360905 0.296775
Si Si2 0.088155 0.432821 0.425316
Si Si3 0.844801 0.140800 0.614345
Si Si4 0.688731 0.119440 0.244166
Si Si5 0.544529 0.759227 0.795522
Si Si6 0.623990 0.241497 0.244727
Si Si7 0.595307 0.117704 0.787643
Si Si8 0.094849 0.936616 0.045981
O O1 0.500000 0.392309 0.500000
O O2 0.555821 0.352414 0.288936
O O3 0.436478 0.297207 0.293503
O O4 0.404347 0.400940 0.125611
O O5 0.082631 0.500000 0.445136
O O6 0.144052 0.419573 0.330103
O O7 0.126656 0.405939 0.645299
O O8 0.994959 0.408889 0.276625
O O9 0.790550 0.115544 0.391797
O O10 0.815586 0.204867 0.632777
O O11 0.836976 0.093840 0.751588
O O12 0.674896 0.184683 0.273399
O O13 0.658967 0.102532 0.019841
O O14 0.444847 0.772254 0.693772
O O15 0.588591 0.813805 0.764766
O O16 0.579351 0.741746 0.018052
O O17 0.128843 0.000000 0.052490
O O18 0.000000 0.939408 0.000000
#
# Coordination Sequence:
#
# PCOD8096660 Si02
#       8
#     8   8   8   8   8   8   8   8
#     4  10  20  33  57  89 113 153 194 247 293 348
#     4  11  24  41  62  87 117 162 206 243 292 347
#     4  10  20  36  57  83 119 153 192 241 300 353
#     4  11  22  37  59  88 120 158 195 244 304 358
#     4   9  16  30  57  85 115 148 200 245 290 340
#     4   9  16  32  56  84 115 152 194 240 297 350
#     4  10  21  38  60  90 118 155 200 253 289 350
#     4   9  18  36  57  77 105 146 194 237 279 345
#
# _framework density 21.564681
#
# number of rings (size 3 to 8) (size 9 to 14) (size 15 to 20)
#    0.000    2.125    2.500    1.500    1.750    2.250 
#    2.250    0.000    0.000    3.750    0.000    0.000 
#    0.000    0.000    0.000    0.000    0.000    0.000 
#
# Total GULP energy -396461.233759 kJ/mol
# GULP energy per Si atom -12389.413555 kJ/mol
# Density = 2.151560 g / cm^3
# Si number density = 21.564681 Si / 1000 Ang^3
#
#
#
# Elastic Constant Matrix: (Units=GPa)
#
#
# Indices 1 2 3 4 5 6 
#
# 1 6.9698 8.7593 5.7529 0.0000 -4.4549 0.0000
# 2 8.7593 138.4975 54.4174 0.0000 -10.7776 0.0000
# 3 5.7529 54.4174 155.2230 0.0000 -9.2524 0.0000
# 4 0.0000 0.0000 0.0000 26.6025 0.0000 -6.6615
# 5 -4.4549 -10.7776 -9.2524 0.0000 26.8446 0.0000
# 6 0.0000 0.0000 0.0000 -6.6615 0.0000 8.8831
#
#
#
# Elastic Compliance Matrix: (Units=1/GPa)
#
#
# Indices 1 2 3 4 5 6 
#
# 1 0.170956 -0.008112 -0.002037 0.000000 0.024411 0.000000
# 2 -0.008112 0.008913 -0.002747 0.000000 0.001285 0.000000
# 3 -0.002037 -0.002747 0.007550 0.000000 0.001161 0.000000
# 4 0.000000 0.000000 0.000000 0.046281 0.000000 0.034707
# 5 0.024411 0.001285 0.001161 0.000000 0.042219 0.000000
# 6 0.000000 0.000000 0.000000 0.034707 0.000000 0.138601
#
#
# Mechanical properties :
#
#
# Convention : Reuss Voigt Hill
#
# Bulk Modulus (GPa) = 6.18712 48.72772 27.45742
# Shear Modulus (GPa) = 10.11761 27.91674 19.01717
#
# Velocity S-wave (km/s) = 2.16839 3.60190 2.97285
# Velocity P-wave (km/s) = 3.02400 6.32008 4.95419
#
# Compressibility (1/GPa) = 0.16162604
#
# Stress axis : x y z
#
# Youngs Moduli (GPa) = 5.84946 112.19702 132.44636
#
# Poissons Ratio (x) = 0.91016 0.26979
# Poissons Ratio (y) = 0.04745 0.36388
# Poissons Ratio (z) = 0.01192 0.30825
#
# Static dielectric constant tensor:
#      x y z
#    x 3.345460 0.000000 -0.052680 
#    y 0.000000 4.030400 0.000000 
#    z -0.052680 0.000000 4.109420 
# 
# 
# High freq. dielectric constant tensor:
#      x y z
#    x 1.791200 0.000000 -0.004540 
#    y 0.000000 1.852360 0.000000 
#    z -0.004540 0.000000 1.859400 
# 
# From -- ./inp_files/90679.got.cif
#   From: 2010.06.25/outbox.cif.g09.slc.cpg/sg12_46_cif.got.tgz:90679.got - 2010.06.28 00:19:55.
