data_PCOD8096406
_publ_section_title
;
Structure prediction by ZEFSAII (Michael W. Deem and Ramdas Pophale) SiO2 
 PCOD8096406
Probable space group: C 2/M
;
_chemical_formula_sum "Si O2"
_cell_formula_units_Z 56
_cell_length_a 19.358648
_cell_length_b 9.264363
_cell_length_c 20.268866
_cell_angle_alpha 90.000000
_cell_angle_beta 123.649040
_cell_angle_gamma 90.000000
_cell_volume 3026.054726
_symmetry_space_group_name_H-M "C 2/M"
_symmetry_group_IT_number 12
_symmetry_cell_setting 'monoclinic'
loop_
_space_group_symop_operation_xyz
x,y,z
-x,y,-z
-x,-y,-z
x,-y,z
1/2+x,1/2+y,z
1/2-x,1/2+y,-z
1/2-x,1/2-y,-z
1/2+x,1/2-y,z
loop_
_atom_site_type_symbol
_atom_site_label
_atom_site_fract_x
_atom_site_fract_y
_atom_site_fract_z
Si Si1 0.037085 0.333270 0.312406
Si Si2 0.666612 0.335083 0.467824
Si Si3 0.183070 0.830382 0.147346
Si Si4 0.589244 0.664084 0.566130
Si Si5 0.934594 0.840967 0.024008
Si Si6 0.635621 0.167071 0.717794
Si Si7 0.054765 0.668879 0.169343
O O1 0.055982 0.500000 0.339004
O O2 0.091096 0.233777 0.388132
O O3 0.059311 0.298161 0.249079
O O4 0.940691 0.295763 0.274375
O O5 0.676893 0.500000 0.450024
O O6 0.750000 0.250000 0.500000
O O7 0.650252 0.326605 0.536747
O O8 0.279579 0.787402 0.200803
O O9 0.133366 0.744428 0.177306
O O10 0.168051 0.000000 0.152574
O O11 0.151088 0.789588 0.056489
O O12 0.500000 0.732212 0.500000
O O13 0.575786 0.500000 0.582768
O O14 0.631110 0.750129 0.646898
O O15 0.966635 0.729296 0.095827
O O16 0.924249 0.000000 0.050868
O O17 0.000000 0.849202 0.000000
O O18 0.636844 0.000000 0.700006
O O19 0.057721 0.500000 0.155425
#
# Coordination Sequence:
#
# PCOD8096406 Si02
#       7
#     8   8   8   8   8   8   8
#     4  10  22  39  55  78 112 146 179 220 271 319
#     4  11  24  40  59  81 110 143 178 224 270 321
#     4   9  19  35  55  81 107 137 180 224 264 314
#     4  10  21  39  58  79 108 141 177 221 272 315
#     4   8  15  31  53  76 106 140 176 218 263 316
#     4  10  21  37  58  80 106 143 185 222 260 319
#     4  10  20  33  53  80 110 141 175 221 271 317
#
# _framework density 18.505945000000001
#
# number of rings (size 3 to 8) (size 9 to 14) (size 15 to 20)
#    0.000    2.286    1.429    1.714    2.000    5.714 
#    0.000    0.714    0.000    0.000    0.000    0.000 
#    0.000    0.000    0.000    0.000    0.000    0.000 
#
# Total GULP energy -347191.758167 kJ/mol
# GULP energy per Si atom -12399.705649 kJ/mol
# Density = 1.846382 g / cm^3
# Si number density = 18.505945 Si / 1000 Ang^3
#
#
#
# Elastic Constant Matrix: (Units=GPa)
#
#
# Indices 1 2 3 4 5 6 
#
# 1 79.4649 38.8082 27.8443 0.0000 18.4308 0.0000
# 2 38.8082 78.8890 40.0085 0.0000 6.9526 0.0000
# 3 27.8443 40.0085 78.6138 0.0000 25.6868 0.0000
# 4 0.0000 0.0000 0.0000 33.9959 0.0000 1.0065
# 5 18.4308 6.9526 25.6868 0.0000 33.9690 0.0000
# 6 0.0000 0.0000 0.0000 1.0065 0.0000 23.1033
#
#
#
# Elastic Compliance Matrix: (Units=1/GPa)
#
#
# Indices 1 2 3 4 5 6 
#
# 1 0.018676 -0.008795 0.000775 0.000000 -0.008920 0.000000
# 2 -0.008795 0.021666 -0.010654 0.000000 0.008394 0.000000
# 3 0.000775 -0.010654 0.022968 0.000000 -0.015608 0.000000
# 4 0.000000 0.000000 0.000000 0.029453 0.000000 -0.001283
# 5 -0.008920 0.008394 -0.015608 0.000000 0.044362 0.000000
# 6 0.000000 0.000000 0.000000 -0.001283 0.000000 0.043340
#
#
# Mechanical properties :
#
#
# Convention : Reuss Voigt Hill
#
# Bulk Modulus (GPa) = 38.51596 50.03218 44.27407
# Shear Modulus (GPa) = 22.07839 26.90078 24.48958
#
# Velocity S-wave (km/s) = 3.45779 3.81679 3.64172
# Velocity P-wave (km/s) = 6.06628 6.82043 6.45438
#
# Compressibility (1/GPa) = 0.02596327
#
# Stress axis : x y z
#
# Youngs Moduli (GPa) = 53.54381 46.15581 43.53961
#
# Poissons Ratio (x) = 0.40592 -0.03375
# Poissons Ratio (y) = 0.47090 0.46386
# Poissons Ratio (z) = -0.04151 0.49174
#
# Static dielectric constant tensor:
#      x y z
#    x 3.351750 0.000000 0.263970 
#    y 0.000000 3.473320 0.000000 
#    z 0.263970 0.000000 3.794430 
# 
# 
# High freq. dielectric constant tensor:
#      x y z
#    x 1.704210 0.000000 0.011030 
#    y 0.000000 1.718420 0.000000 
#    z 0.011030 0.000000 1.725570 
# 
# From -- ./inp_files/320245.got.cif
#   From: 2010.06.25/outbox.cif.g09.slc.cpg/sg12_161_cif.got.tgz:320245.got - 2010.06.28 00:19:55.
