data_PCOD8096593
_publ_section_title
;
Structure prediction by ZEFSAII (Michael W. Deem and Ramdas Pophale) SiO2 
 PCOD8096593
Probable space group: C 2/M
;
_chemical_formula_sum "Si O2"
_cell_formula_units_Z 56
_cell_length_a 12.602093
_cell_length_b 21.886651
_cell_length_c 11.639643
_cell_angle_alpha 90.000000
_cell_angle_beta 60.729432
_cell_angle_gamma 90.000000
_cell_volume 2800.514044
_symmetry_space_group_name_H-M "C 2/M"
_symmetry_group_IT_number 12
_symmetry_cell_setting 'monoclinic'
loop_
_space_group_symop_operation_xyz
x,y,z
-x,y,-z
-x,-y,-z
x,-y,z
1/2+x,1/2+y,z
1/2-x,1/2+y,-z
1/2-x,1/2-y,-z
1/2+x,1/2-y,z
loop_
_atom_site_type_symbol
_atom_site_label
_atom_site_fract_x
_atom_site_fract_y
_atom_site_fract_z
Si Si1 0.851387 0.250588 0.781232
Si Si2 0.785468 0.428621 0.400656
Si Si3 0.593855 0.570074 0.690335
Si Si4 0.027592 0.373148 0.351358
Si Si5 0.901969 0.128528 0.650281
Si Si6 0.227015 0.069403 0.854123
Si Si7 0.627710 0.314319 0.991120
O O1 0.944645 0.303714 0.698249
O O2 0.858930 0.198547 0.680518
O O3 0.714740 0.276069 0.859284
O O4 0.888392 0.220725 0.882014
O O5 0.813448 0.500000 0.390770
O O6 0.704133 0.406480 0.551702
O O7 0.716035 0.412119 0.318578
O O8 0.912074 0.392864 0.337510
O O9 0.567748 0.500000 0.673874
O O10 0.468269 0.606886 0.733112
O O11 0.630515 0.579658 0.802460
O O12 0.137499 0.418716 0.263068
O O13 0.000000 0.379109 0.500000
O O14 0.000000 0.119181 0.500000
O O15 0.188887 0.117888 0.973274
O O16 0.218624 0.000000 0.905769
O O17 0.500000 0.320206 0.000000
#
# Coordination Sequence:
#
# PCOD8096593 Si02
#       7
#     8   8   8   8   8   8   8
#     4  10  23  39  56  82 112 151 199 237 288 338
#     4  10  20  33  55  86 120 158 185 224 289 351
#     4   9  17  32  54  83 119 151 181 227 282 341
#     4  11  21  36  58  90 121 153 187 231 291 357
#     4  10  20  36  55  85 118 152 190 233 284 353
#     4  10  20  35  59  88 116 147 189 240 291 342
#     4  10  22  40  59  78 107 151 196 245 289 328
#
# _framework density 19.996328999999999
#
# number of rings (size 3 to 8) (size 9 to 14) (size 15 to 20)
#    0.000    2.000    1.429    2.143    2.000    2.571 
#    0.000    3.571    0.000    0.000    0.000    4.000 
#    0.000    0.000    0.000    0.000    0.000    0.000 
#
# Total GULP energy -347201.597644 kJ/mol
# GULP energy per Si atom -12400.057059 kJ/mol
# Density = 1.995082 g / cm^3
# Si number density = 19.996329 Si / 1000 Ang^3
#
#
#
# Elastic Constant Matrix: (Units=GPa)
#
#
# Indices 1 2 3 4 5 6 
#
# 1 102.6961 33.9353 26.5850 0.0000 -20.8592 0.0000
# 2 33.9353 98.1264 15.0173 0.0000 -13.3093 0.0000
# 3 26.5850 15.0173 26.1060 0.0000 -13.3646 0.0000
# 4 0.0000 0.0000 0.0000 22.6708 0.0000 8.2093
# 5 -20.8592 -13.3093 -13.3646 0.0000 16.6717 0.0000
# 6 0.0000 0.0000 0.0000 8.2093 0.0000 24.5213
#
#
#
# Elastic Compliance Matrix: (Units=1/GPa)
#
#
# Indices 1 2 3 4 5 6 
#
# 1 0.014740 -0.002477 -0.008746 0.000000 0.009454 0.000000
# 2 -0.002477 0.012007 -0.001805 0.000000 0.005040 0.000000
# 3 -0.008746 -0.001805 0.071081 0.000000 0.044597 0.000000
# 4 0.000000 0.000000 0.000000 0.050195 0.000000 -0.016804
# 5 0.009454 0.005040 0.044597 0.000000 0.111585 0.000000
# 6 0.000000 0.000000 0.000000 -0.016804 0.000000 0.046407
#
#
# Mechanical properties :
#
#
# Convention : Reuss Voigt Hill
#
# Bulk Modulus (GPa) = 13.93272 42.00042 27.96657
# Shear Modulus (GPa) = 14.04516 22.86548 18.45532
#
# Velocity S-wave (km/s) = 2.65313 3.38521 3.04128
# Velocity P-wave (km/s) = 4.04577 6.02737 5.13310
#
# Compressibility (1/GPa) = 0.07177350
#
# Stress axis : x y z
#
# Youngs Moduli (GPa) = 67.84098 83.28268 14.06845
#
# Poissons Ratio (x) = 0.20628 0.12304
# Poissons Ratio (y) = 0.16803 0.02539
# Poissons Ratio (z) = 0.59334 0.15030
#
# Static dielectric constant tensor:
#      x y z
#    x 3.661700 0.000000 -0.121800 
#    y 0.000000 3.761690 0.000000 
#    z -0.121800 0.000000 3.531310 
# 
# 
# High freq. dielectric constant tensor:
#      x y z
#    x 1.778340 0.000000 -0.013450 
#    y 0.000000 1.790910 0.000000 
#    z -0.013450 0.000000 1.766270 
# 
# From -- ./inp_files/135274.got.cif
#   From: 2010.06.25/outbox.cif.g09.slc.cpg/sg12_68_cif.got.tgz:135274.got - 2010.06.28 00:19:55.
