data_PCOD8096127
_publ_section_title
;
Structure prediction by ZEFSAII (Michael W. Deem and Ramdas Pophale) SiO2 
 PCOD8096127
Probable space group: C 2/M
;
_chemical_formula_sum "Si O2"
_cell_formula_units_Z 64
_cell_length_a 25.627337
_cell_length_b 9.577333
_cell_length_c 14.995175
_cell_angle_alpha 90.000000
_cell_angle_beta 68.667277
_cell_angle_gamma 90.000000
_cell_volume 3428.268481
_symmetry_space_group_name_H-M "C 2/M"
_symmetry_group_IT_number 12
_symmetry_cell_setting 'monoclinic'
loop_
_space_group_symop_operation_xyz
x,y,z
-x,y,-z
-x,-y,-z
x,-y,z
1/2+x,1/2+y,z
1/2-x,1/2+y,-z
1/2-x,1/2-y,-z
1/2+x,1/2-y,z
loop_
_atom_site_type_symbol
_atom_site_label
_atom_site_fract_x
_atom_site_fract_y
_atom_site_fract_z
Si Si1 0.101315 0.835692 0.727705
Si Si2 0.196044 0.159618 0.013949
Si Si3 0.389448 0.337769 0.778829
Si Si4 0.499563 0.156997 0.260095
Si Si5 0.858416 0.843829 0.489717
Si Si6 0.690549 0.661097 0.815203
Si Si7 0.550544 0.152232 0.519285
Si Si8 0.295311 0.341994 0.695751
O O1 0.139773 0.799967 0.615505
O O2 0.138648 0.787109 0.787857
O O3 0.042579 0.751529 0.773739
O O4 0.086870 0.000000 0.739572
O O5 0.173802 0.187178 0.927924
O O6 0.214464 0.000000 0.015564
O O7 0.250000 0.250000 0.000000
O O8 0.146409 0.199072 0.111361
O O9 0.408632 0.500000 0.766961
O O10 0.443395 0.237784 0.751577
O O11 0.352534 0.303725 0.713814
O O12 0.463362 0.135357 0.369747
O O13 0.511340 0.000000 0.212560
O O14 0.896458 0.747366 0.527495
O O15 0.801011 0.830889 0.582968
O O16 0.882016 0.000000 0.481655
O O17 0.703126 0.500000 0.786821
O O18 0.746637 0.741756 0.756768
O O19 0.500000 0.228059 0.500000
O O20 0.562268 0.000000 0.468529
O O21 0.278655 0.500000 0.732087
#
# Coordination Sequence:
#
# PCOD8096127 Si02
#       8
#     8   8   8   8   8   8   8   8
#     4   9  19  37  55  73 104 144 181 216 255 304
#     4  10  20  36  57  81 106 134 171 213 263 317
#     4  10  20  34  53  78 108 137 167 211 267 319
#     4  10  20  33  52  78 104 136 177 217 259 309
#     4   9  18  31  48  71 101 138 177 212 250 303
#     4  10  21  36  56  79 103 137 179 218 260 312
#     4   9  17  29  45  68 100 134 170 214 261 304
#     4  10  20  33  51  79 110 139 174 216 264 313
#
# _framework density 18.668316999999998
#
# number of rings (size 3 to 8) (size 9 to 14) (size 15 to 20)
#    0.000    2.375    1.250    1.125    0.000    3.250 
#    0.000    0.625    0.000    3.750    0.000    0.000 
#    0.000    0.000    0.000    0.000    0.000    0.000 
#
# Total GULP energy -396454.076243 kJ/mol
# GULP energy per Si atom -12389.189883 kJ/mol
# Density = 1.862583 g / cm^3
# Si number density = 18.668317 Si / 1000 Ang^3
#
#
#
# Elastic Constant Matrix: (Units=GPa)
#
#
# Indices 1 2 3 4 5 6 
#
# 1 94.6782 44.4749 19.9679 0.0000 10.5959 0.0000
# 2 44.4749 70.0222 20.8682 0.0000 -1.5751 0.0000
# 3 19.9679 20.8682 59.6046 0.0000 9.3276 0.0000
# 4 0.0000 0.0000 0.0000 18.8388 0.0000 -1.7706
# 5 10.5959 -1.5751 9.3276 0.0000 26.3635 0.0000
# 6 0.0000 0.0000 0.0000 -1.7706 0.0000 29.3767
#
#
#
# Elastic Compliance Matrix: (Units=1/GPa)
#
#
# Indices 1 2 3 4 5 6 
#
# 1 0.016338 -0.010298 -0.000788 0.000000 -0.006903 0.000000
# 2 -0.010298 0.022678 -0.005663 0.000000 0.007498 0.000000
# 3 -0.000788 -0.005663 0.020143 0.000000 -0.007148 0.000000
# 4 0.000000 0.000000 0.000000 0.053384 0.000000 0.003218
# 5 -0.006903 0.007498 -0.007148 0.000000 0.043683 0.000000
# 6 0.000000 0.000000 0.000000 0.003218 0.000000 0.034234
#
#
# Mechanical properties :
#
#
# Convention : Reuss Voigt Hill
#
# Bulk Modulus (GPa) = 38.96927 43.88079 41.42503
# Shear Modulus (GPa) = 21.50422 24.18205 22.84313
#
# Velocity S-wave (km/s) = 3.39766 3.60301 3.50184
# Velocity P-wave (km/s) = 6.02594 6.39260 6.21198
#
# Compressibility (1/GPa) = 0.02566125
#
# Stress axis : x y z
#
# Youngs Moduli (GPa) = 61.20648 44.09493 49.64595
#
# Poissons Ratio (x) = 0.45408 0.03911
# Poissons Ratio (y) = 0.63029 0.28117
# Poissons Ratio (z) = 0.04822 0.24973
#
# Static dielectric constant tensor:
#      x y z
#    x 3.294840 0.000000 0.171470 
#    y 0.000000 3.746200 0.000000 
#    z 0.171470 0.000000 3.623540 
# 
# 
# High freq. dielectric constant tensor:
#      x y z
#    x 1.707800 0.000000 0.006330 
#    y 0.000000 1.727960 0.000000 
#    z 0.006330 0.000000 1.719680 
# 
# From -- ./inp_files/243742.got.cif
#   From: 2010.06.25/outbox.cif.g09.slc.cpg/sg12_122_cif.got.tgz:243742.got - 2010.06.28 00:19:55.
