data_PCOD8096447
_publ_section_title
;
Structure prediction by ZEFSAII (Michael W. Deem and Ramdas Pophale) SiO2 
 PCOD8096447
Probable space group: C 2/M
;
_chemical_formula_sum "Si O2"
_cell_formula_units_Z 64
_cell_length_a 15.226513
_cell_length_b 9.227209
_cell_length_c 28.300724
_cell_angle_alpha 90.000000
_cell_angle_beta 123.151271
_cell_angle_gamma 90.000000
_cell_volume 3328.993821
_symmetry_space_group_name_H-M "C 2/M"
_symmetry_group_IT_number 12
_symmetry_cell_setting 'monoclinic'
loop_
_space_group_symop_operation_xyz
x,y,z
-x,y,-z
-x,-y,-z
x,-y,z
1/2+x,1/2+y,z
1/2-x,1/2+y,-z
1/2-x,1/2-y,-z
1/2+x,1/2-y,z
loop_
_atom_site_type_symbol
_atom_site_label
_atom_site_fract_x
_atom_site_fract_y
_atom_site_fract_z
Si Si1 0.833573 0.832146 0.055865
Si Si2 0.962400 0.834329 0.439235
Si Si3 0.307582 0.165085 0.332749
Si Si4 0.111535 0.327542 0.744706
Si Si5 0.670412 0.663786 0.444399
Si Si6 0.603049 0.666620 0.323385
Si Si7 0.757293 0.829196 0.136893
Si Si8 0.042069 0.166844 0.064778
O O1 0.816229 0.793060 0.105359
O O2 0.951648 0.789587 0.075563
O O3 0.814158 0.000000 0.040004
O O4 0.750000 0.750000 0.000000
O O5 0.861382 0.752140 0.390728
O O6 0.000000 0.765996 0.500000
O O7 0.052758 0.816841 0.427594
O O8 0.929113 0.000000 0.437724
O O9 0.339871 0.223719 0.290903
O O10 0.182140 0.180221 0.302339
O O11 0.344364 0.000000 0.348787
O O12 0.114387 0.500000 0.751585
O O13 0.180523 0.254034 0.804779
O O14 0.993067 0.272463 0.714487
O O15 0.709440 0.500000 0.459267
O O16 0.750000 0.750000 0.500000
O O17 0.667004 0.715912 0.389098
O O18 0.563701 0.500000 0.317667
O O19 0.638738 0.772802 0.101761
O O20 0.756669 0.000000 0.147001
O O21 0.077376 0.000000 0.082204
O O22 0.000000 0.192511 0.000000
#
# Coordination Sequence:
#
# PCOD8096447 Si02
#       8
#     8   8   8   8   8   8   8   8
#     4  10  21  37  60  90 123 159 197 240 293 346
#     4  10  20  34  54  84 119 151 188 238 295 352
#     4  10  22  39  61  86 113 151 197 245 296 349
#     4  11  24  42  62  86 117 156 202 248 294 349
#     4  10  20  33  53  82 115 151 187 234 291 351
#     4  10  21  40  62  84 114 153 196 244 298 351
#     4  11  24  40  61  90 123 160 200 244 292 348
#     4  10  20  37  62  90 123 161 197 241 294 345
#
# _framework density 19.225027999999998
#
# number of rings (size 3 to 8) (size 9 to 14) (size 15 to 20)
#    0.000    1.750    2.500    1.500    0.000    4.500 
#    0.000    5.000    0.000    0.000    0.000    0.000 
#    0.000    0.000    0.000    0.000    0.000    0.000 
#
# Total GULP energy -396876.343983 kJ/mol
# GULP energy per Si atom -12402.385749 kJ/mol
# Density = 1.918127 g / cm^3
# Si number density = 19.225028 Si / 1000 Ang^3
#
#
#
# Elastic Constant Matrix: (Units=GPa)
#
#
# Indices 1 2 3 4 5 6 
#
# 1 126.2316 46.8846 62.1831 0.0000 -2.4159 0.0000
# 2 46.8846 79.2472 64.8972 0.0000 3.7316 0.0000
# 3 62.1831 64.8972 122.4423 0.0000 1.1211 0.0000
# 4 0.0000 0.0000 0.0000 38.5644 0.0000 4.0782
# 5 -2.4159 3.7316 1.1211 0.0000 26.8712 0.0000
# 6 0.0000 0.0000 0.0000 4.0782 0.0000 29.0570
#
#
#
# Elastic Compliance Matrix: (Units=1/GPa)
#
#
# Indices 1 2 3 4 5 6 
#
# 1 0.011143 -0.003576 -0.003779 0.000000 0.001656 0.000000
# 2 -0.003576 0.023628 -0.010678 0.000000 -0.003157 0.000000
# 3 -0.003779 -0.010678 0.015742 0.000000 0.000486 0.000000
# 4 0.000000 0.000000 0.000000 0.026321 0.000000 -0.003694
# 5 0.001656 -0.003157 0.000486 0.000000 0.037782 0.000000
# 6 0.000000 0.000000 0.000000 -0.003694 0.000000 0.034934
#
#
# Mechanical properties :
#
#
# Convention : Reuss Voigt Hill
#
# Bulk Modulus (GPa) = 69.22252 75.09457 72.15855
# Shear Modulus (GPa) = 26.25621 29.16226 27.70923
#
# Velocity S-wave (km/s) = 3.69959 3.89895 3.80058
# Velocity P-wave (km/s) = 7.37115 7.70810 7.54151
#
# Compressibility (1/GPa) = 0.01444617
#
# Stress axis : x y z
#
# Youngs Moduli (GPa) = 89.73889 42.32327 63.52593
#
# Poissons Ratio (x) = 0.15135 0.24007
# Poissons Ratio (y) = 0.32090 0.67834
# Poissons Ratio (z) = 0.33913 0.45194
#
# Static dielectric constant tensor:
#      x y z
#    x 3.700760 0.000000 -0.159540 
#    y 0.000000 3.505240 0.000000 
#    z -0.159540 0.000000 3.419080 
# 
# 
# High freq. dielectric constant tensor:
#      x y z
#    x 1.763490 0.000000 -0.005070 
#    y 0.000000 1.743950 0.000000 
#    z -0.005070 0.000000 1.744480 
# 
# From -- ./inp_files/375525.got.cif
#   From: 2010.06.25/outbox.cif.g09.slc.cpg/sg12_188_cif.got.tgz:375525.got - 2010.06.28 00:19:55.
