data_PCOD8096213
_publ_section_title
;
Structure prediction by ZEFSAII (Michael W. Deem and Ramdas Pophale) SiO2 
 PCOD8096213
Probable space group: C 2/M
;
_chemical_formula_sum "Si O2"
_cell_formula_units_Z 64
_cell_length_a 14.051076
_cell_length_b 9.213470
_cell_length_c 28.912503
_cell_angle_alpha 90.000000
_cell_angle_beta 106.499435
_cell_angle_gamma 90.000000
_cell_volume 3588.861781
_symmetry_space_group_name_H-M "C 2/M"
_symmetry_group_IT_number 12
_symmetry_cell_setting 'monoclinic'
loop_
_space_group_symop_operation_xyz
x,y,z
-x,y,-z
-x,-y,-z
x,-y,z
1/2+x,1/2+y,z
1/2-x,1/2+y,-z
1/2-x,1/2-y,-z
1/2+x,1/2-y,z
loop_
_atom_site_type_symbol
_atom_site_label
_atom_site_fract_x
_atom_site_fract_y
_atom_site_fract_z
Si Si1 0.546566 0.669201 0.078497
Si Si2 0.219545 0.168118 0.739952
Si Si3 0.799740 0.668152 0.575222
Si Si4 0.603499 0.666995 0.492005
Si Si5 0.916084 0.668387 0.822974
Si Si6 0.682051 0.330838 0.326433
Si Si7 0.848491 0.831640 0.000559
Si Si8 0.514382 0.667851 0.756827
O O1 0.559994 0.500000 0.092030
O O2 0.579483 0.764297 0.125986
O O3 0.615676 0.715966 0.045265
O O4 0.432758 0.703617 0.049970
O O5 0.305921 0.196779 0.788811
O O6 0.236489 0.262964 0.696581
O O7 0.116923 0.219942 0.748385
O O8 0.215119 0.000000 0.724463
O O9 0.824754 0.500000 0.586599
O O10 0.688277 0.691010 0.541801
O O11 0.878257 0.732366 0.549707
O O12 0.810399 0.753550 0.623848
O O13 0.500000 0.715367 0.500000
O O14 0.600501 0.500000 0.475032
O O15 0.941907 0.500000 0.829473
O O16 0.997370 0.741587 0.801019
O O17 0.705179 0.500000 0.335462
O O18 0.572182 0.302401 0.291898
O O19 0.824205 0.000000 0.997205
O O20 0.750000 0.750000 0.000000
O O21 0.519072 0.500000 0.771844
#
# Coordination Sequence:
#
# PCOD8096213 Si02
#       8
#     8   8   8   8   8   8   8   8
#     4   9  19  36  53  71 102 139 168 198 248 309
#     4   9  19  36  54  73 100 132 168 208 249 294
#     4  10  20  34  53  76 103 133 165 207 254 295
#     4   9  19  36  55  74  99 133 171 207 246 298
#     4  10  20  33  52  78 103 128 165 213 253 288
#     4  10  20  34  53  76 102 133 169 206 247 299
#     4   9  19  35  54  75 100 133 170 208 249 295
#     4   9  19  36  55  73  99 137 171 202 248 303
#
# _framework density 17.832953
#
# number of rings (size 3 to 8) (size 9 to 14) (size 15 to 20)
#    0.000    2.625    0.000    1.875    0.000    5.250 
#    0.000   10.000    0.000    0.000    0.000    0.000 
#    0.000    0.000    0.000    0.000    0.000    0.000 
#
# Total GULP energy -396892.528596 kJ/mol
# GULP energy per Si atom -12402.891519 kJ/mol
# Density = 1.779236 g / cm^3
# Si number density = 17.832953 Si / 1000 Ang^3
#
#
#
# Elastic Constant Matrix: (Units=GPa)
#
#
# Indices 1 2 3 4 5 6 
#
# 1 141.0844 56.3827 45.1680 0.0000 -14.7635 0.0000
# 2 56.3827 93.9143 66.4236 0.0000 -13.7143 0.0000
# 3 45.1680 66.4236 113.8606 0.0000 -18.5327 0.0000
# 4 0.0000 0.0000 0.0000 39.0685 0.0000 -4.5623
# 5 -14.7635 -13.7143 -18.5327 0.0000 15.7211 0.0000
# 6 0.0000 0.0000 0.0000 -4.5623 0.0000 32.1110
#
#
#
# Elastic Compliance Matrix: (Units=1/GPa)
#
#
# Indices 1 2 3 4 5 6 
#
# 1 0.009606 -0.004995 -0.000170 0.000000 0.004463 0.000000
# 2 -0.004995 0.020945 -0.009933 0.000000 0.001872 0.000000
# 3 -0.000170 -0.009933 0.016345 0.000000 0.010443 0.000000
# 4 0.000000 0.000000 0.000000 0.026028 0.000000 0.003698
# 5 0.004463 0.001872 0.010443 0.000000 0.081743 0.000000
# 6 0.000000 0.000000 0.000000 0.003698 0.000000 0.031667
#
#
# Mechanical properties :
#
#
# Convention : Reuss Voigt Hill
#
# Bulk Modulus (GPa) = 59.88202 76.08977 67.98590
# Shear Modulus (GPa) = 22.51278 29.43913 25.97596
#
# Velocity S-wave (km/s) = 3.55692 4.06745 3.82072
# Velocity P-wave (km/s) = 7.10783 8.05106 7.59410
#
# Compressibility (1/GPa) = 0.01669950
#
# Stress axis : x y z
#
# Youngs Moduli (GPa) = 104.10682 47.74334 61.18206
#
# Poissons Ratio (x) = 0.23846 0.01042
# Poissons Ratio (y) = 0.51998 0.60772
# Poissons Ratio (z) = 0.01774 0.47423
#
# Static dielectric constant tensor:
#      x y z
#    x 3.346670 0.000000 -0.019710 
#    y 0.000000 3.335950 0.000000 
#    z -0.019710 0.000000 3.240950 
# 
# 
# High freq. dielectric constant tensor:
#      x y z
#    x 1.692890 0.000000 -0.004440 
#    y 0.000000 1.694280 0.000000 
#    z -0.004440 0.000000 1.691030 
# 
# From -- ./inp_files/359951.got.cif
#   From: 2010.06.25/outbox.cif.g09.slc.cpg/sg12_180_cif.got.tgz:359951.got - 2010.06.28 00:19:55.
