data_PCOD8096859
_publ_section_title
;
Structure prediction by ZEFSAII (Michael W. Deem and Ramdas Pophale) SiO2 
 PCOD8096859
Probable space group: C 2/M
;
_chemical_formula_sum "Si O2"
_cell_formula_units_Z 64
_cell_length_a 19.364607
_cell_length_b 9.406040
_cell_length_c 20.676294
_cell_angle_alpha 90.000000
_cell_angle_beta 63.648450
_cell_angle_gamma 90.000000
_cell_volume 3374.726582
_symmetry_space_group_name_H-M "C 2/M"
_symmetry_group_IT_number 12
_symmetry_cell_setting 'monoclinic'
loop_
_space_group_symop_operation_xyz
x,y,z
-x,y,-z
-x,-y,-z
x,-y,z
1/2+x,1/2+y,z
1/2-x,1/2+y,-z
1/2-x,1/2-y,-z
1/2+x,1/2-y,z
loop_
_atom_site_type_symbol
_atom_site_label
_atom_site_fract_x
_atom_site_fract_y
_atom_site_fract_z
Si Si1 0.343499 0.842882 0.395347
Si Si2 0.575113 0.159571 0.433342
Si Si3 0.456731 0.331581 0.812635
Si Si4 0.287814 0.338314 0.928028
Si Si5 0.894764 0.666241 0.231001
Si Si6 0.895310 0.662245 0.722705
Si Si7 0.752981 0.664128 0.198853
Si Si8 0.837249 0.843308 0.514720
O O1 0.360989 0.789085 0.315210
O O2 0.253837 0.854055 0.447589
O O3 0.375087 0.734512 0.436244
O O4 0.380829 0.000000 0.388944
O O5 0.500000 0.218364 0.500000
O O6 0.560955 0.165027 0.363142
O O7 0.644298 0.260262 0.426935
O O8 0.594917 0.000000 0.447883
O O9 0.468775 0.500000 0.798557
O O10 0.378227 0.298675 0.884266
O O11 0.530209 0.261062 0.817412
O O12 0.449299 0.254978 0.746628
O O13 0.279376 0.500000 0.952498
O O14 0.241851 0.309394 0.880397
O O15 0.250000 0.250000 0.000000
O O16 0.916761 0.500000 0.220439
O O17 0.832949 0.701290 0.200725
O O18 0.886302 0.500000 0.752120
O O19 0.811802 0.731749 0.746481
O O20 0.729210 0.500000 0.222081
O O21 0.873912 0.000000 0.500645
#
# Coordination Sequence:
#
# PCOD8096859 Si02
#       8
#     8   8   8   8   8   8   8   8
#     4   9  19  34  52  72 101 137 172 220 275 327
#     4  10  22  36  49  68 100 138 176 226 280 325
#     4  10  22  38  56  83 118 147 179 229 280 322
#     4   9  19  37  61  86 114 149 182 218 265 319
#     4  10  20  35  57  81 109 147 186 224 275 332
#     4  10  20  35  56  79 104 144 192 230 276 338
#     4   9  19  37  59  85 115 145 180 227 276 318
#     4  10  20  34  51  73  97 131 181 227 275 330
#
# _framework density 18.964500000000001
#
# number of rings (size 3 to 8) (size 9 to 14) (size 15 to 20)
#    0.000    2.375    0.000    2.625    1.750    6.250 
#    0.000    0.625    0.000    3.750    0.000    0.000 
#    0.000    0.000    0.000    0.000    0.000    0.000 
#
# Total GULP energy -396726.286485 kJ/mol
# GULP energy per Si atom -12397.696453 kJ/mol
# Density = 1.892134 g / cm^3
# Si number density = 18.964500 Si / 1000 Ang^3
#
#
#
# Elastic Constant Matrix: (Units=GPa)
#
#
# Indices 1 2 3 4 5 6 
#
# 1 99.6935 49.0464 33.9692 0.0000 -0.3811 -0.0001
# 2 49.0464 100.9455 43.1177 -0.0001 -2.8906 -0.0004
# 3 33.9692 43.1177 100.7854 0.0000 -0.4095 0.0000
# 4 0.0000 -0.0001 0.0000 27.9601 0.0000 1.8035
# 5 -0.3811 -2.8906 -0.4095 0.0000 15.2561 0.0000
# 6 -0.0001 -0.0004 0.0000 1.8035 0.0000 33.2638
#
#
#
# Elastic Compliance Matrix: (Units=1/GPa)
#
#
# Indices 1 2 3 4 5 6 
#
# 1 0.013559 -0.005699 -0.002135 0.000000 -0.000798 0.000000
# 2 -0.005699 0.014588 -0.004310 0.000000 0.002506 0.000000
# 3 -0.002135 -0.004310 0.012483 0.000000 -0.000535 0.000000
# 4 0.000000 0.000000 0.000000 0.035891 0.000000 -0.001946
# 5 -0.000798 0.002506 -0.000535 0.000000 0.065988 0.000000
# 6 0.000000 0.000000 0.000000 -0.001946 0.000000 0.030168
#
#
# Mechanical properties :
#
#
# Convention : Reuss Voigt Hill
#
# Bulk Modulus (GPa) = 61.19069 61.52122 61.35595
# Shear Modulus (GPa) = 24.70202 26.98208 25.84205
#
# Velocity S-wave (km/s) = 3.61299 3.77605 3.69542
# Velocity P-wave (km/s) = 7.05272 7.17789 7.11558
#
# Compressibility (1/GPa) = 0.01634236
#
# Stress axis : x y z
#
# Youngs Moduli (GPa) = 73.75284 68.54999 80.10591
#
# Poissons Ratio (x) = 0.39064 0.17104
# Poissons Ratio (y) = 0.42029 0.34526
# Poissons Ratio (z) = 0.15748 0.29545
#
# Static dielectric constant tensor:
#      x y z
#    x 3.513630 0.000000 0.075730 
#    y 0.000000 3.711120 0.000000 
#    z 0.075730 0.000000 3.274720 
# 
# 
# High freq. dielectric constant tensor:
#      x y z
#    x 1.734140 0.000000 0.003580 
#    y 0.000000 1.744060 0.000000 
#    z 0.003580 0.000000 1.718040 
# 
# From -- ./inp_files/319936.got.cif
#   From: 2010.06.25/outbox.cif.g09.slc.cpg/sg12_160_cif.got.tgz:319936.got - 2010.06.28 00:19:55.
