data_PCOD8096994
_publ_section_title
;
Structure prediction by ZEFSAII (Michael W. Deem and Ramdas Pophale) SiO2 
 PCOD8096994
Probable space group: C 2/M
;
_chemical_formula_sum "Si O2"
_cell_formula_units_Z 64
_cell_length_a 20.352112
_cell_length_b 9.108827
_cell_length_c 21.728896
_cell_angle_alpha 90.000000
_cell_angle_beta 61.756683
_cell_angle_gamma 90.000000
_cell_volume 3548.614784
_symmetry_space_group_name_H-M "C 2/M"
_symmetry_group_IT_number 12
_symmetry_cell_setting 'monoclinic'
loop_
_space_group_symop_operation_xyz
x,y,z
-x,y,-z
-x,-y,-z
x,-y,z
1/2+x,1/2+y,z
1/2-x,1/2+y,-z
1/2-x,1/2-y,-z
1/2+x,1/2-y,z
loop_
_atom_site_type_symbol
_atom_site_label
_atom_site_fract_x
_atom_site_fract_y
_atom_site_fract_z
Si Si1 0.827561 0.829872 0.957645
Si Si2 0.833101 0.169672 0.705962
Si Si3 0.700985 0.670811 0.705932
Si Si4 0.038391 0.670138 0.045901
Si Si5 0.088233 0.830273 0.204445
Si Si6 0.784056 0.670835 0.543174
Si Si7 0.584540 0.330221 0.455385
Si Si8 0.545665 0.170869 0.792459
O O1 0.886809 0.763777 0.979247
O O2 0.854605 0.803060 0.876282
O O3 0.817448 0.000000 0.977404
O O4 0.750000 0.750000 0.000000
O O5 0.758666 0.263938 0.729740
O O6 0.871847 0.223146 0.751258
O O7 0.891463 0.197120 0.625395
O O8 0.809229 0.000000 0.720661
O O9 0.691443 0.500000 0.723881
O O10 0.730072 0.701341 0.624478
O O11 0.622858 0.749070 0.748063
O O12 0.061509 0.500000 0.033342
O O13 0.980740 0.701375 0.126367
O O14 0.000000 0.721418 0.000000
O O15 0.014166 0.734502 0.228972
O O16 0.064130 0.000000 0.219301
O O17 0.792488 0.500000 0.525139
O O18 0.750000 0.750000 0.500000
O O19 0.865656 0.735673 0.520257
O O20 0.500000 0.276267 0.500000
O O21 0.593141 0.500000 0.470365
O O22 0.555915 0.000000 0.774344
#
# Coordination Sequence:
#
# PCOD8096994 Si02
#       8
#     8   8   8   8   8   8   8   8
#     4  10  20  34  52  74 102 134 170 212 256 304
#     4   9  18  34  54  74 100 134 170 206 246 298
#     4  10  21  36  53  75 105 137 169 209 256 303
#     4   9  19  36  55  75 102 135 171 212 257 305
#     4   9  19  35  53  74 102 136 171 209 254 303
#     4  10  21  36  54  76 103 136 172 211 254 300
#     4   9  18  33  53  77 104 133 166 205 250 301
#     4  10  20  34  54  78 103 134 172 212 254 303
#
# _framework density 18.035207
#
# number of rings (size 3 to 8) (size 9 to 14) (size 15 to 20)
#    0.000    2.500    0.000    1.500    0.000    5.500 
#    0.000    7.500    0.000    0.000    0.000    0.000 
#    0.000    0.000    0.000    0.000    0.000    0.000 
#
# Total GULP energy -396933.579142 kJ/mol
# GULP energy per Si atom -12404.174348 kJ/mol
# Density = 1.799416 g / cm^3
# Si number density = 18.035207 Si / 1000 Ang^3
#
#
#
# Elastic Constant Matrix: (Units=GPa)
#
#
# Indices 1 2 3 4 5 6 
#
# 1 193.2936 104.1242 91.8484 0.0001 0.7792 -0.0017
# 2 104.1242 114.1081 58.5334 0.0000 -5.7974 -0.0029
# 3 91.8484 58.5334 70.4387 0.0000 1.7208 0.0002
# 4 0.0001 0.0000 0.0000 27.2392 0.0001 -2.1068
# 5 0.7792 -5.7974 1.7208 0.0001 42.0878 0.0001
# 6 -0.0017 -0.0029 0.0002 -2.1068 0.0001 41.1140
#
#
#
# Elastic Compliance Matrix: (Units=1/GPa)
#
#
# Indices 1 2 3 4 5 6 
#
# 1 0.016218 -0.006956 -0.015351 0.000000 -0.000631 0.000000
# 2 -0.006956 0.018554 -0.006419 0.000000 0.002947 0.000001
# 3 -0.015351 -0.006419 0.039603 0.000000 -0.002219 -0.000001
# 4 0.000000 0.000000 0.000000 0.036858 0.000000 0.001889
# 5 -0.000631 0.002947 -0.002219 0.000000 0.024268 0.000000
# 6 0.000000 0.000001 -0.000001 0.001889 0.000000 0.024419
#
#
# Mechanical properties :
#
#
# Convention : Reuss Voigt Hill
#
# Bulk Modulus (GPa) = 59.09979 98.53915 78.81947
# Shear Modulus (GPa) = 22.42017 30.31048 26.36533
#
# Velocity S-wave (km/s) = 3.52964 4.10399 3.82760
# Velocity P-wave (km/s) = 7.03217 8.78708 7.95814
#
# Compressibility (1/GPa) = 0.01692054
#
# Stress axis : x y z
#
# Youngs Moduli (GPa) = 61.66091 53.89719 25.25089
#
# Poissons Ratio (x) = 0.37492 0.38763
# Poissons Ratio (y) = 0.42893 0.16210
# Poissons Ratio (z) = 0.94657 0.34599
#
# Static dielectric constant tensor:
#      x y z
#    x 3.431270 0.000000 0.052160 
#    y 0.000000 3.418430 0.000000 
#    z 0.052160 0.000000 3.314510 
# 
# 
# High freq. dielectric constant tensor:
#      x y z
#    x 1.706970 0.000000 0.000310 
#    y 0.000000 1.704550 0.000000 
#    z 0.000310 0.000000 1.693610 
# 
# From -- ./inp_files/319963.got.cif
#   From: 2010.06.25/outbox.cif.g09.slc.cpg/sg12_160_cif.got.tgz:319963.got - 2010.06.28 00:19:55.
