data_PCOD8096700
_publ_section_title
;
Structure prediction by ZEFSAII (Michael W. Deem and Ramdas Pophale) SiO2 
 PCOD8096700
Probable space group: C 2/M
;
_chemical_formula_sum "Si O2"
_cell_formula_units_Z 40
_cell_length_a 16.032743
_cell_length_b 9.693796
_cell_length_c 15.857014
_cell_angle_alpha 90.000000
_cell_angle_beta 119.252893
_cell_angle_gamma 90.000000
_cell_volume 2150.177354
_symmetry_space_group_name_H-M "C 2/M"
_symmetry_group_IT_number 12
_symmetry_cell_setting 'monoclinic'
loop_
_space_group_symop_operation_xyz
x,y,z
-x,y,-z
-x,-y,-z
x,-y,z
1/2+x,1/2+y,z
1/2-x,1/2+y,-z
1/2-x,1/2-y,-z
1/2+x,1/2-y,z
loop_
_atom_site_type_symbol
_atom_site_label
_atom_site_fract_x
_atom_site_fract_y
_atom_site_fract_z
Si Si1 0.146810 0.500000 0.638601
Si Si2 0.231846 0.000000 0.746606
Si Si3 0.549856 0.500000 0.113804
Si Si4 0.392907 0.500000 0.480729
Si Si5 0.801709 0.793658 0.749419
Si Si6 0.572472 0.000000 0.423223
Si Si7 0.596634 0.294781 0.371234
Si Si8 0.052201 0.000000 0.765825
O O1 0.197744 0.365560 0.704548
O O2 0.036892 0.500000 0.605684
O O3 0.147697 0.500000 0.537218
O O4 0.297759 0.136146 0.779078
O O5 0.173868 0.000000 0.632033
O O6 0.164055 0.000000 0.796094
O O7 0.617163 0.365426 0.153691
O O8 0.465389 0.500000 0.142339
O O9 0.500000 0.500000 0.000000
O O10 0.500000 0.500000 0.500000
O O11 0.369076 0.363513 0.523909
O O12 0.828322 0.822359 0.665417
O O13 0.589454 0.131889 0.374050
O O14 0.495011 0.363521 0.298083
#
# Coordination Sequence:
#
# PCOD8096700 Si02
#       8
#     4   4   4   4   8   4   8   4
#     4  10  21  32  45  73 108 146 183 220 251 296
#     4  12  20  33  55  83 113 142 176 232 270 298
#     4   9  20  44  66  77  99 142 175 213 285 360
#     4  11  21  31  53  70 109 161 200 205 251 309
#     4  10  22  36  55  80 109 135 180 233 270 311
#     4  11  21  29  50  72 110 148 186 218 252 292
#     4  10  20  34  48  75 105 150 194 219 254 309
#     4   9  19  36  58  77 108 142 179 213 271 344
#
# _framework density 18.603116
#
# number of rings (size 3 to 8) (size 9 to 14) (size 15 to 20)
#    0.000    1.800    2.000    4.800    2.800    4.800 
#    0.000    1.500    0.000    0.000    0.000    0.000 
#    0.000    0.000    0.000    0.000    0.000    0.000 
#
# Total GULP energy -247956.316491 kJ/mol
# GULP energy per Si atom -12397.815825 kJ/mol
# Density = 1.856077 g / cm^3
# Si number density = 18.603116 Si / 1000 Ang^3
#
#
#
# Elastic Constant Matrix: (Units=GPa)
#
#
# Indices 1 2 3 4 5 6 
#
# 1 76.1968 31.5385 38.6802 0.0000 1.4840 0.0000
# 2 31.5385 159.1447 43.7823 0.0000 3.0351 0.0000
# 3 38.6802 43.7823 109.0091 0.0000 -6.6388 0.0000
# 4 0.0000 0.0000 0.0000 9.0861 0.0000 -1.9150
# 5 1.4840 3.0351 -6.6388 0.0000 19.7154 0.0000
# 6 0.0000 0.0000 0.0000 -1.9150 0.0000 26.4145
#
#
#
# Elastic Compliance Matrix: (Units=1/GPa)
#
#
# Indices 1 2 3 4 5 6 
#
# 1 0.016631 -0.001768 -0.005361 0.000000 -0.002785 0.000000
# 2 -0.001768 0.007337 -0.002430 0.000000 -0.001815 0.000000
# 3 -0.005361 -0.002430 0.012352 0.000000 0.004937 0.000000
# 4 0.000000 0.000000 0.000000 0.111766 0.000000 0.008103
# 5 -0.002785 -0.001815 0.004937 0.000000 0.052873 0.000000
# 6 0.000000 0.000000 0.000000 0.008103 0.000000 0.038445
#
#
# Mechanical properties :
#
#
# Convention : Reuss Voigt Hill
#
# Bulk Modulus (GPa) = 58.12920 63.59474 60.86197
# Shear Modulus (GPa) = 18.92094 26.39983 22.66039
#
# Velocity S-wave (km/s) = 3.19264 3.77119 3.49391
# Velocity P-wave (km/s) = 6.70115 7.29532 7.00454
#
# Compressibility (1/GPa) = 0.01720306
#
# Stress axis : x y z
#
# Youngs Moduli (GPa) = 60.12764 136.29364 80.95570
#
# Poissons Ratio (x) = 0.24096 0.43399
# Poissons Ratio (y) = 0.10630 0.19673
# Poissons Ratio (z) = 0.32234 0.33120
#
# Static dielectric constant tensor:
#      x y z
#    x 3.500680 0.000000 0.017810 
#    y 0.000000 3.485100 0.000000 
#    z 0.017810 0.000000 3.058390 
# 
# 
# High freq. dielectric constant tensor:
#      x y z
#    x 1.729210 0.000000 0.001070 
#    y 0.000000 1.733880 0.000000 
#    z 0.001070 0.000000 1.671770 
# 
# From -- ./inp_files/274703.got.cif
#   From: 2010.06.25/outbox.cif.g09.slc.cpg/sg12_138_cif.got.tgz:274703.got - 2010.06.28 00:19:55.
