data_PCOD8096400
_publ_section_title
;
Structure prediction by ZEFSAII (Michael W. Deem and Ramdas Pophale) SiO2 
 PCOD8096400
Probable space group: C 2/M
;
_chemical_formula_sum "Si O2"
_cell_formula_units_Z 64
_cell_length_a 14.460492
_cell_length_b 8.736334
_cell_length_c 26.272911
_cell_angle_alpha 90.000000
_cell_angle_beta 88.683426
_cell_angle_gamma 90.000000
_cell_volume 3318.224966
_symmetry_space_group_name_H-M "C 2/M"
_symmetry_group_IT_number 12
_symmetry_cell_setting 'monoclinic'
loop_
_space_group_symop_operation_xyz
x,y,z
-x,y,-z
-x,-y,-z
x,-y,z
1/2+x,1/2+y,z
1/2-x,1/2+y,-z
1/2-x,1/2-y,-z
1/2+x,1/2-y,z
loop_
_atom_site_type_symbol
_atom_site_label
_atom_site_fract_x
_atom_site_fract_y
_atom_site_fract_z
Si Si1 0.343982 0.820403 0.742386
Si Si2 0.515843 0.679582 0.189631
Si Si3 0.496755 0.317789 0.073489
Si Si4 0.339777 0.180037 0.375393
Si Si5 0.864137 0.819628 0.271188
Si Si6 0.018726 0.818502 0.556299
Si Si7 0.853189 0.316361 0.000205
Si Si8 0.868797 0.180434 0.638430
O O1 0.390002 0.759663 0.793477
O O2 0.237761 0.766563 0.744528
O O3 0.396099 0.751341 0.692532
O O4 0.352881 0.000000 0.739886
O O5 0.530071 0.500000 0.194177
O O6 0.493708 0.727312 0.132495
O O7 0.432432 0.737785 0.226272
O O8 0.496700 0.500000 0.064410
O O9 0.589928 0.245442 0.049019
O O10 0.405218 0.244089 0.049922
O O11 0.391353 0.241770 0.324271
O O12 0.384491 0.251890 0.425226
O O13 0.233512 0.233829 0.376294
O O14 0.349761 0.000000 0.377407
O O15 0.870256 0.000000 0.279251
O O16 0.937586 0.758302 0.594267
O O17 0.000000 0.755278 0.500000
O O18 0.024488 0.000000 0.556008
O O19 0.850598 0.500000 0.999879
O O20 0.750000 0.250000 0.000000
O O21 0.875646 0.000000 0.644202
#
# Coordination Sequence:
#
# PCOD8096400 Si02
#       8
#     8   8   8   8   8   8   8   8
#     4  10  20  33  53  80 107 138 180 220 255 307
#     4  10  21  36  55  79 112 147 175 213 266 316
#     4  10  21  38  58  85 116 147 187 231 276 329
#     4  10  20  34  53  77 102 131 169 214 260 305
#     4   9  19  36  54  75 105 142 177 209 254 313
#     4  10  21  36  53  73  98 132 171 209 258 321
#     4  11  22  39  62  85 111 148 190 233 279 327
#     4   9  19  36  54  72 101 137 170 210 263 317
#
# _framework density 19.287421999999999
#
# number of rings (size 3 to 8) (size 9 to 14) (size 15 to 20)
#    0.000    2.125    0.000    3.750    0.000    7.750 
#    0.000    1.250    0.000    0.000    0.000    0.000 
#    0.000    0.000    0.000    0.000    0.000    0.000 
#
# Total GULP energy -396887.977128 kJ/mol
# GULP energy per Si atom -12402.749285 kJ/mol
# Density = 1.924352 g / cm^3
# Si number density = 19.287422 Si / 1000 Ang^3
#
#
#
# Elastic Constant Matrix: (Units=GPa)
#
#
# Indices 1 2 3 4 5 6 
#
# 1 96.1538 30.7840 47.4265 0.0000 11.6952 0.0000
# 2 30.7840 55.4907 32.0419 0.0000 6.5873 0.0000
# 3 47.4265 32.0419 129.8337 0.0000 15.7848 0.0000
# 4 0.0000 0.0000 0.0000 30.0910 0.0000 6.8022
# 5 11.6952 6.5873 15.7848 0.0000 24.2899 0.0000
# 6 0.0000 0.0000 0.0000 6.8022 0.0000 31.2691
#
#
#
# Elastic Compliance Matrix: (Units=1/GPa)
#
#
# Indices 1 2 3 4 5 6 
#
# 1 0.014261 -0.005542 -0.003463 0.000000 -0.003113 0.000000
# 2 -0.005542 0.023314 -0.003567 0.000000 -0.001336 0.000000
# 3 -0.003463 -0.003567 0.010344 0.000000 -0.004088 0.000000
# 4 0.000000 0.000000 0.000000 0.034951 0.000000 -0.007603
# 5 -0.003113 -0.001336 -0.004088 0.000000 0.045687 0.000000
# 6 0.000000 0.000000 0.000000 -0.007603 0.000000 0.033634
#
#
# Mechanical properties :
#
#
# Convention : Reuss Voigt Hill
#
# Bulk Modulus (GPa) = 43.90749 55.77587 49.84168
# Shear Modulus (GPa) = 25.65052 28.54506 27.09779
#
# Velocity S-wave (km/s) = 3.65075 3.85123 3.75233
# Velocity P-wave (km/s) = 6.37063 6.98262 6.68363
#
# Compressibility (1/GPa) = 0.02277516
#
# Stress axis : x y z
#
# Youngs Moduli (GPa) = 70.12063 42.89310 96.67074
#
# Poissons Ratio (x) = 0.23772 0.33479
# Poissons Ratio (y) = 0.38862 0.34479
# Poissons Ratio (z) = 0.24284 0.15299
#
# Static dielectric constant tensor:
#      x y z
#    x 3.708990 0.000000 0.018520 
#    y 0.000000 3.429350 0.000000 
#    z 0.018520 0.000000 3.657560 
# 
# 
# High freq. dielectric constant tensor:
#      x y z
#    x 1.758150 0.000000 0.006260 
#    y 0.000000 1.748350 0.000000 
#    z 0.006260 0.000000 1.750020 
# 
# From -- ./inp_files/338819.got.cif
#   From: 2010.06.25/outbox.cif.g09.slc.cpg/sg12_170_cif.got.tgz:338819.got - 2010.06.28 00:19:55.
