data_PCOD8096942
_publ_section_title
;
Structure prediction by ZEFSAII (Michael W. Deem and Ramdas Pophale) SiO2 
 PCOD8096942
Probable space group: C 2/M
;
_chemical_formula_sum "Si O2"
_cell_formula_units_Z 64
_cell_length_a 19.700909
_cell_length_b 9.068014
_cell_length_c 25.313847
_cell_angle_alpha 90.000000
_cell_angle_beta 53.661307
_cell_angle_gamma 90.000000
_cell_volume 3642.817385
_symmetry_space_group_name_H-M "C 2/M"
_symmetry_group_IT_number 12
_symmetry_cell_setting 'monoclinic'
loop_
_space_group_symop_operation_xyz
x,y,z
-x,y,-z
-x,-y,-z
x,-y,z
1/2+x,1/2+y,z
1/2-x,1/2+y,-z
1/2-x,1/2-y,-z
1/2+x,1/2-y,z
loop_
_atom_site_type_symbol
_atom_site_label
_atom_site_fract_x
_atom_site_fract_y
_atom_site_fract_z
Si Si1 0.213272 0.666056 0.939229
Si Si2 0.254521 0.827656 0.553664
Si Si3 0.289166 0.825019 0.698973
Si Si4 0.378766 0.665926 0.934136
Si Si5 0.810525 0.327760 0.809589
Si Si6 0.341749 0.826484 0.309833
Si Si7 0.531531 0.170595 0.194464
Si Si8 0.909723 0.670633 0.553394
O O1 0.184477 0.500000 0.940637
O O2 0.294617 0.670598 0.938592
O O3 0.234554 0.744845 0.874189
O O4 0.136453 0.748727 0.003853
O O5 0.250000 0.750000 0.500000
O O6 0.187527 0.752327 0.623232
O O7 0.348846 0.803625 0.531760
O O8 0.232677 0.000000 0.558815
O O9 0.310401 0.780024 0.748726
O O10 0.204613 0.742233 0.719677
O O11 0.366004 0.766795 0.626719
O O12 0.275482 0.000000 0.697960
O O13 0.405620 0.500000 0.935426
O O14 0.453785 0.740904 0.866543
O O15 0.793369 0.500000 0.824172
O O16 0.900895 0.282719 0.792043
O O17 0.440299 0.792597 0.259161
O O18 0.322967 0.000000 0.322033
O O19 0.541873 0.000000 0.175250
O O20 0.926592 0.500000 0.556056
O O21 0.000000 0.748817 0.500000
#
# Coordination Sequence:
#
# PCOD8096942 Si02
#       8
#     8   8   8   8   8   8   8   8
#     4   9  16  26  42  66  96 126 157 196 243 291
#     4  10  20  34  53  75  99 127 160 199 241 286
#     4   9  18  32  50  71  96 128 161 196 239 285
#     4   9  16  26  43  67  95 127 159 195 242 289
#     4   9  17  30  48  70  96 125 163 205 240 281
#     4  10  20  34  52  72  98 132 164 195 236 287
#     4   9  18  31  48  72  98 126 163 203 239 279
#     4   8  15  29  50  73  94 121 160 199 233 276
#
# _framework density 17.568818
#
# number of rings (size 3 to 8) (size 9 to 14) (size 15 to 20)
#    0.000    2.875    0.000    2.250    0.000    5.500 
#    0.000    3.750    0.000   13.125    0.000    5.250 
#    0.000    0.000    0.000    0.000    0.000    0.000 
#
# Total GULP energy -396752.920607 kJ/mol
# GULP energy per Si atom -12398.528769 kJ/mol
# Density = 1.752883 g / cm^3
# Si number density = 17.568818 Si / 1000 Ang^3
#
#
#
# Elastic Constant Matrix: (Units=GPa)
#
#
# Indices 1 2 3 4 5 6 
#
# 1 70.2423 43.8437 70.6972 0.0000 5.5012 0.0007
# 2 43.8437 92.0928 71.8512 -0.0001 0.4315 0.0003
# 3 70.6972 71.8512 142.4005 0.0000 9.0884 0.0000
# 4 0.0000 -0.0001 0.0000 33.2637 0.0000 2.3286
# 5 5.5012 0.4315 9.0884 0.0000 23.0122 0.0002
# 6 0.0007 0.0003 0.0000 2.3286 0.0002 21.3910
#
#
#
# Elastic Compliance Matrix: (Units=1/GPa)
#
#
# Indices 1 2 3 4 5 6 
#
# 1 0.029558 -0.004484 -0.012275 0.000000 -0.002134 -0.000001
# 2 -0.004484 0.018839 -0.007515 0.000000 0.003687 0.000000
# 3 -0.012275 -0.007515 0.017144 0.000000 -0.003696 0.000001
# 4 0.000000 0.000000 0.000000 0.030294 0.000000 -0.003298
# 5 -0.002134 0.003687 -0.003696 0.000000 0.045356 0.000000
# 6 -0.000001 0.000000 0.000001 -0.003298 0.000000 0.047108
#
#
# Mechanical properties :
#
#
# Convention : Reuss Voigt Hill
#
# Bulk Modulus (GPa) = 58.85104 75.28000 67.06552
# Shear Modulus (GPa) = 20.61758 23.42294 22.02026
#
# Velocity S-wave (km/s) = 3.42940 3.65528 3.54414
# Velocity P-wave (km/s) = 7.01792 7.79464 7.41646
#
# Compressibility (1/GPa) = 0.01699205
#
# Stress axis : x y z
#
# Youngs Moduli (GPa) = 33.83222 53.08053 58.32825
#
# Poissons Ratio (x) = 0.23804 0.71601
# Poissons Ratio (y) = 0.15172 0.43832
# Poissons Ratio (z) = 0.41531 0.39888
#
# Static dielectric constant tensor:
#      x y z
#    x 3.053980 0.000000 -0.036680 
#    y 0.000000 3.264320 0.000000 
#    z -0.036680 0.000000 3.448260 
# 
# 
# High freq. dielectric constant tensor:
#      x y z
#    x 1.646180 0.000000 0.000780 
#    y 0.000000 1.674590 0.000000 
#    z 0.000780 0.000000 1.690710 
# 
# From -- ./inp_files/346046.got.cif
#   From: 2010.06.25/outbox.cif.g09.slc.cpg/sg12_174_cif.got.tgz:346046.got - 2010.06.28 00:19:55.
