data_PCOD8096103
_publ_section_title
;
Structure prediction by ZEFSAII (Michael W. Deem and Ramdas Pophale) SiO2 
 PCOD8096103
Probable space group: C 2/M
;
_chemical_formula_sum "Si O2"
_cell_formula_units_Z 56
_cell_length_a 20.679137
_cell_length_b 9.090825
_cell_length_c 17.519857
_cell_angle_alpha 90.000000
_cell_angle_beta 58.001569
_cell_angle_gamma 90.000000
_cell_volume 2793.149490
_symmetry_space_group_name_H-M "C 2/M"
_symmetry_group_IT_number 12
_symmetry_cell_setting 'monoclinic'
loop_
_space_group_symop_operation_xyz
x,y,z
-x,y,-z
-x,-y,-z
x,-y,z
1/2+x,1/2+y,z
1/2-x,1/2+y,-z
1/2-x,1/2-y,-z
1/2+x,1/2-y,z
loop_
_atom_site_type_symbol
_atom_site_label
_atom_site_fract_x
_atom_site_fract_y
_atom_site_fract_z
Si Si1 0.933883 0.166939 0.591819
Si Si2 0.851553 0.823689 0.789401
Si Si3 0.820515 0.834049 0.533089
Si Si4 0.423269 0.673131 0.186503
Si Si5 0.352031 0.172595 0.370432
Si Si6 0.690526 0.325021 0.876567
Si Si7 0.095022 0.173632 0.079487
O O1 0.914669 0.232350 0.687634
O O2 0.855178 0.176556 0.595179
O O3 0.000000 0.248351 0.500000
O O4 0.961838 0.000000 0.586858
O O5 0.770877 0.754239 0.817449
O O6 0.879074 0.763662 0.854348
O O7 0.843673 0.000000 0.791257
O O8 0.734141 0.778942 0.595542
O O9 0.869345 0.733307 0.444456
O O10 0.822573 0.000000 0.499747
O O11 0.417480 0.500000 0.203378
O O12 0.407279 0.752088 0.275969
O O13 0.364922 0.724555 0.157584
O O14 0.509237 0.720312 0.110418
O O15 0.365577 0.000000 0.359534
O O16 0.701880 0.500000 0.869674
O O17 0.652124 0.267620 0.978968
O O18 0.100079 0.000000 0.080128
#
# Coordination Sequence:
#
# PCOD8096103 Si02
#       7
#     8   8   8   8   8   8   8
#     4   9  18  31  52  79 104 134 178 225 261 304
#     4  10  20  35  57  83 109 143 185 226 270 322
#     4   9  18  33  52  73 102 140 181 220 261 317
#     4  10  20  34  56  81 107 143 184 223 269 322
#     4  10  20  33  51  78 108 138 175 223 273 320
#     4  10  20  36  57  82 112 144 180 226 275 324
#     4   9  19  35  57  83 109 142 187 230 265 315
#
# _framework density 20.049052
#
# number of rings (size 3 to 8) (size 9 to 14) (size 15 to 20)
#    0.000    2.429    0.000    2.143    2.000    4.000 
#    0.000    2.143    0.000    2.571    0.000    0.000 
#    0.000    0.000    0.000    0.000    0.000    0.000 
#
# Total GULP energy -347117.142946 kJ/mol
# GULP energy per Si atom -12397.040820 kJ/mol
# Density = 2.000342 g / cm^3
# Si number density = 20.049052 Si / 1000 Ang^3
#
#
#
# Elastic Constant Matrix: (Units=GPa)
#
#
# Indices 1 2 3 4 5 6 
#
# 1 78.0360 14.3364 27.6855 0.0000 -1.8649 0.0000
# 2 14.3364 27.3409 20.9234 0.0002 -1.6497 -0.0002
# 3 27.6855 20.9234 143.4137 0.0000 -3.8894 0.0000
# 4 0.0000 0.0002 0.0000 20.1711 0.0000 -4.6013
# 5 -1.8649 -1.6497 -3.8894 0.0000 31.1584 0.0000
# 6 0.0000 -0.0002 0.0000 -4.6013 0.0000 22.3349
#
#
#
# Elastic Compliance Matrix: (Units=1/GPa)
#
#
# Indices 1 2 3 4 5 6 
#
# 1 0.014639 -0.006192 -0.001914 0.000000 0.000309 0.000000
# 2 -0.006192 0.043856 -0.005167 0.000000 0.001306 0.000000
# 3 -0.001914 -0.005167 0.008113 0.000000 0.000625 0.000000
# 4 0.000000 0.000000 0.000000 0.052021 0.000000 0.010717
# 5 0.000309 0.001306 0.000625 0.000000 0.032260 0.000000
# 6 0.000000 0.000000 0.000000 0.010717 0.000000 0.046981
#
#
# Mechanical properties :
#
#
# Convention : Reuss Voigt Hill
#
# Bulk Modulus (GPa) = 24.96286 41.63123 33.29705
# Shear Modulus (GPa) = 21.02874 27.12256 24.07565
#
# Velocity S-wave (km/s) = 3.24213 3.68205 3.46907
# Velocity P-wave (km/s) = 5.14715 6.23590 5.71750
#
# Compressibility (1/GPa) = 0.04005952
#
# Stress axis : x y z
#
# Youngs Moduli (GPa) = 68.31201 22.80210 123.25595
#
# Poissons Ratio (x) = 0.14120 0.23593
# Poissons Ratio (y) = 0.42302 0.63692
# Poissons Ratio (z) = 0.13076 0.11783
#
# Static dielectric constant tensor:
#      x y z
#    x 3.661840 0.000000 0.051300 
#    y 0.000000 3.225580 0.000000 
#    z 0.051300 0.000000 3.918340 
# 
# 
# High freq. dielectric constant tensor:
#      x y z
#    x 1.786730 0.000000 0.001830 
#    y 0.000000 1.735700 0.000000 
#    z 0.001830 0.000000 1.799690 
# 
# From -- ./inp_files/281034.got.cif
#   From: 2010.06.25/outbox.cif.g09.slc.cpg/sg12_141_cif.got.tgz:281034.got - 2010.06.28 00:19:55.
