data_PCOD8096916
_publ_section_title
;
Structure prediction by ZEFSAII (Michael W. Deem and Ramdas Pophale) SiO2 
 PCOD8096916
Probable space group: C 2/M
;
_chemical_formula_sum "Si O2"
_cell_formula_units_Z 56
_cell_length_a 20.361751
_cell_length_b 13.141483
_cell_length_c 11.556259
_cell_angle_alpha 90.000000
_cell_angle_beta 108.513673
_cell_angle_gamma 90.000000
_cell_volume 2932.234230
_symmetry_space_group_name_H-M "C 2/M"
_symmetry_group_IT_number 12
_symmetry_cell_setting 'monoclinic'
loop_
_space_group_symop_operation_xyz
x,y,z
-x,y,-z
-x,-y,-z
x,-y,z
1/2+x,1/2+y,z
1/2-x,1/2+y,-z
1/2-x,1/2-y,-z
1/2+x,1/2-y,z
loop_
_atom_site_type_symbol
_atom_site_label
_atom_site_fract_x
_atom_site_fract_y
_atom_site_fract_z
Si Si1 0.347343 0.209031 0.532787
Si Si2 0.747504 0.239772 0.860405
Si Si3 0.264088 0.376852 0.361059
Si Si4 0.483502 0.383252 0.163957
Si Si5 0.884995 0.881979 0.905057
Si Si6 0.998739 0.256517 0.372406
Si Si7 0.631206 0.114653 0.690417
O O1 0.325143 0.320448 0.468698
O O2 0.304832 0.164975 0.616141
O O3 0.424923 0.212802 0.625204
O O4 0.340948 0.129385 0.424228
O O5 0.738878 0.342477 0.776740
O O6 0.815768 0.182952 0.851094
O O7 0.678771 0.174824 0.805746
O O8 0.750000 0.250000 0.000000
O O9 0.271857 0.500000 0.371801
O O10 0.468024 0.500000 0.175785
O O11 0.564103 0.366342 0.175774
O O12 0.465381 0.326723 0.271038
O O13 0.429507 0.342612 0.038845
O O14 0.864100 0.000000 0.905949
O O15 0.949111 0.354274 0.345038
O O16 0.000000 0.206680 0.500000
O O17 0.636979 0.000000 0.732232
#
# Coordination Sequence:
#
# PCOD8096916 Si02
#       7
#     8   8   8   8   8   8   8
#     4   9  20  37  57  81 108 141 179 222 269 317
#     4  11  22  36  54  79 110 143 178 223 273 321
#     4  10  21  37  57  82 110 140 178 224 272 322
#     4   9  18  33  53  78 104 134 176 220 264 317
#     4   9  18  34  56  76  99 137 181 223 264 310
#     4  10  20  34  51  77 109 138 170 212 264 318
#     4  10  21  36  55  78 105 141 183 219 257 315
#
# _framework density 19.098064999999998
#
# number of rings (size 3 to 8) (size 9 to 14) (size 15 to 20)
#    0.000    2.286    0.000    3.429    0.000    5.143 
#    0.000   12.143    0.000    0.000    0.000    6.000 
#    0.000    0.000    0.000    0.000    0.000    0.000 
#
# Total GULP energy -347001.230266 kJ/mol
# GULP energy per Si atom -12392.901081 kJ/mol
# Density = 1.905460 g / cm^3
# Si number density = 19.098065 Si / 1000 Ang^3
#
#
#
# Elastic Constant Matrix: (Units=GPa)
#
#
# Indices 1 2 3 4 5 6 
#
# 1 91.8359 38.5987 23.3161 0.0000 11.9063 0.0000
# 2 38.5987 112.5184 51.6760 0.0000 -3.6767 0.0000
# 3 23.3161 51.6760 95.9825 0.0000 -8.4135 0.0000
# 4 0.0000 0.0000 0.0000 21.0175 0.0000 0.9200
# 5 11.9063 -3.6767 -8.4135 0.0000 28.2952 0.0000
# 6 0.0000 0.0000 0.0000 0.9200 0.0000 21.4277
#
#
#
# Elastic Compliance Matrix: (Units=1/GPa)
#
#
# Indices 1 2 3 4 5 6 
#
# 1 0.014013 -0.004239 -0.001732 0.000000 -0.006962 0.000000
# 2 -0.004239 0.013093 -0.005867 0.000000 0.001741 0.000000
# 3 -0.001732 -0.005867 0.014370 0.000000 0.004239 0.000000
# 4 0.000000 0.000000 0.000000 0.047669 0.000000 -0.002047
# 5 -0.006962 0.001741 0.004239 0.000000 0.039758 0.000000
# 6 0.000000 0.000000 0.000000 -0.002047 0.000000 0.046756
#
#
# Mechanical properties :
#
#
# Convention : Reuss Voigt Hill
#
# Bulk Modulus (GPa) = 56.18085 58.61314 57.39700
# Shear Modulus (GPa) = 24.35838 26.59782 25.47810
#
# Velocity S-wave (km/s) = 3.57520 3.73593 3.65645
# Velocity P-wave (km/s) = 6.82082 7.02615 6.92425
#
# Compressibility (1/GPa) = 0.01779966
#
# Stress axis : x y z
#
# Youngs Moduli (GPa) = 71.36178 76.37712 69.59174
#
# Poissons Ratio (x) = 0.32377 0.12054
# Poissons Ratio (y) = 0.30251 0.40828
# Poissons Ratio (z) = 0.12360 0.44809
#
# Static dielectric constant tensor:
#      x y z
#    x 3.639150 0.000000 0.068490 
#    y 0.000000 3.271960 0.000000 
#    z 0.068490 0.000000 3.571300 
# 
# 
# High freq. dielectric constant tensor:
#      x y z
#    x 1.754670 0.000000 0.005570 
#    y 0.000000 1.720350 0.000000 
#    z 0.005570 0.000000 1.746130 
# 
# From -- ./inp_files/165702.got.cif
#   From: 2010.06.25/outbox.cif.g09.slc.cpg/sg12_83_cif.got.tgz:165702.got - 2010.06.28 00:19:55.
