data_PCOD8096164
_publ_section_title
;
Structure prediction by ZEFSAII (Michael W. Deem and Ramdas Pophale) SiO2 
 PCOD8096164
Probable space group: C 2/M
;
_chemical_formula_sum "Si O2"
_cell_formula_units_Z 64
_cell_length_a 30.052243
_cell_length_b 8.805617
_cell_length_c 14.990918
_cell_angle_alpha 90.000000
_cell_angle_beta 78.663858
_cell_angle_gamma 90.000000
_cell_volume 3889.631535
_symmetry_space_group_name_H-M "C 2/M"
_symmetry_group_IT_number 12
_symmetry_cell_setting 'monoclinic'
loop_
_space_group_symop_operation_xyz
x,y,z
-x,y,-z
-x,-y,-z
x,-y,z
1/2+x,1/2+y,z
1/2-x,1/2+y,-z
1/2-x,1/2-y,-z
1/2+x,1/2-y,z
loop_
_atom_site_type_symbol
_atom_site_label
_atom_site_fract_x
_atom_site_fract_y
_atom_site_fract_z
Si Si1 0.444217 0.677786 0.879201
Si Si2 0.529888 0.178783 0.612117
Si Si3 0.893926 0.821948 0.080611
Si Si4 0.124917 0.178108 0.248690
Si Si5 0.790894 0.321083 0.872317
Si Si6 0.539489 0.179479 0.806856
Si Si7 0.933173 0.679764 0.585640
Si Si8 0.302019 0.178871 0.070913
O O1 0.456660 0.500000 0.871413
O O2 0.412173 0.726485 0.810234
O O3 0.489513 0.776435 0.858934
O O4 0.419158 0.722966 0.979840
O O5 0.546894 0.234475 0.701716
O O6 0.479581 0.242342 0.612056
O O7 0.565224 0.225352 0.520107
O O8 0.524349 0.000000 0.613151
O O9 0.923259 0.768201 0.152218
O O10 0.845778 0.739214 0.105285
O O11 0.885565 0.000000 0.089485
O O12 0.172331 0.259024 0.211006
O O13 0.108454 0.233037 0.352194
O O14 0.133239 0.000000 0.244609
O O15 0.787648 0.500000 0.865041
O O16 0.742322 0.250849 0.866005
O O17 0.804909 0.269848 0.966488
O O18 0.545998 0.000000 0.815667
O O19 0.926849 0.500000 0.601252
O O20 0.299019 0.000000 0.081873
#
# Coordination Sequence:
#
# PCOD8096164 Si02
#       8
#     8   8   8   8   8   8   8   8
#     4  10  21  34  46  65  99 138 171 202 242 288
#     4   8  16  30  49  70  95 126 163 207 251 294
#     4  11  22  36  50  67  98 138 172 204 245 292
#     4  11  20  31  48  74 103 132 164 203 246 291
#     4  10  20  33  52  74  99 130 163 200 248 298
#     4  11  21  33  50  72  96 129 173 214 247 287
#     4   9  16  31  51  70  94 128 165 202 249 300
#     4  10  20  34  52  74  98 126 165 209 246 286
#
# _framework density 16.454000000000001
#
# number of rings (size 3 to 8) (size 9 to 14) (size 15 to 20)
#    0.000    2.000    2.500    3.000    0.000    4.000 
#    0.000    2.500    0.000    0.000    0.000    0.875 
#    0.000    0.000    0.000    0.000    0.000    0.000 
#
# Total GULP energy -396855.004539 kJ/mol
# GULP energy per Si atom -12401.718892 kJ/mol
# Density = 1.641655 g / cm^3
# Si number density = 16.454000 Si / 1000 Ang^3
#
#
#
# Elastic Constant Matrix: (Units=GPa)
#
#
# Indices 1 2 3 4 5 6 
#
# 1 98.0789 31.1502 55.2787 0.0000 -18.1382 0.0000
# 2 31.1502 51.8670 28.8802 0.0000 -7.3738 0.0000
# 3 55.2787 28.8802 94.9429 0.0000 -10.7587 0.0000
# 4 0.0000 0.0000 0.0000 21.9907 0.0000 -3.5510
# 5 -18.1382 -7.3738 -10.7587 0.0000 21.3161 0.0000
# 6 0.0000 0.0000 0.0000 -3.5510 0.0000 30.2774
#
#
#
# Elastic Compliance Matrix: (Units=1/GPa)
#
#
# Indices 1 2 3 4 5 6 
#
# 1 0.018012 -0.005079 -0.007854 0.000000 0.009606 0.000000
# 2 -0.005079 0.025104 -0.004439 0.000000 0.002122 0.000000
# 3 -0.007854 -0.004439 0.016466 0.000000 0.000093 0.000000
# 4 0.000000 0.000000 0.000000 0.046352 0.000000 0.005436
# 5 0.009606 0.002122 0.000093 0.000000 0.055867 0.000000
# 6 0.000000 0.000000 0.000000 0.005436 0.000000 0.033666
#
#
# Mechanical properties :
#
#
# Convention : Reuss Voigt Hill
#
# Bulk Modulus (GPa) = 40.25913 52.83411 46.54662
# Shear Modulus (GPa) = 20.96548 23.35549 22.16048
#
# Velocity S-wave (km/s) = 3.57345 3.77163 3.67388
# Velocity P-wave (km/s) = 6.44568 7.15170 6.80785
#
# Compressibility (1/GPa) = 0.02483908
#
# Stress axis : x y z
#
# Youngs Moduli (GPa) = 55.51926 39.83507 60.73166
#
# Poissons Ratio (x) = 0.20232 0.47696
# Poissons Ratio (y) = 0.28198 0.26956
# Poissons Ratio (z) = 0.43603 0.17681
#
# Static dielectric constant tensor:
#      x y z
#    x 3.009770 0.000000 -0.003750 
#    y 0.000000 3.004720 0.000000 
#    z -0.003750 0.000000 3.270300 
# 
# 
# High freq. dielectric constant tensor:
#      x y z
#    x 1.617030 0.000000 -0.011870 
#    y 0.000000 1.634760 0.000000 
#    z -0.011870 0.000000 1.621920 
# 
# From -- ./inp_files/243847.got.cif
#   From: 2010.06.25/outbox.cif.g09.slc.cpg/sg12_122_cif.got.tgz:243847.got - 2010.06.28 00:19:55.
