data_PCOD8096793
_publ_section_title
;
Structure prediction by ZEFSAII (Michael W. Deem and Ramdas Pophale) SiO2 
 PCOD8096793
Probable space group: C 2/M
;
_chemical_formula_sum "Si O2"
_cell_formula_units_Z 64
_cell_length_a 18.303504
_cell_length_b 9.479887
_cell_length_c 20.287739
_cell_angle_alpha 90.000000
_cell_angle_beta 93.297869
_cell_angle_gamma 90.000000
_cell_volume 3514.400415
_symmetry_space_group_name_H-M "C 2/M"
_symmetry_group_IT_number 12
_symmetry_cell_setting 'monoclinic'
loop_
_space_group_symop_operation_xyz
x,y,z
-x,y,-z
-x,-y,-z
x,-y,z
1/2+x,1/2+y,z
1/2-x,1/2+y,-z
1/2-x,1/2-y,-z
1/2+x,1/2-y,z
loop_
_atom_site_type_symbol
_atom_site_label
_atom_site_fract_x
_atom_site_fract_y
_atom_site_fract_z
Si Si1 0.810724 0.332291 0.210804
Si Si2 0.673598 0.162291 0.426810
Si Si3 0.588787 0.164495 0.664710
Si Si4 0.331115 0.843675 0.069154
Si Si5 0.853547 0.832900 0.807233
Si Si6 0.575190 0.837953 0.299140
Si Si7 0.842304 0.155570 0.953256
Si Si8 0.657330 0.664289 0.553544
O O1 0.809879 0.500000 0.205422
O O2 0.860746 0.278966 0.273087
O O3 0.843769 0.276381 0.142731
O O4 0.727726 0.279125 0.217095
O O5 0.632652 0.206150 0.358231
O O6 0.644224 0.264637 0.482137
O O7 0.759391 0.185930 0.419030
O O8 0.656960 0.000000 0.445628
O O9 0.505393 0.190874 0.678614
O O10 0.604791 0.257442 0.601765
O O11 0.604723 0.000000 0.650528
O O12 0.244922 0.850255 0.052386
O O13 0.365086 0.000000 0.066648
O O14 0.370779 0.752764 0.014495
O O15 0.912364 0.756497 0.764444
O O16 0.870542 0.789177 0.883744
O O17 0.860175 0.000000 0.798266
O O18 0.585557 0.000000 0.279300
O O19 0.873879 0.000000 0.968123
O O20 0.636187 0.500000 0.548021
#
# Coordination Sequence:
#
# PCOD8096793 Si02
#       8
#     8   8   8   8   8   8   8   8
#     4   8  15  29  49  71  93 122 160 195 232 281
#     4   9  19  36  54  73  99 126 153 190 235 279
#     4  10  20  34  51  70  97 130 158 190 235 282
#     4   8  13  23  41  65  91 117 149 191 233 274
#     4   9  17  30  49  70  94 125 158 195 237 280
#     4  10  21  34  49  71  97 126 159 194 233 278
#     4   8  14  24  39  64  94 119 147 187 237 283
#     4  10  20  34  54  77  97 121 157 196 230 273
#
# _framework density 18.210787
#
# number of rings (size 3 to 8) (size 9 to 14) (size 15 to 20)
#    0.000    3.000    0.000    2.625    0.000    2.500 
#    0.000    5.000    0.000    0.750    0.000    5.250 
#    0.000    0.000    0.000    0.000    0.000    0.000 
#
# Total GULP energy -396722.273223 kJ/mol
# GULP energy per Si atom -12397.571038 kJ/mol
# Density = 1.816934 g / cm^3
# Si number density = 18.210787 Si / 1000 Ang^3
#
#
#
# Elastic Constant Matrix: (Units=GPa)
#
#
# Indices 1 2 3 4 5 6 
#
# 1 40.4959 27.4454 32.1193 0.0000 -15.8806 0.0000
# 2 27.4454 76.1250 61.0165 0.0000 -20.6690 0.0000
# 3 32.1193 61.0165 113.6248 0.0000 -32.5882 0.0000
# 4 0.0000 0.0000 0.0000 33.3573 0.0000 -6.8358
# 5 -15.8806 -20.6690 -32.5882 0.0000 16.9339 0.0000
# 6 0.0000 0.0000 0.0000 -6.8358 0.0000 18.9093
#
#
#
# Elastic Compliance Matrix: (Units=1/GPa)
#
#
# Indices 1 2 3 4 5 6 
#
# 1 0.041240 -0.007272 0.001772 0.000000 0.033209 0.000000
# 2 -0.007272 0.025072 -0.010238 0.000000 0.004081 0.000000
# 3 0.001772 -0.010238 0.023859 0.000000 0.035081 0.000000
# 4 0.000000 0.000000 0.000000 0.032377 0.000000 0.011704
# 5 0.033209 0.004081 0.035081 0.000000 0.162689 0.000000
# 6 0.000000 0.000000 0.000000 0.011704 0.000000 0.057115
#
#
# Mechanical properties :
#
#
# Convention : Reuss Voigt Hill
#
# Bulk Modulus (GPa) = 17.03703 52.37869 34.70786
# Shear Modulus (GPa) = 12.70996 21.15107 16.93052
#
# Velocity S-wave (km/s) = 2.64471 3.41171 3.05240
# Velocity P-wave (km/s) = 4.32456 6.65918 5.61455
#
# Compressibility (1/GPa) = 0.05869569
#
# Stress axis : x y z
#
# Youngs Moduli (GPa) = 24.24836 39.88570 41.91271
#
# Poissons Ratio (x) = 0.29004 -0.07426
# Poissons Ratio (y) = 0.17633 0.42908
# Poissons Ratio (z) = -0.04296 0.40833
#
# Static dielectric constant tensor:
#      x y z
#    x 3.052360 0.000000 0.033850 
#    y 0.000000 3.323660 0.000000 
#    z 0.033850 0.000000 3.536700 
# 
# 
# High freq. dielectric constant tensor:
#      x y z
#    x 1.672060 0.000000 -0.004850 
#    y 0.000000 1.689650 0.000000 
#    z -0.004850 0.000000 1.717850 
# 
# From -- ./inp_files/314021.got.cif
#   From: 2010.06.25/outbox.cif.g09.slc.cpg/sg12_158_cif.got.tgz:314021.got - 2010.06.28 00:19:55.
