data_PCOD8096343
_publ_section_title
;
Structure prediction by ZEFSAII (Michael W. Deem and Ramdas Pophale) SiO2 
 PCOD8096343
Probable space group: C 2/M
;
_chemical_formula_sum "Si O2"
_cell_formula_units_Z 64
_cell_length_a 10.845286
_cell_length_b 30.271067
_cell_length_c 11.010691
_cell_angle_alpha 90.000000
_cell_angle_beta 72.235242
_cell_angle_gamma 90.000000
_cell_volume 3442.428757
_symmetry_space_group_name_H-M "C 2/M"
_symmetry_group_IT_number 12
_symmetry_cell_setting 'monoclinic'
loop_
_space_group_symop_operation_xyz
x,y,z
-x,y,-z
-x,-y,-z
x,-y,z
1/2+x,1/2+y,z
1/2-x,1/2+y,-z
1/2-x,1/2-y,-z
1/2+x,1/2-y,z
loop_
_atom_site_type_symbol
_atom_site_label
_atom_site_fract_x
_atom_site_fract_y
_atom_site_fract_z
Si Si1 0.796070 0.451124 0.096826
Si Si2 0.637494 0.299606 0.135685
Si Si3 0.592221 0.793838 0.078616
Si Si4 0.654037 0.189708 0.447949
Si Si5 0.342016 0.867966 0.770730
Si Si6 0.474535 0.950539 0.807608
Si Si7 0.147024 0.790588 0.408898
Si Si8 0.620802 0.612622 0.026140
O O1 0.735963 0.500000 0.125385
O O2 0.679620 0.416500 0.117554
O O3 0.878601 0.440625 0.193199
O O4 0.886033 0.448145 0.952476
O O5 0.553825 0.254755 0.142330
O O6 0.663309 0.309360 0.269004
O O7 0.565316 0.342104 0.101914
O O8 0.766133 0.294101 0.019259
O O9 0.573510 0.829190 0.191541
O O10 0.500000 0.809313 0.000000
O O11 0.500000 0.180867 0.500000
O O12 0.707771 0.151581 0.342143
O O13 0.741317 0.185530 0.543824
O O14 0.678236 0.238635 0.389640
O O15 0.429383 0.912416 0.727033
O O16 0.221267 0.879230 0.889401
O O17 0.465047 0.000000 0.752225
O O18 0.000000 0.799123 0.500000
O O19 0.500000 0.587728 0.000000
#
# Coordination Sequence:
#
# PCOD8096343 Si02
#       8
#     8   8   8   8   8   8   8   8
#     4   8  15  29  47  73 106 136 169 204 259 321
#     4  10  21  35  46  74 102 138 177 211 256 315
#     4  10  21  31  51  74 103 140 168 216 262 306
#     4  10  22  37  53  77  97 136 184 230 256 299
#     4  10  20  33  53  76 106 134 174 216 264 316
#     4   8  15  28  50  76 103 132 163 213 268 316
#     4  10  22  37  55  71 101 143 182 221 265 301
#     4  10  21  31  48  75 106 141 168 211 259 314
#
# _framework density 18.591524
#
# number of rings (size 3 to 8) (size 9 to 14) (size 15 to 20)
#    0.000    2.500    1.250    1.125    8.750    1.250 
#    0.000    0.000    0.000    0.375    0.000    0.875 
#    0.000    1.000    0.000    0.000    0.000    0.000 
#
# Total GULP energy -396528.527911 kJ/mol
# GULP energy per Si atom -12391.516497 kJ/mol
# Density = 1.854921 g / cm^3
# Si number density = 18.591524 Si / 1000 Ang^3
#
#
#
# Elastic Constant Matrix: (Units=GPa)
#
#
# Indices 1 2 3 4 5 6 
#
# 1 92.4839 47.5936 15.9822 0.0000 19.2727 0.0000
# 2 47.5936 116.0261 28.9729 0.0000 10.3488 0.0000
# 3 15.9822 28.9729 56.4173 0.0000 20.7345 0.0000
# 4 0.0000 0.0000 0.0000 17.4202 0.0000 12.6426
# 5 19.2727 10.3488 20.7345 0.0000 20.1967 0.0000
# 6 0.0000 0.0000 0.0000 12.6426 0.0000 20.5312
#
#
#
# Elastic Compliance Matrix: (Units=1/GPa)
#
#
# Indices 1 2 3 4 5 6 
#
# 1 0.017213 -0.006758 0.005393 0.000000 -0.018500 0.000000
# 2 -0.006758 0.012540 -0.007281 0.000000 0.007498 0.000000
# 3 0.005393 -0.007281 0.032852 0.000000 -0.035142 0.000000
# 4 0.000000 0.000000 0.000000 0.103787 0.000000 -0.063909
# 5 -0.018500 0.007498 -0.035142 0.000000 0.099403 0.000000
# 6 0.000000 0.000000 0.000000 -0.063909 0.000000 0.088060
#
#
# Mechanical properties :
#
#
# Convention : Reuss Voigt Hill
#
# Bulk Modulus (GPa) = 22.06808 50.00274 36.03541
# Shear Modulus (GPa) = 12.94492 23.12152 18.03322
#
# Velocity S-wave (km/s) = 2.64158 3.53038 3.11781
# Velocity P-wave (km/s) = 4.60431 6.60091 5.69085
#
# Compressibility (1/GPa) = 0.04531433
#
# Stress axis : x y z
#
# Youngs Moduli (GPa) = 58.09407 79.74407 30.43948
#
# Poissons Ratio (x) = 0.53887 -0.16417
# Poissons Ratio (y) = 0.39257 0.22164
# Poissons Ratio (z) = -0.31331 0.58064
#
# Static dielectric constant tensor:
#      x y z
#    x 3.507460 0.000000 0.170590 
#    y 0.000000 3.729510 0.000000 
#    z 0.170590 0.000000 3.068230 
# 
# 
# High freq. dielectric constant tensor:
#      x y z
#    x 1.717430 0.000000 0.016200 
#    y 0.000000 1.713430 0.000000 
#    z 0.016200 0.000000 1.681740 
# 
# From -- ./inp_files/137423.got.cif
#   From: 2010.06.25/outbox.cif.g09.slc.cpg/sg12_69_cif.got.tgz:137423.got - 2010.06.28 00:19:55.
