data_PCOD8096056
_publ_section_title
;
Structure prediction by ZEFSAII (Michael W. Deem and Ramdas Pophale) SiO2 
 PCOD8096056
Probable space group: C 2/M
;
_chemical_formula_sum "Si O2"
_cell_formula_units_Z 64
_cell_length_a 31.445555
_cell_length_b 8.636234
_cell_length_c 23.115557
_cell_angle_alpha 90.000000
_cell_angle_beta 147.957128
_cell_angle_gamma 90.000000
_cell_volume 3330.560711
_symmetry_space_group_name_H-M "C 2/M"
_symmetry_group_IT_number 12
_symmetry_cell_setting 'monoclinic'
loop_
_space_group_symop_operation_xyz
x,y,z
-x,y,-z
-x,-y,-z
x,-y,z
1/2+x,1/2+y,z
1/2-x,1/2+y,-z
1/2-x,1/2-y,-z
1/2+x,1/2-y,z
loop_
_atom_site_type_symbol
_atom_site_label
_atom_site_fract_x
_atom_site_fract_y
_atom_site_fract_z
Si Si1 0.821596 0.672475 0.704482
Si Si2 0.674962 0.181764 0.585845
Si Si3 0.664318 0.826345 0.407296
Si Si4 0.586170 0.678772 0.092947
Si Si5 0.050403 0.180514 0.367396
Si Si6 0.265610 0.683541 0.806088
Si Si7 0.878612 0.679213 0.151810
Si Si8 0.752973 0.819577 0.090528
O O1 0.823474 0.500000 0.734404
O O2 0.729339 0.733366 0.599222
O O3 0.864512 0.665902 0.692181
O O4 0.869794 0.798479 0.796031
O O5 0.584525 0.234329 0.464912
O O6 0.701757 0.229813 0.681861
O O7 0.684618 0.000000 0.590131
O O8 0.750000 0.750000 0.500000
O O9 0.601193 0.726016 0.369704
O O10 0.669662 0.000000 0.439970
O O11 0.571529 0.500000 0.064015
O O12 0.645139 0.739869 0.110324
O O13 0.500000 0.764714 0.000000
O O14 0.958875 0.222347 0.249349
O O15 0.057064 0.000000 0.386331
O O16 0.262676 0.500000 0.814097
O O17 0.246088 0.776193 0.841221
O O18 0.902169 0.500000 0.181847
O O19 0.821711 0.719147 0.139877
O O20 0.832477 0.718467 0.038429
O O21 0.773331 0.000000 0.106447
#
# Coordination Sequence:
#
# PCOD8096056 Si02
#       8
#     8   8   8   8   8   8   8   8
#     4  10  20  33  51  76 106 143 189 234 279 330
#     4  10  20  36  57  80 112 152 191 231 280 340
#     4  11  22  35  53  79 112 150 191 233 280 335
#     4   9  19  35  53  76 109 149 191 232 279 334
#     4  12  24  37  57  86 118 152 194 241 290 342
#     4   9  19  35  58  85 112 150 191 231 285 346
#     4  10  22  41  63  87 117 151 185 232 291 348
#     4  10  21  39  64  90 115 146 188 236 289 345
#
# _framework density 19.215983000000001
#
# number of rings (size 3 to 8) (size 9 to 14) (size 15 to 20)
#    0.000    1.875    1.250    3.750    0.000    6.750 
#    0.000    3.125    0.000    3.750    0.000    0.000 
#    0.000    0.000    0.000    0.000    0.000    0.000 
#
# Total GULP energy -396629.397371 kJ/mol
# GULP energy per Si atom -12394.668668 kJ/mol
# Density = 1.917225 g / cm^3
# Si number density = 19.215983 Si / 1000 Ang^3
#
#
#
# Elastic Constant Matrix: (Units=GPa)
#
#
# Indices 1 2 3 4 5 6 
#
# 1 93.1921 27.2391 45.8157 0.0000 -13.3227 0.0000
# 2 27.2391 61.8330 20.5655 0.0000 -3.4775 0.0000
# 3 45.8157 20.5655 95.3485 0.0000 4.2065 0.0000
# 4 0.0000 0.0000 0.0000 27.6262 0.0000 0.2194
# 5 -13.3227 -3.4775 4.2065 0.0000 25.5703 0.0000
# 6 0.0000 0.0000 0.0000 0.2194 0.0000 30.1502
#
#
#
# Elastic Compliance Matrix: (Units=1/GPa)
#
#
# Indices 1 2 3 4 5 6 
#
# 1 0.017216 -0.004470 -0.007734 0.000000 0.009634 0.000000
# 2 -0.004470 0.018816 -0.001935 0.000000 0.000548 0.000000
# 3 -0.007734 -0.001935 0.014919 0.000000 -0.006747 0.000000
# 4 0.000000 0.000000 0.000000 0.036200 0.000000 -0.000263
# 5 0.009634 0.000548 -0.006747 0.000000 0.045312 0.000000
# 6 0.000000 0.000000 0.000000 -0.000263 0.000000 0.033169
#
#
# Mechanical properties :
#
#
# Convention : Reuss Voigt Hill
#
# Bulk Modulus (GPa) = 44.10223 48.62380 46.36302
# Shear Modulus (GPa) = 24.81793 27.11958 25.96876
#
# Velocity S-wave (km/s) = 3.59768 3.76081 3.68015
# Velocity P-wave (km/s) = 6.34495 6.64959 6.49905
#
# Compressibility (1/GPa) = 0.02267459
#
# Stress axis : x y z
#
# Youngs Moduli (GPa) = 58.08382 53.14586 67.02974
#
# Poissons Ratio (x) = 0.23758 0.51837
# Poissons Ratio (y) = 0.25966 0.12967
# Poissons Ratio (z) = 0.44919 0.10281
#
# Static dielectric constant tensor:
#      x y z
#    x 3.435540 0.000000 -0.115570 
#    y 0.000000 3.551300 0.000000 
#    z -0.115570 0.000000 3.618460 
# 
# 
# High freq. dielectric constant tensor:
#      x y z
#    x 1.735080 0.000000 -0.007940 
#    y 0.000000 1.752960 0.000000 
#    z -0.007940 0.000000 1.747510 
# 
# From -- ./inp_files/353442.got.cif
#   From: 2010.06.25/outbox.cif.g09.slc.cpg/sg12_177_cif.got.tgz:353442.got - 2010.06.28 00:19:55.
