data_PCOD8096755
_publ_section_title
;
Structure prediction by ZEFSAII (Michael W. Deem and Ramdas Pophale) SiO2 
 PCOD8096755
Probable space group: C 2/M
;
_chemical_formula_sum "Si O2"
_cell_formula_units_Z 48
_cell_length_a 20.224240
_cell_length_b 9.509596
_cell_length_c 16.348407
_cell_angle_alpha 90.000000
_cell_angle_beta 64.194085
_cell_angle_gamma 90.000000
_cell_volume 2830.638093
_symmetry_space_group_name_H-M "C 2/M"
_symmetry_group_IT_number 12
_symmetry_cell_setting 'monoclinic'
loop_
_space_group_symop_operation_xyz
x,y,z
-x,y,-z
-x,-y,-z
x,-y,z
1/2+x,1/2+y,z
1/2-x,1/2+y,-z
1/2-x,1/2-y,-z
1/2+x,1/2-y,z
loop_
_atom_site_type_symbol
_atom_site_label
_atom_site_fract_x
_atom_site_fract_y
_atom_site_fract_z
Si Si1 0.963672 0.161842 0.435997
Si Si2 0.295484 0.654895 0.085341
Si Si3 0.791623 0.835131 0.546771
Si Si4 0.284914 0.835130 0.711460
Si Si5 0.642346 0.155636 0.074297
Si Si6 0.066224 0.335459 0.275663
O O1 0.877427 0.185414 0.485440
O O2 0.000000 0.218186 0.500000
O O3 0.995268 0.250240 0.343214
O O4 0.985009 0.000000 0.410680
O O5 0.330096 0.500000 0.070725
O O6 0.275605 0.705899 0.187444
O O7 0.221763 0.651149 0.072504
O O8 0.356373 0.751809 0.008772
O O9 0.750000 0.750000 0.500000
O O10 0.768263 0.765860 0.644828
O O11 0.769950 0.000000 0.558045
O O12 0.365944 0.801961 0.701198
O O13 0.278380 0.000000 0.691107
O O14 0.585186 0.213946 0.172828
O O15 0.618703 0.000000 0.059876
O O16 0.048140 0.500000 0.286576
#
# Coordination Sequence:
#
# PCOD8096755 Si02
#       6
#     8   8   8   8   8   8
#     4  10  20  34  50  72  99 126 162 206 247 289
#     4   8  14  24  39  61  91 126 159 192 234 283
#     4  11  23  37  52  71  98 130 165 205 247 292
#     4   9  17  30  47  69  97 128 164 202 241 287
#     4   8  14  24  37  61  95 125 156 194 234 279
#     4   9  17  28  46  71  98 129 163 199 240 288
#
# _framework density 16.957308000000001
#
# number of rings (size 3 to 8) (size 9 to 14) (size 15 to 20)
#    0.000    2.833    1.667    2.500    0.000    3.000 
#    0.000    3.333    0.000    0.000    0.000    1.167 
#    0.000    9.333    0.000    0.000    0.000    0.000 
#
# Total GULP energy -297494.201648 kJ/mol
# GULP energy per Si atom -12395.591735 kJ/mol
# Density = 1.691871 g / cm^3
# Si number density = 16.957308 Si / 1000 Ang^3
#
#
#
# Elastic Constant Matrix: (Units=GPa)
#
#
# Indices 1 2 3 4 5 6 
#
# 1 43.0507 33.7881 34.8924 0.0000 2.9563 0.0000
# 2 33.7881 94.3638 86.9414 0.0000 1.3291 0.0000
# 3 34.8924 86.9414 159.4506 0.0000 -6.5265 0.0000
# 4 0.0000 0.0000 0.0000 39.5346 0.0000 -2.3029
# 5 2.9563 1.3291 -6.5265 0.0000 15.0589 0.0000
# 6 0.0000 0.0000 0.0000 -2.3029 0.0000 20.6242
#
#
#
# Elastic Compliance Matrix: (Units=1/GPa)
#
#
# Indices 1 2 3 4 5 6 
#
# 1 0.033106 -0.009721 -0.002214 0.000000 -0.006601 0.000000
# 2 -0.009721 0.024908 -0.011673 0.000000 -0.005349 0.000000
# 3 -0.002214 -0.011673 0.013419 0.000000 0.007281 0.000000
# 4 0.000000 0.000000 0.000000 0.025460 0.000000 0.002843
# 5 -0.006601 -0.005349 0.007281 0.000000 0.071329 0.000000
# 6 0.000000 0.000000 0.000000 0.002843 0.000000 0.048804
#
#
# Mechanical properties :
#
#
# Convention : Reuss Voigt Hill
#
# Bulk Modulus (GPa) = 41.29430 67.56766 54.43098
# Shear Modulus (GPa) = 18.36112 24.45977 21.41045
#
# Velocity S-wave (km/s) = 3.29414 3.80206 3.55718
# Velocity P-wave (km/s) = 6.23484 7.69457 7.00285
#
# Compressibility (1/GPa) = 0.02421642
#
# Stress axis : x y z
#
# Youngs Moduli (GPa) = 30.20626 40.14749 74.52149
#
# Poissons Ratio (x) = 0.39026 0.16502
# Poissons Ratio (y) = 0.29363 0.86990
# Poissons Ratio (z) = 0.06689 0.46865
#
# Static dielectric constant tensor:
#      x y z
#    x 2.425670 0.000000 0.084940 
#    y 0.000000 3.339370 0.000000 
#    z 0.084940 0.000000 3.280100 
# 
# 
# High freq. dielectric constant tensor:
#      x y z
#    x 1.594820 0.000000 -0.010170 
#    y 0.000000 1.656260 0.000000 
#    z -0.010170 0.000000 1.667990 
# 
# From -- ./inp_files/229920.got.cif
#   From: 2010.06.25/outbox.cif.g09.slc.cpg/sg12_115_cif.got.tgz:229920.got - 2010.06.28 00:19:55.
