data_PCOD8096234
_publ_section_title
;
Structure prediction by ZEFSAII (Michael W. Deem and Ramdas Pophale) SiO2 
 PCOD8096234
Probable space group: C 2/M
;
_chemical_formula_sum "Si O2"
_cell_formula_units_Z 64
_cell_length_a 14.655962
_cell_length_b 9.238169
_cell_length_c 29.821949
_cell_angle_alpha 90.000000
_cell_angle_beta 119.252845
_cell_angle_gamma 90.000000
_cell_volume 3522.797073
_symmetry_space_group_name_H-M "C 2/M"
_symmetry_group_IT_number 12
_symmetry_cell_setting 'monoclinic'
loop_
_space_group_symop_operation_xyz
x,y,z
-x,y,-z
-x,-y,-z
x,-y,z
1/2+x,1/2+y,z
1/2-x,1/2+y,-z
1/2-x,1/2-y,-z
1/2+x,1/2-y,z
loop_
_atom_site_type_symbol
_atom_site_label
_atom_site_fract_x
_atom_site_fract_y
_atom_site_fract_z
Si Si1 0.421965 0.671341 0.921821
Si Si2 0.290999 0.664983 0.382728
Si Si3 0.807811 0.830909 0.806583
Si Si4 0.424735 0.166936 0.268054
Si Si5 0.213277 0.172042 0.446673
Si Si6 0.481646 0.663993 0.368173
Si Si7 0.347262 0.671628 0.999900
Si Si8 0.630031 0.169620 0.267356
O O1 0.416804 0.500000 0.921281
O O2 0.364734 0.734151 0.864118
O O3 0.543848 0.718225 0.949997
O O4 0.359640 0.724401 0.951199
O O5 0.263402 0.500000 0.390356
O O6 0.283942 0.772690 0.422780
O O7 0.409869 0.675847 0.394786
O O8 0.213388 0.717569 0.324843
O O9 0.684592 0.800797 0.782571
O O10 0.851841 0.752652 0.773913
O O11 0.831350 0.000000 0.806732
O O12 0.428640 0.247951 0.315897
O O13 0.515828 0.217588 0.256671
O O14 0.438935 0.000000 0.283504
O O15 0.250000 0.250000 0.500000
O O16 0.095221 0.223302 0.408431
O O17 0.223550 0.000000 0.454592
O O18 0.490087 0.500000 0.353172
O O19 0.328885 0.500000 0.998724
O O20 0.250000 0.750000 0.000000
O O21 0.639334 0.000000 0.259818
#
# Coordination Sequence:
#
# PCOD8096234 Si02
#       8
#     8   8   8   8   8   8   8   8
#     4   8  17  34  52  74 108 147 179 216 271 329
#     4  10  20  37  59  80 108 141 174 216 266 318
#     4  10  20  34  53  78 109 143 182 221 260 318
#     4  10  20  33  52  78 106 139 176 216 261 312
#     4  11  24  40  59  83 109 139 178 223 269 318
#     4  10  21  37  58  80 105 140 177 213 260 319
#     4   9  17  33  57  78 102 141 186 226 271 322
#     4  10  20  34  53  79 110 143 175 216 270 315
#
# _framework density 18.167383000000001
#
# number of rings (size 3 to 8) (size 9 to 14) (size 15 to 20)
#    0.000    2.250    2.500    1.125    0.000    3.500 
#    0.000    6.250    0.000    0.000    0.000    0.000 
#    0.000    0.000    0.000    0.000    0.000    0.000 
#
# Total GULP energy -396805.701287 kJ/mol
# GULP energy per Si atom -12400.178165 kJ/mol
# Density = 1.812603 g / cm^3
# Si number density = 18.167383 Si / 1000 Ang^3
#
#
#
# Elastic Constant Matrix: (Units=GPa)
#
#
# Indices 1 2 3 4 5 6 
#
# 1 98.5419 27.0388 22.3044 0.0000 -9.6236 0.0000
# 2 27.0388 44.2198 31.8267 0.0000 -4.8139 0.0000
# 3 22.3044 31.8267 101.4949 0.0000 -8.0133 0.0000
# 4 0.0000 0.0000 0.0000 25.3962 0.0000 -6.0481
# 5 -9.6236 -4.8139 -8.0133 0.0000 24.5589 0.0000
# 6 0.0000 0.0000 0.0000 -6.0481 0.0000 31.7585
#
#
#
# Elastic Compliance Matrix: (Units=1/GPa)
#
#
# Indices 1 2 3 4 5 6 
#
# 1 0.012481 -0.007077 -0.000254 0.000000 0.003421 0.000000
# 2 -0.007077 0.033409 -0.008851 0.000000 0.000887 0.000000
# 3 -0.000254 -0.008851 0.012871 0.000000 0.002365 0.000000
# 4 0.000000 0.000000 0.000000 0.041247 0.000000 0.007855
# 5 0.003421 0.000887 0.002365 0.000000 0.043005 0.000000
# 6 0.000000 0.000000 0.000000 0.007855 0.000000 0.032984
#
#
# Mechanical properties :
#
#
# Convention : Reuss Voigt Hill
#
# Bulk Modulus (GPa) = 37.88225 45.17737 41.52981
# Shear Modulus (GPa) = 23.02475 27.21516 25.11996
#
# Velocity S-wave (km/s) = 3.56387 3.87463 3.72250
# Velocity P-wave (km/s) = 6.15077 6.70360 6.43313
#
# Compressibility (1/GPa) = 0.02639758
#
# Stress axis : x y z
#
# Youngs Moduli (GPa) = 80.11997 29.93242 77.69605
#
# Poissons Ratio (x) = 0.21183 0.01970
# Poissons Ratio (y) = 0.56700 0.68769
# Poissons Ratio (z) = 0.02032 0.26493
#
# Static dielectric constant tensor:
#      x y z
#    x 3.533120 0.000000 0.090220 
#    y 0.000000 3.190590 0.000000 
#    z 0.090220 0.000000 3.535800 
# 
# 
# High freq. dielectric constant tensor:
#      x y z
#    x 1.716530 0.000000 0.002360 
#    y 0.000000 1.686260 0.000000 
#    z 0.002360 0.000000 1.702600 
# 
# From -- ./inp_files/359993.got.cif
#   From: 2010.06.25/outbox.cif.g09.slc.cpg/sg12_180_cif.got.tgz:359993.got - 2010.06.28 00:19:55.
