data_PCOD8096621
_publ_section_title
;
Structure prediction by ZEFSAII (Michael W. Deem and Ramdas Pophale) SiO2 
 PCOD8096621
Probable space group: C 2/M
;
_chemical_formula_sum "Si O2"
_cell_formula_units_Z 64
_cell_length_a 23.557554
_cell_length_b 13.937693
_cell_length_c 18.849524
_cell_angle_alpha 90.000000
_cell_angle_beta 148.538363
_cell_angle_gamma 90.000000
_cell_volume 3230.217024
_symmetry_space_group_name_H-M "C 2/M"
_symmetry_group_IT_number 12
_symmetry_cell_setting 'monoclinic'
loop_
_space_group_symop_operation_xyz
x,y,z
-x,y,-z
-x,-y,-z
x,-y,z
1/2+x,1/2+y,z
1/2-x,1/2+y,-z
1/2-x,1/2-y,-z
1/2+x,1/2-y,z
loop_
_atom_site_type_symbol
_atom_site_label
_atom_site_fract_x
_atom_site_fract_y
_atom_site_fract_z
Si Si1 0.662887 0.799206 0.562442
Si Si2 0.943324 0.607858 0.287924
Si Si3 0.877330 0.108252 0.156328
Si Si4 0.883503 0.107537 0.548153
Si Si5 0.646667 0.891493 0.964644
Si Si6 0.269041 0.888187 0.220534
Si Si7 0.145039 0.110985 0.318351
Si Si8 0.577396 0.702143 0.941390
O O1 0.540819 0.821203 0.408482
O O2 0.676518 0.684246 0.566595
O O3 0.680132 0.826846 0.661861
O O4 0.743291 0.857936 0.597949
O O5 0.983876 0.500000 0.345949
O O6 0.907433 0.622261 0.169462
O O7 0.840906 0.631950 0.228051
O O8 0.879598 0.175798 0.090764
O O9 0.986054 0.118584 0.318828
O O10 0.866174 0.000000 0.114295
O O11 0.775109 0.132913 0.097024
O O12 0.845891 0.128573 0.588307
O O13 0.848280 0.000000 0.487506
O O14 0.591592 0.817837 0.961599
O O15 0.628169 0.000000 0.972653
O O16 0.266189 0.000000 0.238579
O O17 0.147264 0.851157 0.076119
O O18 0.047629 0.173190 0.180623
O O19 0.120447 0.000000 0.276092
#
# Coordination Sequence:
#
# PCOD8096621 Si02
#       8
#     8   8   8   8   8   8   8   8
#     4  12  23  37  55  80 115 155 187 216 273 336
#     4  10  20  35  55  83 115 144 179 228 285 337
#     4   9  16  31  55  83 110 137 178 233 281 323
#     4   9  20  36  58  83 109 144 188 233 277 323
#     4  10  20  33  56  87 114 142 184 235 281 326
#     4  11  23  37  56  82 112 147 184 228 280 339
#     4  10  21  38  60  85 110 140 185 239 279 322
#     4  11  20  34  57  83 111 146 185 227 281 327
#
# _framework density 19.812909999999999
#
# number of rings (size 3 to 8) (size 9 to 14) (size 15 to 20)
#    0.000    1.750    1.250    5.625    1.750    1.500 
#    0.000    3.750    0.000    1.500    0.000    1.750 
#    0.000    0.000    0.000    0.000    0.000    0.000 
#
# Total GULP energy -396865.592017 kJ/mol
# GULP energy per Si atom -12402.049751 kJ/mol
# Density = 1.976781 g / cm^3
# Si number density = 19.812910 Si / 1000 Ang^3
#
#
#
# Elastic Constant Matrix: (Units=GPa)
#
#
# Indices 1 2 3 4 5 6 
#
# 1 14.4372 22.5947 17.4831 0.0000 -9.4931 0.0000
# 2 22.5947 88.9075 15.1613 0.0000 1.4727 0.0000
# 3 17.4831 15.1613 42.6794 0.0000 6.1744 0.0000
# 4 0.0000 0.0000 0.0000 31.7744 0.0000 1.2472
# 5 -9.4931 1.4727 6.1744 0.0000 -8.4256 0.0000
# 6 0.0000 0.0000 0.0000 1.2472 0.0000 22.0059
#
#
#
# Elastic Compliance Matrix: (Units=1/GPa)
#
#
# Indices 1 2 3 4 5 6 
#
# 1 0.052086 -0.010790 -0.007903 0.000000 -0.066362 0.000000
# 2 -0.010790 0.014200 -0.002479 0.000000 0.012822 0.000000
# 3 -0.007903 -0.002479 0.023800 0.000000 0.025912 0.000000
# 4 0.000000 0.000000 0.000000 0.031542 0.000000 -0.001788
# 5 -0.066362 0.012822 0.025912 0.000000 -0.022686 0.000000
# 6 0.000000 0.000000 0.000000 -0.001788 0.000000 0.045544
#
#
# Mechanical properties :
#
#
# Convention : Reuss Voigt Hill
#
# Bulk Modulus (GPa) = 20.94601 28.50023 24.72312
# Shear Modulus (GPa) = 24.66162 15.12327 19.89244
#
# Velocity S-wave (km/s) = 3.53189 2.76579 3.17206
# Velocity P-wave (km/s) = 5.21797 4.96139 5.09130
#
# Compressibility (1/GPa) = 0.04774180
#
# Stress axis : x y z
#
# Youngs Moduli (GPa) = 19.19902 70.42141 42.01704
#
# Poissons Ratio (x) = 0.75985 0.33205
# Poissons Ratio (y) = 0.20716 0.10418
# Poissons Ratio (z) = 0.15172 0.17460
#
# Static dielectric constant tensor:
#      x y z
#    x 3.277510 0.000000 0.198390 
#    y 0.000000 3.843410 0.000000 
#    z 0.198390 0.000000 3.512780 
# 
# 
# High freq. dielectric constant tensor:
#      x y z
#    x 1.736780 0.000000 0.020210 
#    y 0.000000 1.787950 0.000000 
#    z 0.020210 0.000000 1.762320 
# 
# From -- ./inp_files/290142.got.cif
#   From: 2010.06.25/outbox.cif.g09.slc.cpg/sg12_146_cif.got.tgz:290142.got - 2010.06.28 00:19:55.
