data_PCOD8096155
_publ_section_title
;
Structure prediction by ZEFSAII (Michael W. Deem and Ramdas Pophale) SiO2 
 PCOD8096155
Probable space group: C 2/M
;
_chemical_formula_sum "Si O2"
_cell_formula_units_Z 40
_cell_length_a 10.050855
_cell_length_b 20.551496
_cell_length_c 14.745463
_cell_angle_alpha 90.000000
_cell_angle_beta 142.308818
_cell_angle_gamma 90.000000
_cell_volume 1862.233066
_symmetry_space_group_name_H-M "C 2/M"
_symmetry_group_IT_number 12
_symmetry_cell_setting 'monoclinic'
loop_
_space_group_symop_operation_xyz
x,y,z
-x,y,-z
-x,-y,-z
x,-y,z
1/2+x,1/2+y,z
1/2-x,1/2+y,-z
1/2-x,1/2-y,-z
1/2+x,1/2-y,z
loop_
_atom_site_type_symbol
_atom_site_label
_atom_site_fract_x
_atom_site_fract_y
_atom_site_fract_z
Si Si1 0.904885 0.427704 0.319946
Si Si2 0.676457 0.802961 0.530215
Si Si3 0.378322 0.075332 0.099668
Si Si4 0.141432 0.073951 0.657919
Si Si5 0.512579 0.392238 0.229157
O O1 0.016678 0.500000 0.384395
O O2 0.818142 0.414456 0.172150
O O3 0.696976 0.431594 0.273809
O O4 0.077614 0.371429 0.438677
O O5 0.500000 0.769128 0.500000
O O6 0.750000 0.750000 0.500000
O O7 0.893454 0.819813 0.703939
O O8 0.617435 0.105527 0.208729
O O9 0.360637 0.000000 0.060389
O O10 0.207837 0.114567 0.946446
O O11 0.026538 0.076649 0.693069
O O12 0.000000 0.107187 0.500000
O O13 0.181200 0.000000 0.649533
#
# Coordination Sequence:
#
# PCOD8096155 Si02
#       5
#     8   8   8   8   8
#     4  10  21  38  63  94 125 158 201 255 314 373
#     4  10  24  43  63  87 121 167 211 254 306 369
#     4  10  20  34  56  92 131 161 197 253 316 372
#     4  10  20  33  51  82 124 165 201 241 298 365
#     4  11  21  35  59  88 118 159 204 254 309 359
#
# _framework density 21.479588
#
# number of rings (size 3 to 8) (size 9 to 14) (size 15 to 20)
#    0.000    1.800    0.000    4.200    0.000   12.400 
#    0.000    1.000    0.000    3.000    0.000    0.000 
#    0.000    0.000    0.000    0.000    0.000    0.000 
#
# Total GULP energy -247855.290691 kJ/mol
# GULP energy per Si atom -12392.764535 kJ/mol
# Density = 2.143070 g / cm^3
# Si number density = 21.479588 Si / 1000 Ang^3
#
#
#
# Elastic Constant Matrix: (Units=GPa)
#
#
# Indices 1 2 3 4 5 6 
#
# 1 175.9141 57.8683 81.3692 -0.0003 -7.8034 -0.0001
# 2 57.8683 76.0814 53.3885 -0.0001 9.7617 0.0000
# 3 81.3692 53.3885 186.0037 -0.0032 4.5091 -0.0015
# 4 -0.0003 -0.0001 -0.0032 6.0424 -0.0013 -9.8635
# 5 -7.8034 9.7617 4.5091 -0.0013 36.6586 -0.0005
# 6 -0.0001 0.0000 -0.0015 -9.8635 -0.0005 32.2166
#
#
#
# Elastic Compliance Matrix: (Units=1/GPa)
#
#
# Indices 1 2 3 4 5 6 
#
# 1 0.008719 -0.005454 -0.002336 0.000000 0.003595 0.000000
# 2 -0.005454 0.020419 -0.003325 -0.000007 -0.006189 -0.000002
# 3 -0.002336 -0.003325 0.007365 0.000008 -0.000518 0.000003
# 4 0.000000 -0.000007 0.000008 0.330843 0.000014 0.101292
# 5 0.003595 -0.006189 -0.000518 0.000014 0.029756 0.000005
# 6 0.000000 -0.000002 0.000003 0.101292 0.000005 0.062052
#
#
# Mechanical properties :
#
#
# Convention : Reuss Voigt Hill
#
# Bulk Modulus (GPa) = 70.05878 91.47237 80.76558
# Shear Modulus (GPa) = 10.28507 31.34173 20.81340
#
# Velocity S-wave (km/s) = 2.19059 3.82401 3.11623
# Velocity P-wave (km/s) = 6.25184 7.88515 7.11552
#
# Compressibility (1/GPa) = 0.01427373
#
# Stress axis : x y z
#
# Youngs Moduli (GPa) = 114.69827 48.97306 135.77652
#
# Poissons Ratio (x) = 0.26708 0.31715
# Poissons Ratio (y) = 0.62552 0.45148
# Poissons Ratio (z) = 0.26792 0.16284
#
# Static dielectric constant tensor:
#      x y z
#    x 4.254120 0.000000 0.166510 
#    y 0.000000 3.443110 0.000000 
#    z 0.166510 0.000000 4.221870 
# 
# 
# High freq. dielectric constant tensor:
#      x y z
#    x 1.869260 0.000000 0.000620 
#    y 0.000000 1.788830 0.000000 
#    z 0.000620 0.000000 1.850630 
# 
# From -- ./inp_files/198678.got.cif
#   From: 2010.06.25/outbox.cif.g09.slc.cpg/sg12_100_cif.got.tgz:198678.got - 2010.06.28 00:19:55.
