data_PCOD8096397
_publ_section_title
;
Structure prediction by ZEFSAII (Michael W. Deem and Ramdas Pophale) SiO2 
 PCOD8096397
Probable space group: C 2/M
;
_chemical_formula_sum "Si O2"
_cell_formula_units_Z 56
_cell_length_a 24.799707
_cell_length_b 13.424620
_cell_length_c 9.366922
_cell_angle_alpha 90.000000
_cell_angle_beta 72.035671
_cell_angle_gamma 90.000000
_cell_volume 2966.467125
_symmetry_space_group_name_H-M "C 2/M"
_symmetry_group_IT_number 12
_symmetry_cell_setting 'monoclinic'
loop_
_space_group_symop_operation_xyz
x,y,z
-x,y,-z
-x,-y,-z
x,-y,z
1/2+x,1/2+y,z
1/2-x,1/2+y,-z
1/2-x,1/2-y,-z
1/2+x,1/2-y,z
loop_
_atom_site_type_symbol
_atom_site_label
_atom_site_fract_x
_atom_site_fract_y
_atom_site_fract_z
Si Si1 0.358203 0.112600 0.904481
Si Si2 0.055760 0.108515 0.865438
Si Si3 0.844285 0.760911 0.169443
Si Si4 0.643659 0.217862 0.511067
Si Si5 0.233394 0.614825 0.256834
Si Si6 0.443913 0.615457 0.457510
Si Si7 0.440341 0.114700 0.594537
O O1 0.300246 0.114959 0.863268
O O2 0.409700 0.158018 0.763736
O O3 0.373736 0.000000 0.934897
O O4 0.344833 0.169694 0.060641
O O5 0.097296 0.183902 0.908281
O O6 0.039612 0.138461 0.718348
O O7 0.084939 0.000000 0.840017
O O8 0.000000 0.107750 0.000000
O O9 0.843757 0.723735 0.332423
O O10 0.794956 0.839681 0.178567
O O11 0.703880 0.191571 0.391203
O O12 0.612295 0.316271 0.466960
O O13 0.601573 0.126744 0.506657
O O14 0.237793 0.500000 0.311072
O O15 0.500000 0.646073 0.500000
O O16 0.427712 0.500000 0.500510
O O17 0.500000 0.166678 0.500000
O O18 0.451226 0.000000 0.615598
#
# Coordination Sequence:
#
# PCOD8096397 Si02
#       7
#     8   8   8   8   8   8   8
#     4   9  20  36  54  77 105 136 173 219 262 307
#     4   9  19  34  51  75 105 136 171 211 261 318
#     4  11  21  34  55  80 106 136 174 221 272 314
#     4  10  20  33  53  80 106 138 178 220 265 310
#     4  10  21  39  57  74 102 141 180 216 263 324
#     4   9  18  33  52  76 109 143 175 214 256 304
#     4   9  18  35  57  78 105 144 180 209 254 318
#
# _framework density 18.877673000000001
#
# number of rings (size 3 to 8) (size 9 to 14) (size 15 to 20)
#    0.000    2.429    0.000    3.000    0.000    6.286 
#    0.000    0.714    0.000    6.429    0.000    0.000 
#    0.000    0.000    0.000    0.000    0.000    0.000 
#
# Total GULP energy -346892.169876 kJ/mol
# GULP energy per Si atom -12389.006067 kJ/mol
# Density = 1.883471 g / cm^3
# Si number density = 18.877673 Si / 1000 Ang^3
#
#
#
# Elastic Constant Matrix: (Units=GPa)
#
#
# Indices 1 2 3 4 5 6 
#
# 1 83.8241 38.7003 49.1418 0.0000 0.5809 0.0000
# 2 38.7003 95.7365 61.4775 0.0000 0.4765 0.0000
# 3 49.1418 61.4775 74.7714 0.0000 6.4061 0.0000
# 4 0.0000 0.0000 0.0000 29.7632 0.0000 -2.0235
# 5 0.5809 0.4765 6.4061 0.0000 20.7496 0.0000
# 6 0.0000 0.0000 0.0000 -2.0235 0.0000 26.1686
#
#
#
# Elastic Compliance Matrix: (Units=1/GPa)
#
#
# Indices 1 2 3 4 5 6 
#
# 1 0.019714 0.001148 -0.014227 0.000000 0.003814 0.000000
# 2 0.001148 0.022767 -0.019954 0.000000 0.005605 0.000000
# 3 -0.014227 -0.019954 0.040118 0.000000 -0.011529 0.000000
# 4 0.000000 0.000000 0.000000 0.033776 0.000000 0.002612
# 5 0.003814 0.005605 -0.011529 0.000000 0.051518 0.000000
# 6 0.000000 0.000000 0.000000 0.002612 0.000000 0.038416
#
#
# Mechanical properties :
#
#
# Convention : Reuss Voigt Hill
#
# Bulk Modulus (GPa) = 60.48399 61.44125 60.96262
# Shear Modulus (GPa) = 17.99306 22.33712 20.16509
#
# Velocity S-wave (km/s) = 3.09065 3.44358 3.27188
# Velocity P-wave (km/s) = 6.69669 6.95907 6.82914
#
# Compressibility (1/GPa) = 0.01653330
#
# Stress axis : x y z
#
# Youngs Moduli (GPa) = 50.72535 43.92393 24.92632
#
# Poissons Ratio (x) = -0.05042 0.35463
# Poissons Ratio (y) = -0.05823 0.49737
# Poissons Ratio (z) = 0.72168 0.87644
#
# Static dielectric constant tensor:
#      x y z
#    x 3.542800 0.000000 -0.077680 
#    y 0.000000 3.659410 0.000000 
#    z -0.077680 0.000000 3.366060 
# 
# 
# High freq. dielectric constant tensor:
#      x y z
#    x 1.736800 0.000000 -0.001640 
#    y 0.000000 1.736730 0.000000 
#    z -0.001640 0.000000 1.721270 
# 
# From -- ./inp_files/96270.got.cif
#   From: 2010.06.25/outbox.cif.g09.slc.cpg/sg12_49_cif.got.tgz:96270.got - 2010.06.28 00:19:55.
