data_PCOD8096232
_publ_section_title
;
Structure prediction by ZEFSAII (Michael W. Deem and Ramdas Pophale) SiO2 
 PCOD8096232
Probable space group: C 2/M
;
_chemical_formula_sum "Si O2"
_cell_formula_units_Z 64
_cell_length_a 19.336424
_cell_length_b 8.902163
_cell_length_c 24.768147
_cell_angle_alpha 90.000000
_cell_angle_beta 124.955900
_cell_angle_gamma 90.000000
_cell_volume 3494.327506
_symmetry_space_group_name_H-M "C 2/M"
_symmetry_group_IT_number 12
_symmetry_cell_setting 'monoclinic'
loop_
_space_group_symop_operation_xyz
x,y,z
-x,y,-z
-x,-y,-z
x,-y,z
1/2+x,1/2+y,z
1/2-x,1/2+y,-z
1/2-x,1/2-y,-z
1/2+x,1/2-y,z
loop_
_atom_site_type_symbol
_atom_site_label
_atom_site_fract_x
_atom_site_fract_y
_atom_site_fract_z
Si Si1 0.595423 0.176453 0.554330
Si Si2 0.736395 0.674855 0.075252
Si Si3 0.350242 0.331681 0.689349
Si Si4 0.290732 0.828091 0.826784
Si Si5 0.948879 0.673817 0.820778
Si Si6 0.120754 0.824856 0.923075
Si Si7 0.192974 0.665798 0.698508
Si Si8 0.756604 0.821643 0.444660
O O1 0.500000 0.223543 0.500000
O O2 0.613705 0.214566 0.625749
O O3 0.655338 0.272120 0.542450
O O4 0.612189 0.000000 0.550876
O O5 0.758441 0.500000 0.085732
O O6 0.701563 0.725805 0.117226
O O7 0.821569 0.764690 0.099850
O O8 0.664418 0.712059 0.999547
O O9 0.376181 0.500000 0.683096
O O10 0.428810 0.254474 0.754941
O O11 0.272351 0.337319 0.694725
O O12 0.324049 0.235151 0.625551
O O13 0.374922 0.799846 0.830610
O O14 0.208995 0.780988 0.754579
O O15 0.279725 0.000000 0.839064
O O16 0.962281 0.500000 0.814199
O O17 0.032144 0.741425 0.884286
O O18 0.105517 0.000000 0.907593
O O19 0.178276 0.500000 0.716847
O O20 0.750000 0.750000 0.500000
O O21 0.753182 0.000000 0.446886
#
# Coordination Sequence:
#
# PCOD8096232 Si02
#       8
#     8   8   8   8   8   8   8   8
#     4   9  18  34  55  78 105 137 173 214 262 314
#     4  10  21  37  56  76 102 137 175 214 260 313
#     4   9  17  32  53  76 103 136 174 214 259 309
#     4  10  20  33  52  78 106 135 171 214 256 304
#     4  10  20  34  54  81 109 137 171 212 257 305
#     4  10  21  37  56  77 103 137 174 213 259 312
#     4   8  15  29  50  74 101 134 169 208 256 308
#     4  11  21  34  53  77 106 139 178 219 262 312
#
# _framework density 18.315397999999998
#
# number of rings (size 3 to 8) (size 9 to 14) (size 15 to 20)
#    0.000    2.375    0.000    3.750    0.000    6.750 
#    0.000    3.750    0.000    1.500    0.000    0.000 
#    0.000    0.000    0.000    0.000    0.000    0.000 
#
# Total GULP energy -396819.272471 kJ/mol
# GULP energy per Si atom -12400.602265 kJ/mol
# Density = 1.827371 g / cm^3
# Si number density = 18.315398 Si / 1000 Ang^3
#
#
#
# Elastic Constant Matrix: (Units=GPa)
#
#
# Indices 1 2 3 4 5 6 
#
# 1 49.3708 44.5879 51.6062 0.0000 3.5892 0.0000
# 2 44.5879 118.7937 64.0113 0.0000 -1.1408 0.0000
# 3 51.6062 64.0113 125.2613 0.0000 4.9446 0.0000
# 4 0.0000 0.0000 0.0000 35.1749 0.0000 -1.3882
# 5 3.5892 -1.1408 4.9446 0.0000 29.0427 0.0000
# 6 0.0000 0.0000 0.0000 -1.3882 0.0000 28.9299
#
#
#
# Elastic Compliance Matrix: (Units=1/GPa)
#
#
# Indices 1 2 3 4 5 6 
#
# 1 0.041552 -0.008937 -0.012419 0.000000 -0.003372 0.000000
# 2 -0.008937 0.013602 -0.003356 0.000000 0.002210 0.000000
# 3 -0.012419 -0.003356 0.014860 0.000000 -0.001127 0.000000
# 4 0.000000 0.000000 0.000000 0.028483 0.000000 0.001367
# 5 -0.003372 0.002210 -0.001127 0.000000 0.035127 0.000000
# 6 0.000000 0.000000 0.000000 0.001367 0.000000 0.034632
#
#
# Mechanical properties :
#
#
# Convention : Reuss Voigt Hill
#
# Bulk Modulus (GPa) = 48.56833 68.20408 58.38620
# Shear Modulus (GPa) = 22.26734 27.51086 24.88910
#
# Velocity S-wave (km/s) = 3.49057 3.87985 3.69035
# Velocity P-wave (km/s) = 6.54376 7.57565 7.07853
#
# Compressibility (1/GPa) = 0.02058955
#
# Stress axis : x y z
#
# Youngs Moduli (GPa) = 24.06603 73.51866 67.29674
#
# Poissons Ratio (x) = 0.65700 0.83577
# Poissons Ratio (y) = 0.21507 0.22587
# Poissons Ratio (z) = 0.29888 0.24676
#
# Static dielectric constant tensor:
#      x y z
#    x 3.052610 0.000000 0.070040 
#    y 0.000000 3.524110 0.000000 
#    z 0.070040 0.000000 3.683100 
# 
# 
# High freq. dielectric constant tensor:
#      x y z
#    x 1.675300 0.000000 0.001750 
#    y 0.000000 1.722160 0.000000 
#    z 0.001750 0.000000 1.723290 
# 
# From -- ./inp_files/346117.got.cif
#   From: 2010.06.25/outbox.cif.g09.slc.cpg/sg12_174_cif.got.tgz:346117.got - 2010.06.28 00:19:55.
