data_PCOD8096974
_publ_section_title
;
Structure prediction by ZEFSAII (Michael W. Deem and Ramdas Pophale) SiO2 
 PCOD8096974
Probable space group: C 2/M
;
_chemical_formula_sum "Si O2"
_cell_formula_units_Z 64
_cell_length_a 20.712836
_cell_length_b 8.799305
_cell_length_c 24.397081
_cell_angle_alpha 90.000000
_cell_angle_beta 126.480440
_cell_angle_gamma 90.000000
_cell_volume 3575.314068
_symmetry_space_group_name_H-M "C 2/M"
_symmetry_group_IT_number 12
_symmetry_cell_setting 'monoclinic'
loop_
_space_group_symop_operation_xyz
x,y,z
-x,y,-z
-x,-y,-z
x,-y,z
1/2+x,1/2+y,z
1/2-x,1/2+y,-z
1/2-x,1/2-y,-z
1/2+x,1/2-y,z
loop_
_atom_site_type_symbol
_atom_site_label
_atom_site_fract_x
_atom_site_fract_y
_atom_site_fract_z
Si Si1 0.195441 0.823640 0.348087
Si Si2 0.913066 0.319116 0.226448
Si Si3 0.135528 0.178547 0.201039
Si Si4 0.685486 0.177690 0.506431
Si Si5 0.319546 0.679906 0.998424
Si Si6 0.566865 0.820365 0.361993
Si Si7 0.535842 0.179734 0.868087
Si Si8 0.764655 0.179978 0.851685
O O1 0.191897 0.786812 0.282021
O O2 0.286153 0.782133 0.416973
O O3 0.127621 0.730544 0.345307
O O4 0.177468 0.000000 0.350242
O O5 0.909631 0.500000 0.224591
O O6 0.939706 0.262276 0.179875
O O7 0.825658 0.251661 0.196892
O O8 0.977773 0.256490 0.303769
O O9 0.183396 0.242254 0.172746
O O10 0.054016 0.271277 0.164057
O O11 0.115828 0.000000 0.186169
O O12 0.750000 0.250000 0.500000
O O13 0.597882 0.232748 0.438910
O O14 0.688464 0.000000 0.498518
O O15 0.316093 0.500000 0.003086
O O16 0.406155 0.741673 0.058837
O O17 0.250000 0.750000 0.000000
O O18 0.306083 0.730777 0.928972
O O19 0.562194 0.000000 0.355673
O O20 0.544406 0.000000 0.877752
O O21 0.759441 0.000000 0.845063
#
# Coordination Sequence:
#
# PCOD8096974 Si02
#       8
#     8   8   8   8   8   8   8   8
#     4   9  16  26  42  67  98 126 156 199 245 286
#     4   9  16  29  50  73  94 125 166 202 236 287
#     4  10  20  34  52  73  99 134 170 203 244 296
#     4   8  14  23  37  63  96 124 153 194 242 287
#     4  11  21  36  57  79 102 130 167 208 251 298
#     4   9  15  25  45  69  93 125 162 199 241 290
#     4  11  21  35  55  77 102 130 165 208 252 296
#     4   9  19  35  53  72  97 131 168 200 242 305
#
# _framework density 17.900525999999999
#
# number of rings (size 3 to 8) (size 9 to 14) (size 15 to 20)
#    0.000    2.500    2.500    0.750    0.000    0.500 
#    0.000    3.750    0.000    0.750    0.000    5.250 
#    0.000    0.000    0.000   19.500    0.000   14.000 
#
# Total GULP energy -396456.807589 kJ/mol
# GULP energy per Si atom -12389.275237 kJ/mol
# Density = 1.785978 g / cm^3
# Si number density = 17.900526 Si / 1000 Ang^3
#
#
#
# Elastic Constant Matrix: (Units=GPa)
#
#
# Indices 1 2 3 4 5 6 
#
# 1 101.9282 11.4967 66.2335 0.0000 4.9403 0.0000
# 2 11.4967 22.7420 25.3004 0.0000 2.8262 0.0000
# 3 66.2335 25.3004 179.7736 0.0000 20.5959 0.0000
# 4 0.0000 0.0000 0.0000 19.0258 0.0000 2.8805
# 5 4.9403 2.8262 20.5959 0.0000 27.7278 0.0000
# 6 0.0000 0.0000 0.0000 2.8805 0.0000 19.8262
#
#
#
# Elastic Compliance Matrix: (Units=1/GPa)
#
#
# Indices 1 2 3 4 5 6 
#
# 1 0.012986 -0.001468 -0.004733 0.000000 0.001351 0.000000
# 2 -0.001468 0.052300 -0.006819 0.000000 -0.000004 0.000000
# 3 -0.004733 -0.006819 0.008842 0.000000 -0.005030 0.000000
# 4 0.000000 0.000000 0.000000 0.053742 0.000000 -0.007808
# 5 0.001351 -0.000004 -0.005030 0.000000 0.039560 0.000000
# 6 0.000000 0.000000 0.000000 -0.007808 0.000000 0.051573
#
#
# Mechanical properties :
#
#
# Convention : Reuss Voigt Hill
#
# Bulk Modulus (GPa) = 20.79464 56.72277 38.75871
# Shear Modulus (GPa) = 19.15171 26.74350 22.94760
#
# Velocity S-wave (km/s) = 3.27448 3.86943 3.58432
# Velocity P-wave (km/s) = 5.09296 7.19165 6.23130
#
# Compressibility (1/GPa) = 0.04808932
#
# Stress axis : x y z
#
# Youngs Moduli (GPa) = 77.00457 19.12036 113.09470
#
# Poissons Ratio (x) = 0.02806 0.53525
# Poissons Ratio (y) = 0.11302 0.77122
# Poissons Ratio (z) = 0.36444 0.13039
#
# Static dielectric constant tensor:
#      x y z
#    x 3.210490 0.000000 0.237960 
#    y 0.000000 2.125860 0.000000 
#    z 0.237960 0.000000 4.170020 
# 
# 
# High freq. dielectric constant tensor:
#      x y z
#    x 1.656840 0.000000 0.017380 
#    y 0.000000 1.667970 0.000000 
#    z 0.017380 0.000000 1.721300 
# 
# From -- ./inp_files/345563.got.cif
#   From: 2010.06.25/outbox.cif.g09.slc.cpg/sg12_173_cif.got.tgz:345563.got - 2010.06.28 00:19:55.
