data_PCOD8096236
_publ_section_title
;
Structure prediction by ZEFSAII (Michael W. Deem and Ramdas Pophale) SiO2 
 PCOD8096236
Probable space group: C 2/M
;
_chemical_formula_sum "Si O2"
_cell_formula_units_Z 64
_cell_length_a 15.336279
_cell_length_b 9.131605
_cell_length_c 26.573375
_cell_angle_alpha 90.000000
_cell_angle_beta 64.949531
_cell_angle_gamma 90.000000
_cell_volume 3371.405223
_symmetry_space_group_name_H-M "C 2/M"
_symmetry_group_IT_number 12
_symmetry_cell_setting 'monoclinic'
loop_
_space_group_symop_operation_xyz
x,y,z
-x,y,-z
-x,-y,-z
x,-y,z
1/2+x,1/2+y,z
1/2-x,1/2+y,-z
1/2-x,1/2-y,-z
1/2+x,1/2-y,z
loop_
_atom_site_type_symbol
_atom_site_label
_atom_site_fract_x
_atom_site_fract_y
_atom_site_fract_z
Si Si1 0.511546 0.338666 0.555928
Si Si2 0.184331 0.168657 0.949554
Si Si3 0.813063 0.326309 0.248542
Si Si4 0.599022 0.333663 0.322481
Si Si5 0.415746 0.172295 0.325289
Si Si6 0.322546 0.833081 0.447005
Si Si7 0.108060 0.329340 0.062994
Si Si8 0.586985 0.672378 0.867712
O O1 0.500000 0.326052 0.500000
O O2 0.557794 0.500000 0.556616
O O3 0.414789 0.324497 0.613177
O O4 0.573373 0.199128 0.555953
O O5 0.299083 0.198244 0.924022
O O6 0.144066 0.208955 0.904839
O O7 0.162201 0.000000 0.968971
O O8 0.128619 0.271138 0.002134
O O9 0.817943 0.500000 0.238444
O O10 0.704365 0.271170 0.284636
O O11 0.879041 0.280565 0.279616
O O12 0.850160 0.240560 0.191534
O O13 0.592345 0.500000 0.305491
O O14 0.517299 0.248208 0.311725
O O15 0.331550 0.216610 0.386238
O O16 0.433844 0.000000 0.324965
O O17 0.250000 0.750000 0.500000
O O18 0.293174 0.000000 0.458218
O O19 0.082374 0.500000 0.066030
O O20 0.018372 0.243695 0.108155
O O21 0.575495 0.500000 0.862557
#
# Coordination Sequence:
#
# PCOD8096236 Si02
#       8
#     8   8   8   8   8   8   8   8
#     4   9  18  32  54  79 105 138 173 215 273 338
#     4   9  20  38  58  83 118 155 186 224 278 331
#     4  10  22  39  58  79 106 147 191 231 276 332
#     4   9  19  36  57  80 107 139 182 229 274 329
#     4   9  20  38  58  77 106 143 180 224 279 335
#     4  10  20  33  52  78 107 137 173 219 273 334
#     4  10  20  36  60  88 117 151 189 229 273 326
#     4  11  23  38  56  82 115 150 189 233 279 328
#
# _framework density 18.983181999999999
#
# number of rings (size 3 to 8) (size 9 to 14) (size 15 to 20)
#    0.000    2.375    0.000    1.500    1.750    5.750 
#    0.000    3.750    0.000    0.000    0.000    0.000 
#    0.000    0.000    0.000    0.000    0.000    0.000 
#
# Total GULP energy -396607.872261 kJ/mol
# GULP energy per Si atom -12393.996008 kJ/mol
# Density = 1.893998 g / cm^3
# Si number density = 18.983182 Si / 1000 Ang^3
#
#
#
# Elastic Constant Matrix: (Units=GPa)
#
#
# Indices 1 2 3 4 5 6 
#
# 1 96.4797 39.0473 62.0675 0.0000 -10.5195 0.0000
# 2 39.0473 59.1091 49.6375 0.0000 -5.7360 0.0000
# 3 62.0675 49.6375 129.1284 0.0000 -16.0823 0.0000
# 4 0.0000 0.0000 0.0000 34.0973 0.0000 -3.8707
# 5 -10.5195 -5.7360 -16.0823 0.0000 29.4436 0.0000
# 6 0.0000 0.0000 0.0000 -3.8707 0.0000 23.7448
#
#
#
# Elastic Compliance Matrix: (Units=1/GPa)
#
#
# Indices 1 2 3 4 5 6 
#
# 1 0.016511 -0.006285 -0.005299 0.000000 0.001781 0.000000
# 2 -0.006285 0.027379 -0.007639 0.000000 -0.001084 0.000000
# 3 -0.005299 -0.007639 0.013741 0.000000 0.004124 0.000000
# 4 0.000000 0.000000 0.000000 0.029881 0.000000 0.004871
# 5 0.001781 -0.001084 0.004124 0.000000 0.036641 0.000000
# 6 0.000000 0.000000 0.000000 0.004871 0.000000 0.042909
#
#
# Mechanical properties :
#
#
# Convention : Reuss Voigt Hill
#
# Bulk Modulus (GPa) = 52.11876 65.13576 58.62726
# Shear Modulus (GPa) = 23.59574 26.38813 24.99194
#
# Velocity S-wave (km/s) = 3.52942 3.73242 3.63234
# Velocity P-wave (km/s) = 6.64258 7.27746 6.96726
#
# Compressibility (1/GPa) = 0.01918695
#
# Stress axis : x y z
#
# Youngs Moduli (GPa) = 60.56390 36.52411 72.77393
#
# Poissons Ratio (x) = 0.22955 0.38561
# Poissons Ratio (y) = 0.38064 0.55590
# Poissons Ratio (z) = 0.32091 0.27900
#
# Static dielectric constant tensor:
#      x y z
#    x 3.361910 0.000000 -0.251360 
#    y 0.000000 3.545400 0.000000 
#    z -0.251360 0.000000 4.443700 
# 
# 
# High freq. dielectric constant tensor:
#      x y z
#    x 1.732490 0.000000 -0.003390 
#    y 0.000000 1.737970 0.000000 
#    z -0.003390 0.000000 1.745140 
# 
# From -- ./inp_files/375013.got.cif
#   From: 2010.06.25/outbox.cif.g09.slc.cpg/sg12_188_cif.got.tgz:375013.got - 2010.06.28 00:19:55.
