data_PCOD8096541
_publ_section_title
;
Structure prediction by ZEFSAII (Michael W. Deem and Ramdas Pophale) SiO2 
 PCOD8096541
Probable space group: C 2/M
;
_chemical_formula_sum "Si O2"
_cell_formula_units_Z 64
_cell_length_a 34.623487
_cell_length_b 8.836455
_cell_length_c 17.352364
_cell_angle_alpha 90.000000
_cell_angle_beta 39.158760
_cell_angle_gamma 90.000000
_cell_volume 3352.441268
_symmetry_space_group_name_H-M "C 2/M"
_symmetry_group_IT_number 12
_symmetry_cell_setting 'monoclinic'
loop_
_space_group_symop_operation_xyz
x,y,z
-x,y,-z
-x,-y,-z
x,-y,z
1/2+x,1/2+y,z
1/2-x,1/2+y,-z
1/2-x,1/2-y,-z
1/2+x,1/2-y,z
loop_
_atom_site_type_symbol
_atom_site_label
_atom_site_fract_x
_atom_site_fract_y
_atom_site_fract_z
Si Si1 0.409636 0.178827 0.715193
Si Si2 0.232081 0.823788 0.805057
Si Si3 0.302655 0.678377 0.969087
Si Si4 0.513896 0.321522 0.638743
Si Si5 0.627672 0.176985 0.398423
Si Si6 0.941597 0.829875 0.144716
Si Si7 0.985577 0.677403 0.842134
Si Si8 0.371779 0.176657 0.124904
O O1 0.367417 0.252893 0.845677
O O2 0.477558 0.243386 0.624089
O O3 0.385113 0.226653 0.669591
O O4 0.409590 0.000000 0.725790
O O5 0.303173 0.781575 0.686665
O O6 0.194689 0.728412 0.800485
O O7 0.220834 0.000000 0.807000
O O8 0.209041 0.777555 0.924872
O O9 0.302042 0.500000 0.957147
O O10 0.250000 0.750000 0.000000
O O11 0.507996 0.500000 0.641484
O O12 0.584351 0.270555 0.522845
O O13 0.485233 0.267404 0.763176
O O14 0.614485 0.000000 0.429392
O O15 0.956209 0.730170 0.197406
O O16 0.885093 0.758686 0.185431
O O17 0.924783 0.000000 0.196485
O O18 0.000000 0.828561 0.000000
O O19 0.991241 0.500000 0.817020
O O20 0.922604 0.719802 0.982582
O O21 0.372196 0.000000 0.140777
#
# Coordination Sequence:
#
# PCOD8096541 Si02
#       8
#     8   8   8   8   8   8   8   8
#     4  11  22  39  59  80 107 144 186 231 283 334
#     4  10  21  37  55  78 109 147 186 224 272 328
#     4  11  21  35  55  81 111 144 181 225 276 330
#     4  12  25  38  55  82 109 140 186 236 279 327
#     4  10  22  41  58  74 103 147 190 230 279 331
#     4   9  17  31  54  83 115 147 176 217 270 323
#     4  10  20  36  57  82 114 149 182 221 270 327
#     4  10  20  33  54  86 116 145 181 220 266 325
#
# _framework density 19.090565000000002
#
# number of rings (size 3 to 8) (size 9 to 14) (size 15 to 20)
#    0.000    1.625    1.250    4.125    0.000    9.000 
#    0.000    0.000    0.000    0.750    0.000    0.000 
#    0.000    0.000    0.000    0.000    0.000    0.000 
#
# Total GULP energy -396956.979733 kJ/mol
# GULP energy per Si atom -12404.905617 kJ/mol
# Density = 1.904711 g / cm^3
# Si number density = 19.090565 Si / 1000 Ang^3
#
#
#
# Elastic Constant Matrix: (Units=GPa)
#
#
# Indices 1 2 3 4 5 6 
#
# 1 113.7540 35.4127 18.5846 0.0002 -21.5661 -0.0002
# 2 35.4127 67.4247 13.3633 -0.0009 -5.8741 -0.0004
# 3 18.5846 13.3633 51.5561 0.0002 -15.2532 -0.0002
# 4 0.0002 -0.0009 0.0002 29.8464 0.0004 -2.9270
# 5 -21.5661 -5.8741 -15.2532 0.0004 21.7318 0.0000
# 6 -0.0002 -0.0004 -0.0002 -2.9270 0.0000 37.7617
#
#
#
# Elastic Compliance Matrix: (Units=1/GPa)
#
#
# Indices 1 2 3 4 5 6 
#
# 1 0.012651 -0.005716 0.000225 0.000000 0.011167 0.000000
# 2 -0.005716 0.018270 -0.003650 0.000001 -0.003296 0.000000
# 3 0.000225 -0.003650 0.025286 -0.000001 0.016985 0.000000
# 4 0.000000 0.000001 -0.000001 0.033761 -0.000001 0.002617
# 5 0.011167 -0.003296 0.016985 -0.000001 0.068128 0.000000
# 6 0.000000 0.000000 0.000000 0.002617 0.000000 0.026685
#
#
# Mechanical properties :
#
#
# Convention : Reuss Voigt Hill
#
# Bulk Modulus (GPa) = 26.36796 40.82843 33.59820
# Shear Modulus (GPa) = 23.17979 28.89295 26.03637
#
# Velocity S-wave (km/s) = 3.48832 3.89455 3.69702
# Velocity P-wave (km/s) = 5.48329 6.45419 5.98845
#
# Compressibility (1/GPa) = 0.03792481
#
# Stress axis : x y z
#
# Youngs Moduli (GPa) = 79.04678 54.73489 39.54694
#
# Poissons Ratio (x) = 0.31287 -0.00891
# Poissons Ratio (y) = 0.45184 0.14436
# Poissons Ratio (z) = -0.01781 0.19980
#
# Static dielectric constant tensor:
#      x y z
#    x 3.478570 0.000000 -0.165270 
#    y 0.000000 3.521070 0.000000 
#    z -0.165270 0.000000 3.266680 
# 
# 
# High freq. dielectric constant tensor:
#      x y z
#    x 1.747410 0.000000 -0.009730 
#    y 0.000000 1.750440 0.000000 
#    z -0.009730 0.000000 1.717770 
# 
# From -- ./inp_files/295439.got.cif
#   From: 2010.06.25/outbox.cif.g09.slc.cpg/sg12_148_cif.got.tgz:295439.got - 2010.06.28 00:19:55.
