data_PCOD8096098
_publ_section_title
;
Structure prediction by ZEFSAII (Michael W. Deem and Ramdas Pophale) SiO2 
 PCOD8096098
Probable space group: C 2/M
;
_chemical_formula_sum "Si O2"
_cell_formula_units_Z 64
_cell_length_a 20.060468
_cell_length_b 8.994645
_cell_length_c 23.497349
_cell_angle_alpha 90.000000
_cell_angle_beta 122.465173
_cell_angle_gamma 90.000000
_cell_volume 3577.183434
_symmetry_space_group_name_H-M "C 2/M"
_symmetry_group_IT_number 12
_symmetry_cell_setting 'monoclinic'
loop_
_space_group_symop_operation_xyz
x,y,z
-x,y,-z
-x,-y,-z
x,-y,z
1/2+x,1/2+y,z
1/2-x,1/2+y,-z
1/2-x,1/2-y,-z
1/2+x,1/2-y,z
loop_
_atom_site_type_symbol
_atom_site_label
_atom_site_fract_x
_atom_site_fract_y
_atom_site_fract_z
Si Si1 0.665150 0.676820 0.960213
Si Si2 0.279410 0.168950 0.822402
Si Si3 0.091281 0.329238 0.031760
Si Si4 0.370794 0.675163 0.564170
Si Si5 0.375099 0.330721 0.178767
Si Si6 0.954732 0.822031 0.325810
Si Si7 0.691351 0.825229 0.685554
Si Si8 0.725399 0.826210 0.573032
O O1 0.675561 0.500000 0.962728
O O2 0.619507 0.736901 0.882356
O O3 0.750000 0.750000 0.000000
O O4 0.614936 0.722373 0.991476
O O5 0.362612 0.214564 0.889096
O O6 0.214895 0.187539 0.842230
O O7 0.259828 0.275065 0.760476
O O8 0.280758 0.000000 0.800175
O O9 0.111012 0.500000 0.024872
O O10 0.000000 0.303160 0.000000
O O11 0.372617 0.500000 0.557344
O O12 0.457908 0.734882 0.619293
O O13 0.344958 0.745032 0.492590
O O14 0.310411 0.722958 0.586629
O O15 0.401057 0.500000 0.186459
O O16 0.433369 0.258529 0.252731
O O17 0.891777 0.756303 0.341455
O O18 0.947048 0.000000 0.324529
O O19 0.721660 0.780014 0.637004
O O20 0.678010 0.000000 0.685382
O O21 0.712146 0.000000 0.558482
#
# Coordination Sequence:
#
# PCOD8096098 Si02
#       8
#     8   8   8   8   8   8   8   8
#     4  11  20  33  55  81 106 137 180 221 263 314
#     4   9  17  34  55  73 100 138 175 210 256 310
#     4  10  21  38  56  75 106 143 177 219 271 317
#     4   9  18  34  56  76  97 133 176 209 243 297
#     4   8  15  30  51  74  99 131 168 209 257 302
#     4   9  18  34  54  75 101 134 172 211 251 298
#     4  10  20  33  51  78 106 133 167 207 258 309
#     4   9  19  35  52  74 105 136 165 205 256 302
#
# _framework density 17.891171
#
# number of rings (size 3 to 8) (size 9 to 14) (size 15 to 20)
#    0.000    2.625    1.250    1.500    0.000    2.750 
#    2.250    3.125    0.000    0.000    0.000    0.000 
#    0.000    0.000    0.000    0.000    0.000    0.000 
#
# Total GULP energy -396692.317796 kJ/mol
# GULP energy per Si atom -12396.634931 kJ/mol
# Density = 1.785045 g / cm^3
# Si number density = 17.891171 Si / 1000 Ang^3
#
#
#
# Elastic Constant Matrix: (Units=GPa)
#
#
# Indices 1 2 3 4 5 6 
#
# 1 87.9014 31.3690 76.3830 0.0000 6.9893 0.0000
# 2 31.3690 43.8804 40.4699 0.0000 -4.2346 0.0000
# 3 76.3830 40.4699 145.9331 0.0000 2.3176 0.0000
# 4 0.0000 0.0000 0.0000 28.8616 0.0000 -2.9497
# 5 6.9893 -4.2346 2.3176 0.0000 35.7613 0.0000
# 6 0.0000 0.0000 0.0000 -2.9497 0.0000 22.8688
#
#
#
# Elastic Compliance Matrix: (Units=1/GPa)
#
#
# Indices 1 2 3 4 5 6 
#
# 1 0.023136 -0.007937 -0.009832 0.000000 -0.004824 0.000000
# 2 -0.007937 0.033981 -0.005363 0.000000 0.005923 0.000000
# 3 -0.009832 -0.005363 0.013479 0.000000 0.000413 0.000000
# 4 0.000000 0.000000 0.000000 0.035111 0.000000 0.004529
# 5 -0.004824 0.005923 0.000413 0.000000 0.029581 0.000000
# 6 0.000000 0.000000 0.000000 0.004529 0.000000 0.044312
#
#
# Mechanical properties :
#
#
# Convention : Reuss Voigt Hill
#
# Bulk Modulus (GPa) = 41.09824 63.79540 52.44682
# Shear Modulus (GPa) = 21.36975 26.13123 23.75049
#
# Velocity S-wave (km/s) = 3.45980 3.82588 3.64744
# Velocity P-wave (km/s) = 6.24351 7.43313 6.86414
#
# Compressibility (1/GPa) = 0.02433194
#
# Stress axis : x y z
#
# Youngs Moduli (GPa) = 43.22250 29.42794 74.18750
#
# Poissons Ratio (x) = 0.23358 0.72941
# Poissons Ratio (y) = 0.34307 0.39789
# Poissons Ratio (z) = 0.42496 0.15783
#
# Static dielectric constant tensor:
#      x y z
#    x 3.041010 0.000000 0.121520 
#    y 0.000000 3.173350 0.000000 
#    z 0.121520 0.000000 3.594020 
# 
# 
# High freq. dielectric constant tensor:
#      x y z
#    x 1.677590 0.000000 0.001500 
#    y 0.000000 1.676010 0.000000 
#    z 0.001500 0.000000 1.706200 
# 
# From -- ./inp_files/320158.got.cif
#   From: 2010.06.25/outbox.cif.g09.slc.cpg/sg12_161_cif.got.tgz:320158.got - 2010.06.28 00:19:55.
