data_PCOD8096805
_publ_section_title
;
Structure prediction by ZEFSAII (Michael W. Deem and Ramdas Pophale) SiO2 
 PCOD8096805
Probable space group: C 2/M
;
_chemical_formula_sum "Si O2"
_cell_formula_units_Z 64
_cell_length_a 28.339469
_cell_length_b 8.775110
_cell_length_c 21.155816
_cell_angle_alpha 90.000000
_cell_angle_beta 132.508922
_cell_angle_gamma 90.000000
_cell_volume 3878.313967
_symmetry_space_group_name_H-M "C 2/M"
_symmetry_group_IT_number 12
_symmetry_cell_setting 'monoclinic'
loop_
_space_group_symop_operation_xyz
x,y,z
-x,y,-z
-x,-y,-z
x,-y,z
1/2+x,1/2+y,z
1/2-x,1/2+y,-z
1/2-x,1/2-y,-z
1/2+x,1/2-y,z
loop_
_atom_site_type_symbol
_atom_site_label
_atom_site_fract_x
_atom_site_fract_y
_atom_site_fract_z
Si Si1 0.749889 0.323555 0.599860
Si Si2 0.944195 0.176249 0.499355
Si Si3 0.277661 0.821430 0.169977
Si Si4 0.186334 0.321447 0.657433
Si Si5 0.469640 0.180454 0.655415
Si Si6 0.847842 0.176785 0.599903
Si Si7 0.300146 0.177661 0.998239
Si Si8 0.608669 0.821680 0.814713
O O1 0.756000 0.500000 0.623363
O O2 0.737824 0.224874 0.651355
O O3 0.815653 0.268268 0.628048
O O4 0.690639 0.293710 0.499487
O O5 0.878150 0.225482 0.407775
O O6 0.957632 0.279215 0.571989
O O7 0.000000 0.204430 0.500000
O O8 0.939417 0.000000 0.515798
O O9 0.282483 0.777708 0.247450
O O10 0.339581 0.754591 0.188443
O O11 0.273149 0.000000 0.155178
O O12 0.211751 0.749908 0.081831
O O13 0.170314 0.500000 0.638456
O O14 0.419008 0.261009 0.655438
O O15 0.538662 0.247736 0.738676
O O16 0.463779 0.000000 0.658832
O O17 0.848764 0.000000 0.618658
O O18 0.369849 0.211268 0.092876
O O19 0.287627 0.000000 0.982132
O O20 0.250000 0.250000 0.000000
O O21 0.604042 0.000000 0.797407
#
# Coordination Sequence:
#
# PCOD8096805 Si02
#       8
#     8   8   8   8   8   8   8   8
#     4  10  20  34  52  71  96 125 160 204 246 290
#     4  11  23  35  45  64  98 134 168 203 236 278
#     4   9  18  32  48  70  99 129 165 202 238 284
#     4  11  21  33  51  72  97 130 165 201 243 291
#     4  11  20  32  51  71  95 129 166 199 241 290
#     4  10  20  34  51  71  97 124 159 205 247 288
#     4   9  16  29  48  69  95 126 162 203 244 282
#     4   8  16  30  47  69  97 128 163 200 234 282
#
# _framework density 16.502016000000001
#
# number of rings (size 3 to 8) (size 9 to 14) (size 15 to 20)
#    0.000    2.125    1.250    3.750    0.000    4.000 
#    0.000    7.500    0.000    0.000    0.000    0.875 
#    0.000    7.000    0.000    0.000    0.000    0.000 
#
# Total GULP energy -396751.866340 kJ/mol
# GULP energy per Si atom -12398.495823 kJ/mol
# Density = 1.646446 g / cm^3
# Si number density = 16.502016 Si / 1000 Ang^3
#
#
#
# Elastic Constant Matrix: (Units=GPa)
#
#
# Indices 1 2 3 4 5 6 
#
# 1 84.1013 22.4831 41.0719 0.0000 -4.3673 0.0000
# 2 22.4831 42.3659 28.9118 0.0000 -1.0688 0.0001
# 3 41.0719 28.9118 98.3037 0.0000 -9.9720 0.0000
# 4 0.0000 0.0000 0.0000 24.8330 0.0000 -1.9099
# 5 -4.3673 -1.0688 -9.9720 0.0000 12.8823 0.0000
# 6 0.0000 0.0001 0.0000 -1.9099 0.0000 26.4028
#
#
#
# Elastic Compliance Matrix: (Units=1/GPa)
#
#
# Indices 1 2 3 4 5 6 
#
# 1 0.015700 -0.004880 -0.005020 0.000000 0.001032 0.000000
# 2 -0.004880 0.031305 -0.007675 0.000000 -0.004998 0.000000
# 3 -0.005020 -0.007675 0.015508 0.000000 0.009666 0.000000
# 4 0.000000 0.000000 0.000000 0.040494 0.000000 0.002929
# 5 0.001032 -0.004998 0.009666 0.000000 0.085043 0.000000
# 6 0.000000 0.000000 0.000000 0.002929 0.000000 0.038087
#
#
# Mechanical properties :
#
#
# Convention : Reuss Voigt Hill
#
# Bulk Modulus (GPa) = 36.54564 45.52272 41.03418
# Shear Modulus (GPa) = 18.49056 21.64389 20.06723
#
# Velocity S-wave (km/s) = 3.35102 3.62552 3.49097
# Velocity P-wave (km/s) = 6.09645 6.72100 6.41633
#
# Compressibility (1/GPa) = 0.02736304
#
# Stress axis : x y z
#
# Youngs Moduli (GPa) = 63.69411 31.94327 64.48459
#
# Poissons Ratio (x) = 0.15589 0.32368
# Poissons Ratio (y) = 0.31085 0.49493
# Poissons Ratio (z) = 0.31972 0.24517
#
# Static dielectric constant tensor:
#      x y z
#    x 3.027470 0.000000 0.036700 
#    y 0.000000 3.159330 0.000000 
#    z 0.036700 0.000000 3.374590 
# 
# 
# High freq. dielectric constant tensor:
#      x y z
#    x 1.614900 0.000000 -0.001570 
#    y 0.000000 1.640670 0.000000 
#    z -0.001570 0.000000 1.626730 
# 
# From -- ./inp_files/326990.got.cif
#   From: 2010.06.25/outbox.cif.g09.slc.cpg/sg12_164_cif.got.tgz:326990.got - 2010.06.28 00:19:55.
