data_PCOD8096217
_publ_section_title
;
Structure prediction by ZEFSAII (Michael W. Deem and Ramdas Pophale) SiO2 
 PCOD8096217
Probable space group: C 2/M
;
_chemical_formula_sum "Si O2"
_cell_formula_units_Z 64
_cell_length_a 14.051216
_cell_length_b 9.209651
_cell_length_c 28.673103
_cell_angle_alpha 90.000000
_cell_angle_beta 105.070240
_cell_angle_gamma 90.000000
_cell_volume 3582.882346
_symmetry_space_group_name_H-M "C 2/M"
_symmetry_group_IT_number 12
_symmetry_cell_setting 'monoclinic'
loop_
_space_group_symop_operation_xyz
x,y,z
-x,y,-z
-x,-y,-z
x,-y,z
1/2+x,1/2+y,z
1/2-x,1/2+y,-z
1/2-x,1/2-y,-z
1/2+x,1/2-y,z
loop_
_atom_site_type_symbol
_atom_site_label
_atom_site_fract_x
_atom_site_fract_y
_atom_site_fract_z
Si Si1 0.784667 0.668490 0.075083
Si Si2 0.957604 0.830706 0.421401
Si Si3 0.074124 0.668545 0.677261
Si Si4 0.612358 0.167409 0.008693
Si Si5 0.528132 0.667865 0.256779
Si Si6 0.266177 0.668318 0.760490
Si Si7 0.163854 0.169190 0.826753
Si Si8 0.651498 0.331543 0.499438
O O1 0.772053 0.500000 0.085898
O O2 0.677080 0.734440 0.051377
O O3 0.835533 0.751626 0.123845
O O4 0.856193 0.693049 0.040472
O O5 0.927152 0.735686 0.373823
O O6 0.886681 0.783935 0.454652
O O7 0.069859 0.796094 0.449980
O O8 0.945005 0.000000 0.407887
O O9 0.049057 0.500000 0.670799
O O10 0.182122 0.697655 0.711719
O O11 0.991111 0.741523 0.698937
O O12 0.626623 0.000000 0.025146
O O13 0.500000 0.217379 0.000000
O O14 0.532420 0.500000 0.271892
O O15 0.630898 0.720231 0.248119
O O16 0.443763 0.697316 0.208141
O O17 0.269623 0.500000 0.775780
O O18 0.247298 0.763161 0.804070
O O19 0.186619 0.000000 0.836218
O O20 0.675472 0.500000 0.502748
O O21 0.750000 0.250000 0.500000
#
# Coordination Sequence:
#
# PCOD8096217 Si02
#       8
#     8   8   8   8   8   8   8   8
#     4  10  20  34  53  76 104 136 168 207 254 301
#     4   9  19  36  53  71 102 139 169 201 251 309
#     4  10  20  33  52  78 104 131 168 213 253 294
#     4   9  19  36  55  76 103 134 170 211 252 296
#     4   9  19  36  55  74 101 137 170 205 253 305
#     4   9  19  36  54  74 102 133 168 209 253 300
#     4  10  20  34  53  76 102 133 170 209 250 299
#     4   9  19  35  54  75 100 133 170 209 252 299
#
# _framework density 17.862712999999999
#
# number of rings (size 3 to 8) (size 9 to 14) (size 15 to 20)
#    0.000    2.625    0.000    1.875    0.000    5.250 
#    0.000    7.500    0.000    0.000    0.000    0.000 
#    0.000    0.000    0.000    0.000    0.000    0.000 
#
# Total GULP energy -396899.649823 kJ/mol
# GULP energy per Si atom -12403.114057 kJ/mol
# Density = 1.782206 g / cm^3
# Si number density = 17.862713 Si / 1000 Ang^3
#
#
#
# Elastic Constant Matrix: (Units=GPa)
#
#
# Indices 1 2 3 4 5 6 
#
# 1 128.0582 45.5325 31.8706 0.0000 -8.3741 0.0000
# 2 45.5325 85.6771 54.7486 0.0000 -2.9669 0.0000
# 3 31.8706 54.7486 97.8911 0.0000 -2.6171 0.0000
# 4 0.0000 0.0000 0.0000 38.8388 0.0000 -0.8085
# 5 -8.3741 -2.9669 -2.6171 0.0000 13.5228 0.0000
# 6 0.0000 0.0000 0.0000 -0.8085 0.0000 31.0241
#
#
#
# Elastic Compliance Matrix: (Units=1/GPa)
#
#
# Indices 1 2 3 4 5 6 
#
# 1 0.009968 -0.004879 -0.000382 0.000000 0.005028 0.000000
# 2 -0.004879 0.020607 -0.009948 0.000000 -0.000425 0.000000
# 3 -0.000382 -0.009948 0.015921 0.000000 0.000662 0.000000
# 4 0.000000 0.000000 0.000000 0.025761 0.000000 0.000671
# 5 0.005028 -0.000425 0.000662 0.000000 0.077098 0.000000
# 6 0.000000 0.000000 0.000000 0.000671 0.000000 0.032250
#
#
# Mechanical properties :
#
#
# Convention : Reuss Voigt Hill
#
# Bulk Modulus (GPa) = 62.19777 63.99220 63.09499
# Shear Modulus (GPa) = 23.00099 28.64212 25.82156
#
# Velocity S-wave (km/s) = 3.59228 4.00867 3.80617
# Velocity P-wave (km/s) = 7.21814 7.57153 7.39694
#
# Compressibility (1/GPa) = 0.01607775
#
# Stress axis : x y z
#
# Youngs Moduli (GPa) = 100.32505 48.52795 62.80956
#
# Poissons Ratio (x) = 0.23677 0.02400
# Poissons Ratio (y) = 0.48948 0.62482
# Poissons Ratio (z) = 0.03833 0.48275
#
# Static dielectric constant tensor:
#      x y z
#    x 3.294180 0.000000 -0.014000 
#    y 0.000000 3.327920 0.000000 
#    z -0.014000 0.000000 3.247550 
# 
# 
# High freq. dielectric constant tensor:
#      x y z
#    x 1.692400 0.000000 -0.001900 
#    y 0.000000 1.695130 0.000000 
#    z -0.001900 0.000000 1.692690 
# 
# From -- ./inp_files/359916.got.cif
#   From: 2010.06.25/outbox.cif.g09.slc.cpg/sg12_180_cif.got.tgz:359916.got - 2010.06.28 00:19:55.
