data_PCOD8096429
_publ_section_title
;
Structure prediction by ZEFSAII (Michael W. Deem and Ramdas Pophale) SiO2 
 PCOD8096429
Probable space group: C 2/M
;
_chemical_formula_sum "Si O2"
_cell_formula_units_Z 64
_cell_length_a 15.210563
_cell_length_b 8.843769
_cell_length_c 24.334560
_cell_angle_alpha 90.000000
_cell_angle_beta 90.112276
_cell_angle_gamma 90.000000
_cell_volume 3273.447226
_symmetry_space_group_name_H-M "C 2/M"
_symmetry_group_IT_number 12
_symmetry_cell_setting 'monoclinic'
loop_
_space_group_symop_operation_xyz
x,y,z
-x,y,-z
-x,-y,-z
x,-y,z
1/2+x,1/2+y,z
1/2-x,1/2+y,-z
1/2-x,1/2-y,-z
1/2+x,1/2-y,z
loop_
_atom_site_type_symbol
_atom_site_label
_atom_site_fract_x
_atom_site_fract_y
_atom_site_fract_z
Si Si1 0.527523 0.821183 0.941116
Si Si2 0.630656 0.821599 0.133343
Si Si3 0.274654 0.179247 0.058058
Si Si4 0.274373 0.823767 0.333729
Si Si5 0.269052 0.665938 0.444009
Si Si6 0.025578 0.165559 0.556396
Si Si7 0.460628 0.680044 0.326546
Si Si8 0.880808 0.824210 0.750403
O O1 0.459355 0.762768 0.895087
O O2 0.626180 0.770659 0.926074
O O3 0.522067 0.000000 0.944848
O O4 0.500000 0.751214 0.000000
O O5 0.713159 0.739856 0.105991
O O6 0.627561 0.779890 0.196772
O O7 0.642454 0.000000 0.126057
O O8 0.266133 0.000000 0.053253
O O9 0.250000 0.250000 0.000000
O O10 0.236068 0.757884 0.390829
O O11 0.366025 0.751793 0.313472
O O12 0.202494 0.789411 0.287588
O O13 0.289928 0.000000 0.342677
O O14 0.224078 0.500000 0.444774
O O15 0.250000 0.750000 0.500000
O O16 0.371667 0.646951 0.438516
O O17 0.998795 0.241688 0.614680
O O18 0.000000 0.257153 0.500000
O O19 0.979393 0.000000 0.551981
O O20 0.448971 0.500000 0.331380
O O21 0.529053 0.724427 0.279480
O O22 0.883583 0.000000 0.767108
#
# Coordination Sequence:
#
# PCOD8096429 Si02
#       8
#     8   8   8   8   8   8   8   8
#     4   9  18  36  60  85 119 158 190 228 288 348
#     4  11  23  40  61  88 119 155 200 244 290 344
#     4  11  21  37  62  90 124 160 196 238 288 346
#     4  10  21  38  60  83 114 153 194 239 296 355
#     4  10  20  33  53  81 114 147 186 236 292 351
#     4   8  15  28  51  78 103 137 181 225 277 343
#     4   9  19  37  59  82 112 150 194 242 289 343
#     4  10  23  41  61  84 115 159 201 238 288 353
#
# _framework density 19.551254
#
# number of rings (size 3 to 8) (size 9 to 14) (size 15 to 20)
#    0.000    2.250    1.250    2.250    1.750    2.500 
#    0.000    6.875    0.000    1.875    0.000    0.000 
#    0.000    0.000    0.000    0.000    0.000    0.000 
#
# Total GULP energy -396637.535854 kJ/mol
# GULP energy per Si atom -12394.922995 kJ/mol
# Density = 1.950675 g / cm^3
# Si number density = 19.551254 Si / 1000 Ang^3
#
#
#
# Elastic Constant Matrix: (Units=GPa)
#
#
# Indices 1 2 3 4 5 6 
#
# 1 124.6438 45.0470 66.6116 0.0000 -4.6095 0.0000
# 2 45.0470 74.5864 46.5988 0.0000 -2.9230 0.0000
# 3 66.6116 46.5988 143.8772 0.0000 -7.0140 0.0000
# 4 0.0000 0.0000 0.0000 32.4975 0.0000 -0.7922
# 5 -4.6095 -2.9230 -7.0140 0.0000 34.4764 0.0000
# 6 0.0000 0.0000 0.0000 -0.7922 0.0000 26.2435
#
#
#
# Elastic Compliance Matrix: (Units=1/GPa)
#
#
# Indices 1 2 3 4 5 6 
#
# 1 0.011833 -0.004665 -0.003949 0.000000 0.000383 0.000000
# 2 -0.004665 0.018651 -0.003873 0.000000 0.000170 0.000000
# 3 -0.003949 -0.003873 0.010091 0.000000 0.001197 0.000000
# 4 0.000000 0.000000 0.000000 0.030794 0.000000 0.000930
# 5 0.000383 0.000170 0.001197 0.000000 0.029314 0.000000
# 6 0.000000 0.000000 0.000000 0.000930 0.000000 0.038133
#
#
# Mechanical properties :
#
#
# Convention : Reuss Voigt Hill
#
# Bulk Modulus (GPa) = 64.09201 73.29135 68.69168
# Shear Modulus (GPa) = 29.58753 30.96682 30.27717
#
# Velocity S-wave (km/s) = 3.89438 3.98412 3.93950
# Velocity P-wave (km/s) = 7.28521 7.66371 7.47685
#
# Compressibility (1/GPa) = 0.01560257
#
# Stress axis : x y z
#
# Youngs Moduli (GPa) = 84.50737 53.61753 99.09499
#
# Poissons Ratio (x) = 0.25010 0.39134
# Poissons Ratio (y) = 0.39419 0.38376
# Poissons Ratio (z) = 0.33373 0.20764
#
# Static dielectric constant tensor:
#      x y z
#    x 3.692580 0.000000 -0.020480 
#    y 0.000000 3.453770 0.000000 
#    z -0.020480 0.000000 3.764160 
# 
# 
# High freq. dielectric constant tensor:
#      x y z
#    x 1.765150 0.000000 -0.000900 
#    y 0.000000 1.740080 0.000000 
#    z -0.000900 0.000000 1.769930 
# 
# From -- ./inp_files/338898.got.cif
#   From: 2010.06.25/outbox.cif.g09.slc.cpg/sg12_170_cif.got.tgz:338898.got - 2010.06.28 00:19:55.
