data_PCOD8096524
_publ_section_title
;
Structure prediction by ZEFSAII (Michael W. Deem and Ramdas Pophale) SiO2 
 PCOD8096524
Probable space group: C 2/M
;
_chemical_formula_sum "Si O2"
_cell_formula_units_Z 64
_cell_length_a 28.762791
_cell_length_b 9.130657
_cell_length_c 25.615784
_cell_angle_alpha 90.000000
_cell_angle_beta 149.651163
_cell_angle_gamma 90.000000
_cell_volume 3399.057574
_symmetry_space_group_name_H-M "C 2/M"
_symmetry_group_IT_number 12
_symmetry_cell_setting 'monoclinic'
loop_
_space_group_symop_operation_xyz
x,y,z
-x,y,-z
-x,-y,-z
x,-y,z
1/2+x,1/2+y,z
1/2-x,1/2+y,-z
1/2-x,1/2-y,-z
1/2+x,1/2-y,z
loop_
_atom_site_type_symbol
_atom_site_label
_atom_site_fract_x
_atom_site_fract_y
_atom_site_fract_z
Si Si1 0.124948 0.671640 0.260009
Si Si2 0.006820 0.170303 0.065238
Si Si3 0.001285 0.832850 0.679777
Si Si4 0.329803 0.326438 0.449263
Si Si5 0.465663 0.827344 0.182789
Si Si6 0.174155 0.833239 0.774654
Si Si7 0.343749 0.670882 0.984060
Si Si8 0.396852 0.674357 0.403760
O O1 0.120916 0.500000 0.245803
O O2 0.229307 0.724238 0.371790
O O3 0.061535 0.716727 0.247544
O O4 0.090177 0.747202 0.173725
O O5 0.910851 0.203963 0.000725
O O6 0.031056 0.000000 0.089571
O O7 0.000000 0.230730 0.000000
O O8 0.905318 0.770179 0.563801
O O9 0.032022 0.729765 0.756434
O O10 0.074855 0.823909 0.704993
O O11 0.990966 0.000000 0.689848
O O12 0.337863 0.500000 0.454098
O O13 0.348851 0.263391 0.409644
O O14 0.380035 0.752782 0.070643
O O15 0.449578 0.000000 0.167002
O O16 0.162754 0.775831 0.704223
O O17 0.211318 0.000000 0.812011
O O18 0.243634 0.729597 0.872801
O O19 0.337453 0.500000 0.990992
O O20 0.500000 0.738835 0.500000
O O21 0.402000 0.500000 0.409294
#
# Coordination Sequence:
#
# PCOD8096524 Si02
#       8
#     8   8   8   8   8   8   8   8
#     4   9  19  34  53  79 106 135 175 222 263 302
#     4   9  19  35  52  73 105 142 176 212 259 317
#     4  10  20  35  56  80 107 141 179 216 263 318
#     4   9  17  31  52  80 111 140 173 214 259 313
#     4  10  21  38  56  76 106 138 177 228 270 307
#     4  10  20  33  54  84 111 137 176 221 261 308
#     4  10  21  37  56  77 105 142 179 215 265 321
#     4   9  15  28  51  79 110 141 172 211 258 308
#
# _framework density 18.828748000000001
#
# number of rings (size 3 to 8) (size 9 to 14) (size 15 to 20)
#    0.000    2.500    1.250    0.750    1.750    2.750 
#    0.000    0.625    0.000    1.125    0.000    0.000 
#    0.000    0.000    0.000    0.000    0.000    0.000 
#
# Total GULP energy -396836.531166 kJ/mol
# GULP energy per Si atom -12401.141599 kJ/mol
# Density = 1.878589 g / cm^3
# Si number density = 18.828748 Si / 1000 Ang^3
#
#
#
# Elastic Constant Matrix: (Units=GPa)
#
#
# Indices 1 2 3 4 5 6 
#
# 1 43.5987 17.4444 29.1714 0.0000 -13.2460 0.0000
# 2 17.4444 50.5761 38.2299 0.0000 -4.5966 0.0000
# 3 29.1714 38.2299 129.9914 0.0000 -3.7053 0.0000
# 4 0.0000 0.0000 0.0000 23.6916 0.0000 -4.4225
# 5 -13.2460 -4.5966 -3.7053 0.0000 37.4753 0.0000
# 6 0.0000 0.0000 0.0000 -4.4225 0.0000 19.9747
#
#
#
# Elastic Compliance Matrix: (Units=1/GPa)
#
#
# Indices 1 2 3 4 5 6 
#
# 1 0.031839 -0.006286 -0.005012 0.000000 0.009987 0.000000
# 2 -0.006286 0.026879 -0.006482 0.000000 0.000434 0.000000
# 3 -0.005012 -0.006482 0.010681 0.000000 -0.001510 0.000000
# 4 0.000000 0.000000 0.000000 0.044029 0.000000 0.009748
# 5 0.009987 0.000434 -0.001510 0.000000 0.030118 0.000000
# 6 0.000000 0.000000 0.000000 0.009748 0.000000 0.052222
#
#
# Mechanical properties :
#
#
# Convention : Reuss Voigt Hill
#
# Bulk Modulus (GPa) = 29.55073 43.76194 36.65633
# Shear Modulus (GPa) = 20.60946 25.51638 23.06292
#
# Velocity S-wave (km/s) = 3.31202 3.68527 3.50362
# Velocity P-wave (km/s) = 5.50950 6.43435 5.98980
#
# Compressibility (1/GPa) = 0.03384012
#
# Stress axis : x y z
#
# Youngs Moduli (GPa) = 31.40798 37.20313 93.62578
#
# Poissons Ratio (x) = 0.23385 0.46923
# Poissons Ratio (y) = 0.19742 0.60690
# Poissons Ratio (z) = 0.15741 0.24116
#
# Static dielectric constant tensor:
#      x y z
#    x 3.496930 0.000000 0.020310 
#    y 0.000000 3.145290 0.000000 
#    z 0.020310 0.000000 3.553780 
# 
# 
# High freq. dielectric constant tensor:
#      x y z
#    x 1.731680 0.000000 -0.001610 
#    y 0.000000 1.699880 0.000000 
#    z -0.001610 0.000000 1.739930 
# 
# From -- ./inp_files/353585.got.cif
#   From: 2010.06.25/outbox.cif.g09.slc.cpg/sg12_177_cif.got.tgz:353585.got - 2010.06.28 00:19:55.
