data_PCOD8096162
_publ_section_title
;
Structure prediction by ZEFSAII (Michael W. Deem and Ramdas Pophale) SiO2 
 PCOD8096162
Probable space group: C 2/M
;
_chemical_formula_sum "Si O2"
_cell_formula_units_Z 64
_cell_length_a 22.648776
_cell_length_b 26.680748
_cell_length_c 13.587159
_cell_angle_alpha 90.000000
_cell_angle_beta 154.248966
_cell_angle_gamma 90.000000
_cell_volume 3567.160944
_symmetry_space_group_name_H-M "C 2/M"
_symmetry_group_IT_number 12
_symmetry_cell_setting 'monoclinic'
loop_
_space_group_symop_operation_xyz
x,y,z
-x,y,-z
-x,-y,-z
x,-y,z
1/2+x,1/2+y,z
1/2-x,1/2+y,-z
1/2-x,1/2-y,-z
1/2+x,1/2-y,z
loop_
_atom_site_type_symbol
_atom_site_label
_atom_site_fract_x
_atom_site_fract_y
_atom_site_fract_z
Si Si1 0.884540 0.058756 0.253454
Si Si2 0.586927 0.394781 0.221071
Si Si3 0.606706 0.202334 0.369125
Si Si4 0.813858 0.809285 0.504632
Si Si5 0.598376 0.146565 0.055680
Si Si6 0.596579 0.941583 0.914337
Si Si7 0.869309 0.942709 0.009915
Si Si8 0.678428 0.103043 0.566220
O O1 0.000000 0.082441 0.500000
O O2 0.911135 0.000000 0.289949
O O3 0.732584 0.071624 0.058991
O O4 0.896451 0.079593 0.159651
O O5 0.586190 0.349773 0.298141
O O6 0.733384 0.412844 0.399119
O O7 0.500000 0.373503 0.000000
O O8 0.509460 0.440665 0.157816
O O9 0.698366 0.203328 0.409763
O O10 0.604461 0.259244 0.406259
O O11 0.661922 0.163558 0.534791
O O12 0.457273 0.183674 0.112926
O O13 0.746952 0.833579 0.307218
O O14 0.500000 0.145997 0.000000
O O15 0.604231 0.089568 0.026530
O O16 0.464883 0.925787 0.652784
O O17 0.588826 0.000000 0.929526
O O18 0.752711 0.910585 0.779540
O O19 0.819353 0.000000 0.939752
#
# Coordination Sequence:
#
# PCOD8096162 Si02
#       8
#     8   8   8   8   8   8   8   8
#     4   9  20  37  52  70  95 130 180 220 248 289
#     4   9  19  31  47  77 110 133 168 206 244 310
#     4   8  16  29  45  69 103 130 159 210 247 284
#     4   9  16  28  48  68  96 138 167 196 247 297
#     4   9  18  30  45  74 103 127 167 202 246 310
#     4  10  20  34  52  71 102 136 164 212 253 291
#     4  10  20  33  52  74 102 138 169 208 252 296
#     4   9  18  33  50  78 107 131 168 203 252 313
#
# _framework density 17.941438000000002
#
# number of rings (size 3 to 8) (size 9 to 14) (size 15 to 20)
#    0.000    2.875    0.000    1.125    1.750    8.000 
#    0.000    1.875    0.000    0.000    0.000   11.375 
#    0.000    0.000    0.000    0.000    0.000    0.000 
#
# Total GULP energy -396559.313680 kJ/mol
# GULP energy per Si atom -12392.478553 kJ/mol
# Density = 1.790060 g / cm^3
# Si number density = 17.941438 Si / 1000 Ang^3
#
#
#
# Elastic Constant Matrix: (Units=GPa)
#
#
# Indices 1 2 3 4 5 6 
#
# 1 63.0800 32.4851 58.3491 0.0000 -16.4015 0.0000
# 2 32.4851 89.2328 50.2286 0.0000 -14.8171 0.0000
# 3 58.3491 50.2286 127.8542 0.0000 -16.1912 0.0000
# 4 0.0000 0.0000 0.0000 24.3756 0.0000 -5.9931
# 5 -16.4015 -14.8171 -16.1912 0.0000 31.6036 0.0000
# 6 0.0000 0.0000 0.0000 -5.9931 0.0000 9.8660
#
#
#
# Elastic Compliance Matrix: (Units=1/GPa)
#
#
# Indices 1 2 3 4 5 6 
#
# 1 0.030325 -0.003157 -0.011543 0.000000 0.008344 0.000000
# 2 -0.003157 0.015236 -0.004115 0.000000 0.003397 0.000000
# 3 -0.011543 -0.004115 0.014653 0.000000 -0.000412 0.000000
# 4 0.000000 0.000000 0.000000 0.048227 0.000000 0.029295
# 5 0.008344 0.003397 -0.000412 0.000000 0.037354 0.000000
# 6 0.000000 0.000000 0.000000 0.029295 0.000000 0.119153
#
#
# Mechanical properties :
#
#
# Convention : Reuss Voigt Hill
#
# Bulk Modulus (GPa) = 44.27486 62.47693 53.37589
# Shear Modulus (GPa) = 16.12347 22.44265 19.28306
#
# Velocity S-wave (km/s) = 3.00104 3.54062 3.28194
# Velocity P-wave (km/s) = 6.06130 7.18422 6.64651
#
# Compressibility (1/GPa) = 0.02258618
#
# Stress axis : x y z
#
# Youngs Moduli (GPa) = 32.97574 65.63346 68.24335
#
# Poissons Ratio (x) = 0.20721 0.78771
# Poissons Ratio (y) = 0.10410 0.28080
# Poissons Ratio (z) = 0.38063 0.27006
#
# Static dielectric constant tensor:
#      x y z
#    x 3.093670 0.000000 -0.119690 
#    y 0.000000 3.291160 0.000000 
#    z -0.119690 0.000000 3.591640 
# 
# 
# High freq. dielectric constant tensor:
#      x y z
#    x 1.655980 0.000000 -0.012720 
#    y 0.000000 1.678540 0.000000 
#    z -0.012720 0.000000 1.705640 
# 
# From -- ./inp_files/161221.got.cif
#   From: 2010.06.25/outbox.cif.g09.slc.cpg/sg12_81_cif.got.tgz:161221.got - 2010.06.28 00:19:55.
