data_PCOD8096339
_publ_section_title
;
Structure prediction by ZEFSAII (Michael W. Deem and Ramdas Pophale) SiO2 
 PCOD8096339
Probable space group: C 2/M
;
_chemical_formula_sum "Si O2"
_cell_formula_units_Z 56
_cell_length_a 14.096773
_cell_length_b 10.293855
_cell_length_c 21.708146
_cell_angle_alpha 90.000000
_cell_angle_beta 75.858269
_cell_angle_gamma 90.000000
_cell_volume 3054.606978
_symmetry_space_group_name_H-M "C 2/M"
_symmetry_group_IT_number 12
_symmetry_cell_setting 'monoclinic'
loop_
_space_group_symop_operation_xyz
x,y,z
-x,y,-z
-x,-y,-z
x,-y,z
1/2+x,1/2+y,z
1/2-x,1/2+y,-z
1/2-x,1/2-y,-z
1/2+x,1/2-y,z
loop_
_atom_site_type_symbol
_atom_site_label
_atom_site_fract_x
_atom_site_fract_y
_atom_site_fract_z
Si Si1 0.935633 0.348539 0.659328
Si Si2 0.792277 0.352814 0.575409
Si Si3 0.611922 0.848841 0.200173
Si Si4 0.490380 0.147674 0.101578
Si Si5 0.130000 0.858977 0.028360
Si Si6 0.368624 0.149328 0.432873
Si Si7 0.281933 0.765237 0.097713
O O1 0.953008 0.500000 0.664764
O O2 0.843035 0.319686 0.631637
O O3 0.918917 0.285093 0.729484
O O4 0.031035 0.293108 0.610155
O O5 0.748538 0.500000 0.583116
O O6 0.711708 0.243480 0.582290
O O7 0.869755 0.341851 0.506978
O O8 0.524378 0.821018 0.165845
O O9 0.715296 0.790137 0.162764
O O10 0.630567 0.000000 0.205886
O O11 0.549718 0.244956 0.047606
O O12 0.373737 0.161900 0.114303
O O13 0.519979 0.000000 0.078969
O O14 0.215043 0.858723 0.066385
O O15 0.078139 0.000000 0.040950
O O16 0.179042 0.848229 0.953314
O O17 0.348278 0.000000 0.415769
#
# Coordination Sequence:
#
# PCOD8096339 Si02
#       7
#     8   8   8   8   8   8   8
#     4   9  17  31  51  71  98 136 170 200 240 293
#     4   9  17  30  50  76 102 129 164 205 248 290
#     4   9  19  34  50  73 101 131 169 205 240 290
#     4  10  21  36  54  75 100 130 164 204 250 297
#     4  10  21  35  53  78 102 126 162 205 249 299
#     4   9  17  30  50  76 102 129 165 206 245 290
#     4  10  20  33  53  74 101 131 161 202 251 296
#
# _framework density 18.332962999999999
#
# number of rings (size 3 to 8) (size 9 to 14) (size 15 to 20)
#    0.000    2.571    0.000    1.714    0.000    9.143 
#    0.000    0.714    0.000   11.143    0.000    0.000 
#    0.000    0.000    0.000    0.000    0.000    0.000 
#
# Total GULP energy -347043.485537 kJ/mol
# GULP energy per Si atom -12394.410198 kJ/mol
# Density = 1.829124 g / cm^3
# Si number density = 18.332963 Si / 1000 Ang^3
#
#
#
# Elastic Constant Matrix: (Units=GPa)
#
#
# Indices 1 2 3 4 5 6 
#
# 1 89.2572 32.3217 34.7686 0.0000 1.2654 0.0000
# 2 32.3217 81.5650 26.6019 0.0000 1.5297 0.0000
# 3 34.7686 26.6019 105.8948 0.0000 5.5800 0.0000
# 4 0.0000 0.0000 0.0000 15.5102 0.0000 -6.2318
# 5 1.2654 1.5297 5.5800 0.0000 20.6839 0.0000
# 6 0.0000 0.0000 0.0000 -6.2318 0.0000 19.6418
#
#
#
# Elastic Compliance Matrix: (Units=1/GPa)
#
#
# Indices 1 2 3 4 5 6 
#
# 1 0.014206 -0.004475 -0.003562 0.000000 0.000423 0.000000
# 2 -0.004475 0.014764 -0.002228 0.000000 -0.000217 0.000000
# 3 -0.003562 -0.002228 0.011313 0.000000 -0.002669 0.000000
# 4 0.000000 0.000000 0.000000 0.073894 0.000000 0.023444
# 5 0.000423 -0.000217 -0.002669 0.000000 0.049057 0.000000
# 6 0.000000 0.000000 0.000000 0.023444 0.000000 0.058350
#
#
# Mechanical properties :
#
#
# Convention : Reuss Voigt Hill
#
# Bulk Modulus (GPa) = 50.62790 51.56683 51.09737
# Shear Modulus (GPa) = 20.10454 23.36882 21.73668
#
# Velocity S-wave (km/s) = 3.31514 3.57415 3.44708
# Velocity P-wave (km/s) = 6.50609 6.72471 6.61631
#
# Compressibility (1/GPa) = 0.01975195
#
# Stress axis : x y z
#
# Youngs Moduli (GPa) = 70.39364 67.73046 88.39146
#
# Poissons Ratio (x) = 0.30313 0.31487
# Poissons Ratio (y) = 0.31504 0.19695
# Poissons Ratio (z) = 0.25076 0.15091
#
# Static dielectric constant tensor:
#      x y z
#    x 3.340770 0.000000 0.025230 
#    y 0.000000 3.162860 0.000000 
#    z 0.025230 0.000000 3.626520 
# 
# 
# High freq. dielectric constant tensor:
#      x y z
#    x 1.710670 0.000000 0.004840 
#    y 0.000000 1.690280 0.000000 
#    z 0.004840 0.000000 1.708400 
# 
# From -- ./inp_files/337896.got.cif
#   From: 2010.06.25/outbox.cif.g09.slc.cpg/sg12_169_cif.got.tgz:337896.got - 2010.06.28 00:19:55.
