data_PCOD8096821
_publ_section_title
;
Structure prediction by ZEFSAII (Michael W. Deem and Ramdas Pophale) SiO2 
 PCOD8096821
Probable space group: C 2/M
;
_chemical_formula_sum "Si O2"
_cell_formula_units_Z 56
_cell_length_a 18.224870
_cell_length_b 9.159547
_cell_length_c 29.122600
_cell_angle_alpha 90.000000
_cell_angle_beta 141.380682
_cell_angle_gamma 90.000000
_cell_volume 3034.259541
_symmetry_space_group_name_H-M "C 2/M"
_symmetry_group_IT_number 12
_symmetry_cell_setting 'monoclinic'
loop_
_space_group_symop_operation_xyz
x,y,z
-x,y,-z
-x,-y,-z
x,-y,z
1/2+x,1/2+y,z
1/2-x,1/2+y,-z
1/2-x,1/2-y,-z
1/2+x,1/2-y,z
loop_
_atom_site_type_symbol
_atom_site_label
_atom_site_fract_x
_atom_site_fract_y
_atom_site_fract_z
Si Si1 0.980370 0.672444 0.354759
Si Si2 0.834068 0.170155 0.505807
Si Si3 0.212647 0.827661 0.209590
Si Si4 0.289452 0.829478 0.064872
Si Si5 0.938779 0.671011 0.788851
Si Si6 0.366932 0.168791 0.655721
Si Si7 0.631560 0.673590 0.070994
O O1 0.998501 0.500000 0.369442
O O2 0.845028 0.717602 0.286716
O O3 0.038209 0.753209 0.427539
O O4 0.045382 0.731959 0.340510
O O5 0.750000 0.250000 0.500000
O O6 0.770953 0.191114 0.425282
O O7 0.844929 0.000000 0.523303
O O8 0.123791 0.753283 0.200724
O O9 0.183566 0.769314 0.144495
O O10 0.194892 0.000000 0.204030
O O11 0.423885 0.795354 0.141634
O O12 0.212736 0.767184 0.069574
O O13 0.266643 0.000000 0.046770
O O14 0.250000 0.750000 0.000000
O O15 0.911184 0.500000 0.779879
O O16 0.890959 0.738462 0.717311
O O17 0.399970 0.000000 0.676020
O O18 0.631939 0.500000 0.070868
O O19 0.500000 0.734988 0.000000
#
# Coordination Sequence:
#
# PCOD8096821 Si02
#       7
#     8   8   8   8   8   8   8
#     4   9  17  31  51  73  98 129 166 207 248 293
#     4   9  16  28  49  75 100 127 163 207 251 295
#     4  10  20  34  52  74 100 131 168 208 247 289
#     4  10  20  34  54  78 102 130 163 201 245 292
#     4  10  20  34  51  72 100 132 165 202 246 295
#     4   8  15  30  51  72  95 127 166 204 243 291
#     4   9  17  31  53  77  99 128 167 205 241 288
#
# _framework density 18.455901999999998
#
# number of rings (size 3 to 8) (size 9 to 14) (size 15 to 20)
#    0.000    2.714    0.000    3.000    0.000    5.714 
#    0.000    5.000    0.000   12.000    0.000    0.000 
#    0.000    0.000    0.000    0.000    0.000    0.000 
#
# Total GULP energy -347084.051214 kJ/mol
# GULP energy per Si atom -12395.858972 kJ/mol
# Density = 1.841390 g / cm^3
# Si number density = 18.455902 Si / 1000 Ang^3
#
#
#
# Elastic Constant Matrix: (Units=GPa)
#
#
# Indices 1 2 3 4 5 6 
#
# 1 134.8442 32.4303 77.5535 0.0000 0.0638 0.0000
# 2 32.4303 39.0620 49.9084 0.0000 1.5969 -0.0001
# 3 77.5535 49.9084 168.1725 0.0000 -1.1206 0.0000
# 4 0.0000 0.0000 0.0000 27.7089 0.0000 1.9758
# 5 0.0638 1.5969 -1.1206 0.0000 32.4914 0.0000
# 6 0.0000 -0.0001 0.0000 1.9758 0.0000 25.0569
#
#
#
# Elastic Compliance Matrix: (Units=1/GPa)
#
#
# Indices 1 2 3 4 5 6 
#
# 1 0.010480 -0.004073 -0.003624 0.000000 0.000055 0.000000
# 2 -0.004073 0.043015 -0.010904 0.000000 -0.002482 0.000000
# 3 -0.003624 -0.010904 0.010859 0.000000 0.000918 0.000000
# 4 0.000000 0.000000 0.000000 0.036293 0.000000 -0.002862
# 5 0.000055 -0.002482 0.000918 0.000000 0.030931 0.000000
# 6 0.000000 0.000000 0.000000 -0.002862 0.000000 0.040135
#
#
# Mechanical properties :
#
#
# Convention : Reuss Voigt Hill
#
# Bulk Modulus (GPa) = 36.82823 73.54035 55.18429
# Shear Modulus (GPa) = 22.93956 29.19722 26.06839
#
# Velocity S-wave (km/s) = 3.52936 3.98175 3.76236
# Velocity P-wave (km/s) = 6.05033 7.81487 6.98851
#
# Compressibility (1/GPa) = 0.02715308
#
# Stress axis : x y z
#
# Youngs Moduli (GPa) = 95.42409 23.24794 92.08656
#
# Poissons Ratio (x) = 0.09468 0.33369
# Poissons Ratio (y) = 0.38864 1.00409
# Poissons Ratio (z) = 0.34578 0.25349
#
# Static dielectric constant tensor:
#      x y z
#    x 3.357480 0.000000 -0.033200 
#    y 0.000000 3.145630 0.000000 
#    z -0.033200 0.000000 3.707400 
# 
# 
# High freq. dielectric constant tensor:
#      x y z
#    x 1.701250 0.000000 0.000830 
#    y 0.000000 1.680590 0.000000 
#    z 0.000830 0.000000 1.740410 
# 
# From -- ./inp_files/377727.got.cif
#   From: 2010.06.25/outbox.cif.g09.slc.cpg/sg12_189_cif.got.tgz:377727.got - 2010.06.28 00:19:55.
