data_PCOD8096292
_publ_section_title
;
Structure prediction by ZEFSAII (Michael W. Deem and Ramdas Pophale) SiO2 
 PCOD8096292
Probable space group: C 2/M
;
_chemical_formula_sum "Si O2"
_cell_formula_units_Z 56
_cell_length_a 26.038096
_cell_length_b 9.418357
_cell_length_c 14.207187
_cell_angle_alpha 90.000000
_cell_angle_beta 58.701336
_cell_angle_gamma 90.000000
_cell_volume 2977.074948
_symmetry_space_group_name_H-M "C 2/M"
_symmetry_group_IT_number 12
_symmetry_cell_setting 'monoclinic'
loop_
_space_group_symop_operation_xyz
x,y,z
-x,y,-z
-x,-y,-z
x,-y,z
1/2+x,1/2+y,z
1/2-x,1/2+y,-z
1/2-x,1/2-y,-z
1/2+x,1/2-y,z
loop_
_atom_site_type_symbol
_atom_site_label
_atom_site_fract_x
_atom_site_fract_y
_atom_site_fract_z
Si Si1 0.214439 0.340041 0.676229
Si Si2 0.503447 0.332006 0.105170
Si Si3 0.148262 0.836300 0.439606
Si Si4 0.655823 0.835703 0.253854
Si Si5 0.274600 0.838283 0.122025
Si Si6 0.113928 0.164836 0.675037
Si Si7 0.391064 0.162355 0.900050
O O1 0.203999 0.500000 0.650601
O O2 0.283740 0.295468 0.597211
O O3 0.196187 0.323726 0.802555
O O4 0.174105 0.238645 0.652322
O O5 0.510075 0.500000 0.108275
O O6 0.444199 0.275606 0.215356
O O7 0.560430 0.263601 0.100118
O O8 0.500000 0.284254 0.000000
O O9 0.126691 0.739908 0.372924
O O10 0.106148 0.808513 0.570340
O O11 0.145665 0.000000 0.409272
O O12 0.718559 0.765684 0.163809
O O13 0.608849 0.818979 0.212883
O O14 0.667827 0.000000 0.265673
O O15 0.252454 0.000000 0.126529
O O16 0.325257 0.793346 0.999621
O O17 0.122408 0.000000 0.688889
O O18 0.405201 0.000000 0.915127
#
# Coordination Sequence:
#
# PCOD8096292 Si02
#       7
#     8   8   8   8   8   8   8
#     4   9  17  29  49  77 104 132 167 207 254 307
#     4  10  22  38  55  78 105 133 171 215 256 302
#     4   9  19  35  52  73 104 139 173 209 254 309
#     4  10  20  33  52  80 107 132 170 215 256 301
#     4   9  18  33  52  77 109 140 169 203 251 312
#     4  10  20  34  52  74 102 137 175 214 256 304
#     4  10  21  36  54  77 105 138 174 210 253 306
#
# _framework density 18.810410000000001
#
# number of rings (size 3 to 8) (size 9 to 14) (size 15 to 20)
#    0.000    2.429    0.000    3.000    0.000    5.429 
#    0.000    0.714    0.000    4.286    0.000    0.000 
#    0.000    0.000    0.000    0.000    0.000    0.000 
#
# Total GULP energy -347228.309209 kJ/mol
# GULP energy per Si atom -12401.011043 kJ/mol
# Density = 1.876760 g / cm^3
# Si number density = 18.810410 Si / 1000 Ang^3
#
#
#
# Elastic Constant Matrix: (Units=GPa)
#
#
# Indices 1 2 3 4 5 6 
#
# 1 77.6949 45.6831 40.0037 0.0000 14.5272 0.0000
# 2 45.6831 71.0571 41.0299 0.0000 8.1006 0.0000
# 3 40.0037 41.0299 129.6924 0.0000 9.4781 0.0000
# 4 0.0000 0.0000 0.0000 25.2377 0.0000 2.9617
# 5 14.5272 8.1006 9.4781 0.0000 17.5002 0.0000
# 6 0.0000 0.0000 0.0000 2.9617 0.0000 32.0390
#
#
#
# Elastic Compliance Matrix: (Units=1/GPa)
#
#
# Indices 1 2 3 4 5 6 
#
# 1 0.023841 -0.012444 -0.002490 0.000000 -0.012682 0.000000
# 2 -0.012444 0.024186 -0.003904 0.000000 0.001249 0.000000
# 3 -0.002490 -0.003904 0.009819 0.000000 -0.001444 0.000000
# 4 0.000000 0.000000 0.000000 0.040058 0.000000 -0.003703
# 5 -0.012682 0.001249 -0.001444 0.000000 0.067874 0.000000
# 6 0.000000 0.000000 0.000000 -0.003703 0.000000 0.031554
#
#
# Mechanical properties :
#
#
# Convention : Reuss Voigt Hill
#
# Bulk Modulus (GPa) = 49.58106 59.09753 54.33930
# Shear Modulus (GPa) = 20.68411 25.07055 22.87733
#
# Velocity S-wave (km/s) = 3.31963 3.65472 3.49120
# Velocity P-wave (km/s) = 6.41162 7.02104 6.72323
#
# Compressibility (1/GPa) = 0.02016899
#
# Stress axis : x y z
#
# Youngs Moduli (GPa) = 41.94451 41.34705 101.83969
#
# Poissons Ratio (x) = 0.51452 0.25360
# Poissons Ratio (y) = 0.52195 0.39762
# Poissons Ratio (z) = 0.10445 0.16143
#
# Static dielectric constant tensor:
#      x y z
#    x 3.129690 0.000000 0.124650 
#    y 0.000000 3.383960 0.000000 
#    z 0.124650 0.000000 3.740950 
# 
# 
# High freq. dielectric constant tensor:
#      x y z
#    x 1.706230 0.000000 0.015400 
#    y 0.000000 1.727480 0.000000 
#    z 0.015400 0.000000 1.741030 
# 
# From -- ./inp_files/238353.got.cif
#   From: 2010.06.25/outbox.cif.g09.slc.cpg/sg12_120_cif.got.tgz:238353.got - 2010.06.28 00:19:55.
