data_PCOD8096972
_publ_section_title
;
Structure prediction by ZEFSAII (Michael W. Deem and Ramdas Pophale) SiO2 
 PCOD8096972
Probable space group: C 2/M
;
_chemical_formula_sum "Si O2"
_cell_formula_units_Z 56
_cell_length_a 20.106087
_cell_length_b 9.170470
_cell_length_c 30.666978
_cell_angle_alpha 90.000000
_cell_angle_beta 34.876560
_cell_angle_gamma 90.000000
_cell_volume 3233.270988
_symmetry_space_group_name_H-M "C 2/M"
_symmetry_group_IT_number 12
_symmetry_cell_setting 'monoclinic'
loop_
_space_group_symop_operation_xyz
x,y,z
-x,y,-z
-x,-y,-z
x,-y,z
1/2+x,1/2+y,z
1/2-x,1/2+y,-z
1/2-x,1/2-y,-z
1/2+x,1/2-y,z
loop_
_atom_site_type_symbol
_atom_site_label
_atom_site_fract_x
_atom_site_fract_y
_atom_site_fract_z
Si Si1 0.023837 0.331433 0.340153
Si Si2 0.309266 0.169678 0.507985
Si Si3 0.133611 0.670784 0.049010
Si Si4 0.225428 0.829461 0.772630
Si Si5 0.911646 0.668561 0.224126
Si Si6 0.364945 0.171912 0.347342
Si Si7 0.495743 0.669283 0.052450
O O1 0.043256 0.500000 0.319409
O O2 0.150841 0.260190 0.279044
O O3 0.947907 0.310096 0.425446
O O4 0.958216 0.267120 0.332698
O O5 0.250000 0.250000 0.500000
O O6 0.259758 0.247125 0.578216
O O7 0.275682 0.000000 0.526544
O O8 0.156912 0.500000 0.031268
O O9 0.090979 0.734175 0.025895
O O10 0.038720 0.705521 0.137167
O O11 0.250000 0.750000 0.000000
O O12 0.187146 0.757333 0.747955
O O13 0.132843 0.796085 0.860426
O O14 0.237391 0.000000 0.756890
O O15 0.881586 0.500000 0.233874
O O16 0.911758 0.713334 0.274615
O O17 0.344370 0.000000 0.364143
O O18 0.527902 0.500000 0.041768
O O19 0.500000 0.715082 0.000000
#
# Coordination Sequence:
#
# PCOD8096972 Si02
#       7
#     8   8   8   8   8   8   8
#     4   8  15  28  47  69  90 118 156 194 231 273
#     4   9  16  28  46  68  95 124 157 197 239 280
#     4  10  20  34  52  73  99 130 163 200 243 290
#     4   9  17  31  50  69  93 125 158 193 233 282
#     4   9  19  34  50  69  96 128 156 191 241 288
#     4   9  17  31  50  70  93 122 159 198 236 281
#     4   9  18  32  51  74  98 126 162 202 243 289
#
# _framework density 17.319921999999998
#
# number of rings (size 3 to 8) (size 9 to 14) (size 15 to 20)
#    0.000    3.000    0.000    1.714    0.000    2.571 
#    0.000    8.571    0.000    4.286    0.000    0.000 
#    0.000    0.000    0.000    0.000    0.000    0.000 
#
# Total GULP energy -347073.766306 kJ/mol
# GULP energy per Si atom -12395.491654 kJ/mol
# Density = 1.728050 g / cm^3
# Si number density = 17.319922 Si / 1000 Ang^3
#
#
#
# Elastic Constant Matrix: (Units=GPa)
#
#
# Indices 1 2 3 4 5 6 
#
# 1 121.9736 49.7582 87.0515 0.0007 -1.5384 -0.0269
# 2 49.7582 60.5889 48.7671 0.0015 -0.3046 -0.0120
# 3 87.0515 48.7671 112.9253 0.0010 -0.8576 0.0010
# 4 0.0007 0.0015 0.0010 26.5484 0.0009 1.6325
# 5 -1.5384 -0.3046 -0.8576 0.0009 31.9480 -0.0008
# 6 -0.0269 -0.0120 0.0010 1.6325 -0.0008 27.0564
#
#
#
# Elastic Compliance Matrix: (Units=1/GPa)
#
#
# Indices 1 2 3 4 5 6 
#
# 1 0.019570 -0.006023 -0.012481 -0.000001 0.000550 0.000017
# 2 -0.006023 0.027152 -0.007084 -0.000001 -0.000221 0.000006
# 3 -0.012481 -0.007084 0.021535 0.000001 -0.000090 -0.000016
# 4 -0.000001 -0.000001 0.000001 0.037807 -0.000001 -0.002281
# 5 0.000550 -0.000221 -0.000090 -0.000001 0.031323 0.000001
# 6 0.000017 0.000006 -0.000016 -0.002281 0.000001 0.037097
#
#
# Mechanical properties :
#
#
# Convention : Reuss Voigt Hill
#
# Bulk Modulus (GPa) = 58.54508 74.07125 66.30817
# Shear Modulus (GPa) = 21.61185 24.43797 23.02491
#
# Velocity S-wave (km/s) = 3.53626 3.76037 3.65003
# Velocity P-wave (km/s) = 7.10978 7.85577 7.49207
#
# Compressibility (1/GPa) = 0.01708085
#
# Stress axis : x y z
#
# Youngs Moduli (GPa) = 51.09878 36.82948 46.43600
#
# Poissons Ratio (x) = 0.22184 0.57955
# Poissons Ratio (y) = 0.30779 0.32896
# Poissons Ratio (z) = 0.63774 0.26090
#
# Static dielectric constant tensor:
#      x y z
#    x 3.279890 0.000240 0.091100 
#    y 0.000240 3.208480 0.000420 
#    z 0.091100 0.000420 3.811800 
# 
# 
# High freq. dielectric constant tensor:
#      x y z
#    x 1.651250 0.000000 0.000610 
#    y 0.000000 1.657390 0.000000 
#    z 0.000610 0.000000 1.676940 
# 
# From -- ./inp_files/377678.got.cif
#   From: 2010.06.25/outbox.cif.g09.slc.cpg/sg12_189_cif.got.tgz:377678.got - 2010.06.28 00:19:55.
