data_PCOD8096353
_publ_section_title
;
Structure prediction by ZEFSAII (Michael W. Deem and Ramdas Pophale) SiO2 
 PCOD8096353
Probable space group: C 2/M
;
_chemical_formula_sum "Si O2"
_cell_formula_units_Z 64
_cell_length_a 27.908309
_cell_length_b 9.151992
_cell_length_c 14.080013
_cell_angle_alpha 90.000000
_cell_angle_beta 74.506330
_cell_angle_gamma 90.000000
_cell_volume 3465.580810
_symmetry_space_group_name_H-M "C 2/M"
_symmetry_group_IT_number 12
_symmetry_cell_setting 'monoclinic'
loop_
_space_group_symop_operation_xyz
x,y,z
-x,y,-z
-x,-y,-z
x,-y,z
1/2+x,1/2+y,z
1/2-x,1/2+y,-z
1/2-x,1/2-y,-z
1/2+x,1/2-y,z
loop_
_atom_site_type_symbol
_atom_site_label
_atom_site_fract_x
_atom_site_fract_y
_atom_site_fract_z
Si Si1 0.205425 0.168583 0.352640
Si Si2 0.942785 0.670663 0.522887
Si Si3 0.129913 0.670569 0.269886
Si Si4 0.680582 0.828048 0.711263
Si Si5 0.411490 0.669573 0.883281
Si Si6 0.881211 0.168809 0.116033
Si Si7 0.486871 0.671924 0.107136
Si Si8 0.366695 0.670626 0.438083
O O1 0.180920 0.262748 0.282379
O O2 0.262327 0.216429 0.334042
O O3 0.178439 0.201153 0.466068
O O4 0.200566 0.000000 0.326094
O O5 0.937491 0.500000 0.501469
O O6 0.915934 0.709130 0.636340
O O7 0.917682 0.761806 0.451515
O O8 0.000000 0.718830 0.500000
O O9 0.137893 0.500000 0.255136
O O10 0.120637 0.735670 0.171302
O O11 0.663462 0.771319 0.824172
O O12 0.646640 0.747700 0.652595
O O13 0.672641 0.000000 0.706977
O O14 0.404840 0.500000 0.860536
O O15 0.469980 0.720237 0.841420
O O16 0.392524 0.700923 0.000017
O O17 0.929221 0.208295 0.158603
O O18 0.866445 0.000000 0.137485
O O19 0.493499 0.500000 0.091409
O O20 0.500000 0.747286 0.000000
O O21 0.375393 0.500000 0.415313
#
# Coordination Sequence:
#
# PCOD8096353 Si02
#       8
#     8   8   8   8   8   8   8   8
#     4   9  20  38  56  74  98 131 171 212 255 305
#     4   9  19  36  54  76 111 145 169 203 253 303
#     4  10  20  33  53  78 102 133 173 213 252 300
#     4  11  22  35  53  77 105 134 164 208 265 312
#     4   9  17  32  54  75 101 138 174 210 251 298
#     4   9  18  33  52  76 104 134 172 213 252 297
#     4   7  12  26  48  71  95 127 166 204 241 284
#     4  10  20  35  56  79 102 132 173 213 248 300
#
# _framework density 18.467323
#
# number of rings (size 3 to 8) (size 9 to 14) (size 15 to 20)
#    0.000    2.750    0.000    3.000    0.000    3.750 
#    0.000    3.750    0.000    2.250    0.000    0.000 
#    0.000    0.000    0.000    0.000    0.000    0.000 
#
# Total GULP energy -396640.481977 kJ/mol
# GULP energy per Si atom -12395.015062 kJ/mol
# Density = 1.842529 g / cm^3
# Si number density = 18.467323 Si / 1000 Ang^3
#
#
#
# Elastic Constant Matrix: (Units=GPa)
#
#
# Indices 1 2 3 4 5 6 
#
# 1 115.0466 58.0909 52.0090 0.0000 4.2109 0.0000
# 2 58.0909 73.4957 41.1991 0.0000 6.7415 0.0000
# 3 52.0090 41.1991 65.5565 0.0000 8.5100 0.0000
# 4 0.0000 0.0000 0.0000 29.4171 0.0000 1.4654
# 5 4.2109 6.7415 8.5100 0.0000 27.5616 0.0000
# 6 0.0000 0.0000 0.0000 1.4654 0.0000 23.5554
#
#
#
# Elastic Compliance Matrix: (Units=1/GPa)
#
#
# Indices 1 2 3 4 5 6 
#
# 1 0.016717 -0.008983 -0.007887 0.000000 0.002078 0.000000
# 2 -0.008983 0.025866 -0.008840 0.000000 -0.002225 0.000000
# 3 -0.007887 -0.008840 0.027742 0.000000 -0.005198 0.000000
# 4 0.000000 0.000000 0.000000 0.034100 0.000000 -0.002121
# 5 0.002078 -0.002225 -0.005198 0.000000 0.038114 0.000000
# 6 0.000000 0.000000 0.000000 -0.002121 0.000000 0.042585
#
#
# Mechanical properties :
#
#
# Convention : Reuss Voigt Hill
#
# Bulk Modulus (GPa) = 52.89715 61.85518 57.37616
# Shear Modulus (GPa) = 20.58926 22.96013 21.77470
#
# Velocity S-wave (km/s) = 3.34264 3.52985 3.43752
# Velocity P-wave (km/s) = 6.60329 7.08380 6.84776
#
# Compressibility (1/GPa) = 0.01890461
#
# Stress axis : x y z
#
# Youngs Moduli (GPa) = 59.81842 38.66128 36.04673
#
# Poissons Ratio (x) = 0.34728 0.28431
# Poissons Ratio (y) = 0.53733 0.31866
# Poissons Ratio (z) = 0.47180 0.34177
#
# Static dielectric constant tensor:
#      x y z
#    x 3.534050 0.000000 -0.055460 
#    y 0.000000 3.226710 0.000000 
#    z -0.055460 0.000000 3.222190 
# 
# 
# High freq. dielectric constant tensor:
#      x y z
#    x 1.720140 0.000000 -0.000230 
#    y 0.000000 1.704010 0.000000 
#    z -0.000230 0.000000 1.703200 
# 
# From -- ./inp_files/243874.got.cif
#   From: 2010.06.25/outbox.cif.g09.slc.cpg/sg12_122_cif.got.tgz:243874.got - 2010.06.28 00:19:55.
