data_PCOD8096001
_publ_section_title
;
Structure prediction by ZEFSAII (Michael W. Deem and Ramdas Pophale) SiO2 
 PCOD8096001
Probable space group: C 2/M
;
_chemical_formula_sum "Si O2"
_cell_formula_units_Z 64
_cell_length_a 22.321597
_cell_length_b 29.866614
_cell_length_c 15.718973
_cell_angle_alpha 90.000000
_cell_angle_beta 161.020660
_cell_angle_gamma 90.000000
_cell_volume 3408.178022
_symmetry_space_group_name_H-M "C 2/M"
_symmetry_group_IT_number 12
_symmetry_cell_setting 'monoclinic'
loop_
_space_group_symop_operation_xyz
x,y,z
-x,y,-z
-x,-y,-z
x,-y,z
1/2+x,1/2+y,z
1/2-x,1/2+y,-z
1/2-x,1/2-y,-z
1/2+x,1/2-y,z
loop_
_atom_site_type_symbol
_atom_site_label
_atom_site_fract_x
_atom_site_fract_y
_atom_site_fract_z
Si Si1 0.166697 0.642815 0.658286
Si Si2 0.435900 0.949473 0.048792
Si Si3 0.897802 0.374875 0.621040
Si Si4 0.488572 0.788374 0.839955
Si Si5 0.297095 0.549946 0.419901
Si Si6 0.120896 0.789076 0.422067
Si Si7 0.027877 0.119806 0.232203
Si Si8 0.647760 0.754114 0.626073
O O1 0.113355 0.622079 0.495682
O O2 0.220913 0.695059 0.719246
O O3 0.000000 0.637272 0.500000
O O4 0.340171 0.614907 0.926864
O O5 0.463621 0.914363 0.162668
O O6 0.616755 0.948415 0.234849
O O7 0.405802 0.000000 0.044201
O O8 0.261989 0.935177 0.755412
O O9 0.695547 0.379656 0.390421
O O10 0.984710 0.327322 0.764176
O O11 0.341773 0.799250 0.717901
O O12 0.432928 0.739771 0.731505
O O13 0.693183 0.782854 0.149771
O O14 0.378867 0.500000 0.526538
O O15 0.453148 0.580661 0.672279
O O16 0.013360 0.835547 0.269713
O O17 0.051365 0.760869 0.409339
O O18 0.500000 0.748389 0.500000
#
# Coordination Sequence:
#
# PCOD8096001 Si02
#       8
#     8   8   8   8   8   8   8   8
#     4  11  23  37  52  72 107 147 181 218 261 310
#     4   8  15  30  54  84 112 133 161 211 269 316
#     4  10  20  34  56  81 105 138 179 218 260 312
#     4  10  20  33  51  75 103 135 173 219 262 306
#     4   8  15  30  54  84 112 133 161 211 269 316
#     4  10  20  33  51  75 103 135 173 219 262 306
#     4  10  20  34  56  81 105 138 179 218 260 312
#     4  11  23  35  49  70 103 144 178 215 261 312
#
# _framework density 18.778362999999999
#
# number of rings (size 3 to 8) (size 9 to 14) (size 15 to 20)
#    0.000    2.250    2.500    1.500    1.750    2.500 
#    0.000    0.625    0.000    4.500    0.000    1.750 
#    0.000    0.000    0.000    0.000    0.000    0.000 
#
# Total GULP energy -396649.340866 kJ/mol
# GULP energy per Si atom -12395.291902 kJ/mol
# Density = 1.873562 g / cm^3
# Si number density = 18.778363 Si / 1000 Ang^3
#
#
#
# Elastic Constant Matrix: (Units=GPa)
#
#
# Indices 1 2 3 4 5 6 
#
# 1 89.3096 42.2724 43.3018 0.0000 -23.1473 0.0000
# 2 42.2724 112.6361 50.6572 0.0000 -25.4105 0.0000
# 3 43.3018 50.6572 72.8606 0.0002 -28.0936 0.0001
# 4 0.0000 0.0000 0.0002 26.5798 0.0001 -10.8133
# 5 -23.1473 -25.4105 -28.0936 0.0001 23.0144 0.0000
# 6 0.0000 0.0000 0.0001 -10.8133 0.0000 20.3965
#
#
#
# Elastic Compliance Matrix: (Units=1/GPa)
#
#
# Indices 1 2 3 4 5 6 
#
# 1 0.016932 -0.002055 -0.005559 0.000000 0.007974 0.000000
# 2 -0.002055 0.013658 -0.006153 0.000000 0.005502 0.000000
# 3 -0.005559 -0.006153 0.031231 0.000000 0.025739 0.000000
# 4 0.000000 0.000000 0.000000 0.047968 -0.000001 0.025431
# 5 0.007974 0.005502 0.025739 -0.000001 0.088966 0.000000
# 6 0.000000 0.000000 0.000000 0.025431 0.000000 0.062510
#
#
# Mechanical properties :
#
#
# Convention : Reuss Voigt Hill
#
# Bulk Modulus (GPa) = 29.16629 60.80770 44.98700
# Shear Modulus (GPa) = 16.65398 23.23645 19.94522
#
# Velocity S-wave (km/s) = 2.98127 3.52149 3.26258
# Velocity P-wave (km/s) = 5.23605 6.99905 6.18073
#
# Compressibility (1/GPa) = 0.03428616
#
# Stress axis : x y z
#
# Youngs Moduli (GPa) = 59.05971 73.21723 32.01960
#
# Poissons Ratio (x) = 0.15049 0.17800
# Poissons Ratio (y) = 0.12139 0.19701
# Poissons Ratio (z) = 0.32831 0.45050
#
# Static dielectric constant tensor:
#      x y z
#    x 3.229020 0.000000 -0.217450 
#    y 0.000000 3.531440 0.000000 
#    z -0.217450 0.000000 3.405620 
# 
# 
# High freq. dielectric constant tensor:
#      x y z
#    x 1.708130 0.000000 -0.022040 
#    y 0.000000 1.719310 0.000000 
#    z -0.022040 0.000000 1.718370 
# 
# From -- ./inp_files/209848.got.cif
#   From: 2010.06.25/outbox.cif.g09.slc.cpg/sg12_105_cif.got.tgz:209848.got - 2010.06.28 00:19:55.
