data_PCOD8096734
_publ_section_title
;
Structure prediction by ZEFSAII (Michael W. Deem and Ramdas Pophale) SiO2 
 PCOD8096734
Probable space group: C 2/M
;
_chemical_formula_sum "Si O2"
_cell_formula_units_Z 56
_cell_length_a 23.653853
_cell_length_b 9.048102
_cell_length_c 16.535657
_cell_angle_alpha 90.000000
_cell_angle_beta 91.404537
_cell_angle_gamma 90.000000
_cell_volume 3537.938945
_symmetry_space_group_name_H-M "C 2/M"
_symmetry_group_IT_number 12
_symmetry_cell_setting 'monoclinic'
loop_
_space_group_symop_operation_xyz
x,y,z
-x,y,-z
-x,-y,-z
x,-y,z
1/2+x,1/2+y,z
1/2-x,1/2+y,-z
1/2-x,1/2-y,-z
1/2+x,1/2-y,z
loop_
_atom_site_type_symbol
_atom_site_label
_atom_site_fract_x
_atom_site_fract_y
_atom_site_fract_z
Si Si1 0.761358 0.166917 0.918062
Si Si2 0.116621 0.826467 0.651772
Si Si3 0.805800 0.671113 0.779706
Si Si4 0.310397 0.326293 0.501292
Si Si5 0.493577 0.828947 0.407002
Si Si6 0.698477 0.167564 0.761804
Si Si7 0.118096 0.330966 0.362644
O O1 0.811121 0.247947 0.867559
O O2 0.704313 0.169478 0.860387
O O3 0.780566 0.000000 0.937588
O O4 0.750000 0.250000 0.000000
O O5 0.156201 0.780574 0.578333
O O6 0.053336 0.770671 0.636605
O O7 0.141116 0.747800 0.732754
O O8 0.115099 0.000000 0.666073
O O9 0.792627 0.500000 0.794242
O O10 0.752880 0.742969 0.728137
O O11 0.862203 0.694592 0.729121
O O12 0.301094 0.500000 0.505911
O O13 0.250000 0.250000 0.500000
O O14 0.347858 0.276443 0.577959
O O15 0.500000 0.780433 0.500000
O O16 0.551818 0.795682 0.362762
O O17 0.475677 0.000000 0.400380
O O18 0.699505 0.000000 0.728780
O O19 0.129804 0.500000 0.390328
#
# Coordination Sequence:
#
# PCOD8096734 Si02
#       7
#     8   8   8   8   8   8   8
#     4   9  18  31  51  78 105 133 161 190 240 301
#     4  11  22  34  48  69  96 129 169 213 255 291
#     4   9  17  30  49  73 104 129 158 201 243 292
#     4  11  23  33  46  67  94 128 166 207 252 298
#     4  10  20  35  53  68  90 130 176 217 253 293
#     4   9  19  32  49  73 101 130 163 196 240 298
#     4  10  20  34  50  70  94 129 171 209 250 292
#
# _framework density 15.828424
#
# number of rings (size 3 to 8) (size 9 to 14) (size 15 to 20)
#    0.857    1.286    1.429    2.571    0.000    7.143 
#    0.000    0.000    0.000    0.000    0.000    1.000 
#    0.000    8.000    0.000    0.000    0.000    0.000 
#
# Total GULP energy -347075.691904 kJ/mol
# GULP energy per Si atom -12395.560425 kJ/mol
# Density = 1.579240 g / cm^3
# Si number density = 15.828424 Si / 1000 Ang^3
#
#
#
# Elastic Constant Matrix: (Units=GPa)
#
#
# Indices 1 2 3 4 5 6 
#
# 1 96.6613 49.5831 44.2570 0.0000 -4.1314 0.0000
# 2 49.5831 104.8947 50.1591 0.0000 -4.9300 0.0000
# 3 44.2570 50.1591 85.4625 0.0000 -8.8314 0.0000
# 4 0.0000 0.0000 0.0000 26.4278 0.0000 3.0321
# 5 -4.1314 -4.9300 -8.8314 0.0000 14.1045 0.0000
# 6 0.0000 0.0000 0.0000 3.0321 0.0000 27.1778
#
#
#
# Elastic Compliance Matrix: (Units=1/GPa)
#
#
# Indices 1 2 3 4 5 6 
#
# 1 0.015072 -0.004714 -0.005081 0.000000 -0.000414 0.000000
# 2 -0.004714 0.014728 -0.006216 0.000000 -0.000125 0.000000
# 3 -0.005081 -0.006216 0.018820 0.000000 0.008123 0.000000
# 4 0.000000 0.000000 0.000000 0.038329 0.000000 -0.004276
# 5 -0.000414 -0.000125 0.008123 0.000000 0.075820 0.000000
# 6 0.000000 0.000000 0.000000 -0.004276 0.000000 0.037272
#
#
# Mechanical properties :
#
#
# Convention : Reuss Voigt Hill
#
# Bulk Modulus (GPa) = 60.24869 63.89075 62.06972
# Shear Modulus (GPa) = 21.04401 23.07666 22.06034
#
# Velocity S-wave (km/s) = 3.65020 3.82242 3.73730
# Velocity P-wave (km/s) = 7.47740 7.74167 7.61068
#
# Compressibility (1/GPa) = 0.01659787
#
# Stress axis : x y z
#
# Youngs Moduli (GPa) = 66.34639 67.89679 53.13538
#
# Poissons Ratio (x) = 0.32009 0.26999
# Poissons Ratio (y) = 0.31278 0.33028
# Poissons Ratio (z) = 0.33712 0.42203
#
# Static dielectric constant tensor:
#      x y z
#    x 2.878150 0.000000 -0.049020 
#    y 0.000000 3.121760 0.000000 
#    z -0.049020 0.000000 2.832940 
# 
# 
# High freq. dielectric constant tensor:
#      x y z
#    x 1.587210 0.000000 -0.003150 
#    y 0.000000 1.625610 0.000000 
#    z -0.003150 0.000000 1.586580 
# 
# From -- ./inp_files/287049.got.cif
#   From: 2010.06.25/outbox.cif.g09.slc.cpg/sg12_144_cif.got.tgz:287049.got - 2010.06.28 00:19:55.
