data_PCOD8096616
_publ_section_title
;
Structure prediction by ZEFSAII (Michael W. Deem and Ramdas Pophale) SiO2 
 PCOD8096616
Probable space group: C 2/M
;
_chemical_formula_sum "Si O2"
_cell_formula_units_Z 64
_cell_length_a 21.131688
_cell_length_b 9.328795
_cell_length_c 16.134895
_cell_angle_alpha 90.000000
_cell_angle_beta 84.755901
_cell_angle_gamma 90.000000
_cell_volume 3167.409840
_symmetry_space_group_name_H-M "C 2/M"
_symmetry_group_IT_number 12
_symmetry_cell_setting 'monoclinic'
loop_
_space_group_symop_operation_xyz
x,y,z
-x,y,-z
-x,-y,-z
x,-y,z
1/2+x,1/2+y,z
1/2-x,1/2+y,-z
1/2-x,1/2-y,-z
1/2+x,1/2-y,z
loop_
_atom_site_type_symbol
_atom_site_label
_atom_site_fract_x
_atom_site_fract_y
_atom_site_fract_z
Si Si1 0.650924 0.663002 0.618595
Si Si2 0.597657 0.662400 0.455859
Si Si3 0.267780 0.663028 0.646325
Si Si4 0.444374 0.666257 0.227434
Si Si5 0.542917 0.161727 0.323677
Si Si6 0.178355 0.659521 0.221971
Si Si7 0.813030 0.332279 0.966659
Si Si8 0.063755 0.332103 0.942066
O O1 0.673440 0.500000 0.600871
O O2 0.599597 0.703535 0.553077
O O3 0.711676 0.763520 0.601638
O O4 0.619978 0.682482 0.712245
O O5 0.573305 0.500000 0.445350
O O6 0.668781 0.680240 0.413839
O O7 0.548972 0.766310 0.413881
O O8 0.249106 0.500000 0.664548
O O9 0.273915 0.736189 0.735613
O O10 0.462729 0.500000 0.213100
O O11 0.499712 0.744566 0.269775
O O12 0.433855 0.739636 0.140915
O O13 0.610555 0.160202 0.272514
O O14 0.516230 0.000000 0.336618
O O15 0.207922 0.500000 0.221607
O O16 0.170695 0.711982 0.129028
O O17 0.799649 0.500000 0.977533
O O18 0.874228 0.287496 0.013080
O O19 0.750000 0.250000 0.000000
O O20 0.064114 0.500000 0.919145
O O21 0.000000 0.293483 0.000000
#
# Coordination Sequence:
#
# PCOD8096616 Si02
#       8
#     8   8   8   8   8   8   8   8
#     4  10  22  38  55  78 116 159 191 229 289 352
#     4   9  19  37  58  82 113 151 193 237 287 342
#     4  10  20  33  56  86 113 145 192 243 283 331
#     4  11  24  39  58  85 116 152 193 238 288 345
#     4  10  20  37  61  85 111 147 193 241 287 340
#     4   9  19  37  59  81 110 150 188 225 283 354
#     4  10  22  38  59  87 118 152 190 238 295 356
#     4  10  22  43  67  88 116 156 202 248 299 359
#
# _framework density 20.205784999999999
#
# number of rings (size 3 to 8) (size 9 to 14) (size 15 to 20)
#    0.000    2.125    0.000    2.250    1.750    6.250 
#    0.000    3.750    0.000    0.000    0.000    0.000 
#    0.000    0.000    0.000    0.000    0.000    0.000 
#
# Total GULP energy -396854.888038 kJ/mol
# GULP energy per Si atom -12401.715251 kJ/mol
# Density = 2.015980 g / cm^3
# Si number density = 20.205785 Si / 1000 Ang^3
#
#
#
# Elastic Constant Matrix: (Units=GPa)
#
#
# Indices 1 2 3 4 5 6 
#
# 1 74.7846 39.1453 34.3990 0.0000 20.3605 0.0000
# 2 39.1453 106.5838 61.0342 0.0000 17.2782 0.0000
# 3 34.3990 61.0342 124.7884 0.0000 21.5321 0.0000
# 4 0.0000 0.0000 0.0000 36.2496 0.0000 8.9790
# 5 20.3605 17.2782 21.5321 0.0000 24.8505 0.0000
# 6 0.0000 0.0000 0.0000 8.9790 0.0000 31.5516
#
#
#
# Elastic Compliance Matrix: (Units=1/GPa)
#
#
# Indices 1 2 3 4 5 6 
#
# 1 0.019513 -0.004635 -0.001069 0.000000 -0.011838 0.000000
# 2 -0.004635 0.014510 -0.005566 0.000000 -0.001468 0.000000
# 3 -0.001069 -0.005566 0.012007 0.000000 -0.005658 0.000000
# 4 0.000000 0.000000 0.000000 0.029679 0.000000 -0.008446
# 5 -0.011838 -0.001468 -0.005658 0.000000 0.055863 0.000000
# 6 0.000000 0.000000 0.000000 -0.008446 0.000000 0.034098
#
#
# Mechanical properties :
#
#
# Convention : Reuss Voigt Hill
#
# Bulk Modulus (GPa) = 42.57274 63.92373 53.24824
# Shear Modulus (GPa) = 25.50523 29.96889 27.73706
#
# Velocity S-wave (km/s) = 3.55670 3.85539 3.70905
# Velocity P-wave (km/s) = 6.16297 7.17800 6.68977
#
# Compressibility (1/GPa) = 0.02348921
#
# Stress axis : x y z
#
# Youngs Moduli (GPa) = 51.24860 68.91874 83.28683
#
# Poissons Ratio (x) = 0.31945 0.08904
# Poissons Ratio (y) = 0.23755 0.46355
# Poissons Ratio (z) = 0.05479 0.38358
#
# Static dielectric constant tensor:
#      x y z
#    x 3.564730 0.000000 0.064340 
#    y 0.000000 3.848480 0.000000 
#    z 0.064340 0.000000 3.892660 
# 
# 
# High freq. dielectric constant tensor:
#      x y z
#    x 1.786420 0.000000 0.007700 
#    y 0.000000 1.789390 0.000000 
#    z 0.007700 0.000000 1.799980 
# 
# From -- ./inp_files/238810.got.cif
#   From: 2010.06.25/outbox.cif.g09.slc.cpg/sg12_120_cif.got.tgz:238810.got - 2010.06.28 00:19:55.
