data_PCOD8096517
_publ_section_title
;
Structure prediction by ZEFSAII (Michael W. Deem and Ramdas Pophale) SiO2 
 PCOD8096517
Probable space group: C 2/M
;
_chemical_formula_sum "Si O2"
_cell_formula_units_Z 64
_cell_length_a 25.315808
_cell_length_b 12.783044
_cell_length_c 20.742854
_cell_angle_alpha 90.000000
_cell_angle_beta 148.917816
_cell_angle_gamma 90.000000
_cell_volume 3465.524670
_symmetry_space_group_name_H-M "C 2/M"
_symmetry_group_IT_number 12
_symmetry_cell_setting 'monoclinic'
loop_
_space_group_symop_operation_xyz
x,y,z
-x,y,-z
-x,-y,-z
x,-y,z
1/2+x,1/2+y,z
1/2-x,1/2+y,-z
1/2-x,1/2-y,-z
1/2+x,1/2-y,z
loop_
_atom_site_type_symbol
_atom_site_label
_atom_site_fract_x
_atom_site_fract_y
_atom_site_fract_z
Si Si1 0.752861 0.246634 0.343057
Si Si2 0.116919 0.619481 0.619140
Si Si3 0.085259 0.879151 0.239903
Si Si4 0.203359 0.380705 0.851658
Si Si5 0.968301 0.622649 0.227616
Si Si6 0.881343 0.619790 0.891437
Si Si7 0.392783 0.244433 0.029441
Si Si8 0.146417 0.222677 0.426495
O O1 0.823322 0.305801 0.366248
O O2 0.683235 0.331574 0.306619
O O3 0.683683 0.159014 0.237342
O O4 0.825623 0.187120 0.471435
O O5 0.122752 0.500000 0.600132
O O6 0.166727 0.630221 0.740700
O O7 0.000000 0.657107 0.500000
O O8 0.090898 0.864858 0.324035
O O9 0.984048 0.823470 0.106776
O O10 0.078077 0.000000 0.214743
O O11 0.233546 0.500000 0.899443
O O12 0.114174 0.341798 0.805683
O O13 0.301438 0.308893 0.966654
O O14 0.987558 0.500000 0.248772
O O15 0.931269 0.655499 0.118196
O O16 0.075685 0.675064 0.357335
O O17 0.852062 0.500000 0.874391
O O18 0.852285 0.688466 0.922938
O O19 0.000000 0.632240 0.000000
O O20 0.250000 0.250000 0.500000
#
# Coordination Sequence:
#
# PCOD8096517 Si02
#       8
#     8   8   8   8   8   8   8   8
#     4  11  20  38  57  84 113 151 188 232 285 334
#     4  10  20  33  54  83 115 151 190 233 282 335
#     4  10  21  36  56  82 114 147 183 233 287 343
#     4  10  20  34  55  85 116 149 188 233 281 334
#     4  10  21  37  59  85 114 149 193 236 278 330
#     4  11  23  39  59  84 115 150 193 234 276 338
#     4  11  20  38  56  85 116 152 187 231 281 336
#     4   9  21  36  55  81 111 145 186 232 284 327
#
# _framework density 18.467623
#
# number of rings (size 3 to 8) (size 9 to 14) (size 15 to 20)
#    0.000    1.750    2.500    2.250    0.000    4.000 
#    0.000    0.625    0.000    1.125    0.000    0.000 
#    0.000    0.000    0.000    0.000    0.000    0.000 
#
# Total GULP energy -396842.016648 kJ/mol
# GULP energy per Si atom -12401.313020 kJ/mol
# Density = 1.842559 g / cm^3
# Si number density = 18.467623 Si / 1000 Ang^3
#
#
#
# Elastic Constant Matrix: (Units=GPa)
#
#
# Indices 1 2 3 4 5 6 
#
# 1 85.5979 40.3792 30.3632 0.0000 4.7013 0.0000
# 2 40.3792 90.1972 42.8147 0.0000 4.1314 0.0000
# 3 30.3632 42.8147 104.7195 0.0000 -4.9226 0.0000
# 4 0.0000 0.0000 0.0000 14.4794 0.0000 2.4092
# 5 4.7013 4.1314 -4.9226 0.0000 38.6167 0.0000
# 6 0.0000 0.0000 0.0000 2.4092 0.0000 27.5935
#
#
#
# Elastic Compliance Matrix: (Units=1/GPa)
#
#
# Indices 1 2 3 4 5 6 
#
# 1 0.015230 -0.005731 -0.002144 0.000000 -0.001514 0.000000
# 2 -0.005731 0.016102 -0.005000 0.000000 -0.001662 0.000000
# 3 -0.002144 -0.005000 0.012326 0.000000 0.002367 0.000000
# 4 0.000000 0.000000 0.000000 0.070082 0.000000 -0.006119
# 5 -0.001514 -0.001662 0.002367 0.000000 0.026559 0.000000
# 6 0.000000 0.000000 0.000000 -0.006119 0.000000 0.036775
#
#
# Mechanical properties :
#
#
# Convention : Reuss Voigt Hill
#
# Bulk Modulus (GPa) = 55.83869 56.40322 56.12096
# Shear Modulus (GPa) = 23.94724 27.26841 25.60783
#
# Velocity S-wave (km/s) = 3.60490 3.84676 3.72779
# Velocity P-wave (km/s) = 6.90135 7.09493 6.99881
#
# Compressibility (1/GPa) = 0.01790873
#
# Stress axis : x y z
#
# Youngs Moduli (GPa) = 65.66144 62.10466 81.12704
#
# Poissons Ratio (x) = 0.35592 0.17393
# Poissons Ratio (y) = 0.37630 0.40561
# Poissons Ratio (z) = 0.14077 0.31051
#
# Static dielectric constant tensor:
#      x y z
#    x 3.535490 0.000000 -0.138980 
#    y 0.000000 3.260980 0.000000 
#    z -0.138980 0.000000 3.665680 
# 
# 
# High freq. dielectric constant tensor:
#      x y z
#    x 1.721740 0.000000 -0.002900 
#    y 0.000000 1.700970 0.000000 
#    z -0.002900 0.000000 1.729580 
# 
# From -- ./inp_files/327828.got.cif
#   From: 2010.06.25/outbox.cif.g09.slc.cpg/sg12_164_cif.got.tgz:327828.got - 2010.06.28 00:19:55.
