data_PCOD8096770
_publ_section_title
;
Structure prediction by ZEFSAII (Michael W. Deem and Ramdas Pophale) SiO2 
 PCOD8096770
Probable space group: C 2/M
;
_chemical_formula_sum "Si O2"
_cell_formula_units_Z 48
_cell_length_a 30.070909
_cell_length_b 8.836803
_cell_length_c 11.875537
_cell_angle_alpha 90.000000
_cell_angle_beta 57.959033
_cell_angle_gamma 90.000000
_cell_volume 2674.984554
_symmetry_space_group_name_H-M "C 2/M"
_symmetry_group_IT_number 12
_symmetry_cell_setting 'monoclinic'
loop_
_space_group_symop_operation_xyz
x,y,z
-x,y,-z
-x,-y,-z
x,-y,z
1/2+x,1/2+y,z
1/2-x,1/2+y,-z
1/2-x,1/2-y,-z
1/2+x,1/2-y,z
loop_
_atom_site_type_symbol
_atom_site_label
_atom_site_fract_x
_atom_site_fract_y
_atom_site_fract_z
Si Si1 0.617116 0.673939 0.005892
Si Si2 0.806882 0.320879 0.927219
Si Si3 0.029512 0.831246 0.307405
Si Si4 0.941675 0.678883 0.110962
Si Si5 0.379236 0.326403 0.648533
Si Si6 0.072369 0.324656 0.614161
O O1 0.634193 0.500000 0.970102
O O2 0.665096 0.764374 0.996648
O O3 0.566471 0.691781 0.151110
O O4 0.602844 0.742879 0.904367
O O5 0.803127 0.500000 0.934939
O O6 0.837812 0.270897 0.773993
O O7 0.750000 0.250000 0.000000
O O8 0.062741 0.808898 0.376402
O O9 0.984677 0.706168 0.361950
O O10 0.004569 0.000000 0.339090
O O11 0.938498 0.500000 0.098095
O O12 0.927833 0.728471 0.256326
O O13 0.000000 0.736884 0.000000
O O14 0.360497 0.500000 0.676029
O O15 0.383086 0.266086 0.515284
O O16 0.085277 0.500000 0.585629
#
# Coordination Sequence:
#
# PCOD8096770 Si02
#       6
#     8   8   8   8   8   8
#     4  10  20  34  54  81 110 143 186 227 270 320
#     4  11  22  39  63  86 109 136 173 223 278 328
#     4   9  18  31  47  70 104 143 179 222 268 318
#     4  10  20  34  50  74 111 153 192 228 265 314
#     4  10  21  36  52  76 108 140 179 224 273 325
#     4  11  21  31  48  74 107 148 188 223 266 319
#
# _framework density 17.944030000000001
#
# number of rings (size 3 to 8) (size 9 to 14) (size 15 to 20)
#    0.000    1.833    1.667    4.500    0.000    7.000 
#    0.000    0.000    0.000    1.000    0.000    0.000 
#    0.000    0.000    0.000    0.000    0.000    0.000 
#
# Total GULP energy -297645.552131 kJ/mol
# GULP energy per Si atom -12401.898005 kJ/mol
# Density = 1.790319 g / cm^3
# Si number density = 17.944030 Si / 1000 Ang^3
#
#
#
# Elastic Constant Matrix: (Units=GPa)
#
#
# Indices 1 2 3 4 5 6 
#
# 1 94.3722 54.3717 63.6816 0.0000 1.8642 0.0000
# 2 54.3717 108.0953 52.2480 0.0000 4.4439 0.0000
# 3 63.6816 52.2480 97.5020 0.0000 24.2832 0.0000
# 4 0.0000 0.0000 0.0000 30.4396 0.0000 0.1967
# 5 1.8642 4.4439 24.2832 0.0000 21.2304 0.0000
# 6 0.0000 0.0000 0.0000 0.1967 0.0000 30.4269
#
#
#
# Elastic Compliance Matrix: (Units=1/GPa)
#
#
# Indices 1 2 3 4 5 6 
#
# 1 0.026419 -0.004334 -0.020388 0.000000 0.021908 0.000000
# 2 -0.004334 0.013998 -0.005643 0.000000 0.003904 0.000000
# 3 -0.020388 -0.005643 0.036156 0.000000 -0.038383 0.000000
# 4 0.000000 0.000000 0.000000 0.032853 0.000000 -0.000212
# 5 0.021908 0.003904 -0.038383 0.000000 0.088264 0.000000
# 6 0.000000 0.000000 0.000000 -0.000212 0.000000 0.032867
#
#
# Mechanical properties :
#
#
# Convention : Reuss Voigt Hill
#
# Bulk Modulus (GPa) = 63.12465 71.17467 67.14966
# Shear Modulus (GPa) = 16.85953 25.06393 20.96173
#
# Velocity S-wave (km/s) = 3.06855 3.74141 3.42156
# Velocity P-wave (km/s) = 6.91446 7.64298 7.28783
#
# Compressibility (1/GPa) = 0.01584167
#
# Stress axis : x y z
#
# Youngs Moduli (GPa) = 37.85187 71.43802 27.65821
#
# Poissons Ratio (x) = 0.30965 0.56391
# Poissons Ratio (y) = 0.16407 0.15606
# Poissons Ratio (z) = 0.77174 0.40309
#
# Static dielectric constant tensor:
#      x y z
#    x 3.180290 0.000000 0.172010 
#    y 0.000000 3.369680 0.000000 
#    z 0.172010 0.000000 3.407730 
# 
# 
# High freq. dielectric constant tensor:
#      x y z
#    x 1.665850 0.000000 0.015830 
#    y 0.000000 1.704130 0.000000 
#    z 0.015830 0.000000 1.694550 
# 
# From -- ./inp_files/172372.got.cif
#   From: 2010.06.25/outbox.cif.g09.slc.cpg/sg12_87_cif.got.tgz:172372.got - 2010.06.28 00:19:55.
