data_PCOD8096165
_publ_section_title
;
Structure prediction by ZEFSAII (Michael W. Deem and Ramdas Pophale) SiO2 
 PCOD8096165
Probable space group: C 2/M
;
_chemical_formula_sum "Si O2"
_cell_formula_units_Z 56
_cell_length_a 14.446996
_cell_length_b 8.741748
_cell_length_c 32.221534
_cell_angle_alpha 90.000000
_cell_angle_beta 132.869415
_cell_angle_gamma 90.000000
_cell_volume 2982.431140
_symmetry_space_group_name_H-M "C 2/M"
_symmetry_group_IT_number 12
_symmetry_cell_setting 'monoclinic'
loop_
_space_group_symop_operation_xyz
x,y,z
-x,y,-z
-x,-y,-z
x,-y,z
1/2+x,1/2+y,z
1/2-x,1/2+y,-z
1/2-x,1/2-y,-z
1/2+x,1/2-y,z
loop_
_atom_site_type_symbol
_atom_site_label
_atom_site_fract_x
_atom_site_fract_y
_atom_site_fract_z
Si Si1 0.723750 0.321390 0.143485
Si Si2 0.946975 0.820588 0.055404
Si Si3 0.276905 0.179087 0.068909
Si Si4 0.107134 0.175608 0.736082
Si Si5 0.157010 0.682318 0.437923
Si Si6 0.180724 0.181460 0.356397
Si Si7 0.385241 0.320037 0.356886
O O1 0.706321 0.500000 0.143303
O O2 0.585353 0.243467 0.097655
O O3 0.795002 0.281686 0.122623
O O4 0.801462 0.267905 0.206493
O O5 0.884110 0.775380 0.079417
O O6 0.963489 0.000000 0.057629
O O7 0.860875 0.766965 0.990165
O O8 0.295411 0.000000 0.065101
O O9 0.147467 0.210989 0.701162
O O10 0.962209 0.223241 0.700427
O O11 0.126357 0.000000 0.752595
O O12 0.159520 0.500000 0.438973
O O13 0.250000 0.750000 0.500000
O O14 0.206179 0.742800 0.408652
O O15 0.017617 0.739970 0.407411
O O16 0.275442 0.248752 0.351348
O O17 0.198961 0.000000 0.366069
O O18 0.398061 0.500000 0.369789
#
# Coordination Sequence:
#
# PCOD8096165 Si02
#       7
#     8   8   8   8   8   8   8
#     4  10  20  33  52  75 100 134 174 214 262 320
#     4   9  18  33  51  72  99 131 168 212 262 317
#     4   9  18  33  51  72  99 131 168 212 262 317
#     4   9  21  38  54  76 109 141 176 224 270 317
#     4  11  22  38  60  88 120 151 184 226 270 317
#     4  10  21  39  60  83 111 147 187 227 273 322
#     4  10  21  39  60  83 111 147 187 227 273 322
#
# _framework density 18.776627999999999
#
# number of rings (size 3 to 8) (size 9 to 14) (size 15 to 20)
#    0.000    2.286    0.000    3.429    0.000    8.000 
#    0.000    8.571    0.000    4.286    0.000    0.000 
#    0.000    0.000    0.000    0.000    0.000    0.000 
#
# Total GULP energy -347142.116390 kJ/mol
# GULP energy per Si atom -12397.932728 kJ/mol
# Density = 1.873389 g / cm^3
# Si number density = 18.776628 Si / 1000 Ang^3
#
#
#
# Elastic Constant Matrix: (Units=GPa)
#
#
# Indices 1 2 3 4 5 6 
#
# 1 109.2118 38.7027 50.7870 0.0000 -4.1154 0.0000
# 2 38.7027 74.4456 39.8441 0.0000 -3.3179 0.0000
# 3 50.7870 39.8441 111.2246 0.0000 -7.1955 0.0000
# 4 0.0000 0.0000 0.0000 33.5414 0.0000 -2.0471
# 5 -4.1154 -3.3179 -7.1955 0.0000 16.9583 0.0000
# 6 0.0000 0.0000 0.0000 -2.0471 0.0000 33.3899
#
#
#
# Elastic Compliance Matrix: (Units=1/GPa)
#
#
# Indices 1 2 3 4 5 6 
#
# 1 0.012656 -0.004308 -0.004207 0.000000 0.000443 0.000000
# 2 -0.004308 0.018095 -0.004476 0.000000 0.000595 0.000000
# 3 -0.004207 -0.004476 0.012742 0.000000 0.003510 0.000000
# 4 0.000000 0.000000 0.000000 0.029926 0.000000 0.001835
# 5 0.000443 0.000595 0.003510 0.000000 0.060681 0.000000
# 6 0.000000 0.000000 0.000000 0.001835 0.000000 0.030062
#
#
# Mechanical properties :
#
#
# Convention : Reuss Voigt Hill
#
# Bulk Modulus (GPa) = 57.10972 61.50552 59.30762
# Shear Modulus (GPa) = 25.51243 27.81448 26.66345
#
# Velocity S-wave (km/s) = 3.69010 3.85299 3.77242
# Velocity P-wave (km/s) = 6.97403 7.25407 7.11543
#
# Compressibility (1/GPa) = 0.01751015
#
# Stress axis : x y z
#
# Youngs Moduli (GPa) = 79.01094 55.26457 78.47784
#
# Poissons Ratio (x) = 0.23810 0.33016
# Poissons Ratio (y) = 0.34041 0.35129
# Poissons Ratio (z) = 0.33240 0.24738
#
# Static dielectric constant tensor:
#      x y z
#    x 3.621380 0.000000 0.049230 
#    y 0.000000 3.413770 0.000000 
#    z 0.049230 0.000000 3.660770 
# 
# 
# High freq. dielectric constant tensor:
#      x y z
#    x 1.735960 0.000000 -0.000900 
#    y 0.000000 1.727050 0.000000 
#    z -0.000900 0.000000 1.732280 
# 
# From -- ./inp_files/375146.got.cif
#   From: 2010.06.25/outbox.cif.g09.slc.cpg/sg12_188_cif.got.tgz:375146.got - 2010.06.28 00:19:55.
