data_PCOD8096733
_publ_section_title
;
Structure prediction by ZEFSAII (Michael W. Deem and Ramdas Pophale) SiO2 
 PCOD8096733
Probable space group: C 2/M
;
_chemical_formula_sum "Si O2"
_cell_formula_units_Z 60
_cell_length_a 8.890787
_cell_length_b 21.766601
_cell_length_c 16.727972
_cell_angle_alpha 90.000000
_cell_angle_beta 106.573620
_cell_angle_gamma 90.000000
_cell_volume 3102.740062
_symmetry_space_group_name_H-M "C 2/M"
_symmetry_group_IT_number 12
_symmetry_cell_setting 'monoclinic'
loop_
_space_group_symop_operation_xyz
x,y,z
-x,y,-z
-x,-y,-z
x,-y,z
1/2+x,1/2+y,z
1/2-x,1/2+y,-z
1/2-x,1/2-y,-z
1/2+x,1/2-y,z
loop_
_atom_site_type_symbol
_atom_site_label
_atom_site_fract_x
_atom_site_fract_y
_atom_site_fract_z
Si Si1 0.839729 0.872407 0.689547
Si Si2 0.851600 0.070877 0.198887
Si Si3 0.965643 0.202510 0.401248
Si Si4 0.972941 0.429134 0.410362
Si Si5 0.311979 0.308228 0.108024
Si Si6 0.117829 0.712811 0.742542
Si Si7 0.161613 0.368336 0.303852
Si Si8 0.500000 0.250419 0.000000
O O1 0.898936 0.838484 0.618481
O O2 0.701683 0.917750 0.645928
O O3 0.779099 0.823889 0.748070
O O4 0.972634 0.915570 0.746087
O O5 0.813622 0.118625 0.121910
O O6 0.727453 0.083058 0.250304
O O7 0.837482 0.000000 0.168039
O O8 0.959064 0.267833 0.354579
O O9 0.000000 0.211517 0.500000
O O10 0.795266 0.175116 0.358947
O O11 0.003924 0.500000 0.424166
O O12 0.000000 0.396556 0.500000
O O13 0.101106 0.405792 0.369027
O O14 0.345497 0.271675 0.196209
O O15 0.142285 0.292531 0.048041
O O16 0.447215 0.293243 0.065044
O O17 0.981470 0.669921 0.760237
#
# Coordination Sequence:
#
# PCOD8096733 Si02
#       8
#     8   8   8   8   8   8   8   4
#     4  10  21  35  54  81 113 158 200 249 288 344
#     4  11  22  38  62  86 118 156 196 237 286 354
#     4  11  22  33  51  86 122 157 194 243 304 349
#     4  10  20  34  50  70 107 158 211 257 290 331
#     4  11  21  41  62  95 117 149 189 232 299 351
#     4  11  21  36  62  84 118 157 193 247 293 356
#     4  10  21  35  54  81 113 158 200 249 288 344
#     4  10  24  38  70  94 122 142 184 244 292 362
#
# _framework density 19.337745999999999
#
# number of rings (size 3 to 8) (size 9 to 14) (size 15 to 20)
#    0.000    1.467    2.667    4.000    0.000    4.267 
#    0.000    0.667    0.000    6.400    0.000    0.000 
#    0.000    0.000    0.000    0.000    0.000    0.000 
#
# Total GULP energy -371952.295676 kJ/mol
# GULP energy per Si atom -12398.409856 kJ/mol
# Density = 1.929373 g / cm^3
# Si number density = 19.337746 Si / 1000 Ang^3
#
#
#
# Elastic Constant Matrix: (Units=GPa)
#
#
# Indices 1 2 3 4 5 6 
#
# 1 100.8641 26.3599 20.6511 0.0000 -16.7703 0.0000
# 2 26.3599 110.1273 32.9304 0.0000 -11.4788 0.0000
# 3 20.6511 32.9304 81.5785 0.0000 -11.3705 0.0000
# 4 0.0000 0.0000 0.0000 27.5677 0.0000 -1.2260
# 5 -16.7703 -11.4788 -11.3705 0.0000 17.7856 0.0000
# 6 0.0000 0.0000 0.0000 -1.2260 0.0000 13.9559
#
#
#
# Elastic Compliance Matrix: (Units=1/GPa)
#
#
# Indices 1 2 3 4 5 6 
#
# 1 0.012171 -0.001570 -0.001086 0.000000 0.009769 0.000000
# 2 -0.001570 0.010852 -0.003527 0.000000 0.003268 0.000000
# 3 -0.001086 -0.003527 0.014817 0.000000 0.006173 0.000000
# 4 0.000000 0.000000 0.000000 0.036417 0.000000 0.003199
# 5 0.009769 0.003268 0.006173 0.000000 0.071492 0.000000
# 6 0.000000 0.000000 0.000000 0.003199 0.000000 0.071935
#
#
# Mechanical properties :
#
#
# Convention : Reuss Voigt Hill
#
# Bulk Modulus (GPa) = 39.25691 50.27254 44.76473
# Shear Modulus (GPa) = 20.96072 26.03708 23.49890
#
# Velocity S-wave (km/s) = 3.29588 3.67337 3.48973
# Velocity P-wave (km/s) = 5.90157 6.63664 6.27987
#
# Compressibility (1/GPa) = 0.02547322
#
# Stress axis : x y z
#
# Youngs Moduli (GPa) = 82.16091 92.15161 67.48924
#
# Poissons Ratio (x) = 0.14472 0.07326
# Poissons Ratio (y) = 0.12903 0.23806
# Poissons Ratio (z) = 0.08919 0.32506
#
# Static dielectric constant tensor:
#      x y z
#    x 3.858350 0.000000 -0.162020 
#    y 0.000000 3.427180 0.000000 
#    z -0.162020 0.000000 3.591280 
# 
# 
# High freq. dielectric constant tensor:
#      x y z
#    x 1.780080 0.000000 -0.003340 
#    y 0.000000 1.742390 0.000000 
#    z -0.003340 0.000000 1.734810 
# 
# From -- ./inp_files/198938.got.cif
#   From: 2010.06.25/outbox.cif.g09.slc.cpg/sg12_100_cif.got.tgz:198938.got - 2010.06.28 00:19:55.
