data_PCOD8096625
_publ_section_title
;
Structure prediction by ZEFSAII (Michael W. Deem and Ramdas Pophale) SiO2 
 PCOD8096625
Probable space group: C 2/M
;
_chemical_formula_sum "Si O2"
_cell_formula_units_Z 48
_cell_length_a 24.881817
_cell_length_b 19.064509
_cell_length_c 5.274127
_cell_angle_alpha 90.000000
_cell_angle_beta 124.750988
_cell_angle_gamma 90.000000
_cell_volume 2055.598752
_symmetry_space_group_name_H-M "C 2/M"
_symmetry_group_IT_number 12
_symmetry_cell_setting 'monoclinic'
loop_
_space_group_symop_operation_xyz
x,y,z
-x,y,-z
-x,-y,-z
x,-y,z
1/2+x,1/2+y,z
1/2-x,1/2+y,-z
1/2-x,1/2-y,-z
1/2+x,1/2-y,z
loop_
_atom_site_type_symbol
_atom_site_label
_atom_site_fract_x
_atom_site_fract_y
_atom_site_fract_z
Si Si1 0.613164 0.080945 0.762340
Si Si2 0.245392 0.364946 0.011180
Si Si3 0.808403 0.754411 0.461300
Si Si4 0.073645 0.337489 0.150445
Si Si5 0.362287 0.418889 0.069536
Si Si6 0.426668 0.416492 0.746697
O O1 0.594184 0.112578 0.438259
O O2 0.592101 0.000000 0.711303
O O3 0.692472 0.086210 0.011943
O O4 0.576892 0.119303 0.896675
O O5 0.303560 0.334431 0.347493
O O6 0.284319 0.407726 0.899284
O O7 0.203993 0.299779 0.798854
O O8 0.750000 0.750000 0.500000
O O9 0.879893 0.731715 0.757919
O O10 0.000000 0.310604 0.000000
O O11 0.378910 0.500000 0.098039
O O12 0.404268 0.385881 0.414726
O O13 0.383226 0.383766 0.860163
O O14 0.417938 0.500000 0.716955
O O15 0.500000 0.393286 0.000000
#
# Coordination Sequence:
#
# PCOD8096625 Si02
#       6
#     8   8   8   8   8   8
#     4  11  23  40  65  98 134 170 208 257 324 396
#     4  10  22  38  62  91 120 159 212 260 312 367
#     4  10  21  42  66  85 117 169 213 258 311 370
#     4  11  24  42  66  95 129 173 215 265 319 380
#     4  10  20  33  56  87 116 150 194 253 309 364
#     4   9  18  33  52  75 112 158 194 228 291 368
#
# _framework density 23.350859
#
# number of rings (size 3 to 8) (size 9 to 14) (size 15 to 20)
#    0.000    1.833    1.667    2.000    2.333    4.000 
#    0.000    4.167    3.667    0.000    0.000    0.000 
#    0.000    0.000    0.000    0.000    0.000    0.000 
#
# Total GULP energy -297391.449416 kJ/mol
# GULP energy per Si atom -12391.310392 kJ/mol
# Density = 2.329771 g / cm^3
# Si number density = 23.350859 Si / 1000 Ang^3
#
#
#
# Elastic Constant Matrix: (Units=GPa)
#
#
# Indices 1 2 3 4 5 6 
#
# 1 164.7057 14.9121 32.8742 0.0000 7.3773 0.0000
# 2 14.9121 25.7520 18.8732 0.0000 1.7297 0.0000
# 3 32.8742 18.8732 82.2608 0.0000 -3.6046 0.0000
# 4 0.0000 0.0000 0.0000 17.4747 0.0000 2.0944
# 5 7.3773 1.7297 -3.6046 0.0000 50.5195 0.0000
# 6 0.0000 0.0000 0.0000 2.0944 0.0000 29.3950
#
#
#
# Elastic Compliance Matrix: (Units=1/GPa)
#
#
# Indices 1 2 3 4 5 6 
#
# 1 0.006767 -0.002200 -0.002247 0.000000 -0.001073 0.000000
# 2 -0.002200 0.047681 -0.010149 0.000000 -0.002035 0.000000
# 3 -0.002247 -0.010149 0.015461 0.000000 0.001779 0.000000
# 4 0.000000 0.000000 0.000000 0.057718 0.000000 -0.004112
# 5 -0.001073 -0.002035 0.001779 0.000000 0.020148 0.000000
# 6 0.000000 0.000000 0.000000 -0.004112 0.000000 0.034312
#
#
# Mechanical properties :
#
#
# Convention : Reuss Voigt Hill
#
# Bulk Modulus (GPa) = 24.55996 45.11528 34.83762
# Shear Modulus (GPa) = 22.23686 33.21511 27.72598
#
# Velocity S-wave (km/s) = 3.08927 3.77561 3.44955
# Velocity P-wave (km/s) = 4.82343 6.19432 5.55135
#
# Compressibility (1/GPa) = 0.04071667
#
# Stress axis : x y z
#
# Youngs Moduli (GPa) = 147.77379 20.97272 64.67952
#
# Poissons Ratio (x) = 0.04614 0.14531
# Poissons Ratio (y) = 0.32510 0.65646
# Poissons Ratio (z) = 0.33200 0.21286
#
# Static dielectric constant tensor:
#      x y z
#    x 4.563870 0.000000 -0.206770 
#    y 0.000000 4.023990 0.000000 
#    z -0.206770 0.000000 4.656970 
# 
# 
# High freq. dielectric constant tensor:
#      x y z
#    x 1.938670 0.000000 -0.002750 
#    y 0.000000 1.899230 0.000000 
#    z -0.002750 0.000000 1.923770 
# 
# From -- ./inp_files/20937.got.cif
#   From: 2010.06.25/outbox.cif.g09.slc.cpg/sg12_11_cif.got.tgz:20937.got - 2010.06.28 00:19:55.
