data_PCOD8096338
_publ_section_title
;
Structure prediction by ZEFSAII (Michael W. Deem and Ramdas Pophale) SiO2 
 PCOD8096338
Probable space group: C 2/M
;
_chemical_formula_sum "Si O2"
_cell_formula_units_Z 40
_cell_length_a 32.173569
_cell_length_b 8.053468
_cell_length_c 11.346221
_cell_angle_alpha 90.000000
_cell_angle_beta 44.170814
_cell_angle_gamma 90.000000
_cell_volume 2048.525846
_symmetry_space_group_name_H-M "C 2/M"
_symmetry_group_IT_number 12
_symmetry_cell_setting 'monoclinic'
loop_
_space_group_symop_operation_xyz
x,y,z
-x,y,-z
-x,-y,-z
x,-y,z
1/2+x,1/2+y,z
1/2-x,1/2+y,-z
1/2-x,1/2-y,-z
1/2+x,1/2-y,z
loop_
_atom_site_type_symbol
_atom_site_label
_atom_site_fract_x
_atom_site_fract_y
_atom_site_fract_z
Si Si1 0.935540 0.688837 0.651557
Si Si2 0.640277 0.678963 0.396577
Si Si3 0.241178 0.187427 0.885015
Si Si4 0.079059 0.000000 0.956803
Si Si5 0.442035 0.500000 0.275371
Si Si6 0.370611 0.813326 0.019568
O O1 0.935765 0.500000 0.605364
O O2 0.886985 0.785172 0.675417
O O3 0.921083 0.702915 0.817952
O O4 0.000000 0.771184 0.500000
O O5 0.672010 0.500000 0.320194
O O6 0.694456 0.804859 0.313566
O O7 0.587885 0.665564 0.603089
O O8 0.217978 0.000000 0.931933
O O9 0.250000 0.250000 0.000000
O O10 0.194011 0.296400 0.908870
O O11 0.115771 0.166857 0.915200
O O12 0.013287 0.000000 0.149606
O O13 0.074136 0.000000 0.827474
O O14 0.373876 0.000000 0.069771
#
# Coordination Sequence:
#
# PCOD8096338 Si02
#       6
#     8   8   8   4   4   8
#     4  10  20  33  52  88 126 157 199 251 314 389
#     4  10  21  36  57  86 121 161 199 257 314 367
#     4  12  22  37  59  93 130 171 208 252 315 389
#     4  11  22  47  69  91 123 170 221 266 334 353
#     4   9  24  43  67  91 123 164 221 276 308 385
#     4  11  23  38  62  96 127 167 210 260 318 390
#
# _framework density 19.526236999999998
#
# number of rings (size 3 to 8) (size 9 to 14) (size 15 to 20)
#    0.600    0.800    3.000    3.600    1.400    0.400 
#    0.000    6.000    0.000    0.000    0.000    0.000 
#    0.000    0.000    0.000    0.000    0.000    0.000 
#
# Total GULP energy -247849.521896 kJ/mol
# GULP energy per Si atom -12392.476095 kJ/mol
# Density = 1.948179 g / cm^3
# Si number density = 19.526237 Si / 1000 Ang^3
#
#
#
# Elastic Constant Matrix: (Units=GPa)
#
#
# Indices 1 2 3 4 5 6 
#
# 1 83.8826 32.5306 10.5326 0.0000 -10.6689 0.0000
# 2 32.5306 106.4014 9.8209 0.0000 2.6400 0.0000
# 3 10.5326 9.8209 51.6691 0.0000 -12.0137 0.0000
# 4 0.0000 0.0000 0.0000 28.0596 0.0000 -6.6414
# 5 -10.6689 2.6400 -12.0137 0.0000 31.7851 0.0000
# 6 0.0000 0.0000 0.0000 -6.6414 0.0000 18.1870
#
#
#
# Elastic Compliance Matrix: (Units=1/GPa)
#
#
# Indices 1 2 3 4 5 6 
#
# 1 0.014373 -0.004425 -0.000967 0.000000 0.004826 0.000000
# 2 -0.004425 0.011006 -0.001916 0.000000 -0.003124 0.000000
# 3 -0.000967 -0.001916 0.021792 0.000000 0.008071 0.000000
# 4 0.000000 0.000000 0.000000 0.039010 0.000000 0.014245
# 5 0.004826 -0.003124 0.008071 0.000000 0.036391 0.000000
# 6 0.000000 0.000000 0.000000 0.014245 0.000000 0.060186
#
#
# Mechanical properties :
#
#
# Convention : Reuss Voigt Hill
#
# Bulk Modulus (GPa) = 30.71721 38.63570 34.67646
# Shear Modulus (GPa) = 24.01254 28.21093 26.11174
#
# Velocity S-wave (km/s) = 3.51059 3.80514 3.66083
# Velocity P-wave (km/s) = 5.67431 6.25579 5.97213
#
# Compressibility (1/GPa) = 0.03255504
#
# Stress axis : x y z
#
# Youngs Moduli (GPa) = 69.57665 90.86338 45.88871
#
# Poissons Ratio (x) = 0.40205 0.04436
# Poissons Ratio (y) = 0.30786 0.08793
# Poissons Ratio (z) = 0.06725 0.17411
#
# Static dielectric constant tensor:
#      x y z
#    x 3.334260 0.000000 -0.279770 
#    y 0.000000 3.623010 0.000000 
#    z -0.279770 0.000000 3.571730 
# 
# 
# High freq. dielectric constant tensor:
#      x y z
#    x 1.746440 0.000000 -0.028880 
#    y 0.000000 1.759870 0.000000 
#    z -0.028880 0.000000 1.752240 
# 
# From -- ./inp_files/179678.got.cif
#   From: 2010.06.25/outbox.cif.g09.slc.cpg/sg12_90_cif.got.tgz:179678.got - 2010.06.28 00:19:55.
