data_PCOD8096646
_publ_section_title
;
Structure prediction by ZEFSAII (Michael W. Deem and Ramdas Pophale) SiO2 
 PCOD8096646
Probable space group: C 2/M
;
_chemical_formula_sum "Si O2"
_cell_formula_units_Z 56
_cell_length_a 13.457186
_cell_length_b 13.809848
_cell_length_c 18.811811
_cell_angle_alpha 90.000000
_cell_angle_beta 124.894012
_cell_angle_gamma 90.000000
_cell_volume 2867.475413
_symmetry_space_group_name_H-M "C 2/M"
_symmetry_group_IT_number 12
_symmetry_cell_setting 'monoclinic'
loop_
_space_group_symop_operation_xyz
x,y,z
-x,y,-z
-x,-y,-z
x,-y,z
1/2+x,1/2+y,z
1/2-x,1/2+y,-z
1/2-x,1/2-y,-z
1/2+x,1/2-y,z
loop_
_atom_site_type_symbol
_atom_site_label
_atom_site_fract_x
_atom_site_fract_y
_atom_site_fract_z
Si Si1 0.746115 0.610883 0.422688
Si Si2 0.399288 0.606100 0.898999
Si Si3 0.575375 0.293268 0.878509
Si Si4 0.775874 0.612155 0.052671
Si Si5 0.829614 0.610316 0.616164
Si Si6 0.501162 0.282802 0.306917
Si Si7 0.380745 0.722118 0.405222
O O1 0.759368 0.500000 0.405139
O O2 0.800910 0.630908 0.522366
O O3 0.605882 0.639953 0.366507
O O4 0.821866 0.673642 0.397644
O O5 0.382811 0.500000 0.856296
O O6 0.442167 0.683755 0.857448
O O7 0.276123 0.636397 0.889398
O O8 0.500000 0.598087 0.000000
O O9 0.608361 0.181709 0.910665
O O10 0.570772 0.313479 0.792896
O O11 0.675752 0.365591 0.951534
O O12 0.814682 0.500000 0.061901
O O13 0.865586 0.500000 0.645505
O O14 0.943400 0.676189 0.683786
O O15 0.712626 0.636561 0.615031
O O16 0.406751 0.281642 0.332491
O O17 0.500000 0.705235 0.500000
#
# Coordination Sequence:
#
# PCOD8096646 Si02
#       7
#     8   8   8   8   8   8   8
#     4  10  21  36  56  80 105 139 184 229 269 313
#     4   8  15  32  58  80 101 135 176 215 261 321
#     4  10  20  33  57  83 110 142 176 224 276 315
#     4   9  19  37  59  82 107 140 182 221 267 329
#     4  10  21  37  55  76 105 143 185 225 267 318
#     4  11  22  36  53  81 114 142 180 227 268 315
#     4  11  19  36  57  78 108 146 184 222 264 321
#
# _framework density 19.529374000000001
#
# number of rings (size 3 to 8) (size 9 to 14) (size 15 to 20)
#    0.000    2.143    2.857    2.143    0.000    5.714 
#    0.000    1.429    0.000   11.571    0.000    0.000 
#    0.000    0.000    0.000    0.000    0.000    0.000 
#
# Total GULP energy -347184.262371 kJ/mol
# GULP energy per Si atom -12399.437942 kJ/mol
# Density = 1.948492 g / cm^3
# Si number density = 19.529374 Si / 1000 Ang^3
#
#
#
# Elastic Constant Matrix: (Units=GPa)
#
#
# Indices 1 2 3 4 5 6 
#
# 1 100.0829 32.6560 44.1353 0.0000 -28.4516 0.0000
# 2 32.6560 90.2940 30.0750 0.0000 -14.2753 0.0000
# 3 44.1353 30.0750 58.8510 0.0000 -25.8101 0.0000
# 4 0.0000 0.0000 0.0000 9.7631 0.0000 -2.5340
# 5 -28.4516 -14.2753 -25.8101 0.0000 26.4306 0.0000
# 6 0.0000 0.0000 0.0000 -2.5340 0.0000 22.3868
#
#
#
# Elastic Compliance Matrix: (Units=1/GPa)
#
#
# Indices 1 2 3 4 5 6 
#
# 1 0.016579 -0.002093 -0.007054 0.000000 0.009829 0.000000
# 2 -0.002093 0.013625 -0.005517 0.000000 -0.000281 0.000000
# 3 -0.007054 -0.005517 0.035794 0.000000 0.024381 0.000000
# 4 0.000000 0.000000 0.000000 0.105526 0.000000 0.011945
# 5 0.009829 -0.000281 0.024381 0.000000 0.072072 0.000000
# 6 0.000000 0.000000 0.000000 0.011945 0.000000 0.046021
#
#
# Mechanical properties :
#
#
# Convention : Reuss Voigt Hill
#
# Bulk Modulus (GPa) = 27.26875 51.44006 39.35441
# Shear Modulus (GPa) = 15.09812 21.20689 18.15251
#
# Velocity S-wave (km/s) = 2.78348 3.29887 3.05207
# Velocity P-wave (km/s) = 4.93190 6.39586 5.71098
#
# Compressibility (1/GPa) = 0.03667201
#
# Stress axis : x y z
#
# Youngs Moduli (GPa) = 60.31659 73.39538 27.93775
#
# Poissons Ratio (x) = 0.15360 0.19706
# Poissons Ratio (y) = 0.12623 0.15412
# Poissons Ratio (z) = 0.42545 0.40489
#
# Static dielectric constant tensor:
#      x y z
#    x 3.722960 0.000000 -0.096610 
#    y 0.000000 3.592890 0.000000 
#    z -0.096610 0.000000 3.323500 
# 
# 
# High freq. dielectric constant tensor:
#      x y z
#    x 1.755140 0.000000 -0.006020 
#    y 0.000000 1.758800 0.000000 
#    z -0.006020 0.000000 1.744620 
# 
# From -- ./inp_files/263421.got.cif
#   From: 2010.06.25/outbox.cif.g09.slc.cpg/sg12_132_cif.got.tgz:263421.got - 2010.06.28 00:19:55.
