data_PCOD8096260
_publ_section_title
;
Structure prediction by ZEFSAII (Michael W. Deem and Ramdas Pophale) SiO2 
 PCOD8096260
Probable space group: C 2/M
;
_chemical_formula_sum "Si O2"
_cell_formula_units_Z 64
_cell_length_a 19.491267
_cell_length_b 8.877652
_cell_length_c 24.889927
_cell_angle_alpha 90.000000
_cell_angle_beta 125.269783
_cell_angle_gamma 90.000000
_cell_volume 3516.310933
_symmetry_space_group_name_H-M "C 2/M"
_symmetry_group_IT_number 12
_symmetry_cell_setting 'monoclinic'
loop_
_space_group_symop_operation_xyz
x,y,z
-x,y,-z
-x,-y,-z
x,-y,z
1/2+x,1/2+y,z
1/2-x,1/2+y,-z
1/2-x,1/2-y,-z
1/2+x,1/2-y,z
loop_
_atom_site_type_symbol
_atom_site_label
_atom_site_fract_x
_atom_site_fract_y
_atom_site_fract_z
Si Si1 0.280255 0.169726 0.932852
Si Si2 0.177595 0.325447 0.799484
Si Si3 0.019241 0.325639 0.803718
Si Si4 0.698016 0.677899 0.696160
Si Si5 0.243607 0.670959 0.553395
Si Si6 0.591129 0.173405 0.558479
Si Si7 0.844690 0.179227 0.700430
Si Si8 0.120234 0.830313 0.937041
O O1 0.256327 0.263759 0.869197
O O2 0.202865 0.166947 0.938388
O O3 0.305437 0.000000 0.927801
O O4 0.359504 0.249497 0.997289
O O5 0.193476 0.500000 0.794087
O O6 0.091577 0.300481 0.792787
O O7 0.169845 0.231713 0.741823
O O8 0.995993 0.500000 0.799783
O O9 0.047395 0.262535 0.874264
O O10 0.939414 0.233348 0.747763
O O11 0.708119 0.500000 0.700042
O O12 0.624748 0.725987 0.622249
O O13 0.787339 0.751839 0.721584
O O14 0.267208 0.500000 0.553377
O O15 0.250000 0.750000 0.500000
O O16 0.149558 0.690324 0.532827
O O17 0.308868 0.736774 0.626845
O O18 0.500000 0.232650 0.500000
O O19 0.588392 0.000000 0.576834
O O20 0.838643 0.000000 0.702215
O O21 0.088687 0.000000 0.933860
#
# Coordination Sequence:
#
# PCOD8096260 Si02
#       8
#     8   8   8   8   8   8   8   8
#     4   9  16  27  45  71 102 134 172 217 260 304
#     4  10  20  34  52  76 107 140 175 216 263 312
#     4  10  20  33  52  79 106 135 175 220 261 304
#     4  11  22  36  55  78 105 138 177 217 258 308
#     4   9  19  34  53  76 101 131 166 206 252 303
#     4   9  19  37  57  76 101 135 173 211 256 308
#     4  10  21  38  56  75 104 141 176 211 259 315
#     4   9  16  27  45  70 102 138 171 209 261 312
#
# _framework density 18.200893000000001
#
# number of rings (size 3 to 8) (size 9 to 14) (size 15 to 20)
#    0.000    2.375    0.000    3.750    0.000    8.250 
#    0.000    3.750    0.000    0.750    0.000    5.250 
#    0.000    0.000    0.000    0.000    0.000    0.000 
#
# Total GULP energy -396839.696189 kJ/mol
# GULP energy per Si atom -12401.240506 kJ/mol
# Density = 1.815947 g / cm^3
# Si number density = 18.200893 Si / 1000 Ang^3
#
#
#
# Elastic Constant Matrix: (Units=GPa)
#
#
# Indices 1 2 3 4 5 6 
#
# 1 48.0651 36.1095 52.1249 0.0000 3.4009 0.0000
# 2 36.1095 119.8746 56.9804 0.0000 -0.7437 0.0000
# 3 52.1249 56.9804 121.2363 0.0000 5.3472 0.0000
# 4 0.0000 0.0000 0.0000 38.4597 0.0000 -1.2148
# 5 3.4009 -0.7437 5.3472 0.0000 19.5598 0.0000
# 6 0.0000 0.0000 0.0000 -1.2148 0.0000 26.9959
#
#
#
# Elastic Compliance Matrix: (Units=1/GPa)
#
#
# Indices 1 2 3 4 5 6 
#
# 1 0.041515 -0.005292 -0.015218 0.000000 -0.003259 0.000000
# 2 -0.005292 0.011480 -0.003219 0.000000 0.002237 0.000000
# 3 -0.015218 -0.003219 0.016391 0.000000 -0.001957 0.000000
# 4 0.000000 0.000000 0.000000 0.026038 0.000000 0.001172
# 5 -0.003259 0.002237 -0.001957 0.000000 0.052312 0.000000
# 6 0.000000 0.000000 0.000000 0.001172 0.000000 0.037095
#
#
# Mechanical properties :
#
#
# Convention : Reuss Voigt Hill
#
# Bulk Modulus (GPa) = 45.60515 64.40062 55.00288
# Shear Modulus (GPa) = 20.86823 26.60050 23.73437
#
# Velocity S-wave (km/s) = 3.38975 3.82710 3.61504
# Velocity P-wave (km/s) = 6.35857 7.41545 6.90726
#
# Compressibility (1/GPa) = 0.02192735
#
# Stress axis : x y z
#
# Youngs Moduli (GPa) = 24.08770 87.10723 61.01070
#
# Poissons Ratio (x) = 0.46097 0.92847
# Poissons Ratio (y) = 0.12747 0.19639
# Poissons Ratio (z) = 0.36657 0.28040
#
# Static dielectric constant tensor:
#      x y z
#    x 3.067920 0.000000 0.057910 
#    y 0.000000 3.480510 0.000000 
#    z 0.057910 0.000000 3.566430 
# 
# 
# High freq. dielectric constant tensor:
#      x y z
#    x 1.671480 0.000000 0.001990 
#    y 0.000000 1.717310 0.000000 
#    z 0.001990 0.000000 1.716030 
# 
# From -- ./inp_files/346157.got.cif
#   From: 2010.06.25/outbox.cif.g09.slc.cpg/sg12_174_cif.got.tgz:346157.got - 2010.06.28 00:19:55.
