data_PCOD8096067
_publ_section_title
;
Structure prediction by ZEFSAII (Michael W. Deem and Ramdas Pophale) SiO2 
 PCOD8096067
Probable space group: C 2/M
;
_chemical_formula_sum "Si O2"
_cell_formula_units_Z 64
_cell_length_a 24.299625
_cell_length_b 19.375117
_cell_length_c 9.190312
_cell_angle_alpha 90.000000
_cell_angle_beta 129.456350
_cell_angle_gamma 90.000000
_cell_volume 3340.817451
_symmetry_space_group_name_H-M "C 2/M"
_symmetry_group_IT_number 12
_symmetry_cell_setting 'monoclinic'
loop_
_space_group_symop_operation_xyz
x,y,z
-x,y,-z
-x,-y,-z
x,-y,z
1/2+x,1/2+y,z
1/2-x,1/2+y,-z
1/2-x,1/2-y,-z
1/2+x,1/2-y,z
loop_
_atom_site_type_symbol
_atom_site_label
_atom_site_fract_x
_atom_site_fract_y
_atom_site_fract_z
Si Si1 0.674242 0.423766 0.412419
Si Si2 0.345870 0.773913 0.034129
Si Si3 0.323046 0.080006 0.527600
Si Si4 0.414339 0.180071 0.858845
Si Si5 0.030211 0.178997 0.700636
Si Si6 0.885278 0.786515 0.580906
Si Si7 0.209896 0.689392 0.764093
Si Si8 0.058714 0.922807 0.989868
O O1 0.660655 0.500000 0.458989
O O2 0.757510 0.411640 0.528261
O O3 0.642925 0.365189 0.464358
O O4 0.636297 0.420166 0.191853
O O5 0.409082 0.735006 0.224583
O O6 0.307748 0.821420 0.093360
O O7 0.380310 0.820747 0.963650
O O8 0.290495 0.717009 0.878922
O O9 0.390241 0.113675 0.723670
O O10 0.304202 0.117870 0.344045
O O11 0.339672 0.000000 0.520677
O O12 0.379820 0.248665 0.727837
O O13 0.500000 0.180785 0.000000
O O14 0.063059 0.116489 0.846223
O O15 0.000000 0.148710 0.500000
O O16 0.968056 0.216904 0.683126
O O17 0.840489 0.748596 0.383487
O O18 0.033385 0.000000 0.911548
O O19 0.000000 0.888729 0.000000
#
# Coordination Sequence:
#
# PCOD8096067 Si02
#       8
#     8   8   8   8   8   8   8   8
#     4  10  20  35  60  86 114 151 200 243 279 338
#     4  11  22  37  58  90 116 149 192 241 292 337
#     4  10  22  41  62  86 114 152 195 241 295 349
#     4  11  22  36  62  89 114 148 191 246 294 347
#     4  12  22  33  52  82 117 150 187 236 288 345
#     4  11  20  35  57  85 115 153 191 238 291 340
#     4  10  22  39  60  84 119 152 195 243 290 354
#     4  10  20  33  51  76 109 153 196 229 272 335
#
# _framework density 19.156987000000001
#
# number of rings (size 3 to 8) (size 9 to 14) (size 15 to 20)
#    0.000    1.375    3.750    3.000    0.000    2.500 
#    0.000    0.625    0.000    3.750    0.000    0.000 
#    0.000    0.000    0.000    0.000    0.000    0.000 
#
# Total GULP energy -396745.736898 kJ/mol
# GULP energy per Si atom -12398.304278 kJ/mol
# Density = 1.911338 g / cm^3
# Si number density = 19.156987 Si / 1000 Ang^3
#
#
#
# Elastic Constant Matrix: (Units=GPa)
#
#
# Indices 1 2 3 4 5 6 
#
# 1 87.3712 34.2760 27.4426 0.0000 -0.6196 0.0000
# 2 34.2760 113.2439 35.5364 0.0000 -2.0298 0.0000
# 3 27.4426 35.5364 79.4103 0.0000 -1.3879 0.0000
# 4 0.0000 0.0000 0.0000 23.6993 0.0000 -1.2546
# 5 -0.6196 -2.0298 -1.3879 0.0000 31.1803 0.0000
# 6 0.0000 0.0000 0.0000 -1.2546 0.0000 22.5281
#
#
#
# Elastic Compliance Matrix: (Units=1/GPa)
#
#
# Indices 1 2 3 4 5 6 
#
# 1 0.013714 -0.003100 -0.003353 0.000000 -0.000079 0.000000
# 2 -0.003100 0.010981 -0.003834 0.000000 0.000483 0.000000
# 3 -0.003353 -0.003834 0.015474 0.000000 0.000373 0.000000
# 4 0.000000 0.000000 0.000000 0.042320 0.000000 0.002357
# 5 -0.000079 0.000483 0.000373 0.000000 0.032118 0.000000
# 6 0.000000 0.000000 0.000000 0.002357 0.000000 0.044520
#
#
# Mechanical properties :
#
#
# Convention : Reuss Voigt Hill
#
# Bulk Modulus (GPa) = 51.03693 52.72616 51.88155
# Shear Modulus (GPa) = 26.84799 27.66625 27.25712
#
# Velocity S-wave (km/s) = 3.74769 3.80437 3.77613
# Velocity P-wave (km/s) = 6.73989 6.84694 6.79363
#
# Compressibility (1/GPa) = 0.01959365
#
# Stress axis : x y z
#
# Youngs Moduli (GPa) = 72.91654 91.06962 64.62441
#
# Poissons Ratio (x) = 0.28232 0.21672
# Poissons Ratio (y) = 0.22604 0.24778
# Poissons Ratio (z) = 0.24452 0.34917
#
# Static dielectric constant tensor:
#      x y z
#    x 3.439210 0.000000 0.139720 
#    y 0.000000 3.383580 0.000000 
#    z 0.139720 0.000000 3.580330 
# 
# 
# High freq. dielectric constant tensor:
#      x y z
#    x 1.742380 0.000000 0.013410 
#    y 0.000000 1.724680 0.000000 
#    z 0.013410 0.000000 1.752690 
# 
# From -- ./inp_files/77507.got.cif
#   From: 2010.06.25/outbox.cif.g09.slc.cpg/sg12_39_cif.got.tgz:77507.got - 2010.06.28 00:19:55.
