data_PCOD8096810
_publ_section_title
;
Structure prediction by ZEFSAII (Michael W. Deem and Ramdas Pophale) SiO2 
 PCOD8096810
Probable space group: C 2/M
;
_chemical_formula_sum "Si O2"
_cell_formula_units_Z 56
_cell_length_a 19.077141
_cell_length_b 8.931565
_cell_length_c 26.944295
_cell_angle_alpha 90.000000
_cell_angle_beta 39.129335
_cell_angle_gamma 90.000000
_cell_volume 2897.258960
_symmetry_space_group_name_H-M "C 2/M"
_symmetry_group_IT_number 12
_symmetry_cell_setting 'monoclinic'
loop_
_space_group_symop_operation_xyz
x,y,z
-x,y,-z
-x,-y,-z
x,-y,z
1/2+x,1/2+y,z
1/2-x,1/2+y,-z
1/2-x,1/2-y,-z
1/2+x,1/2-y,z
loop_
_atom_site_type_symbol
_atom_site_label
_atom_site_fract_x
_atom_site_fract_y
_atom_site_fract_z
Si Si1 0.845487 0.326312 0.807020
Si Si2 0.456741 0.169077 0.471388
Si Si3 0.145314 0.327534 0.784535
Si Si4 0.895515 0.175015 0.090088
Si Si5 0.955407 0.822282 0.256667
Si Si6 0.281536 0.668405 0.432184
Si Si7 0.112487 0.829178 0.316034
O O1 0.867562 0.500000 0.804745
O O2 0.714438 0.286495 0.882066
O O3 0.885600 0.283721 0.730465
O O4 0.917530 0.233811 0.807535
O O5 0.500000 0.225912 0.500000
O O6 0.324205 0.175115 0.545798
O O7 0.502720 0.285650 0.406139
O O8 0.498930 0.000000 0.436781
O O9 0.110380 0.500000 0.799131
O O10 0.098802 0.266214 0.862077
O O11 0.093680 0.238184 0.767434
O O12 0.278503 0.308172 0.709878
O O13 0.897363 0.000000 0.102625
O O14 0.000000 0.223883 0.000000
O O15 0.883595 0.763328 0.343846
O O16 0.951656 0.000000 0.256227
O O17 0.312118 0.500000 0.430455
O O18 0.250000 0.750000 0.500000
O O19 0.102489 0.000000 0.302395
#
# Coordination Sequence:
#
# PCOD8096810 Si02
#       7
#     8   8   8   8   8   8   8
#     4  10  20  35  57  82 108 139 175 216 264 319
#     4  10  20  34  51  71  97 133 180 229 275 319
#     4  10  21  36  56  83 113 145 181 223 271 321
#     4   9  19  38  63  88 113 142 176 215 263 322
#     4  11  22  37  56  79 110 146 186 228 271 322
#     4  10  22  36  51  73 102 140 182 227 275 320
#     4  10  20  34  52  76 105 138 180 225 269 321
#
# _framework density 19.328614000000002
#
# number of rings (size 3 to 8) (size 9 to 14) (size 15 to 20)
#    0.000    2.000    0.000    3.429    0.000    8.000 
#    0.000    0.714    0.000    0.000    0.000    0.000 
#    0.000    0.000    0.000    0.000    0.000    0.000 
#
# Total GULP energy -347196.537054 kJ/mol
# GULP energy per Si atom -12399.876323 kJ/mol
# Density = 1.928462 g / cm^3
# Si number density = 19.328614 Si / 1000 Ang^3
#
#
#
# Elastic Constant Matrix: (Units=GPa)
#
#
# Indices 1 2 3 4 5 6 
#
# 1 102.0829 41.2866 29.1087 0.0003 -9.8866 -0.0023
# 2 41.2866 76.5533 38.5316 0.0010 -1.1325 -0.0066
# 3 29.1087 38.5316 100.8484 -0.0001 -10.6879 0.0012
# 4 0.0003 0.0010 -0.0001 25.8802 0.0003 0.6784
# 5 -9.8866 -1.1325 -10.6879 0.0003 21.8608 0.0008
# 6 -0.0023 -0.0066 0.0012 0.6784 0.0008 34.1886
#
#
#
# Elastic Compliance Matrix: (Units=1/GPa)
#
#
# Indices 1 2 3 4 5 6 
#
# 1 0.013216 -0.006700 -0.000694 0.000000 0.005291 0.000000
# 2 -0.006700 0.019680 -0.006115 -0.000001 -0.005000 0.000004
# 3 -0.000694 -0.006115 0.013063 0.000000 0.005756 -0.000002
# 4 0.000000 -0.000001 0.000000 0.038660 0.000000 -0.000767
# 5 0.005291 -0.005000 0.005756 0.000000 0.050691 -0.000002
# 6 0.000000 0.000004 -0.000002 -0.000767 -0.000002 0.029265
#
#
# Mechanical properties :
#
#
# Convention : Reuss Voigt Hill
#
# Bulk Modulus (GPa) = 52.79801 55.25983 54.02892
# Shear Modulus (GPa) = 25.26435 27.75644 26.51039
#
# Velocity S-wave (km/s) = 3.61930 3.79361 3.70748
# Velocity P-wave (km/s) = 6.69635 6.91667 6.80740
#
# Compressibility (1/GPa) = 0.01894011
#
# Stress axis : x y z
#
# Youngs Moduli (GPa) = 75.66573 50.81219 76.55368
#
# Poissons Ratio (x) = 0.34044 0.05313
# Poissons Ratio (y) = 0.50696 0.46816
# Poissons Ratio (z) = 0.05252 0.31074
#
# Static dielectric constant tensor:
#      x y z
#    x 3.628900 0.000000 -0.253180 
#    y 0.000000 3.537350 0.000000 
#    z -0.253180 0.000000 3.488020 
# 
# 
# High freq. dielectric constant tensor:
#      x y z
#    x 1.761190 0.000000 -0.013740 
#    y 0.000000 1.754250 0.000000 
#    z -0.013740 0.000000 1.734580 
# 
# From -- ./inp_files/342335.got.cif
#   From: 2010.06.25/outbox.cif.g09.slc.cpg/sg12_172_cif.got.tgz:342335.got - 2010.06.28 00:19:55.
