data_PCOD8096607
_publ_section_title
;
Structure prediction by ZEFSAII (Michael W. Deem and Ramdas Pophale) SiO2 
 PCOD8096607
Probable space group: C 2/M
;
_chemical_formula_sum "Si O2"
_cell_formula_units_Z 64
_cell_length_a 23.796280
_cell_length_b 22.032629
_cell_length_c 9.693970
_cell_angle_alpha 90.000000
_cell_angle_beta 47.166283
_cell_angle_gamma 90.000000
_cell_volume 3727.146461
_symmetry_space_group_name_H-M "C 2/M"
_symmetry_group_IT_number 12
_symmetry_cell_setting 'monoclinic'
loop_
_space_group_symop_operation_xyz
x,y,z
-x,y,-z
-x,-y,-z
x,-y,z
1/2+x,1/2+y,z
1/2-x,1/2+y,-z
1/2-x,1/2-y,-z
1/2+x,1/2-y,z
loop_
_atom_site_type_symbol
_atom_site_label
_atom_site_fract_x
_atom_site_fract_y
_atom_site_fract_z
Si Si1 0.080567 0.864919 0.906627
Si Si2 0.055565 0.269106 0.530630
Si Si3 0.787900 0.293634 0.136789
Si Si4 0.048003 0.732400 0.049946
Si Si5 0.584914 0.571317 0.383324
Si Si6 0.643754 0.656161 0.503742
Si Si7 0.294018 0.173265 0.812796
Si Si8 0.181875 0.071264 0.955862
O O1 0.128666 0.845326 0.691663
O O2 0.129012 0.912536 0.913622
O O3 0.057899 0.805428 0.033370
O O4 0.000000 0.896879 0.000000
O O5 0.097927 0.208570 0.503875
O O6 0.118534 0.319773 0.384827
O O7 0.000000 0.251690 0.500000
O O8 0.001473 0.292988 0.741331
O O9 0.733282 0.331599 0.329236
O O10 0.760757 0.224260 0.162868
O O11 0.868511 0.297049 0.081044
O O12 0.792623 0.324745 0.980139
O O13 0.000000 0.709266 0.000000
O O14 0.500000 0.597860 0.500000
O O15 0.581566 0.500000 0.401330
O O16 0.618914 0.594064 0.471538
O O17 0.638060 0.591686 0.167492
O O18 0.261510 0.108362 0.816947
O O19 0.200627 0.000000 0.921323
#
# Coordination Sequence:
#
# PCOD8096607 Si02
#       8
#     8   8   8   8   8   8   8   8
#     4  11  22  35  51  79 117 152 185 219 265 339
#     4  11  21  32  57  84 108 147 179 226 281 331
#     4  10  20  33  56  82 112 143 178 232 278 333
#     4  11  21  36  51  82 119 144 177 219 276 339
#     4  10  21  34  52  77 106 146 195 230 263 321
#     4  11  21  33  54  78 111 152 177 226 275 328
#     4  10  20  35  56  85 109 138 192 230 275 331
#     4  11  23  39  57  77 112 152 189 236 274 316
#
# _framework density 17.171313000000001
#
# number of rings (size 3 to 8) (size 9 to 14) (size 15 to 20)
#    0.000    1.375    6.250    1.125    1.750    2.250 
#    0.000    0.000    0.000    0.375    0.000    0.000 
#    0.000    2.500    0.000    0.000    0.000    0.000 
#
# Total GULP energy -396819.904873 kJ/mol
# GULP energy per Si atom -12400.622027 kJ/mol
# Density = 1.713223 g / cm^3
# Si number density = 17.171313 Si / 1000 Ang^3
#
#
#
# Elastic Constant Matrix: (Units=GPa)
#
#
# Indices 1 2 3 4 5 6 
#
# 1 96.2422 26.6210 28.8037 0.0000 -13.6279 0.0000
# 2 26.6210 48.8253 25.3361 0.0000 -0.9189 0.0000
# 3 28.8037 25.3361 110.1766 0.0000 -9.0533 0.0000
# 4 0.0000 0.0000 0.0000 13.8554 0.0000 -4.6487
# 5 -13.6279 -0.9189 -9.0533 0.0000 27.5928 0.0000
# 6 0.0000 0.0000 0.0000 -4.6487 0.0000 22.7209
#
#
#
# Elastic Compliance Matrix: (Units=1/GPa)
#
#
# Indices 1 2 3 4 5 6 
#
# 1 0.013474 -0.006427 -0.001557 0.000000 0.005930 0.000000
# 2 -0.006427 0.026349 -0.004694 0.000000 -0.003837 0.000000
# 3 -0.001557 -0.004694 0.010778 0.000000 0.002611 0.000000
# 4 0.000000 0.000000 0.000000 0.077494 0.000000 0.015855
# 5 0.005930 -0.003837 0.002611 0.000000 0.039899 0.000000
# 6 0.000000 0.000000 0.000000 0.015855 0.000000 0.047256
#
#
# Mechanical properties :
#
#
# Convention : Reuss Voigt Hill
#
# Bulk Modulus (GPa) = 39.61398 46.30731 42.96064
# Shear Modulus (GPa) = 20.07871 24.46604 22.27237
#
# Velocity S-wave (km/s) = 3.42324 3.77877 3.60539
# Velocity P-wave (km/s) = 6.22452 6.78714 6.51191
#
# Compressibility (1/GPa) = 0.02524361
#
# Stress axis : x y z
#
# Youngs Moduli (GPa) = 74.21810 37.95231 92.78578
#
# Poissons Ratio (x) = 0.24390 0.14450
# Poissons Ratio (y) = 0.47697 0.43557
# Poissons Ratio (z) = 0.11559 0.17816
#
# Static dielectric constant tensor:
#      x y z
#    x 3.297510 0.000000 -0.075870 
#    y 0.000000 2.842040 0.000000 
#    z -0.075870 0.000000 3.521390 
# 
# 
# High freq. dielectric constant tensor:
#      x y z
#    x 1.669800 0.000000 -0.000270 
#    y 0.000000 1.619170 0.000000 
#    z -0.000270 0.000000 1.673920 
# 
# From -- ./inp_files/78830.got.cif
#   From: 2010.06.25/outbox.cif.g09.slc.cpg/sg12_40_cif.got.tgz:78830.got - 2010.06.28 00:19:55.
