data_PCOD8096276
_publ_section_title
;
Structure prediction by ZEFSAII (Michael W. Deem and Ramdas Pophale) SiO2 
 PCOD8096276
Probable space group: C 2/M
;
_chemical_formula_sum "Si O2"
_cell_formula_units_Z 64
_cell_length_a 18.584336
_cell_length_b 8.613150
_cell_length_c 34.451184
_cell_angle_alpha 90.000000
_cell_angle_beta 143.763189
_cell_angle_gamma 90.000000
_cell_volume 3259.806346
_symmetry_space_group_name_H-M "C 2/M"
_symmetry_group_IT_number 12
_symmetry_cell_setting 'monoclinic'
loop_
_space_group_symop_operation_xyz
x,y,z
-x,y,-z
-x,-y,-z
x,-y,z
1/2+x,1/2+y,z
1/2-x,1/2+y,-z
1/2-x,1/2-y,-z
1/2+x,1/2-y,z
loop_
_atom_site_type_symbol
_atom_site_label
_atom_site_fract_x
_atom_site_fract_y
_atom_site_fract_z
Si Si1 0.681563 0.681311 0.234146
Si Si2 0.966654 0.317503 0.762740
Si Si3 0.244726 0.319247 0.883936
Si Si4 0.757028 0.321160 0.617935
Si Si5 0.605448 0.679815 0.626069
Si Si6 0.892491 0.682798 0.877592
Si Si7 0.331160 0.315134 0.501547
Si Si8 0.830747 0.318102 0.001053
O O1 0.670419 0.500000 0.220623
O O2 0.570847 0.733305 0.213726
O O3 0.812157 0.717912 0.309666
O O4 0.675546 0.774330 0.191460
O O5 0.941898 0.500000 0.758463
O O6 0.881960 0.252520 0.690780
O O7 0.105214 0.281068 0.812251
O O8 0.262346 0.500000 0.900385
O O9 0.329761 0.269861 0.885845
O O10 0.277388 0.225247 0.936349
O O11 0.780518 0.500000 0.619496
O O12 0.646635 0.296653 0.599660
O O13 0.720308 0.242406 0.561159
O O14 0.618062 0.500000 0.643757
O O15 0.468277 0.741986 0.568914
O O16 0.884887 0.500000 0.881988
O O17 0.031179 0.742934 0.935459
O O18 0.329052 0.500000 0.499399
O O19 0.250000 0.250000 0.500000
O O20 0.828712 0.500000 0.005306
O O21 0.750000 0.250000 0.000000
#
# Coordination Sequence:
#
# PCOD8096276 Si02
#       8
#     8   8   8   8   8   8   8   8
#     4  11  22  36  58  86 112 143 187 234 279 331
#     4   9  19  37  59  83 112 146 183 226 279 334
#     4  11  23  38  59  88 119 151 188 230 278 334
#     4   8  15  32  57  78 100 137 185 226 260 315
#     4   9  18  35  57  78 104 143 188 230 276 330
#     4  11  24  41  59  82 116 153 187 228 282 338
#     4  10  20  33  52  79 109 143 182 227 280 334
#     4  11  24  41  62  86 113 150 192 235 283 333
#
# _framework density 19.633068000000002
#
# number of rings (size 3 to 8) (size 9 to 14) (size 15 to 20)
#    0.000    2.000    0.000    4.500    0.000   10.500 
#    0.000    3.750    0.000    3.750    0.000    0.000 
#    0.000    0.000    0.000    0.000    0.000    0.000 
#
# Total GULP energy -396850.848829 kJ/mol
# GULP energy per Si atom -12401.589026 kJ/mol
# Density = 1.958838 g / cm^3
# Si number density = 19.633068 Si / 1000 Ang^3
#
#
#
# Elastic Constant Matrix: (Units=GPa)
#
#
# Indices 1 2 3 4 5 6 
#
# 1 136.1539 14.7867 65.7576 -0.0001 6.8279 0.0003
# 2 14.7867 27.0721 15.3301 -0.0001 10.5273 0.0006
# 3 65.7576 15.3301 103.4766 0.0000 6.8731 0.0001
# 4 -0.0001 -0.0001 0.0000 24.1104 0.0001 -1.2631
# 5 6.8279 10.5273 6.8731 0.0001 28.2701 -0.0001
# 6 0.0003 0.0006 0.0001 -1.2631 -0.0001 35.1391
#
#
#
# Elastic Compliance Matrix: (Units=1/GPa)
#
#
# Indices 1 2 3 4 5 6 
#
# 1 0.010715 -0.002090 -0.006484 0.000000 -0.000233 0.000000
# 2 -0.002090 0.046812 -0.004556 0.000000 -0.015819 -0.000001
# 3 -0.006484 -0.004556 0.014477 0.000000 -0.000257 0.000000
# 4 0.000000 0.000000 0.000000 0.041554 0.000000 0.001494
# 5 -0.000233 -0.015819 -0.000257 0.000000 0.041383 0.000000
# 6 0.000000 -0.000001 0.000000 0.001494 0.000000 0.028512
#
#
# Mechanical properties :
#
#
# Convention : Reuss Voigt Hill
#
# Bulk Modulus (GPa) = 21.86153 50.93904 36.40029
# Shear Modulus (GPa) = 22.22620 28.89247 25.55934
#
# Velocity S-wave (km/s) = 3.36829 3.84034 3.61203
# Velocity P-wave (km/s) = 5.12703 6.75767 5.99802
#
# Compressibility (1/GPa) = 0.04574245
#
# Stress axis : x y z
#
# Youngs Moduli (GPa) = 93.32857 21.36226 69.07737
#
# Poissons Ratio (x) = 0.04465 0.44789
# Poissons Ratio (y) = 0.19506 0.31473
# Poissons Ratio (z) = 0.60514 0.09733
#
# Static dielectric constant tensor:
#      x y z
#    x -0.407470 0.000020 5.977430 
#    y 0.000020 3.404260 -0.000020 
#    z 5.977430 -0.000020 -4.932550 
# 
# 
# High freq. dielectric constant tensor:
#      x y z
#    x 1.767630 0.000000 0.002370 
#    y 0.000000 1.747790 0.000000 
#    z 0.002370 0.000000 1.781940 
# 
# From -- ./inp_files/378332.got.cif
#   From: 2010.06.25/outbox.cif.g09.slc.cpg/sg12_190_cif.got.tgz:378332.got - 2010.06.28 00:19:55.
