data_PCOD8096054
_publ_section_title
;
Structure prediction by ZEFSAII (Michael W. Deem and Ramdas Pophale) SiO2 
 PCOD8096054
Probable space group: C 2/M
;
_chemical_formula_sum "Si O2"
_cell_formula_units_Z 56
_cell_length_a 26.409934
_cell_length_b 10.232529
_cell_length_c 16.751000
_cell_angle_alpha 90.000000
_cell_angle_beta 139.912743
_cell_angle_gamma 90.000000
_cell_volume 2915.046855
_symmetry_space_group_name_H-M "C 2/M"
_symmetry_group_IT_number 12
_symmetry_cell_setting 'monoclinic'
loop_
_space_group_symop_operation_xyz
x,y,z
-x,y,-z
-x,-y,-z
x,-y,z
1/2+x,1/2+y,z
1/2-x,1/2+y,-z
1/2-x,1/2-y,-z
1/2+x,1/2-y,z
loop_
_atom_site_type_symbol
_atom_site_label
_atom_site_fract_x
_atom_site_fract_y
_atom_site_fract_z
Si Si1 0.274432 0.145225 0.170950
Si Si2 0.490228 0.351190 0.580980
Si Si3 0.096874 0.356601 0.796043
Si Si4 0.391222 0.759105 0.019892
Si Si5 0.460183 0.643441 0.866536
Si Si6 0.683648 0.352587 0.650173
Si Si7 0.649512 0.853129 0.202846
O O1 0.315851 0.162633 0.135089
O O2 0.314582 0.251571 0.275589
O O3 0.290353 0.000000 0.224760
O O4 0.180801 0.160690 0.051749
O O5 0.500000 0.313327 0.500000
O O6 0.519246 0.500000 0.630224
O O7 0.538817 0.254988 0.695264
O O8 0.398576 0.336086 0.495418
O O9 0.063910 0.500000 0.731918
O O10 0.104634 0.356580 0.900831
O O11 0.473071 0.679676 0.116975
O O12 0.379095 0.837939 0.923105
O O13 0.425125 0.500000 0.802779
O O14 0.391065 0.751270 0.785547
O O15 0.500000 0.637461 0.000000
O O16 0.689876 0.500000 0.693277
O O17 0.756731 0.327836 0.678570
O O18 0.627830 0.000000 0.204307
#
# Coordination Sequence:
#
# PCOD8096054 Si02
#       7
#     8   8   8   8   8   8   8
#     4  10  20  33  51  76 106 140 176 214 257 302
#     4  10  20  36  56  75 101 140 181 217 256 308
#     4  11  23  35  51  78 109 141 176 218 261 303
#     4  10  20  34  51  74 108 142 174 206 254 315
#     4   9  18  32  51  75 103 133 169 210 253 306
#     4   9  18  34  54  77 103 136 177 215 257 309
#     4   9  18  32  54  78 102 133 168 211 259 308
#
# _framework density 19.210668999999999
#
# number of rings (size 3 to 8) (size 9 to 14) (size 15 to 20)
#    0.000    2.286    1.429    1.286    0.000    9.143 
#    0.000    0.000    0.000    0.857    0.000    0.000 
#    0.000    0.000    0.000    0.000    0.000    0.000 
#
# Total GULP energy -347081.045758 kJ/mol
# GULP energy per Si atom -12395.751634 kJ/mol
# Density = 1.916694 g / cm^3
# Si number density = 19.210669 Si / 1000 Ang^3
#
#
#
# Elastic Constant Matrix: (Units=GPa)
#
#
# Indices 1 2 3 4 5 6 
#
# 1 105.4447 56.3599 34.0028 0.0000 28.1896 0.0000
# 2 56.3599 134.9812 36.6009 0.0000 20.4711 0.0000
# 3 34.0028 36.6009 54.2527 0.0000 20.2875 0.0000
# 4 0.0000 0.0000 0.0000 19.2743 0.0000 5.2734
# 5 28.1896 20.4711 20.2875 0.0000 28.1622 0.0000
# 6 0.0000 0.0000 0.0000 5.2734 0.0000 16.7492
#
#
#
# Elastic Compliance Matrix: (Units=1/GPa)
#
#
# Indices 1 2 3 4 5 6 
#
# 1 0.015367 -0.004027 -0.003089 0.000000 -0.010229 0.000000
# 2 -0.004027 0.010310 -0.004293 0.000000 -0.000371 0.000000
# 3 -0.003089 -0.004293 0.028663 0.000000 -0.014435 0.000000
# 4 0.000000 0.000000 0.000000 0.056773 0.000000 -0.017875
# 5 -0.010229 -0.000371 -0.014435 0.000000 0.056416 0.000000
# 6 0.000000 0.000000 0.000000 -0.017875 0.000000 0.065332
#
#
# Mechanical properties :
#
#
# Convention : Reuss Voigt Hill
#
# Bulk Modulus (GPa) = 31.72481 60.95620 46.34051
# Shear Modulus (GPa) = 18.78379 24.01815 21.40097
#
# Velocity S-wave (km/s) = 3.13034 3.53972 3.34131
# Velocity P-wave (km/s) = 5.44200 6.96459 6.24983
#
# Compressibility (1/GPa) = 0.03152107
#
# Stress axis : x y z
#
# Youngs Moduli (GPa) = 65.07415 96.99047 34.88870
#
# Poissons Ratio (x) = 0.39062 0.10778
# Poissons Ratio (y) = 0.26208 0.14977
# Poissons Ratio (z) = 0.20102 0.41637
#
# Static dielectric constant tensor:
#      x y z
#    x 3.645030 0.000000 0.380070 
#    y 0.000000 3.682500 0.000000 
#    z 0.380070 0.000000 3.175390 
# 
# 
# High freq. dielectric constant tensor:
#      x y z
#    x 1.746400 0.000000 0.031870 
#    y 0.000000 1.759950 0.000000 
#    z 0.031870 0.000000 1.703420 
# 
# From -- ./inp_files/292580.got.cif
#   From: 2010.06.25/outbox.cif.g09.slc.cpg/sg12_147_cif.got.tgz:292580.got - 2010.06.28 00:19:55.
