data_PCOD8096731
_publ_section_title
;
Structure prediction by ZEFSAII (Michael W. Deem and Ramdas Pophale) SiO2 
 PCOD8096731
Probable space group: C 2/M
;
_chemical_formula_sum "Si O2"
_cell_formula_units_Z 48
_cell_length_a 19.528396
_cell_length_b 25.119568
_cell_length_c 5.154728
_cell_angle_alpha 90.000000
_cell_angle_beta 66.533638
_cell_angle_gamma 90.000000
_cell_volume 2319.492941
_symmetry_space_group_name_H-M "C 2/M"
_symmetry_group_IT_number 12
_symmetry_cell_setting 'monoclinic'
loop_
_space_group_symop_operation_xyz
x,y,z
-x,y,-z
-x,-y,-z
x,-y,z
1/2+x,1/2+y,z
1/2-x,1/2+y,-z
1/2-x,1/2-y,-z
1/2+x,1/2-y,z
loop_
_atom_site_type_symbol
_atom_site_label
_atom_site_fract_x
_atom_site_fract_y
_atom_site_fract_z
Si Si1 0.537429 0.561539 0.192587
Si Si2 0.641261 0.166769 0.825612
Si Si3 0.706060 0.589051 0.987755
Si Si4 0.213190 0.201447 0.197941
Si Si5 0.084507 0.723708 0.425545
Si Si6 0.794511 0.559670 0.344823
O O1 0.500000 0.589358 0.500000
O O2 0.514678 0.500000 0.228392
O O3 0.625416 0.567202 0.043075
O O4 0.500000 0.589657 0.000000
O O5 0.729367 0.184159 0.657279
O O6 0.588897 0.188223 0.677415
O O7 0.639901 0.102208 0.821012
O O8 0.613764 0.187936 0.144179
O O9 0.703146 0.652877 0.014044
O O10 0.730349 0.563272 0.223793
O O11 0.761885 0.572135 0.677126
O O12 0.131920 0.222360 0.411836
O O13 0.250000 0.250000 0.000000
O O14 0.000000 0.741336 0.500000
O O15 0.828283 0.500000 0.294802
#
# Coordination Sequence:
#
# PCOD8096731 Si02
#       6
#     8   8   8   8   8   8
#     4  10  20  34  50  70 105 149 183 219 274 333
#     4  10  21  39  60  86 117 152 192 237 291 344
#     4  11  22  35  55  84 112 143 191 242 283 334
#     4   9  20  38  59  83 114 150 188 232 286 338
#     4  11  22  38  61  87 118 154 193 236 286 347
#     4  11  21  36  60  85 110 143 189 243 290 338
#
# _framework density 20.694179999999999
#
# number of rings (size 3 to 8) (size 9 to 14) (size 15 to 20)
#    0.000    1.667    0.000    6.500    0.000    6.000 
#    0.000    3.333    0.000    3.000    0.000    0.000 
#    0.000    0.000    0.000    0.000    0.000    0.000 
#
# Total GULP energy -297504.236844 kJ/mol
# GULP energy per Si atom -12396.009868 kJ/mol
# Density = 2.064708 g / cm^3
# Si number density = 20.694180 Si / 1000 Ang^3
#
#
#
# Elastic Constant Matrix: (Units=GPa)
#
#
# Indices 1 2 3 4 5 6 
#
# 1 97.6570 9.1631 10.9778 0.0000 12.0795 0.0000
# 2 9.1631 116.6249 17.2743 0.0000 3.1417 0.0000
# 3 10.9778 17.2743 80.3136 0.0000 19.9247 0.0000
# 4 0.0000 0.0000 0.0000 17.5490 0.0000 -0.5047
# 5 12.0795 3.1417 19.9247 0.0000 37.6902 0.0000
# 6 0.0000 0.0000 0.0000 -0.5047 0.0000 24.2154
#
#
#
# Elastic Compliance Matrix: (Units=1/GPa)
#
#
# Indices 1 2 3 4 5 6 
#
# 1 0.010749 -0.000679 -0.000555 0.000000 -0.003095 0.000000
# 2 -0.000679 0.008903 -0.001947 0.000000 0.000505 0.000000
# 3 -0.000555 -0.001947 0.014803 0.000000 -0.007485 0.000000
# 4 0.000000 0.000000 0.000000 0.057017 0.000000 0.001188
# 5 -0.003095 0.000505 -0.007485 0.000000 0.031439 0.000000
# 6 0.000000 0.000000 0.000000 0.001188 0.000000 0.041321
#
#
# Mechanical properties :
#
#
# Convention : Reuss Voigt Hill
#
# Bulk Modulus (GPa) = 35.59842 41.04732 38.32287
# Shear Modulus (GPa) = 27.78419 33.03628 30.41024
#
# Velocity S-wave (km/s) = 3.66814 3.99984 3.83757
# Velocity P-wave (km/s) = 5.93126 6.41949 6.18020
#
# Compressibility (1/GPa) = 0.02809113
#
# Stress axis : x y z
#
# Youngs Moduli (GPa) = 93.03316 112.32583 67.55429
#
# Poissons Ratio (x) = 0.07626 0.03752
# Poissons Ratio (y) = 0.06316 0.13155
# Poissons Ratio (z) = 0.05168 0.21873
#
# Static dielectric constant tensor:
#      x y z
#    x 3.958620 0.000000 0.060940 
#    y 0.000000 2.739350 0.000000 
#    z 0.060940 0.000000 3.927060 
# 
# 
# High freq. dielectric constant tensor:
#      x y z
#    x 1.798090 0.000000 0.021170 
#    y 0.000000 1.808000 0.000000 
#    z 0.021170 0.000000 1.805220 
# 
# From -- ./inp_files/16876.got.cif
#   From: 2010.06.25/outbox.cif.g09.slc.cpg/sg12_9_cif.got.tgz:16876.got - 2010.06.28 00:19:55.
