data_PCOD8096705
_publ_section_title
;
Structure prediction by ZEFSAII (Michael W. Deem and Ramdas Pophale) SiO2 
 PCOD8096705
Probable space group: C 2/M
;
_chemical_formula_sum "Si O2"
_cell_formula_units_Z 64
_cell_length_a 17.741419
_cell_length_b 13.137692
_cell_length_c 28.616047
_cell_angle_alpha 90.000000
_cell_angle_beta 32.437379
_cell_angle_gamma 90.000000
_cell_volume 3577.565785
_symmetry_space_group_name_H-M "C 2/M"
_symmetry_group_IT_number 12
_symmetry_cell_setting 'monoclinic'
loop_
_space_group_symop_operation_xyz
x,y,z
-x,y,-z
-x,-y,-z
x,-y,z
1/2+x,1/2+y,z
1/2-x,1/2+y,-z
1/2-x,1/2-y,-z
1/2+x,1/2-y,z
loop_
_atom_site_type_symbol
_atom_site_label
_atom_site_fract_x
_atom_site_fract_y
_atom_site_fract_z
Si Si1 0.346238 0.743194 0.302143
Si Si2 0.457414 0.171360 0.651544
Si Si3 0.342921 0.616296 0.217629
Si Si4 0.435559 0.113650 0.762110
Si Si5 0.897392 0.112462 0.591114
Si Si6 0.218268 0.616617 0.454672
Si Si7 0.376317 0.621052 0.096904
Si Si8 0.501712 0.609379 0.637463
O O1 0.409041 0.673868 0.227610
O O2 0.475122 0.806825 0.255046
O O3 0.238461 0.817873 0.332413
O O4 0.270097 0.676191 0.381602
O O5 0.325847 0.126205 0.692582
O O6 0.492093 0.104721 0.679107
O O7 0.584148 0.171757 0.548011
O O8 0.423319 0.285103 0.691080
O O9 0.388655 0.500000 0.199031
O O10 0.396165 0.661212 0.139825
O O11 0.274269 0.153253 0.845521
O O12 0.446825 0.000000 0.778040
O O13 0.000000 0.163759 0.500000
O O14 0.992199 0.103897 0.587053
O O15 0.847714 0.000000 0.600775
O O16 0.181731 0.500000 0.459892
O O17 0.337310 0.619232 0.431776
O O18 0.382922 0.500000 0.095032
O O19 0.500000 0.667139 0.000000
O O20 0.440378 0.500000 0.689952
#
# Coordination Sequence:
#
# PCOD8096705 Si02
#       8
#     8   8   8   8   8   8   8   8
#     4  12  22  33  49  72 114 138 174 219 259 310
#     4  11  19  37  51  70  99 136 187 236 261 292
#     4  10  21  35  54  78 105 137 173 217 268 316
#     4  10  21  34  54  81 103 133 174 220 267 306
#     4  10  21  34  47  66  95 140 187 224 262 299
#     4  11  23  34  49  69  98 146 188 224 264 303
#     4   8  16  36  63  84 102 127 165 212 263 322
#     4  10  20  34  49  67  93 131 186 222 258 310
#
# _framework density 17.889258000000002
#
# number of rings (size 3 to 8) (size 9 to 14) (size 15 to 20)
#    0.000    1.750    2.500    3.750    1.750    0.000 
#    0.000    1.875    0.000    0.000    0.000    0.000 
#    0.000   20.000    0.000    0.000    0.000    0.000 
#
# Total GULP energy -396479.847864 kJ/mol
# GULP energy per Si atom -12389.995246 kJ/mol
# Density = 1.784854 g / cm^3
# Si number density = 17.889258 Si / 1000 Ang^3
#
#
#
# Elastic Constant Matrix: (Units=GPa)
#
#
# Indices 1 2 3 4 5 6 
#
# 1 106.8262 31.1425 44.1037 0.0000 11.1701 0.0000
# 2 31.1425 92.2108 26.7616 -0.0001 4.6184 0.0000
# 3 44.1037 26.7616 95.3104 0.0001 17.7838 -0.0001
# 4 0.0000 -0.0001 0.0001 11.6224 0.0000 0.7672
# 5 11.1701 4.6184 17.7838 0.0000 10.8260 0.0000
# 6 0.0000 0.0000 -0.0001 0.7672 0.0000 25.8716
#
#
#
# Elastic Compliance Matrix: (Units=1/GPa)
#
#
# Indices 1 2 3 4 5 6 
#
# 1 0.012339 -0.002755 -0.004009 0.000000 -0.004971 0.000000
# 2 -0.002755 0.012425 -0.002531 0.000000 0.001700 0.000000
# 3 -0.004009 -0.002531 0.017425 0.000000 -0.023409 0.000000
# 4 0.000000 0.000000 0.000000 0.086210 0.000000 -0.002557
# 5 -0.004971 0.001700 -0.023409 0.000000 0.135227 0.000000
# 6 0.000000 0.000000 0.000000 -0.002557 0.000000 0.038728
#
#
# Mechanical properties :
#
#
# Convention : Reuss Voigt Hill
#
# Bulk Modulus (GPa) = 42.37303 55.37368 48.87336
# Shear Modulus (GPa) = 15.20636 22.48663 18.84650
#
# Velocity S-wave (km/s) = 2.91869 3.54925 3.24930
# Velocity P-wave (km/s) = 5.92419 6.91499 6.43868
#
# Compressibility (1/GPa) = 0.02359991
#
# Stress axis : x y z
#
# Youngs Moduli (GPa) = 81.04473 80.48589 57.38738
#
# Poissons Ratio (x) = 0.22173 0.23004
# Poissons Ratio (y) = 0.22327 0.14525
# Poissons Ratio (z) = 0.32488 0.20371
#
# Static dielectric constant tensor:
#      x y z
#    x 3.345780 0.000000 0.052220 
#    y 0.000000 3.747390 0.000000 
#    z 0.052220 0.000000 3.103350 
# 
# 
# High freq. dielectric constant tensor:
#      x y z
#    x 1.698800 0.000000 0.001010 
#    y 0.000000 1.700990 0.000000 
#    z 0.001010 0.000000 1.640820 
# 
# From -- ./inp_files/379343.got.cif
#   From: 2010.06.25/outbox.cif.g09.slc.cpg/sg12_190_cif.got.tgz:379343.got - 2010.06.28 00:19:55.
