data_PCOD8096948
_publ_section_title
;
Structure prediction by ZEFSAII (Michael W. Deem and Ramdas Pophale) SiO2 
 PCOD8096948
Probable space group: C 2/M
;
_chemical_formula_sum "Si O2"
_cell_formula_units_Z 48
_cell_length_a 32.021384
_cell_length_b 8.880562
_cell_length_c 15.990002
_cell_angle_alpha 90.000000
_cell_angle_beta 36.213544
_cell_angle_gamma 90.000000
_cell_volume 2686.376702
_symmetry_space_group_name_H-M "C 2/M"
_symmetry_group_IT_number 12
_symmetry_cell_setting 'monoclinic'
loop_
_space_group_symop_operation_xyz
x,y,z
-x,y,-z
-x,-y,-z
x,-y,z
1/2+x,1/2+y,z
1/2-x,1/2+y,-z
1/2-x,1/2-y,-z
1/2+x,1/2-y,z
loop_
_atom_site_type_symbol
_atom_site_label
_atom_site_fract_x
_atom_site_fract_y
_atom_site_fract_z
Si Si1 0.849689 0.677481 0.889127
Si Si2 0.532832 0.176413 0.863554
Si Si3 0.685152 0.177273 0.557628
Si Si4 0.301902 0.323316 0.804845
Si Si5 0.633360 0.678379 0.475465
Si Si6 0.009174 0.679296 0.248383
O O1 0.852433 0.500000 0.875543
O O2 0.851921 0.746522 0.792956
O O3 0.917251 0.735322 0.831692
O O4 0.779206 0.729972 0.051948
O O5 0.615702 0.214478 0.724386
O O6 0.493359 0.235479 0.843932
O O7 0.520092 0.000000 0.889402
O O8 0.500000 0.253643 0.000000
O O9 0.750000 0.250000 0.500000
O O10 0.678318 0.249191 0.477378
O O11 0.696406 0.000000 0.529316
O O12 0.308997 0.500000 0.806084
O O13 0.327141 0.273274 0.672945
O O14 0.630945 0.500000 0.491292
O O15 0.554298 0.743359 0.598434
O O16 0.998903 0.500000 0.270446
#
# Coordination Sequence:
#
# PCOD8096948 Si02
#       6
#     8   8   8   8   8   8
#     4   9  18  33  52  72  97 130 167 208 250 294
#     4   8  15  29  50  73  95 124 163 203 239 281
#     4  10  20  34  53  76 102 131 164 203 245 292
#     4   9  19  34  51  73  99 129 167 207 247 293
#     4  10  20  34  52  73 100 132 164 202 246 294
#     4   9  18  32  50  73  99 127 163 205 247 294
#
# _framework density 17.867934000000002
#
# number of rings (size 3 to 8) (size 9 to 14) (size 15 to 20)
#    0.000    2.833    0.000    2.000    0.000    4.000 
#    0.000    8.333    0.000   16.500    0.000    0.000 
#    0.000    0.000    0.000    0.000    0.000    0.000 
#
# Total GULP energy -297574.417809 kJ/mol
# GULP energy per Si atom -12398.934075 kJ/mol
# Density = 1.782727 g / cm^3
# Si number density = 17.867934 Si / 1000 Ang^3
#
#
#
# Elastic Constant Matrix: (Units=GPa)
#
#
# Indices 1 2 3 4 5 6 
#
# 1 154.8653 51.4642 89.0658 -0.0002 -12.9818 0.0000
# 2 51.4642 44.0759 44.3716 -0.0020 2.2915 0.0000
# 3 89.0658 44.3716 130.0700 -0.0007 15.0016 0.0000
# 4 -0.0002 -0.0020 -0.0007 25.4819 0.0001 -0.9628
# 5 -12.9818 2.2915 15.0016 0.0001 30.0632 0.0001
# 6 0.0000 0.0000 0.0000 -0.9628 0.0001 31.3524
#
#
#
# Elastic Compliance Matrix: (Units=1/GPa)
#
#
# Indices 1 2 3 4 5 6 
#
# 1 0.015998 -0.010473 -0.008775 -0.000001 0.012085 0.000000
# 2 -0.010473 0.041752 -0.006560 0.000003 -0.004431 0.000000
# 3 -0.008775 -0.006560 0.017311 0.000000 -0.011927 0.000000
# 4 -0.000001 0.000003 0.000000 0.039289 -0.000001 0.001206
# 5 0.012085 -0.004431 -0.011927 -0.000001 0.044771 0.000000
# 6 0.000000 0.000000 0.000000 0.001206 0.000000 0.031933
#
#
# Mechanical properties :
#
#
# Convention : Reuss Voigt Hill
#
# Bulk Modulus (GPa) = 42.65846 77.64607 60.15226
# Shear Modulus (GPa) = 19.96124 26.98682 23.47403
#
# Velocity S-wave (km/s) = 3.34601 3.89054 3.62850
# Velocity P-wave (km/s) = 6.23329 7.98321 7.16189
#
# Compressibility (1/GPa) = 0.02344201
#
# Stress axis : x y z
#
# Youngs Moduli (GPa) = 62.50916 23.95112 57.76726
#
# Poissons Ratio (x) = 0.25085 0.50694
# Poissons Ratio (y) = 0.65467 0.37897
# Poissons Ratio (z) = 0.54855 0.15713
#
# Static dielectric constant tensor:
#      x y z
#    x 3.457400 0.000000 0.059800 
#    y 0.000000 3.142540 0.000000 
#    z 0.059800 0.000000 3.509270 
# 
# 
# High freq. dielectric constant tensor:
#      x y z
#    x 1.698230 0.000000 0.001760 
#    y 0.000000 1.675770 0.000000 
#    z 0.001760 0.000000 1.693310 
# 
# From -- ./inp_files/229943.got.cif
#   From: 2010.06.25/outbox.cif.g09.slc.cpg/sg12_115_cif.got.tgz:229943.got - 2010.06.28 00:19:55.
