data_PCOD8096191
_publ_section_title
;
Structure prediction by ZEFSAII (Michael W. Deem and Ramdas Pophale) SiO2 
 PCOD8096191
Probable space group: C 2/M
;
_chemical_formula_sum "Si O2"
_cell_formula_units_Z 48
_cell_length_a 4.865534
_cell_length_b 34.107315
_cell_length_c 14.908549
_cell_angle_alpha 90.000000
_cell_angle_beta 90.676660
_cell_angle_gamma 90.000000
_cell_volume 2473.905657
_symmetry_space_group_name_H-M "C 2/M"
_symmetry_group_IT_number 12
_symmetry_cell_setting 'monoclinic'
loop_
_space_group_symop_operation_xyz
x,y,z
-x,y,-z
-x,-y,-z
x,-y,z
1/2+x,1/2+y,z
1/2-x,1/2+y,-z
1/2-x,1/2-y,-z
1/2+x,1/2-y,z
loop_
_atom_site_type_symbol
_atom_site_label
_atom_site_fract_x
_atom_site_fract_y
_atom_site_fract_z
Si Si1 0.527881 0.645600 0.205778
Si Si2 0.755925 0.328544 0.441250
Si Si3 0.074889 0.925814 0.899050
Si Si4 0.356647 0.723713 0.727453
Si Si5 0.063964 0.544956 0.795230
Si Si6 0.971305 0.617415 0.693406
O O1 0.428436 0.621625 0.117577
O O2 0.539547 0.692948 0.195566
O O3 0.842742 0.634222 0.225251
O O4 0.337072 0.633568 0.290908
O O5 0.500000 0.342670 0.500000
O O6 0.634633 0.298260 0.368225
O O7 0.903839 0.367203 0.399529
O O8 0.000000 0.307806 0.500000
O O9 0.374596 0.942827 0.879122
O O10 0.874175 0.947137 0.827921
O O11 0.000000 0.935844 0.000000
O O12 0.544190 0.762107 0.736511
O O13 0.025910 0.500000 0.768256
O O14 0.983712 0.570130 0.705580
#
# Coordination Sequence:
#
# PCOD8096191 Si02
#       6
#     8   8   8   8   8   8
#     4   9  18  34  51  68  95 134 172 195 229 294
#     4  11  21  33  50  72  99 129 163 205 250 295
#     4  10  20  33  52  77 104 133 163 200 244 290
#     4  11  21  33  50  72  99 129 161 203 250 295
#     4  10  20  33  52  77 104 133 163 200 244 290
#     4   9  18  34  51  68  95 134 172 195 229 294
#
# _framework density 19.402519999999999
#
# number of rings (size 3 to 8) (size 9 to 14) (size 15 to 20)
#    0.000    2.000    0.000    6.000    0.000    4.000 
#    0.000    0.000    0.000    2.000    0.000    0.000 
#    0.000    0.000    0.000    0.000    0.000    0.000 
#
# Total GULP energy -297402.629780 kJ/mol
# GULP energy per Si atom -12391.776241 kJ/mol
# Density = 1.935836 g / cm^3
# Si number density = 19.402520 Si / 1000 Ang^3
#
#
#
# Elastic Constant Matrix: (Units=GPa)
#
#
# Indices 1 2 3 4 5 6 
#
# 1 80.2018 18.7567 6.2483 0.0000 -6.6816 0.0000
# 2 18.7567 129.8195 20.7227 0.0000 2.3260 0.0000
# 3 6.2483 20.7227 12.4431 0.0000 -4.1294 0.0000
# 4 0.0000 0.0000 0.0000 13.3444 0.0000 0.0137
# 5 -6.6816 2.3260 -4.1294 0.0000 23.1927 0.0000
# 6 0.0000 0.0000 0.0000 0.0137 0.0000 27.4663
#
#
#
# Elastic Compliance Matrix: (Units=1/GPa)
#
#
# Indices 1 2 3 4 5 6 
#
# 1 0.013345 -0.001503 -0.003053 0.000000 0.003452 0.000000
# 2 -0.001503 0.011107 -0.019403 0.000000 -0.005001 0.000000
# 3 -0.003053 -0.019403 0.121761 0.000000 0.022746 0.000000
# 4 0.000000 0.000000 0.000000 0.074938 0.000000 -0.000037
# 5 0.003452 -0.005001 0.022746 0.000000 0.048663 0.000000
# 6 0.000000 0.000000 0.000000 -0.000037 0.000000 0.036408
#
#
# Mechanical properties :
#
#
# Convention : Reuss Voigt Hill
#
# Bulk Modulus (GPa) = 10.17337 34.87998 22.52667
# Shear Modulus (GPa) = 12.92305 24.58312 18.75309
#
# Velocity S-wave (km/s) = 2.58359 3.56337 3.11228
# Velocity P-wave (km/s) = 3.76227 5.91153 4.95484
#
# Compressibility (1/GPa) = 0.09829587
#
# Stress axis : x y z
#
# Youngs Moduli (GPa) = 74.93217 90.03398 8.21279
#
# Poissons Ratio (x) = 0.13529 0.02508
# Poissons Ratio (y) = 0.11259 0.15935
# Poissons Ratio (z) = 0.22881 1.74691
#
# Static dielectric constant tensor:
#      x y z
#    x 3.715640 0.000000 0.007150 
#    y 0.000000 3.717790 0.000000 
#    z 0.007150 0.000000 3.196800 
# 
# 
# High freq. dielectric constant tensor:
#      x y z
#    x 1.785100 0.000000 -0.002970 
#    y 0.000000 1.748270 0.000000 
#    z -0.002970 0.000000 1.699560 
# 
# From -- ./inp_files/192401.got.cif
#   From: 2010.06.25/outbox.cif.g09.slc.cpg/sg12_97_cif.got.tgz:192401.got - 2010.06.28 00:19:55.
