data_PCOD8096717
_publ_section_title
;
Structure prediction by ZEFSAII (Michael W. Deem and Ramdas Pophale) SiO2 
 PCOD8096717
Probable space group: C 2/M
;
_chemical_formula_sum "Si O2"
_cell_formula_units_Z 48
_cell_length_a 23.074615
_cell_length_b 8.810541
_cell_length_c 19.758735
_cell_angle_alpha 90.000000
_cell_angle_beta 142.843698
_cell_angle_gamma 90.000000
_cell_volume 2426.202048
_symmetry_space_group_name_H-M "C 2/M"
_symmetry_group_IT_number 12
_symmetry_cell_setting 'monoclinic'
loop_
_space_group_symop_operation_xyz
x,y,z
-x,y,-z
-x,-y,-z
x,-y,z
1/2+x,1/2+y,z
1/2-x,1/2+y,-z
1/2-x,1/2-y,-z
1/2+x,1/2-y,z
loop_
_atom_site_type_symbol
_atom_site_label
_atom_site_fract_x
_atom_site_fract_y
_atom_site_fract_z
Si Si1 0.526027 0.821166 0.364334
Si Si2 0.376795 0.321582 0.939581
Si Si3 0.102778 0.831483 0.562067
Si Si4 0.344482 0.320186 0.620802
Si Si5 0.169315 0.677464 0.751917
Si Si6 0.920730 0.819714 0.832601
O O1 0.597960 0.775817 0.491973
O O2 0.559986 0.732460 0.329734
O O3 0.416620 0.767077 0.279094
O O4 0.532871 0.000000 0.358588
O O5 0.389162 0.500000 0.943632
O O6 0.274725 0.283576 0.881124
O O7 0.377212 0.257793 0.862651
O O8 0.467630 0.260430 0.067141
O O9 0.172199 0.757138 0.681618
O O10 0.000000 0.842671 0.500000
O O11 0.139024 0.000000 0.575356
O O12 0.335257 0.500000 0.608883
O O13 0.250000 0.250000 0.500000
O O14 0.359071 0.258900 0.711331
O O15 0.154912 0.500000 0.725039
O O16 0.919161 0.000000 0.826929
#
# Coordination Sequence:
#
# PCOD8096717 Si02
#       6
#     8   8   8   8   8   8
#     4  10  20  34  49  72 106 143 179 216 257 312
#     4   8  14  29  54  81 104 130 169 223 268 309
#     4   9  17  29  46  71 105 139 171 213 262 309
#     4  11  23  37  54  78 106 142 178 215 263 319
#     4   9  17  29  52  80 104 134 176 220 265 311
#     4   8  16  31  52  78 106 133 172 219 265 313
#
# _framework density 19.784006000000002
#
# number of rings (size 3 to 8) (size 9 to 14) (size 15 to 20)
#    0.000    2.833    0.000    2.500    2.333    2.667 
#    0.000    0.833    0.000    2.000    0.000    5.833 
#    0.000    0.000    0.000    0.000    0.000    0.000 
#
# Total GULP energy -297354.956972 kJ/mol
# GULP energy per Si atom -12389.789874 kJ/mol
# Density = 1.973898 g / cm^3
# Si number density = 19.784006 Si / 1000 Ang^3
#
#
#
# Elastic Constant Matrix: (Units=GPa)
#
#
# Indices 1 2 3 4 5 6 
#
# 1 78.0359 16.2062 50.8686 0.0000 6.3609 0.0000
# 2 16.2062 46.2227 19.8751 0.0000 0.8464 0.0000
# 3 50.8686 19.8751 131.0805 0.0000 6.2911 0.0000
# 4 0.0000 0.0000 0.0000 15.3108 0.0000 -1.0112
# 5 6.3609 0.8464 6.2911 0.0000 33.4895 0.0000
# 6 0.0000 0.0000 0.0000 -1.0112 0.0000 25.0553
#
#
#
# Elastic Compliance Matrix: (Units=1/GPa)
#
#
# Indices 1 2 3 4 5 6 
#
# 1 0.017807 -0.003505 -0.006277 0.000000 -0.002114 0.000000
# 2 -0.003505 0.023833 -0.002277 0.000000 0.000491 0.000000
# 3 -0.006277 -0.002277 0.010444 0.000000 -0.000712 0.000000
# 4 0.000000 0.000000 0.000000 0.065488 0.000000 0.002643
# 5 -0.002114 0.000491 -0.000712 0.000000 0.030383 0.000000
# 6 0.000000 0.000000 0.000000 0.002643 0.000000 0.040018
#
#
# Mechanical properties :
#
#
# Convention : Reuss Voigt Hill
#
# Bulk Modulus (GPa) = 35.75862 47.69321 41.72591
# Shear Modulus (GPa) = 22.58197 25.99707 24.28952
#
# Velocity S-wave (km/s) = 3.38216 3.62891 3.50771
# Velocity P-wave (km/s) = 5.77631 6.45894 6.12714
#
# Compressibility (1/GPa) = 0.02796529
#
# Stress axis : x y z
#
# Youngs Moduli (GPa) = 56.15789 41.95777 95.74506
#
# Poissons Ratio (x) = 0.14708 0.60103
# Poissons Ratio (y) = 0.19686 0.21801
# Poissons Ratio (z) = 0.35252 0.09554
#
# Static dielectric constant tensor:
#      x y z
#    x 3.692760 0.000000 0.067480 
#    y 0.000000 3.355890 0.000000 
#    z 0.067480 0.000000 3.868620 
# 
# 
# High freq. dielectric constant tensor:
#      x y z
#    x 1.762390 0.000000 0.017170 
#    y 0.000000 1.737500 0.000000 
#    z 0.017170 0.000000 1.765930 
# 
# From -- ./inp_files/323865.got.cif
#   From: 2010.06.25/outbox.cif.g09.slc.cpg/sg12_162_cif.got.tgz:323865.got - 2010.06.28 00:19:55.
