data_PCOD8096718
_publ_section_title
;
Structure prediction by ZEFSAII (Michael W. Deem and Ramdas Pophale) SiO2 
 PCOD8096718
Probable space group: C 2/M
;
_chemical_formula_sum "Si O2"
_cell_formula_units_Z 64
_cell_length_a 27.954382
_cell_length_b 9.017851
_cell_length_c 14.474835
_cell_angle_alpha 90.000000
_cell_angle_beta 72.709911
_cell_angle_gamma 90.000000
_cell_volume 3484.051320
_symmetry_space_group_name_H-M "C 2/M"
_symmetry_group_IT_number 12
_symmetry_cell_setting 'monoclinic'
loop_
_space_group_symop_operation_xyz
x,y,z
-x,y,-z
-x,-y,-z
x,-y,z
1/2+x,1/2+y,z
1/2-x,1/2+y,-z
1/2-x,1/2-y,-z
1/2+x,1/2-y,z
loop_
_atom_site_type_symbol
_atom_site_label
_atom_site_fract_x
_atom_site_fract_y
_atom_site_fract_z
Si Si1 0.311427 0.326611 0.381325
Si Si2 0.743384 0.167095 0.098794
Si Si3 0.338107 0.324165 0.734275
Si Si4 0.302554 0.173738 0.577999
Si Si5 0.111258 0.330799 0.793137
Si Si6 0.911224 0.830424 0.847446
Si Si7 0.500021 0.828971 0.895518
Si Si8 0.355588 0.337450 0.060077
O O1 0.316762 0.500000 0.400346
O O2 0.319483 0.234292 0.469548
O O3 0.256412 0.292323 0.370716
O O4 0.355069 0.278892 0.286596
O O5 0.709191 0.260050 0.185745
O O6 0.797151 0.159920 0.116406
O O7 0.722307 0.000000 0.096222
O O8 0.750000 0.250000 0.000000
O O9 0.332412 0.500000 0.730964
O O10 0.337844 0.253952 0.632685
O O11 0.389128 0.280771 0.760259
O O12 0.313527 0.000000 0.576110
O O13 0.127250 0.500000 0.764824
O O14 0.052239 0.306148 0.810929
O O15 0.118778 0.292423 0.896460
O O16 0.959390 0.739899 0.850543
O O17 0.928162 0.000000 0.833214
O O18 0.865892 0.805671 0.946167
O O19 0.486462 0.000000 0.914559
O O20 0.500000 0.758385 0.000000
O O21 0.378136 0.500000 0.073253
#
# Coordination Sequence:
#
# PCOD8096718 Si02
#       8
#     8   8   8   8   8   8   8   8
#     4  10  21  38  60  86 115 146 182 228 276 330
#     4  11  21  33  48  71 106 145 184 224 266 319
#     4  11  22  37  54  79 112 148 188 228 275 331
#     4  10  21  38  60  87 115 147 185 225 274 332
#     4  11  22  35  55  82 111 143 182 232 283 331
#     4  10  21  36  53  75 106 146 188 228 270 324
#     4  10  21  37  54  78 110 144 187 235 281 330
#     4  10  20  34  49  72 107 144 184 225 267 323
#
# _framework density 18.369419000000001
#
# number of rings (size 3 to 8) (size 9 to 14) (size 15 to 20)
#    0.000    1.625    2.500    2.625    0.000    7.750 
#    0.000    0.000    0.000    0.750    0.000    5.250 
#    0.000    0.000    0.000    0.000    0.000    0.000 
#
# Total GULP energy -396761.378648 kJ/mol
# GULP energy per Si atom -12398.793083 kJ/mol
# Density = 1.832761 g / cm^3
# Si number density = 18.369419 Si / 1000 Ang^3
#
#
#
# Elastic Constant Matrix: (Units=GPa)
#
#
# Indices 1 2 3 4 5 6 
#
# 1 104.2602 51.9763 37.7802 0.0000 18.8568 0.0000
# 2 51.9763 89.8580 36.1310 0.0000 12.8600 0.0000
# 3 37.7802 36.1310 64.7722 0.0000 15.4672 0.0000
# 4 0.0000 0.0000 0.0000 33.9026 0.0000 2.0802
# 5 18.8568 12.8600 15.4672 0.0000 29.2766 0.0000
# 6 0.0000 0.0000 0.0000 2.0802 0.0000 31.0869
#
#
#
# Elastic Compliance Matrix: (Units=1/GPa)
#
#
# Indices 1 2 3 4 5 6 
#
# 1 0.015146 -0.006426 -0.004113 0.000000 -0.004760 0.000000
# 2 -0.006426 0.017218 -0.005766 0.000000 -0.000378 0.000000
# 3 -0.004113 -0.005766 0.022678 0.000000 -0.006799 0.000000
# 4 0.000000 0.000000 0.000000 0.029618 0.000000 -0.001982
# 5 -0.004760 -0.000378 -0.006799 0.000000 0.040981 0.000000
# 6 0.000000 0.000000 0.000000 -0.001982 0.000000 0.032300
#
#
# Mechanical properties :
#
#
# Convention : Reuss Voigt Hill
#
# Bulk Modulus (GPa) = 44.58038 56.74061 50.66050
# Shear Modulus (GPa) = 25.24873 27.72008 26.48441
#
# Velocity S-wave (km/s) = 3.71144 3.88884 3.80118
# Velocity P-wave (km/s) = 6.53360 7.14981 6.84864
#
# Compressibility (1/GPa) = 0.02243139
#
# Stress axis : x y z
#
# Youngs Moduli (GPa) = 66.02297 58.07802 44.09553
#
# Poissons Ratio (x) = 0.37320 0.18138
# Poissons Ratio (y) = 0.42425 0.25427
# Poissons Ratio (z) = 0.27158 0.33489
#
# Static dielectric constant tensor:
#      x y z
#    x 3.361360 0.000000 0.081790 
#    y 0.000000 2.443670 0.000000 
#    z 0.081790 0.000000 3.209600 
# 
# 
# High freq. dielectric constant tensor:
#      x y z
#    x 1.702450 0.000000 0.008190 
#    y 0.000000 1.722910 0.000000 
#    z 0.008190 0.000000 1.695570 
# 
# From -- ./inp_files/243856.got.cif
#   From: 2010.06.25/outbox.cif.g09.slc.cpg/sg12_122_cif.got.tgz:243856.got - 2010.06.28 00:19:55.
