data_PCOD8096390
_publ_section_title
;
Structure prediction by ZEFSAII (Michael W. Deem and Ramdas Pophale) SiO2 
 PCOD8096390
Probable space group: C 2/M
;
_chemical_formula_sum "Si O2"
_cell_formula_units_Z 56
_cell_length_a 28.342529
_cell_length_b 8.935133
_cell_length_c 19.403118
_cell_angle_alpha 90.000000
_cell_angle_beta 34.991995
_cell_angle_gamma 90.000000
_cell_volume 2817.836426
_symmetry_space_group_name_H-M "C 2/M"
_symmetry_group_IT_number 12
_symmetry_cell_setting 'monoclinic'
loop_
_space_group_symop_operation_xyz
x,y,z
-x,y,-z
-x,-y,-z
x,-y,z
1/2+x,1/2+y,z
1/2-x,1/2+y,-z
1/2-x,1/2-y,-z
1/2+x,1/2-y,z
loop_
_atom_site_type_symbol
_atom_site_label
_atom_site_fract_x
_atom_site_fract_y
_atom_site_fract_z
Si Si1 0.497109 0.831577 0.705967
Si Si2 0.736817 0.825954 0.309060
Si Si3 0.316988 0.169604 0.965028
Si Si4 0.370974 0.677127 0.039030
Si Si5 0.718774 0.825123 0.606894
Si Si6 0.532924 0.824063 0.811953
Si Si7 0.556546 0.824033 0.492745
O O1 0.398915 0.827680 0.821372
O O2 0.530037 0.756997 0.737376
O O3 0.530552 0.749908 0.597278
O O4 0.531872 0.000000 0.664066
O O5 0.815009 0.774604 0.170762
O O6 0.732392 0.737381 0.386099
O O7 0.653479 0.792213 0.365239
O O8 0.742308 0.000000 0.321153
O O9 0.290096 0.000000 0.013610
O O10 0.250000 0.250000 0.000000
O O11 0.329076 0.255577 0.021744
O O12 0.374883 0.500000 0.026497
O O13 0.462923 0.741709 0.940947
O O14 0.750000 0.750000 0.500000
O O15 0.622311 0.790706 0.735701
O O16 0.734938 0.000000 0.580347
O O17 0.510831 0.000000 0.837425
O O18 0.500000 0.751961 0.500000
O O19 0.537416 0.000000 0.518235
#
# Coordination Sequence:
#
# PCOD8096390 Si02
#       7
#     8   8   8   8   8   8   8
#     4   8  15  29  50  75 102 134 180 234 279 330
#     4  10  22  38  57  86 120 152 194 245 295 352
#     4  10  20  33  53  79 110 148 192 242 292 352
#     4  10  21  36  56  84 118 152 191 243 298 350
#     4  11  23  39  63  90 117 153 196 241 292 350
#     4   9  19  37  58  81 112 152 195 237 286 352
#     4   9  17  30  53  80 107 145 190 237 285 339
#
# _framework density 19.873404000000001
#
# number of rings (size 3 to 8) (size 9 to 14) (size 15 to 20)
#    0.000    2.429    0.000    3.000    2.000    5.143 
#    0.000    2.857    0.000    1.286    0.000    0.000 
#    0.000    0.000    0.000    0.000    0.000    0.000 
#
# Total GULP energy -347140.496866 kJ/mol
# GULP energy per Si atom -12397.874888 kJ/mol
# Density = 1.982817 g / cm^3
# Si number density = 19.873404 Si / 1000 Ang^3
#
#
#
# Elastic Constant Matrix: (Units=GPa)
#
#
# Indices 1 2 3 4 5 6 
#
# 1 101.4346 32.1596 43.2039 -0.0002 -6.7587 0.0012
# 2 32.1596 69.1490 41.6754 -0.0102 -1.8645 -0.0002
# 3 43.2039 41.6754 119.7947 -0.0057 8.8861 0.0029
# 4 -0.0002 -0.0102 -0.0057 27.3112 -0.0008 -1.7782
# 5 -6.7587 -1.8645 8.8861 -0.0008 27.5176 0.0016
# 6 0.0012 -0.0002 0.0029 -1.7782 0.0016 29.5919
#
#
#
# Elastic Compliance Matrix: (Units=1/GPa)
#
#
# Indices 1 2 3 4 5 6 
#
# 1 0.012852 -0.003657 -0.003667 -0.000002 0.004093 -0.000001
# 2 -0.003657 0.019650 -0.005685 0.000006 0.002269 0.000001
# 3 -0.003667 -0.005685 0.012031 0.000000 -0.005171 -0.000001
# 4 -0.000002 0.000006 0.000000 0.036759 0.000001 0.002209
# 5 0.004093 0.002269 -0.005171 0.000001 0.039169 -0.000002
# 6 -0.000001 0.000001 -0.000001 0.002209 -0.000002 0.033926
#
#
# Mechanical properties :
#
#
# Convention : Reuss Voigt Hill
#
# Bulk Modulus (GPa) = 54.00837 58.27291 56.14064
# Shear Modulus (GPa) = 26.79839 28.44008 27.61924
#
# Velocity S-wave (km/s) = 3.67612 3.78704 3.73199
# Velocity P-wave (km/s) = 6.72708 6.96477 6.84696
#
# Compressibility (1/GPa) = 0.01851565
#
# Stress axis : x y z
#
# Youngs Moduli (GPa) = 77.80589 50.89012 83.11571
#
# Poissons Ratio (x) = 0.18612 0.30475
# Poissons Ratio (y) = 0.28456 0.47255
# Poissons Ratio (z) = 0.28528 0.28933
#
# Static dielectric constant tensor:
#      x y z
#    x 3.650570 -0.000020 0.030370 
#    y -0.000020 3.345360 0.000020 
#    z 0.030370 0.000020 3.762480 
# 
# 
# High freq. dielectric constant tensor:
#      x y z
#    x 1.778800 0.000000 -0.004980 
#    y 0.000000 1.742100 0.000000 
#    z -0.004980 0.000000 1.783090 
# 
# From -- ./inp_files/292444.got.cif
#   From: 2010.06.25/outbox.cif.g09.slc.cpg/sg12_147_cif.got.tgz:292444.got - 2010.06.28 00:19:55.
