data_PCOD8096186
_publ_section_title
;
Structure prediction by ZEFSAII (Michael W. Deem and Ramdas Pophale) SiO2 
 PCOD8096186
Probable space group: C 2/M
;
_chemical_formula_sum "Si O2"
_cell_formula_units_Z 64
_cell_length_a 15.644279
_cell_length_b 9.491740
_cell_length_c 32.004441
_cell_angle_alpha 90.000000
_cell_angle_beta 136.162611
_cell_angle_gamma 90.000000
_cell_volume 3291.568594
_symmetry_space_group_name_H-M "C 2/M"
_symmetry_group_IT_number 12
_symmetry_cell_setting 'monoclinic'
loop_
_space_group_symop_operation_xyz
x,y,z
-x,y,-z
-x,-y,-z
x,-y,z
1/2+x,1/2+y,z
1/2-x,1/2+y,-z
1/2-x,1/2-y,-z
1/2+x,1/2-y,z
loop_
_atom_site_type_symbol
_atom_site_label
_atom_site_fract_x
_atom_site_fract_y
_atom_site_fract_z
Si Si1 0.602524 0.332661 0.068301
Si Si2 0.800159 0.338618 0.269813
Si Si3 0.160656 0.843908 0.377831
Si Si4 0.963764 0.157228 0.380129
Si Si5 0.126765 0.333985 0.861441
Si Si6 0.908292 0.657568 0.505568
Si Si7 0.040801 0.834837 0.139263
Si Si8 0.996793 0.338610 0.268253
O O1 0.606828 0.500000 0.071283
O O2 0.735760 0.277736 0.100056
O O3 0.568754 0.277360 0.102588
O O4 0.500000 0.276223 0.000000
O O5 0.817723 0.500000 0.289854
O O6 0.840964 0.242127 0.323431
O O7 0.659114 0.304206 0.209755
O O8 0.880046 0.306913 0.256665
O O9 0.279278 0.778720 0.443108
O O10 0.118314 0.749867 0.323731
O O11 0.048375 0.851903 0.369754
O O12 0.194875 0.000000 0.373186
O O13 0.038764 0.236869 0.442004
O O14 0.927740 0.000000 0.382791
O O15 0.127081 0.500000 0.871377
O O16 0.075180 0.250685 0.883304
O O17 0.040727 0.297727 0.791703
O O18 0.888003 0.500000 0.517584
O O19 0.000000 0.647361 0.500000
O O20 0.007979 0.000000 0.127000
O O21 0.036055 0.500000 0.285562
#
# Coordination Sequence:
#
# PCOD8096186 Si02
#       8
#     8   8   8   8   8   8   8   8
#     4   9  18  36  61  84 113 155 196 231 271 331
#     4   9  17  33  55  75 101 139 181 221 264 327
#     4   9  19  34  52  75 101 131 173 220 267 320
#     4  10  20  33  52  77 102 130 170 221 272 320
#     4  10  20  35  56  85 117 149 188 235 284 330
#     4  10  21  36  51  68  97 137 175 214 263 323
#     4  10  20  35  57  85 113 148 193 233 276 335
#     4   9  17  32  54  76 101 137 180 222 269 327
#
# _framework density 19.443618000000001
#
# number of rings (size 3 to 8) (size 9 to 14) (size 15 to 20)
#    0.000    2.500    1.250    0.750    0.000    3.750 
#    0.000    4.375    0.000    0.750    0.000    0.000 
#    0.000    0.000    0.000    0.000    0.000    0.000 
#
# Total GULP energy -396778.509691 kJ/mol
# GULP energy per Si atom -12399.328428 kJ/mol
# Density = 1.939936 g / cm^3
# Si number density = 19.443618 Si / 1000 Ang^3
#
#
#
# Elastic Constant Matrix: (Units=GPa)
#
#
# Indices 1 2 3 4 5 6 
#
# 1 93.9851 43.3743 55.5460 0.0000 3.7123 0.0000
# 2 43.3743 78.9091 60.5696 0.0000 1.6780 0.0000
# 3 55.5460 60.5696 135.9277 0.0000 6.3028 0.0000
# 4 0.0000 0.0000 0.0000 21.8306 0.0000 2.2608
# 5 3.7123 1.6780 6.3028 0.0000 11.3495 0.0000
# 6 0.0000 0.0000 0.0000 2.2608 0.0000 22.9565
#
#
#
# Elastic Compliance Matrix: (Units=1/GPa)
#
#
# Indices 1 2 3 4 5 6 
#
# 1 0.015530 -0.005618 -0.003742 0.000000 -0.002171 0.000000
# 2 -0.005618 0.021336 -0.007340 0.000000 0.002759 0.000000
# 3 -0.003742 -0.007340 0.012368 0.000000 -0.004559 0.000000
# 4 0.000000 0.000000 0.000000 0.046279 0.000000 -0.004558
# 5 -0.002171 0.002759 -0.004559 0.000000 0.090944 0.000000
# 6 0.000000 0.000000 0.000000 -0.004558 0.000000 0.044010
#
#
# Mechanical properties :
#
#
# Convention : Reuss Voigt Hill
#
# Bulk Modulus (GPa) = 63.15251 69.75577 66.45414
# Shear Modulus (GPa) = 18.57742 21.18278 19.88010
#
# Velocity S-wave (km/s) = 3.09439 3.30426 3.20104
# Velocity P-wave (km/s) = 6.73181 7.10713 6.92202
#
# Compressibility (1/GPa) = 0.01583468
#
# Stress axis : x y z
#
# Youngs Moduli (GPa) = 64.39116 46.86946 80.85351
#
# Poissons Ratio (x) = 0.26330 0.30258
# Poissons Ratio (y) = 0.36174 0.59343
# Poissons Ratio (z) = 0.24097 0.34400
#
# Static dielectric constant tensor:
#      x y z
#    x 3.385510 0.000000 0.114470 
#    y 0.000000 3.571250 0.000000 
#    z 0.114470 0.000000 3.541200 
# 
# 
# High freq. dielectric constant tensor:
#      x y z
#    x 1.749550 0.000000 0.005240 
#    y 0.000000 1.735540 0.000000 
#    z 0.005240 0.000000 1.760990 
# 
# From -- ./inp_files/375569.got.cif
#   From: 2010.06.25/outbox.cif.g09.slc.cpg/sg12_188_cif.got.tgz:375569.got - 2010.06.28 00:19:55.
