data_PCOD8096563
_publ_section_title
;
Structure prediction by ZEFSAII (Michael W. Deem and Ramdas Pophale) SiO2 
 PCOD8096563
Probable space group: C 2/M
;
_chemical_formula_sum "Si O2"
_cell_formula_units_Z 48
_cell_length_a 14.245068
_cell_length_b 14.143941
_cell_length_c 23.103942
_cell_angle_alpha 90.000000
_cell_angle_beta 30.558668
_cell_angle_gamma 90.000000
_cell_volume 2366.704212
_symmetry_space_group_name_H-M "C 2/M"
_symmetry_group_IT_number 12
_symmetry_cell_setting 'monoclinic'
loop_
_space_group_symop_operation_xyz
x,y,z
-x,y,-z
-x,-y,-z
x,-y,z
1/2+x,1/2+y,z
1/2-x,1/2+y,-z
1/2-x,1/2-y,-z
1/2+x,1/2-y,z
loop_
_atom_site_type_symbol
_atom_site_label
_atom_site_fract_x
_atom_site_fract_y
_atom_site_fract_z
Si Si1 0.835200 0.294895 0.184852
Si Si2 0.524188 0.281627 0.555136
Si Si3 0.222226 0.356962 0.000630
Si Si4 0.740262 0.389049 0.534292
Si Si5 0.488883 0.602133 0.071456
Si Si6 0.375306 0.605727 0.796281
O O1 0.676280 0.310072 0.315402
O O2 0.886082 0.183986 0.161355
O O3 0.763525 0.319841 0.158934
O O4 0.002291 0.368834 0.109201
O O5 0.500000 0.297832 0.500000
O O6 0.670184 0.353333 0.508215
O O7 0.583334 0.173659 0.539512
O O8 0.304815 0.413298 0.011552
O O9 0.345742 0.387496 0.880297
O O10 0.250000 0.250000 0.000000
O O11 0.795499 0.500000 0.501077
O O12 0.585243 0.370944 0.666041
O O13 0.385729 0.500000 0.129935
O O14 0.500000 0.636623 0.000000
O O15 0.328294 0.500000 0.799643
#
# Coordination Sequence:
#
# PCOD8096563 Si02
#       6
#     8   8   8   8   8   8
#     4  10  21  37  57  85 117 152 192 243 299 345
#     4  10  22  39  62  89 120 159 209 250 297 361
#     4  10  20  33  55  83 112 152 188 229 294 353
#     4   9  21  41  62  89 123 158 202 255 301 351
#     4  10  21  37  54  80 119 155 192 236 289 358
#     4  10  20  36  61  88 117 149 192 245 295 352
#
# _framework density 20.281368000000001
#
# number of rings (size 3 to 8) (size 9 to 14) (size 15 to 20)
#    0.000    2.167    0.000    3.000    4.667    3.333 
#    3.000    0.000    0.000    0.000    0.000    0.000 
#    0.000    0.000    0.000    0.000    0.000    0.000 
#
# Total GULP energy -297372.224749 kJ/mol
# GULP energy per Si atom -12390.509365 kJ/mol
# Density = 2.023521 g / cm^3
# Si number density = 20.281368 Si / 1000 Ang^3
#
#
#
# Elastic Constant Matrix: (Units=GPa)
#
#
# Indices 1 2 3 4 5 6 
#
# 1 128.4408 11.1071 51.7672 0.0114 17.1485 0.0160
# 2 11.1071 89.2240 12.8352 0.0053 2.6563 0.0152
# 3 51.7672 12.8352 63.7343 0.0243 5.8940 0.0288
# 4 0.0114 0.0053 0.0243 22.0290 -0.0148 -14.6661
# 5 17.1485 2.6563 5.8940 -0.0148 23.2036 -0.0212
# 6 0.0160 0.0152 0.0288 -14.6661 -0.0212 -100.3971
#
#
#
# Elastic Compliance Matrix: (Units=1/GPa)
#
#
# Indices 1 2 3 4 5 6 
#
# 1 0.012555 0.000017 -0.009568 0.000000 -0.006850 0.000001
# 2 0.000017 0.011555 -0.002271 0.000000 -0.000759 0.000001
# 3 -0.009568 -0.002271 0.023800 -0.000015 0.001285 0.000007
# 4 0.000000 0.000000 -0.000015 0.041371 0.000025 -0.006044
# 5 -0.006850 -0.000759 0.001285 0.000025 0.047920 -0.000015
# 6 0.000001 0.000001 0.000007 -0.006044 -0.000015 -0.009078
#
#
# Mechanical properties :
#
#
# Convention : Reuss Voigt Hill
#
# Bulk Modulus (GPa) = 41.20774 48.09090 44.64932
# Shear Modulus (GPa) = 31.27853 2.67975 16.97914
#
# Velocity S-wave (km/s) = 3.93138 1.15072 2.89654
# Velocity P-wave (km/s) = 6.40077 5.05261 5.76623
#
# Compressibility (1/GPa) = 0.02426728
#
# Stress axis : x y z
#
# Youngs Moduli (GPa) = 79.65001 86.54372 42.01736
#
# Poissons Ratio (x) = -0.00150 0.40200
# Poissons Ratio (y) = -0.00138 0.09542
# Poissons Ratio (z) = 0.76205 0.19653
#
# Static dielectric constant tensor:
#      x y z
#    x 4.197770 -0.000250 -0.459180 
#    y -0.000250 4.031310 0.000110 
#    z -0.459180 0.000110 3.721410 
# 
# 
# High freq. dielectric constant tensor:
#      x y z
#    x 1.800220 0.000000 -0.002580 
#    y 0.000000 1.799060 0.000000 
#    z -0.002580 0.000000 1.769090 
# 
# From -- ./inp_files/142710.got.cif
#   From: 2010.06.25/outbox.cif.g09.slc.cpg/sg12_72_cif.got.tgz:142710.got - 2010.06.28 00:19:55.
