data_PCOD8096823
_publ_section_title
;
Structure prediction by ZEFSAII (Michael W. Deem and Ramdas Pophale) SiO2 
 PCOD8096823
Probable space group: C 2/M
;
_chemical_formula_sum "Si O2"
_cell_formula_units_Z 64
_cell_length_a 25.042666
_cell_length_b 8.952857
_cell_length_c 19.203664
_cell_angle_alpha 90.000000
_cell_angle_beta 117.876852
_cell_angle_gamma 90.000000
_cell_volume 3805.890340
_symmetry_space_group_name_H-M "C 2/M"
_symmetry_group_IT_number 12
_symmetry_cell_setting 'monoclinic'
loop_
_space_group_symop_operation_xyz
x,y,z
-x,y,-z
-x,-y,-z
x,-y,z
1/2+x,1/2+y,z
1/2-x,1/2+y,-z
1/2-x,1/2-y,-z
1/2+x,1/2-y,z
loop_
_atom_site_type_symbol
_atom_site_label
_atom_site_fract_x
_atom_site_fract_y
_atom_site_fract_z
Si Si1 0.657127 0.826072 0.077278
Si Si2 0.396344 0.326290 0.329551
Si Si3 0.498869 0.323109 0.200398
Si Si4 0.794424 0.173284 0.160572
Si Si5 0.950032 0.176456 0.915794
Si Si6 0.515439 0.175581 0.348282
Si Si7 0.627149 0.824070 0.902175
Si Si8 0.935394 0.165109 0.497233
O O1 0.725908 0.782092 0.136009
O O2 0.615502 0.740107 0.106609
O O3 0.645569 0.000000 0.080505
O O4 0.640729 0.776387 0.989260
O O5 0.415753 0.500000 0.333704
O O6 0.333183 0.293267 0.253441
O O7 0.447976 0.226386 0.326316
O O8 0.388748 0.286070 0.407375
O O9 0.497187 0.500000 0.206756
O O10 0.532246 0.270851 0.150649
O O11 0.534651 0.252304 0.287328
O O12 0.430756 0.264033 0.160250
O O13 0.816245 0.274361 0.109881
O O14 0.798874 0.000000 0.140915
O O15 0.947221 0.000000 0.919676
O O16 0.000000 0.240289 0.000000
O O17 0.563999 0.222213 0.437222
O O18 0.517088 0.000000 0.340186
O O19 0.616433 0.000000 0.888029
O O20 0.000000 0.164204 0.500000
O O21 0.919388 0.000000 0.515799
#
# Coordination Sequence:
#
# PCOD8096823 Si02
#       8
#     8   8   8   8   8   8   8   8
#     4  10  22  36  51  73 101 132 168 208 252 294
#     4   9  17  30  48  68  97 135 169 196 233 291
#     4  11  21  34  52  71  96 131 168 206 249 300
#     4  10  20  34  51  72 101 139 171 198 240 295
#     4  10  21  37  55  73  92 125 172 212 252 297
#     4  11  20  29  45  72 102 127 160 202 248 296
#     4  11  21  32  48  74 102 131 167 207 248 288
#     4   8  15  28  45  66  94 131 166 194 234 291
#
# _framework density 16.816039
#
# number of rings (size 3 to 8) (size 9 to 14) (size 15 to 20)
#    0.000    2.000    2.500    3.000    0.000    4.500 
#    0.000    0.000    0.000    0.000    0.000    0.875 
#    0.000    0.000    0.000    0.000    0.000    0.000 
#
# Total GULP energy -396809.872634 kJ/mol
# GULP energy per Si atom -12400.308520 kJ/mol
# Density = 1.677776 g / cm^3
# Si number density = 16.816039 Si / 1000 Ang^3
#
#
#
# Elastic Constant Matrix: (Units=GPa)
#
#
# Indices 1 2 3 4 5 6 
#
# 1 76.2699 25.7626 40.1575 0.0000 -11.8214 0.0000
# 2 25.7626 67.4814 44.9031 0.0000 -10.5546 0.0000
# 3 40.1575 44.9031 124.1002 0.0000 -14.3839 0.0000
# 4 0.0000 0.0000 0.0000 21.1399 0.0000 -2.2159
# 5 -11.8214 -10.5546 -14.3839 0.0000 17.0293 0.0000
# 6 0.0000 0.0000 0.0000 -2.2159 0.0000 23.9635
#
#
#
# Elastic Compliance Matrix: (Units=1/GPa)
#
#
# Indices 1 2 3 4 5 6 
#
# 1 0.017127 -0.003031 -0.003642 0.000000 0.006935 0.000000
# 2 -0.003031 0.020791 -0.005867 0.000000 0.005827 0.000000
# 3 -0.003642 -0.005867 0.011800 0.000000 0.003803 0.000000
# 4 0.000000 0.000000 0.000000 0.047767 0.000000 0.004417
# 5 0.006935 0.005827 0.003803 0.000000 0.070360 0.000000
# 6 0.000000 0.000000 0.000000 0.004417 0.000000 0.042139
#
#
# Mechanical properties :
#
#
# Convention : Reuss Voigt Hill
#
# Bulk Modulus (GPa) = 40.58464 54.38865 47.48665
# Shear Modulus (GPa) = 20.55277 22.89507 21.72392
#
# Velocity S-wave (km/s) = 3.49981 3.69386 3.59814
# Velocity P-wave (km/s) = 6.36541 7.11381 6.74999
#
# Compressibility (1/GPa) = 0.02463987
#
# Stress axis : x y z
#
# Youngs Moduli (GPa) = 58.38572 48.09733 84.74586
#
# Poissons Ratio (x) = 0.14577 0.30863
# Poissons Ratio (y) = 0.17695 0.49718
# Poissons Ratio (z) = 0.21263 0.28218
#
# Static dielectric constant tensor:
#      x y z
#    x 2.853040 0.000000 0.034710 
#    y 0.000000 3.085240 0.000000 
#    z 0.034710 0.000000 3.595600 
# 
# 
# High freq. dielectric constant tensor:
#      x y z
#    x 1.604000 0.000000 0.000410 
#    y 0.000000 1.648110 0.000000 
#    z 0.000410 0.000000 1.661820 
# 
# From -- ./inp_files/287763.got.cif
#   From: 2010.06.25/outbox.cif.g09.slc.cpg/sg12_144_cif.got.tgz:287763.got - 2010.06.28 00:19:55.
