data_PCOD8096589
_publ_section_title
;
Structure prediction by ZEFSAII (Michael W. Deem and Ramdas Pophale) SiO2 
 PCOD8096589
Probable space group: C 2/M
;
_chemical_formula_sum "Si O2"
_cell_formula_units_Z 64
_cell_length_a 28.311660
_cell_length_b 8.592852
_cell_length_c 14.136883
_cell_angle_alpha 90.000000
_cell_angle_beta 86.663499
_cell_angle_gamma 90.000000
_cell_volume 3433.361641
_symmetry_space_group_name_H-M "C 2/M"
_symmetry_group_IT_number 12
_symmetry_cell_setting 'monoclinic'
loop_
_space_group_symop_operation_xyz
x,y,z
-x,y,-z
-x,-y,-z
x,-y,z
1/2+x,1/2+y,z
1/2-x,1/2+y,-z
1/2-x,1/2-y,-z
1/2+x,1/2-y,z
loop_
_atom_site_type_symbol
_atom_site_label
_atom_site_fract_x
_atom_site_fract_y
_atom_site_fract_z
Si Si1 0.862129 0.681959 0.134456
Si Si2 0.093806 0.180748 0.052121
Si Si3 0.327272 0.319518 0.804816
Si Si4 0.022395 0.680930 0.194772
Si Si5 0.427775 0.318489 0.270912
Si Si6 0.899458 0.318316 0.662710
Si Si7 0.447250 0.316569 0.482584
Si Si8 0.762154 0.817499 0.100581
O O1 0.863989 0.500000 0.113794
O O2 0.883474 0.722885 0.234581
O O3 0.808625 0.738918 0.137086
O O4 0.895048 0.769994 0.055326
O O5 0.139460 0.220168 0.110117
O O6 0.048751 0.277529 0.094080
O O7 0.080980 0.000000 0.058770
O O8 0.313582 0.500000 0.803262
O O9 0.353085 0.272003 0.704680
O O10 0.279979 0.218331 0.821538
O O11 0.009292 0.500000 0.198047
O O12 0.055759 0.729368 0.278434
O O13 0.974954 0.780569 0.206742
O O14 0.416733 0.500000 0.264285
O O15 0.434390 0.266059 0.378271
O O16 0.888960 0.500000 0.670774
O O17 0.909741 0.268197 0.554552
O O18 0.500000 0.257204 0.500000
O O19 0.443446 0.500000 0.499181
O O20 0.770895 0.000000 0.089770
O O21 0.750000 0.750000 0.000000
#
# Coordination Sequence:
#
# PCOD8096589 Si02
#       8
#     8   8   8   8   8   8   8   8
#     4  12  25  40  58  82 116 153 193 238 288 342
#     4  10  20  35  56  81 113 152 194 234 279 336
#     4  10  20  35  58  86 117 150 188 235 286 337
#     4  10  20  34  53  81 116 152 192 234 283 338
#     4  11  23  39  58  81 114 153 196 239 287 343
#     4  10  20  33  55  86 119 150 187 237 287 338
#     4  10  20  36  59  85 113 150 193 238 286 340
#     4  12  23  38  61  88 117 150 192 236 285 337
#
# _framework density 18.640623999999999
#
# number of rings (size 3 to 8) (size 9 to 14) (size 15 to 20)
#    0.000    1.375    2.500    4.125    0.000    3.750 
#    0.000    2.500    0.000    0.750    0.000    0.000 
#    0.000    0.000    0.000    0.000    0.000    0.000 
#
# Total GULP energy -397016.672615 kJ/mol
# GULP energy per Si atom -12406.771019 kJ/mol
# Density = 1.859820 g / cm^3
# Si number density = 18.640624 Si / 1000 Ang^3
#
#
#
# Elastic Constant Matrix: (Units=GPa)
#
#
# Indices 1 2 3 4 5 6 
#
# 1 97.3707 22.3413 48.8933 0.0000 0.6371 0.0000
# 2 22.3413 53.3645 18.1725 0.0000 2.9582 0.0000
# 3 48.8933 18.1725 94.2578 0.0000 -3.2240 0.0000
# 4 0.0000 0.0000 0.0000 31.3915 0.0000 -4.2459
# 5 0.6371 2.9582 -3.2240 0.0000 25.7505 0.0000
# 6 0.0000 0.0000 0.0000 -4.2459 0.0000 31.8223
#
#
#
# Elastic Compliance Matrix: (Units=1/GPa)
#
#
# Indices 1 2 3 4 5 6 
#
# 1 0.014580 -0.003719 -0.006873 0.000000 -0.000794 0.000000
# 2 -0.003719 0.021208 -0.002249 0.000000 -0.002626 0.000000
# 3 -0.006873 -0.002249 0.014685 0.000000 0.002267 0.000000
# 4 0.000000 0.000000 0.000000 0.032441 0.000000 0.004328
# 5 -0.000794 -0.002626 0.002267 0.000000 0.039439 0.000000
# 6 0.000000 0.000000 0.000000 0.004328 0.000000 0.032002
#
#
# Mechanical properties :
#
#
# Convention : Reuss Voigt Hill
#
# Bulk Modulus (GPa) = 40.33901 47.08968 43.71435
# Shear Modulus (GPa) = 26.55312 28.16525 27.35919
#
# Velocity S-wave (km/s) = 3.77832 3.89133 3.83524
# Velocity P-wave (km/s) = 6.38135 6.74586 6.56613
#
# Compressibility (1/GPa) = 0.02478990
#
# Stress axis : x y z
#
# Youngs Moduli (GPa) = 68.58839 47.15268 68.09456
#
# Poissons Ratio (x) = 0.17538 0.46800
# Poissons Ratio (y) = 0.25511 0.15316
# Poissons Ratio (z) = 0.47140 0.10606
#
# Static dielectric constant tensor:
#      x y z
#    x 3.390920 0.000000 -0.084990 
#    y 0.000000 3.433090 0.000000 
#    z -0.084990 0.000000 3.381320 
# 
# 
# High freq. dielectric constant tensor:
#      x y z
#    x 1.711690 0.000000 -0.013260 
#    y 0.000000 1.735640 0.000000 
#    z -0.013260 0.000000 1.713240 
# 
# From -- ./inp_files/243980.got.cif
#   From: 2010.06.25/outbox.cif.g09.slc.cpg/sg12_122_cif.got.tgz:243980.got - 2010.06.28 00:19:55.
