data_PCOD8096173
_publ_section_title
;
Structure prediction by ZEFSAII (Michael W. Deem and Ramdas Pophale) SiO2 
 PCOD8096173
Probable space group: C 2/M
;
_chemical_formula_sum "Si O2"
_cell_formula_units_Z 48
_cell_length_a 31.816724
_cell_length_b 9.024481
_cell_length_c 9.080289
_cell_angle_alpha 90.000000
_cell_angle_beta 92.477133
_cell_angle_gamma 90.000000
_cell_volume 2604.781812
_symmetry_space_group_name_H-M "C 2/M"
_symmetry_group_IT_number 12
_symmetry_cell_setting 'monoclinic'
loop_
_space_group_symop_operation_xyz
x,y,z
-x,y,-z
-x,-y,-z
x,-y,z
1/2+x,1/2+y,z
1/2-x,1/2+y,-z
1/2-x,1/2-y,-z
1/2+x,1/2-y,z
loop_
_atom_site_type_symbol
_atom_site_label
_atom_site_fract_x
_atom_site_fract_y
_atom_site_fract_z
Si Si1 0.083622 0.166631 0.828743
Si Si2 0.711953 0.167948 0.918434
Si Si3 0.873601 0.329124 0.915698
Si Si4 0.881259 0.823832 0.609113
Si Si5 0.952662 0.670671 0.440209
Si Si6 0.670484 0.663469 0.669010
O O1 0.050549 0.251532 0.719791
O O2 0.127689 0.159478 0.753459
O O3 0.067309 0.000000 0.859898
O O4 0.089175 0.257054 0.981336
O O5 0.703851 0.229162 0.752280
O O6 0.725672 0.000000 0.901824
O O7 0.750000 0.250000 0.000000
O O8 0.670797 0.186968 0.010669
O O9 0.884984 0.500000 0.887177
O O10 0.869807 0.239110 0.765354
O O11 0.923848 0.750106 0.556870
O O12 0.841708 0.782729 0.497072
O O13 0.888011 0.000000 0.615126
O O14 0.938490 0.500000 0.422818
O O15 0.000000 0.685196 0.500000
O O16 0.690790 0.500000 0.667978
#
# Coordination Sequence:
#
# PCOD8096173 Si02
#       6
#     8   8   8   8   8   8
#     4   9  17  31  52  75 100 133 171 209 249 299
#     4  10  20  33  52  76 101 132 168 207 251 299
#     4  10  20  34  53  77 104 134 169 210 255 303
#     4  10  20  34  54  78 103 134 170 210 254 300
#     4  10  20  34  53  77 105 136 169 208 253 300
#     4   8  16  31  50  72  98 129 166 205 246 297
#
# _framework density 18.427647
#
# number of rings (size 3 to 8) (size 9 to 14) (size 15 to 20)
#    0.000    2.500    0.000    3.500    0.000    8.000 
#    0.000    1.667    0.000    5.000    0.000    0.000 
#    0.000    0.000    0.000    0.000    0.000    0.000 
#
# Total GULP energy -297571.531801 kJ/mol
# GULP energy per Si atom -12398.813825 kJ/mol
# Density = 1.838570 g / cm^3
# Si number density = 18.427647 Si / 1000 Ang^3
#
#
#
# Elastic Constant Matrix: (Units=GPa)
#
#
# Indices 1 2 3 4 5 6 
#
# 1 47.8650 49.2819 28.9981 0.0000 25.6036 0.0000
# 2 49.2819 153.2937 65.8810 0.0000 26.9996 0.0000
# 3 28.9981 65.8810 126.3464 0.0000 31.9131 0.0000
# 4 0.0000 0.0000 0.0000 38.4316 0.0000 6.1312
# 5 25.6036 26.9996 31.9131 0.0000 27.4602 0.0000
# 6 0.0000 0.0000 0.0000 6.1312 0.0000 27.8666
#
#
#
# Elastic Compliance Matrix: (Units=1/GPa)
#
#
# Indices 1 2 3 4 5 6 
#
# 1 0.053372 -0.011483 0.004892 0.000000 -0.044158 0.000000
# 2 -0.011483 0.011288 -0.004461 0.000000 0.004792 0.000000
# 3 0.004892 -0.004461 0.012969 0.000000 -0.015247 0.000000
# 4 0.000000 0.000000 0.000000 0.026967 0.000000 -0.005933
# 5 -0.044158 0.004792 -0.015247 0.000000 0.090597 0.000000
# 6 0.000000 0.000000 0.000000 -0.005933 0.000000 0.037191
#
#
# Mechanical properties :
#
#
# Convention : Reuss Voigt Hill
#
# Bulk Modulus (GPa) = 18.00985 68.42524 43.21755
# Shear Modulus (GPa) = 18.31515 30.97461 24.64488
#
# Velocity S-wave (km/s) = 3.15603 4.10430 3.66100
# Velocity P-wave (km/s) = 4.80367 7.72482 6.43226
#
# Compressibility (1/GPa) = 0.05552517
#
# Stress axis : x y z
#
# Youngs Moduli (GPa) = 18.73624 88.58749 77.10477
#
# Poissons Ratio (x) = 1.01728 -0.37718
# Poissons Ratio (y) = 0.21515 0.34396
# Poissons Ratio (z) = -0.09165 0.39519
#
# Static dielectric constant tensor:
#      x y z
#    x 3.058880 0.000000 0.294290 
#    y 0.000000 3.717570 0.000000 
#    z 0.294290 0.000000 3.632480 
# 
# 
# High freq. dielectric constant tensor:
#      x y z
#    x 1.680210 0.000000 0.027670 
#    y 0.000000 1.733600 0.000000 
#    z 0.027670 0.000000 1.718800 
# 
# From -- ./inp_files/108669.got.cif
#   From: 2010.06.25/outbox.cif.g09.slc.cpg/sg12_55_cif.got.tgz:108669.got - 2010.06.28 00:19:55.
