data_PCOD8096640
_publ_section_title
;
Structure prediction by ZEFSAII (Michael W. Deem and Ramdas Pophale) SiO2 
 PCOD8096640
Probable space group: C 2/M
;
_chemical_formula_sum "Si O2"
_cell_formula_units_Z 48
_cell_length_a 18.493646
_cell_length_b 16.493444
_cell_length_c 16.588110
_cell_angle_alpha 90.000000
_cell_angle_beta 25.311458
_cell_angle_gamma 90.000000
_cell_volume 2163.247357
_symmetry_space_group_name_H-M "C 2/M"
_symmetry_group_IT_number 12
_symmetry_cell_setting 'monoclinic'
loop_
_space_group_symop_operation_xyz
x,y,z
-x,y,-z
-x,-y,-z
x,-y,z
1/2+x,1/2+y,z
1/2-x,1/2+y,-z
1/2-x,1/2-y,-z
1/2+x,1/2-y,z
loop_
_atom_site_type_symbol
_atom_site_label
_atom_site_fract_x
_atom_site_fract_y
_atom_site_fract_z
Si Si1 0.348253 0.158581 0.314192
Si Si2 0.307429 0.410412 0.678911
Si Si3 0.312462 0.909806 0.036471
Si Si4 0.477520 0.679638 0.115013
Si Si5 0.677353 0.095197 0.493376
Si Si6 0.287848 0.096145 0.885077
O O1 0.214594 0.146089 0.377072
O O2 0.446114 0.242958 0.203423
O O3 0.265055 0.148676 0.486301
O O4 0.485052 0.086440 0.172584
O O5 0.500000 0.423172 0.500000
O O6 0.223234 0.500000 0.751325
O O7 0.235813 0.364119 0.831388
O O8 0.237138 0.000000 0.120182
O O9 0.247221 0.872115 0.017538
O O10 0.314069 0.619972 0.287487
O O11 0.500000 0.705691 0.000000
O O12 0.653938 0.637928 0.961859
O O13 0.483368 0.117335 0.663624
O O14 0.694533 0.000000 0.493844
O O15 0.262968 0.000000 0.905711
#
# Coordination Sequence:
#
# PCOD8096640 Si02
#       6
#     8   8   8   8   8   8
#     4  11  22  41  60  91 130 166 205 257 320 389
#     4  10  20  33  56  92 126 166 213 257 308 374
#     4   9  18  35  60  87 119 165 211 257 314 371
#     4  12  26  42  63  96 132 170 213 261 328 384
#     4  10  23  44  70  96 123 167 220 268 318 373
#     4   9  21  42  66  91 121 165 221 271 314 372
#
# _framework density 22.188863999999999
#
# number of rings (size 3 to 8) (size 9 to 14) (size 15 to 20)
#    0.000    1.833    0.000    5.000    2.333    6.000 
#    6.000    1.667    0.000    0.000    0.000    0.000 
#    0.000    0.000    0.000    0.000    0.000    0.000 
#
# Total GULP energy -297364.165817 kJ/mol
# GULP energy per Si atom -12390.173576 kJ/mol
# Density = 2.213836 g / cm^3
# Si number density = 22.188864 Si / 1000 Ang^3
#
#
#
# Elastic Constant Matrix: (Units=GPa)
#
#
# Indices 1 2 3 4 5 6 
#
# 1 97.0756 24.7975 31.4599 -0.0149 -8.2947 0.0095
# 2 24.7975 65.7883 22.5545 -0.0226 -3.1996 0.0065
# 3 31.4599 22.5545 93.6073 -0.0216 3.5662 -0.0018
# 4 -0.0149 -0.0226 -0.0216 35.3324 0.0131 -16.4456
# 5 -8.2947 -3.1996 3.5662 0.0131 31.6124 0.0031
# 6 0.0095 0.0065 -0.0018 -16.4456 0.0031 51.6626
#
#
#
# Elastic Compliance Matrix: (Units=1/GPa)
#
#
# Indices 1 2 3 4 5 6 
#
# 1 0.012600 -0.003368 -0.003551 -0.000002 0.003366 -0.000003
# 2 -0.003368 0.017614 -0.003160 0.000008 0.001256 0.000001
# 3 -0.003551 -0.003160 0.012740 0.000007 -0.002689 0.000004
# 4 -0.000002 0.000008 0.000007 0.033225 -0.000015 0.010577
# 5 0.003366 0.001256 -0.002689 -0.000015 0.032947 -0.000008
# 6 -0.000003 0.000001 0.000004 0.010577 -0.000008 0.022723
#
#
# Mechanical properties :
#
#
# Convention : Reuss Voigt Hill
#
# Bulk Modulus (GPa) = 43.86789 46.01056 44.93922
# Shear Modulus (GPa) = 31.32682 35.56544 33.44613
#
# Velocity S-wave (km/s) = 3.76150 4.00791 3.88666
# Velocity P-wave (km/s) = 6.21919 6.49605 6.35913
#
# Compressibility (1/GPa) = 0.02279572
#
# Stress axis : x y z
#
# Youngs Moduli (GPa) = 79.36419 56.77229 78.49096
#
# Poissons Ratio (x) = 0.19122 0.27875
# Poissons Ratio (y) = 0.26731 0.24803
# Poissons Ratio (z) = 0.28185 0.17940
#
# Static dielectric constant tensor:
#      x y z
#    x 4.040290 -0.000020 0.264650 
#    y -0.000020 3.801710 0.000040 
#    z 0.264650 0.000040 4.258630 
# 
# 
# High freq. dielectric constant tensor:
#      x y z
#    x 1.867350 0.000000 0.005880 
#    y 0.000000 1.853780 0.000000 
#    z 0.005880 0.000000 1.876590 
# 
# From -- ./inp_files/226743.got.cif
#   From: 2010.06.25/outbox.cif.g09.slc.cpg/sg12_114_cif.got.tgz:226743.got - 2010.06.28 00:19:55.
