data_PCOD8096799
_publ_section_title
;
Structure prediction by ZEFSAII (Michael W. Deem and Ramdas Pophale) SiO2 
 PCOD8096799
Probable space group: C 2/M
;
_chemical_formula_sum "Si O2"
_cell_formula_units_Z 64
_cell_length_a 14.794790
_cell_length_b 9.388398
_cell_length_c 26.762372
_cell_angle_alpha 90.000000
_cell_angle_beta 71.601934
_cell_angle_gamma 90.000000
_cell_volume 3527.274382
_symmetry_space_group_name_H-M "C 2/M"
_symmetry_group_IT_number 12
_symmetry_cell_setting 'monoclinic'
loop_
_space_group_symop_operation_xyz
x,y,z
-x,y,-z
-x,-y,-z
x,-y,z
1/2+x,1/2+y,z
1/2-x,1/2+y,-z
1/2-x,1/2-y,-z
1/2+x,1/2-y,z
loop_
_atom_site_type_symbol
_atom_site_label
_atom_site_fract_x
_atom_site_fract_y
_atom_site_fract_z
Si Si1 0.620168 0.834432 0.120814
Si Si2 0.674156 0.835698 0.681447
Si Si3 0.470896 0.837628 0.759802
Si Si4 0.712908 0.831895 0.866359
Si Si5 0.801963 0.833409 0.422892
Si Si6 0.398388 0.165706 0.493088
Si Si7 0.193785 0.165228 0.251724
Si Si8 0.485120 0.168833 0.057822
O O1 0.547853 0.801158 0.178990
O O2 0.713908 0.740778 0.108682
O O3 0.572651 0.785932 0.077376
O O4 0.647922 0.000000 0.115506
O O5 0.580009 0.804252 0.729595
O O6 0.678601 0.730739 0.634398
O O7 0.761346 0.799018 0.702657
O O8 0.678186 0.000000 0.662704
O O9 0.405984 0.745965 0.734057
O O10 0.445326 0.000000 0.752692
O O11 0.735439 0.786673 0.805354
O O12 0.610190 0.771758 0.899691
O O13 0.720116 0.000000 0.872177
O O14 0.690242 0.806732 0.454157
O O15 0.875699 0.758411 0.448059
O O16 0.826053 0.000000 0.419079
O O17 0.500000 0.212726 0.500000
O O18 0.403928 0.000000 0.476635
O O19 0.171426 0.000000 0.250192
O O20 0.477482 0.000000 0.055929
O O21 0.500000 0.234522 0.000000
#
# Coordination Sequence:
#
# PCOD8096799 Si02
#       8
#     8   8   8   8   8   8   8   8
#     4   9  17  31  50  70  93 123 162 203 241 288
#     4  10  20  34  51  71 101 136 164 196 242 293
#     4   9  18  32  50  71  95 128 166 200 239 291
#     4   9  17  31  50  70  94 125 162 202 244 291
#     4  10  21  35  53  80 107 130 164 207 246 284
#     4   9  19  38  60  77  99 135 172 203 240 288
#     4   9  18  32  50  72  97 128 165 203 243 289
#     4   9  17  29  47  70  94 124 162 200 242 297
#
# _framework density 18.144321000000001
#
# number of rings (size 3 to 8) (size 9 to 14) (size 15 to 20)
#    0.000    2.750    0.000    1.125    0.000    6.250 
#    0.000    4.375    0.000    6.750    0.000    0.000 
#    0.000    0.000    0.000    0.000    0.000    0.000 
#
# Total GULP energy -396758.265278 kJ/mol
# GULP energy per Si atom -12398.695790 kJ/mol
# Density = 1.810302 g / cm^3
# Si number density = 18.144321 Si / 1000 Ang^3
#
#
#
# Elastic Constant Matrix: (Units=GPa)
#
#
# Indices 1 2 3 4 5 6 
#
# 1 87.6120 30.1635 22.7693 0.0000 19.3445 0.0000
# 2 30.1635 42.5184 25.5557 0.0000 12.3540 0.0000
# 3 22.7693 25.5557 60.4784 0.0000 22.8208 0.0000
# 4 0.0000 0.0000 0.0000 21.5102 0.0000 2.5668
# 5 19.3445 12.3540 22.8208 0.0000 24.7917 0.0000
# 6 0.0000 0.0000 0.0000 2.5668 0.0000 31.3846
#
#
#
# Elastic Compliance Matrix: (Units=1/GPa)
#
#
# Indices 1 2 3 4 5 6 
#
# 1 0.016485 -0.009881 0.001478 0.000000 -0.009300 0.000000
# 2 -0.009881 0.037907 -0.012379 0.000000 0.000216 0.000000
# 3 0.001478 -0.012379 0.029597 0.000000 -0.022229 0.000000
# 4 0.000000 0.000000 0.000000 0.046948 0.000000 -0.003840
# 5 -0.009300 0.000216 -0.022229 0.000000 0.067947 0.000000
# 6 0.000000 0.000000 0.000000 -0.003840 0.000000 0.032177
#
#
# Mechanical properties :
#
#
# Convention : Reuss Voigt Hill
#
# Bulk Modulus (GPa) = 23.57118 38.62064 31.09591
# Shear Modulus (GPa) = 17.43576 23.01198 20.22387
#
# Velocity S-wave (km/s) = 3.10328 3.56515 3.34220
# Velocity P-wave (km/s) = 5.08523 6.18696 5.66295
#
# Compressibility (1/GPa) = 0.04242469
#
# Stress axis : x y z
#
# Youngs Moduli (GPa) = 60.66062 26.38028 33.78710
#
# Poissons Ratio (x) = 0.26067 -0.04994
# Poissons Ratio (y) = 0.59940 0.41826
# Poissons Ratio (z) = -0.08967 0.32657
#
# Static dielectric constant tensor:
#      x y z
#    x 3.442570 0.000000 0.014190 
#    y 0.000000 3.194930 0.000000 
#    z 0.014190 0.000000 3.400120 
# 
# 
# High freq. dielectric constant tensor:
#      x y z
#    x 1.708190 0.000000 0.003290 
#    y 0.000000 1.684970 0.000000 
#    z 0.003290 0.000000 1.700070 
# 
# From -- ./inp_files/335176.got.cif
#   From: 2010.06.25/outbox.cif.g09.slc.cpg/sg12_168_cif.got.tgz:335176.got - 2010.06.28 00:19:55.
