data_PCOD8096757
_publ_section_title
;
Structure prediction by ZEFSAII (Michael W. Deem and Ramdas Pophale) SiO2 
 PCOD8096757
Probable space group: C 2/M
;
_chemical_formula_sum "Si O2"
_cell_formula_units_Z 64
_cell_length_a 24.265785
_cell_length_b 9.072469
_cell_length_c 21.341463
_cell_angle_alpha 90.000000
_cell_angle_beta 46.895147
_cell_angle_gamma 90.000000
_cell_volume 3430.275425
_symmetry_space_group_name_H-M "C 2/M"
_symmetry_group_IT_number 12
_symmetry_cell_setting 'monoclinic'
loop_
_space_group_symop_operation_xyz
x,y,z
-x,y,-z
-x,-y,-z
x,-y,z
1/2+x,1/2+y,z
1/2-x,1/2+y,-z
1/2-x,1/2-y,-z
1/2+x,1/2-y,z
loop_
_atom_site_type_symbol
_atom_site_label
_atom_site_fract_x
_atom_site_fract_y
_atom_site_fract_z
Si Si1 0.184231 0.671389 0.235707
Si Si2 0.963659 0.833802 0.796553
Si Si3 0.535370 0.335239 0.347795
Si Si4 0.623629 0.333837 0.486913
Si Si5 0.671904 0.828485 0.563983
Si Si6 0.243121 0.671930 0.711753
Si Si7 0.186637 0.671430 0.088961
Si Si8 0.379927 0.329579 0.275833
O O1 0.191385 0.500000 0.245633
O O2 0.099755 0.722197 0.319013
O O3 0.246349 0.758773 0.227956
O O4 0.201209 0.707661 0.150394
O O5 0.991955 0.801146 0.702750
O O6 0.895927 0.725856 0.867811
O O7 0.028802 0.817068 0.799798
O O8 0.932396 0.000000 0.823253
O O9 0.570058 0.500000 0.323907
O O10 0.467010 0.325839 0.451982
O O11 0.643678 0.500000 0.496279
O O12 0.633959 0.201547 0.527359
O O13 0.677601 0.299488 0.386175
O O14 0.750000 0.750000 0.500000
O O15 0.627666 0.752205 0.653232
O O16 0.679715 0.000000 0.571861
O O17 0.224830 0.500000 0.730943
O O18 0.169728 0.748663 0.738105
O O19 0.190731 0.500000 0.071874
O O20 0.250000 0.750000 0.000000
O O21 0.354001 0.500000 0.298896
#
# Coordination Sequence:
#
# PCOD8096757 Si02
#       8
#     8   8   8   8   8   8   8   8
#     4  10  22  39  56  79 111 144 181 225 274 331
#     4   9  18  33  56  84 114 145 177 220 277 329
#     4   9  17  33  54  75 104 143 187 234 280 324
#     4  10  20  34  50  73 104 143 194 241 284 324
#     4  12  22  31  47  71 103 144 192 244 287 322
#     4  11  23  36  53  76 107 153 197 233 274 325
#     4  10  21  38  64  93 116 139 171 216 271 330
#     4  11  21  35  54  78 110 148 188 233 279 325
#
# _framework density 18.657394
#
# number of rings (size 3 to 8) (size 9 to 14) (size 15 to 20)
#    0.000    1.750    2.500    2.625    0.000    4.000 
#    0.000    2.500    0.000    0.750    0.000    5.250 
#    0.000    0.000    0.000    0.000    0.000    0.000 
#
# Total GULP energy -396511.106666 kJ/mol
# GULP energy per Si atom -12390.972083 kJ/mol
# Density = 1.861493 g / cm^3
# Si number density = 18.657394 Si / 1000 Ang^3
#
#
#
# Elastic Constant Matrix: (Units=GPa)
#
#
# Indices 1 2 3 4 5 6 
#
# 1 107.9112 66.3920 38.6684 -0.0006 1.7032 0.0004
# 2 66.3920 126.9655 50.5571 -0.0014 -2.6762 0.0012
# 3 38.6684 50.5571 72.8234 -0.0011 -11.5922 0.0010
# 4 -0.0006 -0.0014 -0.0011 24.5403 0.0010 -2.5757
# 5 1.7032 -2.6762 -11.5922 0.0010 16.7889 -0.0006
# 6 0.0004 0.0012 0.0010 -2.5757 -0.0006 35.2201
#
#
#
# Elastic Compliance Matrix: (Units=1/GPa)
#
#
# Indices 1 2 3 4 5 6 
#
# 1 0.014652 -0.005982 -0.004511 0.000000 -0.005554 0.000000
# 2 -0.005982 0.013562 -0.006514 0.000000 -0.001729 0.000000
# 3 -0.004511 -0.006514 0.023095 0.000000 0.015366 0.000000
# 4 0.000000 0.000000 0.000000 0.041064 -0.000002 0.003003
# 5 -0.005554 -0.001729 0.015366 -0.000002 0.070460 0.000001
# 6 0.000000 0.000000 0.000000 0.003003 0.000001 0.028613
#
#
# Mechanical properties :
#
#
# Convention : Reuss Voigt Hill
#
# Bulk Modulus (GPa) = 57.82168 68.77058 63.29613
# Shear Modulus (GPa) = 21.62403 25.44871 23.53637
#
# Velocity S-wave (km/s) = 3.40811 3.69725 3.55562
# Velocity P-wave (km/s) = 6.82243 7.42737 7.13132
#
# Compressibility (1/GPa) = 0.01729455
#
# Stress axis : x y z
#
# Youngs Moduli (GPa) = 68.25213 73.73679 43.29937
#
# Poissons Ratio (x) = 0.44112 0.19531
# Poissons Ratio (y) = 0.40831 0.28204
# Poissons Ratio (z) = 0.30787 0.48030
#
# Static dielectric constant tensor:
#      x y z
#    x 3.451170 0.000000 -0.082690 
#    y 0.000000 3.405820 0.000000 
#    z -0.082690 0.000000 3.153600 
# 
# 
# High freq. dielectric constant tensor:
#      x y z
#    x 1.722720 0.000000 -0.011720 
#    y 0.000000 1.735360 0.000000 
#    z -0.011720 0.000000 1.686310 
# 
# From -- ./inp_files/324182.got.cif
#   From: 2010.06.25/outbox.cif.g09.slc.cpg/sg12_163_cif.got.tgz:324182.got - 2010.06.28 00:19:55.
