data_PCOD8096159
_publ_section_title
;
Structure prediction by ZEFSAII (Michael W. Deem and Ramdas Pophale) SiO2 
 PCOD8096159
Probable space group: C 2/M
;
_chemical_formula_sum "Si O2"
_cell_formula_units_Z 56
_cell_length_a 13.358524
_cell_length_b 33.002295
_cell_length_c 9.289350
_cell_angle_alpha 90.000000
_cell_angle_beta 129.012200
_cell_angle_gamma 90.000000
_cell_volume 3182.113289
_symmetry_space_group_name_H-M "C 2/M"
_symmetry_group_IT_number 12
_symmetry_cell_setting 'monoclinic'
loop_
_space_group_symop_operation_xyz
x,y,z
-x,y,-z
-x,-y,-z
x,-y,z
1/2+x,1/2+y,z
1/2-x,1/2+y,-z
1/2-x,1/2-y,-z
1/2+x,1/2-y,z
loop_
_atom_site_type_symbol
_atom_site_label
_atom_site_fract_x
_atom_site_fract_y
_atom_site_fract_z
Si Si1 0.115573 0.952732 0.213921
Si Si2 0.768253 0.853441 0.007559
Si Si3 0.352269 0.099941 0.355252
Si Si4 0.480129 0.608088 0.649689
Si Si5 0.349951 0.806154 0.851464
Si Si6 0.258155 0.335357 0.536102
Si Si7 0.151771 0.216556 0.124930
O O1 0.251949 0.937294 0.273977
O O2 0.084272 0.931337 0.337006
O O3 0.128176 0.000000 0.255289
O O4 0.000000 0.942456 0.000000
O O5 0.668776 0.877396 0.815819
O O6 0.808941 0.811288 0.972561
O O7 0.704540 0.842464 0.101415
O O8 0.888046 0.882606 0.147527
O O9 0.500000 0.084404 0.500000
O O10 0.326344 0.130154 0.463805
O O11 0.500000 0.598862 0.500000
O O12 0.388932 0.646793 0.587519
O O13 0.322997 0.814782 0.661472
O O14 0.293898 0.762154 0.847407
O O15 0.500000 0.805173 0.000000
O O16 0.289378 0.300130 0.675255
O O17 0.000000 0.216520 0.000000
#
# Coordination Sequence:
#
# PCOD8096159 Si02
#       7
#     8   8   8   8   8   8   8
#     4  10  21  38  62  91 115 140 180 225 273 332
#     4  11  20  35  55  78 107 141 191 231 268 334
#     4  10  21  36  59  84 111 148 179 220 275 328
#     4  11  20  35  60  85 105 148 181 228 277 326
#     4  11  22  34  48  74 108 148 183 235 287 326
#     4  10  20  34  54  76 106 139 195 227 270 333
#     4  10  20  33  52  73 105 142 187 239 289 317
#
# _framework density 17.598368000000001
#
# number of rings (size 3 to 8) (size 9 to 14) (size 15 to 20)
#    0.000    1.571    4.286    1.714    0.000    0.571 
#    0.000    0.000    3.143    0.000    0.000    1.000 
#    0.000    0.000    0.000    0.000    0.000    0.000 
#
# Total GULP energy -347223.391530 kJ/mol
# GULP energy per Si atom -12400.835412 kJ/mol
# Density = 1.755831 g / cm^3
# Si number density = 17.598368 Si / 1000 Ang^3
#
#
#
# Elastic Constant Matrix: (Units=GPa)
#
#
# Indices 1 2 3 4 5 6 
#
# 1 81.3437 33.8852 40.8458 0.0000 4.9447 0.0000
# 2 33.8852 85.8207 34.0081 0.0000 7.6418 0.0000
# 3 40.8458 34.0081 103.6804 0.0000 3.9840 0.0000
# 4 0.0000 0.0000 0.0000 36.0059 0.0000 1.3573
# 5 4.9447 7.6418 3.9840 0.0000 33.6249 0.0000
# 6 0.0000 0.0000 0.0000 1.3573 0.0000 20.8281
#
#
#
# Elastic Compliance Matrix: (Units=1/GPa)
#
#
# Indices 1 2 3 4 5 6 
#
# 1 0.016793 -0.004537 -0.005095 0.000000 -0.000835 0.000000
# 2 -0.004537 0.014837 -0.002989 0.000000 -0.002351 0.000000
# 3 -0.005095 -0.002989 0.012635 0.000000 -0.000068 0.000000
# 4 0.000000 0.000000 0.000000 0.027842 0.000000 -0.001814
# 5 -0.000835 -0.002351 -0.000068 0.000000 0.030405 0.000000
# 6 0.000000 0.000000 0.000000 -0.001814 0.000000 0.048130
#
#
# Mechanical properties :
#
#
# Convention : Reuss Voigt Hill
#
# Bulk Modulus (GPa) = 52.56871 54.25810 53.41340
# Shear Modulus (GPa) = 27.43838 28.89882 28.16860
#
# Velocity S-wave (km/s) = 3.95288 4.05672 4.00514
# Velocity P-wave (km/s) = 7.12530 7.26917 7.19760
#
# Compressibility (1/GPa) = 0.01902272
#
# Stress axis : x y z
#
# Youngs Moduli (GPa) = 59.54926 67.39743 79.14213
#
# Poissons Ratio (x) = 0.30578 0.40326
# Poissons Ratio (y) = 0.27017 0.23656
# Poissons Ratio (z) = 0.30343 0.20146
#
# Static dielectric constant tensor:
#      x y z
#    x 3.315050 0.000000 -0.112690 
#    y 0.000000 3.211270 0.000000 
#    z -0.112690 0.000000 3.346760 
# 
# 
# High freq. dielectric constant tensor:
#      x y z
#    x 1.678120 0.000000 -0.002210 
#    y 0.000000 1.669000 0.000000 
#    z -0.002210 0.000000 1.690410 
# 
# From -- ./inp_files/54835.got.cif
#   From: 2010.06.25/outbox.cif.g09.slc.cpg/sg12_28_cif.got.tgz:54835.got - 2010.06.28 00:19:55.
