data_PCOD8096048
_publ_section_title
;
Structure prediction by ZEFSAII (Michael W. Deem and Ramdas Pophale) SiO2 
 PCOD8096048
Probable space group: C 2/M
;
_chemical_formula_sum "Si O2"
_cell_formula_units_Z 48
_cell_length_a 19.439118
_cell_length_b 9.036426
_cell_length_c 24.537987
_cell_angle_alpha 90.000000
_cell_angle_beta 38.254038
_cell_angle_gamma 90.000000
_cell_volume 2668.747998
_symmetry_space_group_name_H-M "C 2/M"
_symmetry_group_IT_number 12
_symmetry_cell_setting 'monoclinic'
loop_
_space_group_symop_operation_xyz
x,y,z
-x,y,-z
-x,-y,-z
x,-y,z
1/2+x,1/2+y,z
1/2-x,1/2+y,-z
1/2-x,1/2-y,-z
1/2+x,1/2-y,z
loop_
_atom_site_type_symbol
_atom_site_label
_atom_site_fract_x
_atom_site_fract_y
_atom_site_fract_z
Si Si1 0.411874 0.836525 0.920753
Si Si2 0.439313 0.325263 0.736939
Si Si3 0.973804 0.331132 0.604643
Si Si4 0.679552 0.168436 0.401415
Si Si5 0.755991 0.335798 0.913305
Si Si6 0.907096 0.325210 0.272409
O O1 0.326093 0.842547 0.924548
O O2 0.528961 0.778883 0.823281
O O3 0.425833 0.000000 0.937317
O O4 0.365822 0.730732 0.997116
O O5 0.440382 0.500000 0.743876
O O6 0.458394 0.284225 0.662551
O O7 0.319054 0.264577 0.830005
O O8 0.539203 0.256317 0.709570
O O9 0.965050 0.500000 0.631350
O O10 0.878798 0.299286 0.619621
O O11 0.094005 0.303869 0.503561
O O12 0.779653 0.281770 0.346345
O O13 0.723586 0.000000 0.375858
O O14 0.739508 0.500000 0.899230
O O15 0.919460 0.500000 0.274493
#
# Coordination Sequence:
#
# PCOD8096048 Si02
#       6
#     8   8   8   8   8   8
#     4   8  15  27  43  67  98 131 164 198 241 293
#     4  11  21  32  50  76 104 134 169 208 249 294
#     4   9  19  37  56  74  99 131 167 206 251 302
#     4   9  19  36  57  76  97 130 168 206 250 303
#     4   9  16  27  45  69  98 131 164 202 247 293
#     4  10  20  33  51  76 106 135 165 207 252 293
#
# _framework density 17.985961
#
# number of rings (size 3 to 8) (size 9 to 14) (size 15 to 20)
#    0.000    2.667    0.000    4.500    0.000    6.667 
#    0.000    1.667    0.000    1.000    0.000    7.000 
#    0.000    0.000    0.000    0.000    0.000    0.000 
#
# Total GULP energy -297559.591658 kJ/mol
# GULP energy per Si atom -12398.316319 kJ/mol
# Density = 1.794502 g / cm^3
# Si number density = 17.985961 Si / 1000 Ang^3
#
#
#
# Elastic Constant Matrix: (Units=GPa)
#
#
# Indices 1 2 3 4 5 6 
#
# 1 44.6366 40.2414 49.4197 0.0000 5.6078 0.0000
# 2 40.2414 123.4612 66.0462 0.0000 3.6601 0.0001
# 3 49.4197 66.0462 117.5503 0.0000 2.0165 0.0000
# 4 0.0000 0.0000 0.0000 36.2213 0.0000 -1.3645
# 5 5.6078 3.6601 2.0165 0.0000 -5.5713 0.0000
# 6 0.0000 0.0001 0.0000 -1.3645 0.0000 24.9752
#
#
#
# Elastic Compliance Matrix: (Units=1/GPa)
#
#
# Indices 1 2 3 4 5 6 
#
# 1 0.039280 -0.006564 -0.013347 0.000000 0.030394 0.000000
# 2 -0.006564 0.012527 -0.004280 0.000000 0.000073 0.000000
# 3 -0.013347 -0.004280 0.016698 0.000000 -0.010202 0.000000
# 4 0.000000 0.000000 0.000000 0.027665 0.000000 0.001511
# 5 0.030394 0.000073 -0.010202 0.000000 -0.152543 0.000000
# 6 0.000000 0.000000 0.000000 0.001511 0.000000 0.040122
#
#
# Mechanical properties :
#
#
# Convention : Reuss Voigt Hill
#
# Bulk Modulus (GPa) = 49.69569 66.34030 58.01800
# Shear Modulus (GPa) = 128.74217 19.78776 74.26496
#
# Velocity S-wave (km/s) = 8.46963 3.32049 6.43274
# Velocity P-wave (km/s) = 11.10569 7.18787 9.35419
#
# Compressibility (1/GPa) = 0.02012247
#
# Stress axis : x y z
#
# Youngs Moduli (GPa) = 25.45854 79.83076 59.88770
#
# Poissons Ratio (x) = 0.52400 0.79933
# Poissons Ratio (y) = 0.16711 0.25631
# Poissons Ratio (z) = 0.33980 0.34166
#
# Static dielectric constant tensor:
#      x y z
#    x 2.875340 0.000000 -0.089430 
#    y 0.000000 3.396540 0.000000 
#    z -0.089430 0.000000 3.525480 
# 
# 
# High freq. dielectric constant tensor:
#      x y z
#    x 1.649900 0.000000 -0.005270 
#    y 0.000000 1.701980 0.000000 
#    z -0.005270 0.000000 1.708910 
# 
# From -- ./inp_files/345408.got.cif
#   From: 2010.06.25/outbox.cif.g09.slc.cpg/sg12_173_cif.got.tgz:345408.got - 2010.06.28 00:19:55.
