data_PCOD8096399
_publ_section_title
;
Structure prediction by ZEFSAII (Michael W. Deem and Ramdas Pophale) SiO2 
 PCOD8096399
Probable space group: C 2/M
;
_chemical_formula_sum "Si O2"
_cell_formula_units_Z 40
_cell_length_a 20.900167
_cell_length_b 12.962633
_cell_length_c 24.699673
_cell_angle_alpha 90.000000
_cell_angle_beta 162.261580
_cell_angle_gamma 90.000000
_cell_volume 2038.761627
_symmetry_space_group_name_H-M "C 2/M"
_symmetry_group_IT_number 12
_symmetry_cell_setting 'monoclinic'
loop_
_space_group_symop_operation_xyz
x,y,z
-x,y,-z
-x,-y,-z
x,-y,z
1/2+x,1/2+y,z
1/2-x,1/2+y,-z
1/2-x,1/2-y,-z
1/2+x,1/2-y,z
loop_
_atom_site_type_symbol
_atom_site_label
_atom_site_fract_x
_atom_site_fract_y
_atom_site_fract_z
Si Si1 0.986925 0.297523 0.251283
Si Si2 0.291429 0.207459 0.354086
Si Si3 0.432742 0.384271 0.123280
Si Si4 0.292708 0.116372 0.801046
Si Si5 0.071857 0.804563 0.427124
O O1 0.969260 0.192670 0.202222
O O2 0.959396 0.266246 0.291582
O O3 0.213743 0.353788 0.425190
O O4 0.805993 0.377036 0.089887
O O5 0.500000 0.148517 0.500000
O O6 0.245444 0.308569 0.280476
O O7 0.349688 0.233614 0.461731
O O8 0.083684 0.137717 0.192606
O O9 0.472177 0.500000 0.176090
O O10 0.097350 0.114857 0.685715
O O11 0.319924 0.000000 0.800432
O O12 0.500000 0.152645 0.000000
#
# Coordination Sequence:
#
# PCOD8096399 Si02
#       5
#     8   8   8   8   8
#     4   9  19  36  54  77 106 136 171 213 258 303
#     4   9  19  35  54  76 105 137 172 214 254 301
#     4  10  20  35  55  77 103 136 174 213 256 308
#     4  10  20  33  53  80 107 137 172 211 259 309
#     4   9  18  34  54  74 107 140 166 208 258 304
#
# _framework density 19.619755000000001
#
# number of rings (size 3 to 8) (size 9 to 14) (size 15 to 20)
#    0.000    2.600    0.000    1.200    0.000    5.600 
#    0.000   20.000    0.000   11.400    0.000    0.000 
#    0.000    0.000    0.000    0.000    0.000    0.000 
#
# Total GULP energy -247780.303422 kJ/mol
# GULP energy per Si atom -12389.015171 kJ/mol
# Density = 1.957510 g / cm^3
# Si number density = 19.619755 Si / 1000 Ang^3
#
#
#
# Elastic Constant Matrix: (Units=GPa)
#
#
# Indices 1 2 3 4 5 6 
#
# 1 95.7359 29.0034 39.7785 0.0084 -1.6319 -0.0010
# 2 29.0034 74.3503 26.0028 0.0813 6.6777 0.0237
# 3 39.7785 26.0028 109.9620 0.1642 9.3231 0.0938
# 4 0.0084 0.0813 0.1642 10.0474 0.0300 -0.6288
# 5 -1.6319 6.6777 9.3231 0.0300 39.6528 0.0007
# 6 -0.0010 0.0237 0.0938 -0.6288 0.0007 19.4972
#
#
#
# Elastic Compliance Matrix: (Units=1/GPa)
#
#
# Indices 1 2 3 4 5 6 
#
# 1 0.013389 -0.003990 -0.004085 0.000083 0.002183 0.000028
# 2 -0.003990 0.015963 -0.002132 -0.000085 -0.002351 -0.000012
# 3 -0.004085 -0.002132 0.011285 -0.000160 -0.002462 -0.000057
# 4 0.000083 -0.000085 -0.000160 0.099732 -0.000020 0.003218
# 5 0.002183 -0.002351 -0.002462 -0.000020 0.026284 0.000013
# 6 0.000028 -0.000012 -0.000057 0.003218 0.000013 0.051393
#
#
# Mechanical properties :
#
#
# Convention : Reuss Voigt Hill
#
# Bulk Modulus (GPa) = 49.44974 52.17974 50.81474
# Shear Modulus (GPa) = 20.39133 26.19039 23.29086
#
# Velocity S-wave (km/s) = 3.22736 3.65759 3.44919
# Velocity P-wave (km/s) = 6.25672 6.67012 6.46673
#
# Compressibility (1/GPa) = 0.02022255
#
# Stress axis : x y z
#
# Youngs Moduli (GPa) = 74.68892 62.64364 88.61326
#
# Poissons Ratio (x) = 0.24997 0.36199
# Poissons Ratio (y) = 0.29804 0.18891
# Poissons Ratio (z) = 0.30511 0.13355
#
# Static dielectric constant tensor:
#      x y z
#    x 3.995260 -0.000060 0.500130 
#    y -0.000060 3.035590 -0.000270 
#    z 0.500130 -0.000270 4.119880 
# 
# 
# High freq. dielectric constant tensor:
#      x y z
#    x 1.772520 -0.000010 0.012580 
#    y -0.000010 1.713220 -0.000020 
#    z 0.012580 -0.000020 1.789710 
# 
# From -- ./inp_files/83477.got.cif
#   From: 2010.06.25/outbox.cif.g09.slc.cpg/sg12_42_cif.got.tgz:83477.got - 2010.06.28 00:19:55.
