data_PCOD8096890
_publ_section_title
;
Structure prediction by ZEFSAII (Michael W. Deem and Ramdas Pophale) SiO2 
 PCOD8096890
Probable space group: C 2/M
;
_chemical_formula_sum "Si O2"
_cell_formula_units_Z 44
_cell_length_a 9.269092
_cell_length_b 24.746660
_cell_length_c 12.478786
_cell_angle_alpha 90.000000
_cell_angle_beta 121.767124
_cell_angle_gamma 90.000000
_cell_volume 2433.574386
_symmetry_space_group_name_H-M "C 2/M"
_symmetry_group_IT_number 12
_symmetry_cell_setting 'monoclinic'
loop_
_space_group_symop_operation_xyz
x,y,z
-x,y,-z
-x,-y,-z
x,-y,z
1/2+x,1/2+y,z
1/2-x,1/2+y,-z
1/2-x,1/2-y,-z
1/2+x,1/2-y,z
loop_
_atom_site_type_symbol
_atom_site_label
_atom_site_fract_x
_atom_site_fract_y
_atom_site_fract_z
Si Si1 0.137356 0.500000 0.145586
Si Si2 0.975238 0.700649 0.662513
Si Si3 0.782429 0.801161 0.636056
Si Si4 0.573151 0.916684 0.302655
Si Si5 0.376634 0.000000 0.349762
Si Si6 0.898010 0.103062 0.557830
Si Si7 0.995770 0.000000 0.704951
O O1 0.117893 0.445945 0.209423
O O2 0.323710 0.500000 0.161446
O O3 0.000000 0.500000 0.000000
O O4 0.924828 0.754566 0.707682
O O5 0.841031 0.702309 0.513913
O O6 0.958245 0.647217 0.729663
O O7 0.169069 0.700903 0.698282
O O8 0.880666 0.857446 0.653864
O O9 0.720134 0.921180 0.448990
O O10 0.411936 0.946160 0.293842
O O11 0.500000 0.000000 0.500000
O O12 0.175315 0.000000 0.292502
O O13 0.000000 0.132696 0.500000
O O14 0.009666 0.052476 0.636192
#
# Coordination Sequence:
#
# PCOD8096890 Si02
#       7
#     4   8   8   8   4   8   4
#     4  11  24  40  54  74 101 143 191 230 262 303
#     4   9  18  30  43  69 105 144 170 199 254 310
#     4   9  19  27  44  71 109 141 168 200 248 326
#     4  10  20  34  51  74 109 140 169 217 269 318
#     4  11  19  29  50  80 108 135 167 208 269 337
#     4  11  19  28  49  78 110 134 175 210 266 324
#     4  12  20  32  52  79 103 136 172 220 267 324
#
# _framework density 18.080401999999999
#
# number of rings (size 3 to 8) (size 9 to 14) (size 15 to 20)
#    0.000    1.818    3.636    1.909   10.182    0.000 
#    0.000    1.818    0.000    0.000    0.000    5.091 
#    0.000    0.000    0.000    0.000    0.000    0.000 
#
# Total GULP energy -272581.071432 kJ/mol
# GULP energy per Si atom -12390.048701 kJ/mol
# Density = 1.803925 g / cm^3
# Si number density = 18.080402 Si / 1000 Ang^3
#
#
#
# Elastic Constant Matrix: (Units=GPa)
#
#
# Indices 1 2 3 4 5 6 
#
# 1 141.6637 56.9954 29.2754 0.0000 15.7744 0.0000
# 2 56.9954 147.7658 33.1696 0.0000 2.6420 0.0000
# 3 29.2754 33.1696 49.1591 0.0000 11.8882 0.0000
# 4 0.0000 0.0000 0.0000 6.0132 0.0000 -1.9514
# 5 15.7744 2.6420 11.8882 0.0000 13.9707 0.0000
# 6 0.0000 0.0000 0.0000 -1.9514 0.0000 28.5727
#
#
#
# Elastic Compliance Matrix: (Units=1/GPa)
#
#
# Indices 1 2 3 4 5 6 
#
# 1 0.009670 -0.003265 -0.001340 0.000000 -0.009160 0.000000
# 2 -0.003265 0.009247 -0.005998 0.000000 0.007042 0.000000
# 3 -0.001340 -0.005998 0.030907 0.000000 -0.023653 0.000000
# 4 0.000000 0.000000 0.000000 0.170069 0.000000 0.011615
# 5 -0.009160 0.007042 -0.023653 0.000000 0.100716 0.000000
# 6 0.000000 0.000000 0.000000 0.011615 0.000000 0.035792
#
#
# Mechanical properties :
#
#
# Convention : Reuss Voigt Hill
#
# Bulk Modulus (GPa) = 34.94355 64.16326 49.55340
# Shear Modulus (GPa) = 12.91499 24.32120 18.61809
#
# Velocity S-wave (km/s) = 2.67555 3.67163 3.21244
# Velocity P-wave (km/s) = 5.37713 7.31706 6.42078
#
# Compressibility (1/GPa) = 0.02861759
#
# Stress axis : x y z
#
# Youngs Moduli (GPa) = 103.41758 108.13907 32.35479
#
# Poissons Ratio (x) = 0.35308 0.04336
# Poissons Ratio (y) = 0.33767 0.19407
# Poissons Ratio (z) = 0.13860 0.64862
#
# Static dielectric constant tensor:
#      x y z
#    x 3.536200 0.000000 0.113030 
#    y 0.000000 3.616190 0.000000 
#    z 0.113030 0.000000 2.567570 
# 
# 
# High freq. dielectric constant tensor:
#      x y z
#    x 1.722040 0.000000 0.011750 
#    y 0.000000 1.716470 0.000000 
#    z 0.011750 0.000000 1.598420 
# 
# From -- ./inp_files/199180.got.cif
#   From: 2010.06.25/outbox.cif.g09.slc.cpg/sg12_100_cif.got.tgz:199180.got - 2010.06.28 00:19:55.
