data_PCOD8096838
_publ_section_title
;
Structure prediction by ZEFSAII (Michael W. Deem and Ramdas Pophale) SiO2 
 PCOD8096838
Probable space group: C 2/M
;
_chemical_formula_sum "Si O2"
_cell_formula_units_Z 64
_cell_length_a 28.302586
_cell_length_b 8.887220
_cell_length_c 20.823304
_cell_angle_alpha 90.000000
_cell_angle_beta 47.863346
_cell_angle_gamma 90.000000
_cell_volume 3884.009214
_symmetry_space_group_name_H-M "C 2/M"
_symmetry_group_IT_number 12
_symmetry_cell_setting 'monoclinic'
loop_
_space_group_symop_operation_xyz
x,y,z
-x,y,-z
-x,-y,-z
x,-y,z
1/2+x,1/2+y,z
1/2-x,1/2+y,-z
1/2-x,1/2-y,-z
1/2+x,1/2-y,z
loop_
_atom_site_type_symbol
_atom_site_label
_atom_site_fract_x
_atom_site_fract_y
_atom_site_fract_z
Si Si1 0.357028 0.821796 0.181133
Si Si2 0.397125 0.673729 0.600135
Si Si3 0.774787 0.323052 0.668621
Si Si4 0.558663 0.823143 0.669018
Si Si5 0.800757 0.677088 0.500198
Si Si6 0.540993 0.676942 0.819957
Si Si7 0.051385 0.334755 0.008700
Si Si8 0.504255 0.326142 0.600005
O O1 0.285985 0.761560 0.248235
O O2 0.398672 0.750147 0.199930
O O3 0.384241 0.778037 0.085474
O O4 0.358863 0.000000 0.189712
O O5 0.376823 0.500000 0.613219
O O6 0.334877 0.777807 0.657483
O O7 0.441258 0.719680 0.500100
O O8 0.435273 0.702595 0.631305
O O9 0.763398 0.500000 0.682981
O O10 0.787401 0.267942 0.584561
O O11 0.629200 0.770163 0.584500
O O12 0.537635 0.734194 0.750847
O O13 0.509963 0.778916 0.656959
O O14 0.555130 0.000000 0.685324
O O15 0.793859 0.500000 0.501220
O O16 0.750000 0.750000 0.500000
O O17 0.549999 0.500000 0.813410
O O18 0.473606 0.719330 0.914880
O O19 0.061531 0.500000 0.031030
O O20 0.000000 0.349651 0.000000
O O21 0.511661 0.500000 0.613092
#
# Coordination Sequence:
#
# PCOD8096838 Si02
#       8
#     8   8   8   8   8   8   8   8
#     4  10  20  34  51  72  99 133 168 202 246 294
#     4   9  18  33  52  72  96 127 162 204 253 296
#     4  11  21  33  48  72 100 129 169 206 243 289
#     4  11  21  34  49  69  98 133 169 202 246 293
#     4  10  22  34  44  63  93 131 168 200 234 279
#     4  11  21  32  49  74 101 130 166 206 247 290
#     4   8  16  32  51  70  95 127 163 202 245 293
#     4   9  18  33  52  73  95 124 165 208 249 292
#
# _framework density 16.477819
#
# number of rings (size 3 to 8) (size 9 to 14) (size 15 to 20)
#    0.000    2.125    1.250    4.500    0.000    7.250 
#    0.000    1.250    0.000    0.000    0.000    0.875 
#    0.000    0.000    0.000    0.000    0.000    0.000 
#
# Total GULP energy -396817.320270 kJ/mol
# GULP energy per Si atom -12400.541258 kJ/mol
# Density = 1.644031 g / cm^3
# Si number density = 16.477819 Si / 1000 Ang^3
#
#
#
# Elastic Constant Matrix: (Units=GPa)
#
#
# Indices 1 2 3 4 5 6 
#
# 1 90.0029 38.3818 48.5508 0.0061 -2.1361 -0.0025
# 2 38.3818 77.9613 49.1757 0.0065 -0.6696 -0.0056
# 3 48.5508 49.1757 114.8899 -0.0016 -5.1110 -0.0014
# 4 0.0061 0.0065 -0.0016 24.7097 -0.0051 0.5341
# 5 -2.1361 -0.6696 -5.1110 -0.0051 11.4407 0.0081
# 6 -0.0025 -0.0056 -0.0014 0.5341 0.0081 29.5886
#
#
#
# Elastic Compliance Matrix: (Units=1/GPa)
#
#
# Indices 1 2 3 4 5 6 
#
# 1 0.015619 -0.004847 -0.004498 -0.000003 0.000623 0.000000
# 2 -0.004847 0.019138 -0.006258 -0.000005 -0.002581 0.000004
# 3 -0.004498 -0.006258 0.013498 0.000005 0.004824 -0.000002
# 4 -0.000003 -0.000005 0.000005 0.040486 0.000020 -0.000731
# 5 0.000623 -0.002581 0.004824 0.000020 0.089528 -0.000025
# 6 0.000000 0.000004 -0.000002 -0.000731 -0.000025 0.033810
#
#
# Mechanical properties :
#
#
# Convention : Reuss Voigt Hill
#
# Bulk Modulus (GPa) = 58.65438 61.67452 60.16445
# Shear Modulus (GPa) = 20.08286 22.93085 21.50686
#
# Velocity S-wave (km/s) = 3.49489 3.73449 3.61668
# Velocity P-wave (km/s) = 7.20825 7.49035 7.35065
#
# Compressibility (1/GPa) = 0.01704902
#
# Stress axis : x y z
#
# Youngs Moduli (GPa) = 64.02508 52.25070 74.08459
#
# Poissons Ratio (x) = 0.25325 0.33323
# Poissons Ratio (y) = 0.31032 0.46364
# Poissons Ratio (z) = 0.28798 0.32700
#
# Static dielectric constant tensor:
#      x y z
#    x 2.928470 -0.000020 -0.044860 
#    y -0.000020 3.111870 0.000000 
#    z -0.044860 0.000000 3.322290 
# 
# 
# High freq. dielectric constant tensor:
#      x y z
#    x 1.613230 0.000000 -0.001880 
#    y 0.000000 1.640520 0.000000 
#    z -0.001880 0.000000 1.626640 
# 
# From -- ./inp_files/326877.got.cif
#   From: 2010.06.25/outbox.cif.g09.slc.cpg/sg12_164_cif.got.tgz:326877.got - 2010.06.28 00:19:55.
