data_PCOD8096711
_publ_section_title
;
Structure prediction by ZEFSAII (Michael W. Deem and Ramdas Pophale) SiO2 
 PCOD8096711
Probable space group: C 2/M
;
_chemical_formula_sum "Si O2"
_cell_formula_units_Z 64
_cell_length_a 29.939139
_cell_length_b 9.040558
_cell_length_c 15.059600
_cell_angle_alpha 90.000000
_cell_angle_beta 78.579722
_cell_angle_gamma 90.000000
_cell_volume 3995.426922
_symmetry_space_group_name_H-M "C 2/M"
_symmetry_group_IT_number 12
_symmetry_cell_setting 'monoclinic'
loop_
_space_group_symop_operation_xyz
x,y,z
-x,y,-z
-x,-y,-z
x,-y,z
1/2+x,1/2+y,z
1/2-x,1/2+y,-z
1/2-x,1/2-y,-z
1/2+x,1/2-y,z
loop_
_atom_site_type_symbol
_atom_site_label
_atom_site_fract_x
_atom_site_fract_y
_atom_site_fract_z
Si Si1 0.468661 0.325886 0.389004
Si Si2 0.044059 0.828816 0.801862
Si Si3 0.299924 0.172049 0.070811
Si Si4 0.401001 0.174055 0.071489
Si Si5 0.618181 0.174908 0.246812
Si Si6 0.788597 0.672801 0.874221
Si Si7 0.438940 0.671499 0.883491
Si Si8 0.066470 0.174756 0.412860
O O1 0.474796 0.500000 0.381677
O O2 0.450830 0.268571 0.301229
O O3 0.433559 0.284755 0.482003
O O4 0.519136 0.265183 0.389941
O O5 0.077237 0.726417 0.845429
O O6 0.992805 0.808138 0.855041
O O7 0.058973 0.000000 0.804372
O O8 0.347551 0.213612 0.097844
O O9 0.258399 0.251288 0.138479
O O10 0.290050 0.000000 0.079751
O O11 0.302142 0.226023 0.967794
O O12 0.408487 0.000000 0.053978
O O13 0.424271 0.259115 0.981854
O O14 0.670379 0.219365 0.206707
O O15 0.584851 0.247489 0.188597
O O16 0.607095 0.237056 0.349046
O O17 0.611323 0.000000 0.244829
O O18 0.780152 0.500000 0.874957
O O19 0.425090 0.500000 0.886487
O O20 0.073039 0.000000 0.395411
#
# Coordination Sequence:
#
# PCOD8096711 Si02
#       8
#     8   8   8   8   8   8   8   8
#     4   8  15  30  50  69  94 124 161 205 235 267
#     4  10  20  34  49  69  94 128 171 204 228 268
#     4   9  18  33  48  66  92 122 157 195 234 282
#     4  11  22  35  48  68  99 130 159 198 245 282
#     4  11  20  31  47  72 104 129 152 194 245 289
#     4   9  18  32  48  67  93 123 154 192 239 285
#     4  11  21  33  49  68  94 131 173 202 222 271
#     4   9  16  30  51  71  92 126 163 195 237 283
#
# _framework density 16.018315000000001
#
# number of rings (size 3 to 8) (size 9 to 14) (size 15 to 20)
#    0.000    2.250    2.500    2.250    0.000    4.500 
#    0.000    1.875    0.000    0.000    0.000    0.875 
#    0.000    0.000    0.000    0.000    0.000    0.000 
#
# Total GULP energy -396751.316856 kJ/mol
# GULP energy per Si atom -12398.478652 kJ/mol
# Density = 1.598186 g / cm^3
# Si number density = 16.018315 Si / 1000 Ang^3
#
#
#
# Elastic Constant Matrix: (Units=GPa)
#
#
# Indices 1 2 3 4 5 6 
#
# 1 96.6380 46.4739 54.7155 0.0000 -13.1331 0.0000
# 2 46.4739 59.3338 37.8296 0.0000 -9.0614 0.0000
# 3 54.7155 37.8296 92.7260 0.0000 -15.3790 0.0000
# 4 0.0000 0.0000 0.0000 22.7180 0.0000 -1.6749
# 5 -13.1331 -9.0614 -15.3790 0.0000 19.6898 0.0000
# 6 0.0000 0.0000 0.0000 -1.6749 0.0000 27.9235
#
#
#
# Elastic Compliance Matrix: (Units=1/GPa)
#
#
# Indices 1 2 3 4 5 6 
#
# 1 0.019728 -0.010667 -0.006802 0.000000 0.002937 0.000000
# 2 -0.010667 0.028784 -0.005091 0.000000 0.002155 0.000000
# 3 -0.006802 -0.005091 0.018076 0.000000 0.007238 0.000000
# 4 0.000000 0.000000 0.000000 0.044214 0.000000 0.002652
# 5 0.002937 0.002155 0.007238 0.000000 0.059392 0.000000
# 6 0.000000 0.000000 0.000000 0.002652 0.000000 0.035971
#
#
# Mechanical properties :
#
#
# Convention : Reuss Voigt Hill
#
# Bulk Modulus (GPa) = 46.58290 58.52620 52.55455
# Shear Modulus (GPa) = 19.34675 21.37817 20.36246
#
# Velocity S-wave (km/s) = 3.47910 3.65719 3.56926
# Velocity P-wave (km/s) = 6.72926 7.37901 7.06161
#
# Compressibility (1/GPa) = 0.02146710
#
# Stress axis : x y z
#
# Youngs Moduli (GPa) = 50.68895 34.74153 55.32215
#
# Poissons Ratio (x) = 0.37058 0.37632
# Poissons Ratio (y) = 0.54069 0.28166
# Poissons Ratio (z) = 0.34480 0.17688
#
# Static dielectric constant tensor:
#      x y z
#    x 3.001630 0.000000 -0.059660 
#    y 0.000000 2.970680 0.000000 
#    z -0.059660 0.000000 3.255690 
# 
# 
# High freq. dielectric constant tensor:
#      x y z
#    x 1.598180 0.000000 -0.011530 
#    y 0.000000 1.610850 0.000000 
#    z -0.011530 0.000000 1.606260 
# 
# From -- ./inp_files/248299.got.cif
#   From: 2010.06.25/outbox.cif.g09.slc.cpg/sg12_125_cif.got.tgz:248299.got - 2010.06.28 00:19:55.
