data_PCOD8096856
_publ_section_title
;
Structure prediction by ZEFSAII (Michael W. Deem and Ramdas Pophale) SiO2 
 PCOD8096856
Probable space group: C 2/M
;
_chemical_formula_sum "Si O2"
_cell_formula_units_Z 64
_cell_length_a 30.149444
_cell_length_b 9.123278
_cell_length_c 14.671333
_cell_angle_alpha 90.000000
_cell_angle_beta 120.775557
_cell_angle_gamma 90.000000
_cell_volume 3467.233348
_symmetry_space_group_name_H-M "C 2/M"
_symmetry_group_IT_number 12
_symmetry_cell_setting 'monoclinic'
loop_
_space_group_symop_operation_xyz
x,y,z
-x,y,-z
-x,-y,-z
x,-y,z
1/2+x,1/2+y,z
1/2-x,1/2+y,-z
1/2-x,1/2-y,-z
1/2+x,1/2-y,z
loop_
_atom_site_type_symbol
_atom_site_label
_atom_site_fract_x
_atom_site_fract_y
_atom_site_fract_z
Si Si1 0.849144 0.172450 0.274701
Si Si2 0.051962 0.673617 0.107675
Si Si3 0.912977 0.173398 0.172078
Si Si4 0.250049 0.668454 0.776818
Si Si5 0.028100 0.829511 0.267057
Si Si6 0.216350 0.668780 0.537923
Si Si7 0.866468 0.826515 0.932092
Si Si8 0.119758 0.168211 0.493105
O O1 0.882511 0.239338 0.226682
O O2 0.791990 0.240168 0.211011
O O3 0.879040 0.214302 0.399395
O O4 0.842469 0.000000 0.257105
O O5 0.058560 0.500000 0.118442
O O6 0.050689 0.736643 0.207878
O O7 0.101221 0.742958 0.110339
O O8 0.000000 0.719810 0.000000
O O9 0.971646 0.231000 0.233786
O O10 0.912831 0.000000 0.179789
O O11 0.885668 0.225458 0.051025
O O12 0.241996 0.500000 0.794814
O O13 0.243220 0.694868 0.662745
O O14 0.307050 0.722124 0.862928
O O15 0.062837 0.806250 0.393375
O O16 0.026282 0.000000 0.235770
O O17 0.212711 0.500000 0.507439
O O18 0.250000 0.750000 0.500000
O O19 0.158956 0.733817 0.476418
O O20 0.873307 0.000000 0.924035
O O21 0.137192 0.000000 0.500672
#
# Coordination Sequence:
#
# PCOD8096856 Si02
#       8
#     8   8   8   8   8   8   8   8
#     4   9  18  35  56  79 109 140 174 223 270 310
#     4  11  23  37  53  78 112 142 174 222 272 316
#     4   9  18  33  56  82 105 137 181 222 263 313
#     4   9  20  36  53  76 105 139 178 219 263 316
#     4  10  20  35  56  80 107 143 183 217 259 322
#     4  10  20  34  51  73 104 139 178 223 268 318
#     4  10  20  36  57  79 106 142 182 218 259 320
#     4   9  19  34  53  78 107 139 177 219 265 315
#
# _framework density 18.458521000000001
#
# number of rings (size 3 to 8) (size 9 to 14) (size 15 to 20)
#    0.000    2.375    1.250    0.750    1.750    3.000 
#    0.000    3.750    0.000    0.000    0.000    4.375 
#    0.000    0.000    0.000    0.000    0.000    0.000 
#
# Total GULP energy -396873.648471 kJ/mol
# GULP energy per Si atom -12402.301515 kJ/mol
# Density = 1.841651 g / cm^3
# Si number density = 18.458521 Si / 1000 Ang^3
#
#
#
# Elastic Constant Matrix: (Units=GPa)
#
#
# Indices 1 2 3 4 5 6 
#
# 1 174.2488 54.3182 85.6471 0.0000 -4.4401 0.0000
# 2 54.3182 53.3408 32.8144 0.0000 -0.0964 0.0000
# 3 85.6471 32.8144 96.7618 0.0000 18.3623 0.0000
# 4 0.0000 0.0000 0.0000 20.6123 0.0000 4.5180
# 5 -4.4401 -0.0964 18.3623 0.0000 34.9590 0.0000
# 6 0.0000 0.0000 0.0000 4.5180 0.0000 24.7794
#
#
#
# Elastic Compliance Matrix: (Units=1/GPa)
#
#
# Indices 1 2 3 4 5 6 
#
# 1 0.013524 -0.006975 -0.011026 0.000000 0.007490 0.000000
# 2 -0.006975 0.028022 -0.003528 0.000000 0.001044 0.000000
# 3 -0.011026 -0.003528 0.023945 0.000000 -0.013987 0.000000
# 4 0.000000 0.000000 0.000000 0.050534 0.000000 -0.009214
# 5 0.007490 0.001044 -0.013987 0.000000 0.036906 0.000000
# 6 0.000000 0.000000 0.000000 -0.009214 0.000000 0.042036
#
#
# Mechanical properties :
#
#
# Convention : Reuss Voigt Hill
#
# Bulk Modulus (GPa) = 44.57628 74.43454 59.50541
# Shear Modulus (GPa) = 20.36643 26.17491 23.27067
#
# Velocity S-wave (km/s) = 3.32529 3.76977 3.55449
# Velocity P-wave (km/s) = 6.24062 7.70461 7.01093
#
# Compressibility (1/GPa) = 0.02243345
#
# Stress axis : x y z
#
# Youngs Moduli (GPa) = 73.94446 35.68637 41.76237
#
# Poissons Ratio (x) = 0.24890 0.46048
# Poissons Ratio (y) = 0.51574 0.14732
# Poissons Ratio (z) = 0.81533 0.12588
#
# Static dielectric constant tensor:
#      x y z
#    x 3.654260 0.000000 0.086750 
#    y 0.000000 3.258500 0.000000 
#    z 0.086750 0.000000 3.607220 
# 
# 
# High freq. dielectric constant tensor:
#      x y z
#    x 1.721920 0.000000 0.003240 
#    y 0.000000 1.698070 0.000000 
#    z 0.003240 0.000000 1.720360 
# 
# From -- ./inp_files/249120.got.cif
#   From: 2010.06.25/outbox.cif.g09.slc.cpg/sg12_125_cif.got.tgz:249120.got - 2010.06.28 00:19:55.
