data_PCOD8096864
_publ_section_title
;
Structure prediction by ZEFSAII (Michael W. Deem and Ramdas Pophale) SiO2 
 PCOD8096864
Probable space group: C 2/M
;
_chemical_formula_sum "Si O2"
_cell_formula_units_Z 56
_cell_length_a 25.068161
_cell_length_b 9.420937
_cell_length_c 15.882767
_cell_angle_alpha 90.000000
_cell_angle_beta 124.573798
_cell_angle_gamma 90.000000
_cell_volume 3088.527506
_symmetry_space_group_name_H-M "C 2/M"
_symmetry_group_IT_number 12
_symmetry_cell_setting 'monoclinic'
loop_
_space_group_symop_operation_xyz
x,y,z
-x,y,-z
-x,-y,-z
x,-y,z
1/2+x,1/2+y,z
1/2-x,1/2+y,-z
1/2-x,1/2-y,-z
1/2+x,1/2-y,z
loop_
_atom_site_type_symbol
_atom_site_label
_atom_site_fract_x
_atom_site_fract_y
_atom_site_fract_z
Si Si1 0.243743 0.664683 0.867952
Si Si2 0.956524 0.836235 0.536702
Si Si3 0.993549 0.836206 0.234310
Si Si4 0.713807 0.664851 0.279195
Si Si5 0.341349 0.162435 0.490427
Si Si6 0.111769 0.666747 0.283365
Si Si7 0.153484 0.164585 0.899667
O O1 0.225622 0.500000 0.856267
O O2 0.259087 0.712072 0.786974
O O3 0.181532 0.750102 0.845243
O O4 0.306351 0.700516 0.980526
O O5 0.888619 0.754984 0.475134
O O6 0.000000 0.775785 0.500000
O O7 0.995338 0.809936 0.657181
O O8 0.940005 0.000000 0.507177
O O9 0.920274 0.790608 0.147984
O O10 0.040593 0.736399 0.221895
O O11 0.007036 0.000000 0.222392
O O12 0.692929 0.500000 0.259809
O O13 0.767969 0.694767 0.398320
O O14 0.651607 0.760621 0.243844
O O15 0.350209 0.200642 0.596215
O O16 0.359617 0.000000 0.489453
O O17 0.104935 0.500000 0.259937
O O18 0.157263 0.000000 0.878582
#
# Coordination Sequence:
#
# PCOD8096864 Si02
#       7
#     8   8   8   8   8   8   8
#     4   9  19  34  52  77 103 128 162 205 248 294
#     4   9  18  30  45  70 101 129 163 203 240 287
#     4   9  18  33  52  71  97 134 166 198 247 298
#     4  10  20  34  52  73 101 133 166 203 248 296
#     4   9  19  33  48  70  99 132 166 200 243 292
#     4  10  20  34  51  74 100 129 169 209 244 289
#     4   9  18  34  55  76 100 130 165 202 246 297
#
# _framework density 18.131618
#
# number of rings (size 3 to 8) (size 9 to 14) (size 15 to 20)
#    0.000    2.714    0.000    0.857    2.000    2.571 
#    0.000    0.714    0.000    4.286    0.000    0.000 
#    0.000    0.000    0.000    0.000    0.000    0.000 
#
# Total GULP energy -347276.978666 kJ/mol
# GULP energy per Si atom -12402.749238 kJ/mol
# Density = 1.809035 g / cm^3
# Si number density = 18.131618 Si / 1000 Ang^3
#
#
#
# Elastic Constant Matrix: (Units=GPa)
#
#
# Indices 1 2 3 4 5 6 
#
# 1 125.6677 67.2408 38.6896 0.0000 5.8770 0.0000
# 2 67.2408 72.9041 27.2558 0.0000 3.0692 0.0000
# 3 38.6896 27.2558 49.4375 0.0000 5.6013 0.0000
# 4 0.0000 0.0000 0.0000 20.4847 0.0000 0.6090
# 5 5.8770 3.0692 5.6013 0.0000 25.8519 0.0000
# 6 0.0000 0.0000 0.0000 0.6090 0.0000 40.0738
#
#
#
# Elastic Compliance Matrix: (Units=1/GPa)
#
#
# Indices 1 2 3 4 5 6 
#
# 1 0.016983 -0.013472 -0.005749 0.000000 -0.001016 0.000000
# 2 -0.013472 0.027965 -0.004967 0.000000 0.000819 0.000000
# 3 -0.005749 -0.004967 0.027936 0.000000 -0.004156 0.000000
# 4 0.000000 0.000000 0.000000 0.048839 0.000000 -0.000742
# 5 -0.001016 0.000819 -0.004156 0.000000 0.039716 0.000000
# 6 0.000000 0.000000 0.000000 -0.000742 0.000000 0.024965
#
#
# Mechanical properties :
#
#
# Convention : Reuss Voigt Hill
#
# Bulk Modulus (GPa) = 40.80242 57.15350 48.97796
# Shear Modulus (GPa) = 20.58045 24.93694 22.75869
#
# Velocity S-wave (km/s) = 3.37272 3.71257 3.54671
# Velocity P-wave (km/s) = 6.14160 7.06876 6.62143
#
# Compressibility (1/GPa) = 0.02450835
#
# Stress axis : x y z
#
# Youngs Moduli (GPa) = 58.88128 35.75935 35.79651
#
# Poissons Ratio (x) = 0.48175 0.20578
# Poissons Ratio (y) = 0.79326 0.17780
# Poissons Ratio (z) = 0.33848 0.17762
#
# Static dielectric constant tensor:
#      x y z
#    x 3.334090 0.000000 0.044350 
#    y 0.000000 3.305940 0.000000 
#    z 0.044350 0.000000 3.254710 
# 
# 
# High freq. dielectric constant tensor:
#      x y z
#    x 1.705060 0.000000 0.003060 
#    y 0.000000 1.698900 0.000000 
#    z 0.003060 0.000000 1.687070 
# 
# From -- ./inp_files/238908.got.cif
#   From: 2010.06.25/outbox.cif.g09.slc.cpg/sg12_120_cif.got.tgz:238908.got - 2010.06.28 00:19:55.
