data_PCOD8096634
_publ_section_title
;
Structure prediction by ZEFSAII (Michael W. Deem and Ramdas Pophale) SiO2 
 PCOD8096634
Probable space group: C 2/M
;
_chemical_formula_sum "Si O2"
_cell_formula_units_Z 56
_cell_length_a 8.943306
_cell_length_b 18.474201
_cell_length_c 26.569770
_cell_angle_alpha 90.000000
_cell_angle_beta 141.213057
_cell_angle_gamma 90.000000
_cell_volume 2749.928862
_symmetry_space_group_name_H-M "C 2/M"
_symmetry_group_IT_number 12
_symmetry_cell_setting 'monoclinic'
loop_
_space_group_symop_operation_xyz
x,y,z
-x,y,-z
-x,-y,-z
x,-y,z
1/2+x,1/2+y,z
1/2-x,1/2+y,-z
1/2-x,1/2-y,-z
1/2+x,1/2-y,z
loop_
_atom_site_type_symbol
_atom_site_label
_atom_site_fract_x
_atom_site_fract_y
_atom_site_fract_z
Si Si1 0.792074 0.420382 0.791682
Si Si2 0.326125 0.583801 0.351502
Si Si3 0.747277 0.856810 0.959079
Si Si4 0.492136 0.803593 0.685797
Si Si5 0.755931 0.197035 0.549638
Si Si6 0.993160 0.808096 0.767257
Si Si7 0.729324 0.700734 0.932472
O O1 0.702513 0.500000 0.782139
O O2 0.818265 0.411532 0.738707
O O3 0.576178 0.368421 0.750170
O O4 0.047935 0.411289 0.886291
O O5 0.376172 0.500000 0.379727
O O6 0.150587 0.621080 0.346295
O O7 0.573921 0.628221 0.415681
O O8 0.614916 0.778746 0.916008
O O9 0.804308 0.861654 0.034082
O O10 0.000000 0.873198 0.000000
O O11 0.333165 0.742952 0.618167
O O12 0.717886 0.816821 0.709512
O O13 0.549284 0.770660 0.756893
O O14 0.500000 0.166015 0.500000
O O15 0.750000 0.250000 0.500000
O O16 0.138501 0.826144 0.855574
O O17 0.000000 0.723271 0.000000
#
# Coordination Sequence:
#
# PCOD8096634 Si02
#       7
#     8   8   8   8   8   8   8
#     4  11  24  43  61  87 134 178 220 273 333 396
#     4  11  25  45  68 102 137 175 219 271 328 392
#     4  10  21  36  57  87 123 165 214 273 335 378
#     4  12  23  41  70  98 131 173 216 273 321 402
#     4  12  23  43  72 103 131 170 217 265 324 397
#     4  12  22  38  65  94 125 171 227 268 332 381
#     4  10  20  33  56  90 120 152 215 284 319 379
#
# _framework density 20.364163000000001
#
# number of rings (size 3 to 8) (size 9 to 14) (size 15 to 20)
#    0.000    0.857    5.714    1.714    6.000    1.143 
#    0.000    2.857    0.000    0.000    0.000    0.000 
#    0.000    0.000    0.000    0.000    0.000    0.000 
#
# Total GULP energy -347042.024922 kJ/mol
# GULP energy per Si atom -12394.358033 kJ/mol
# Density = 2.031781 g / cm^3
# Si number density = 20.364163 Si / 1000 Ang^3
#
#
#
# Elastic Constant Matrix: (Units=GPa)
#
#
# Indices 1 2 3 4 5 6 
#
# 1 103.2429 43.9179 16.1244 -0.0002 17.2930 0.0003
# 2 43.9179 128.5508 27.7210 0.0002 11.2487 0.0002
# 3 16.1244 27.7210 68.8242 -0.0011 3.3073 0.0003
# 4 -0.0002 0.0002 -0.0011 28.3526 -0.0005 0.6194
# 5 17.2930 11.2487 3.3073 -0.0005 34.6633 0.0003
# 6 0.0003 0.0002 0.0003 0.6194 0.0003 29.7010
#
#
#
# Elastic Compliance Matrix: (Units=1/GPa)
#
#
# Indices 1 2 3 4 5 6 
#
# 1 0.012160 -0.003469 -0.001220 0.000000 -0.004824 0.000000
# 2 -0.003469 0.009721 -0.003048 0.000000 -0.001133 0.000000
# 3 -0.001220 -0.003048 0.016040 0.000001 0.000067 0.000000
# 4 0.000000 0.000000 0.000001 0.035286 0.000001 -0.000736
# 5 -0.004824 -0.001133 0.000067 0.000001 0.031617 0.000000
# 6 0.000000 0.000000 0.000000 -0.000736 0.000000 0.033684
#
#
# Mechanical properties :
#
#
# Convention : Reuss Voigt Hill
#
# Bulk Modulus (GPa) = 44.54984 52.90496 48.72740
# Shear Modulus (GPa) = 30.96652 32.73370 31.85011
#
# Velocity S-wave (km/s) = 3.90377 4.01361 3.95907
# Velocity P-wave (km/s) = 6.49948 6.89308 6.69917
#
# Compressibility (1/GPa) = 0.02244677
#
# Stress axis : x y z
#
# Youngs Moduli (GPa) = 82.23533 102.87363 62.34408
#
# Poissons Ratio (x) = 0.35689 0.07605
# Poissons Ratio (y) = 0.28529 0.19003
# Poissons Ratio (z) = 0.10031 0.31356
#
# Static dielectric constant tensor:
#      x y z
#    x 3.796290 0.000000 -0.180260 
#    y 0.000000 3.550350 0.000000 
#    z -0.180260 0.000000 3.627380 
# 
# 
# High freq. dielectric constant tensor:
#      x y z
#    x 1.809460 0.000000 -0.002600 
#    y 0.000000 1.765570 0.000000 
#    z -0.002600 0.000000 1.800580 
# 
# From -- ./inp_files/257161.got.cif
#   From: 2010.06.25/outbox.cif.g09.slc.cpg/sg12_129_cif.got.tgz:257161.got - 2010.06.28 00:19:55.
