data_PCOD8096319
_publ_section_title
;
Structure prediction by ZEFSAII (Michael W. Deem and Ramdas Pophale) SiO2 
 PCOD8096319
Probable space group: C 2/M
;
_chemical_formula_sum "Si O2"
_cell_formula_units_Z 56
_cell_length_a 20.601306
_cell_length_b 8.745880
_cell_length_c 16.139828
_cell_angle_alpha 90.000000
_cell_angle_beta 81.379483
_cell_angle_gamma 90.000000
_cell_volume 2875.165976
_symmetry_space_group_name_H-M "C 2/M"
_symmetry_group_IT_number 12
_symmetry_cell_setting 'monoclinic'
loop_
_space_group_symop_operation_xyz
x,y,z
-x,y,-z
-x,-y,-z
x,-y,z
1/2+x,1/2+y,z
1/2-x,1/2+y,-z
1/2-x,1/2-y,-z
1/2+x,1/2-y,z
loop_
_atom_site_type_symbol
_atom_site_label
_atom_site_fract_x
_atom_site_fract_y
_atom_site_fract_z
Si Si1 0.027321 0.318683 0.743704
Si Si2 0.309503 0.820610 0.537432
Si Si3 0.552856 0.817390 0.555191
Si Si4 0.152015 0.319964 0.825393
Si Si5 0.179413 0.180097 0.994883
Si Si6 0.721454 0.821773 0.270922
Si Si7 0.389277 0.179911 0.840498
O O1 0.025472 0.500000 0.738440
O O2 0.036493 0.251934 0.649446
O O3 0.087167 0.264312 0.789714
O O4 0.959061 0.258073 0.794530
O O5 0.250000 0.750000 0.500000
O O6 0.376496 0.754147 0.486479
O O7 0.306546 0.776967 0.634371
O O8 0.306718 0.000000 0.525506
O O9 0.500000 0.753915 0.500000
O O10 0.552203 0.000000 0.555476
O O11 0.151011 0.500000 0.842981
O O12 0.153656 0.230492 0.910819
O O13 0.214579 0.279294 0.757602
O O14 0.187341 0.000000 0.995589
O O15 0.250000 0.250000 0.000000
O O16 0.126105 0.233803 0.071641
O O17 0.665962 0.778548 0.215623
O O18 0.740272 0.000000 0.261418
O O19 0.391562 0.000000 0.857780
#
# Coordination Sequence:
#
# PCOD8096319 Si02
#       7
#     8   8   8   8   8   8   8
#     4   9  19  34  54  83 115 152 194 236 283 334
#     4  10  20  33  52  81 113 148 190 239 288 335
#     4   9  16  30  54  82 113 149 193 239 278 324
#     4  11  22  37  59  85 117 153 190 235 286 340
#     4  12  24  40  61  87 115 146 188 233 284 342
#     4  10  20  34  55  82 112 148 193 241 289 338
#     4  10  20  37  60  84 113 148 191 238 282 334
#
# _framework density 19.477136999999999
#
# number of rings (size 3 to 8) (size 9 to 14) (size 15 to 20)
#    0.000    1.857    1.429    3.429    0.000    5.714 
#    0.000    4.286    0.000    1.286    0.000    0.000 
#    0.000    0.000    0.000    0.000    0.000    0.000 
#
# Total GULP energy -347295.506461 kJ/mol
# GULP energy per Si atom -12403.410945 kJ/mol
# Density = 1.943281 g / cm^3
# Si number density = 19.477137 Si / 1000 Ang^3
#
#
#
# Elastic Constant Matrix: (Units=GPa)
#
#
# Indices 1 2 3 4 5 6 
#
# 1 167.3683 31.8424 76.8938 0.0000 -11.7865 0.0000
# 2 31.8424 49.2316 34.3649 0.0000 -4.8658 0.0000
# 3 76.8938 34.3649 161.2110 0.0000 -14.0844 0.0000
# 4 0.0000 0.0000 0.0000 26.9726 0.0000 -1.0215
# 5 -11.7865 -4.8658 -14.0844 0.0000 39.4006 0.0000
# 6 0.0000 0.0000 0.0000 -1.0215 0.0000 26.3969
#
#
#
# Elastic Compliance Matrix: (Units=1/GPa)
#
#
# Indices 1 2 3 4 5 6 
#
# 1 0.008033 -0.002921 -0.003128 0.000000 0.000924 0.000000
# 2 -0.002921 0.024977 -0.003858 0.000000 0.000832 0.000000
# 3 -0.003128 -0.003858 0.008665 0.000000 0.001685 0.000000
# 4 0.000000 0.000000 0.000000 0.037129 0.000000 0.001437
# 5 0.000924 0.000832 0.001685 0.000000 0.026362 0.000000
# 6 0.000000 0.000000 0.000000 0.001437 0.000000 0.037939
#
#
# Mechanical properties :
#
#
# Convention : Reuss Voigt Hill
#
# Bulk Modulus (GPa) = 45.74611 73.77921 59.76266
# Shear Modulus (GPa) = 29.37634 34.20135 31.78884
#
# Velocity S-wave (km/s) = 3.88783 4.19498 4.04432
# Velocity P-wave (km/s) = 6.60997 7.83747 7.24975
#
# Compressibility (1/GPa) = 0.02185978
#
# Stress axis : x y z
#
# Youngs Moduli (GPa) = 124.49085 40.03728 115.40943
#
# Poissons Ratio (x) = 0.11693 0.36101
# Poissons Ratio (y) = 0.36359 0.44531
# Poissons Ratio (z) = 0.38942 0.15448
#
# Static dielectric constant tensor:
#      x y z
#    x 3.772720 0.000000 -0.089690 
#    y 0.000000 3.217650 0.000000 
#    z -0.089690 0.000000 3.827290 
# 
# 
# High freq. dielectric constant tensor:
#      x y z
#    x 1.769670 0.000000 -0.001660 
#    y 0.000000 1.723190 0.000000 
#    z -0.001660 0.000000 1.778800 
# 
# From -- ./inp_files/280203.got.cif
#   From: 2010.06.25/outbox.cif.g09.slc.cpg/sg12_141_cif.got.tgz:280203.got - 2010.06.28 00:19:55.
