data_PCOD8096463
_publ_section_title
;
Structure prediction by ZEFSAII (Michael W. Deem and Ramdas Pophale) SiO2 
 PCOD8096463
Probable space group: C 2/M
;
_chemical_formula_sum "Si O2"
_cell_formula_units_Z 56
_cell_length_a 24.555668
_cell_length_b 9.359415
_cell_length_c 17.958565
_cell_angle_alpha 90.000000
_cell_angle_beta 43.926354
_cell_angle_gamma 90.000000
_cell_volume 2863.284857
_symmetry_space_group_name_H-M "C 2/M"
_symmetry_group_IT_number 12
_symmetry_cell_setting 'monoclinic'
loop_
_space_group_symop_operation_xyz
x,y,z
-x,y,-z
-x,-y,-z
x,-y,z
1/2+x,1/2+y,z
1/2-x,1/2+y,-z
1/2-x,1/2-y,-z
1/2+x,1/2-y,z
loop_
_atom_site_type_symbol
_atom_site_label
_atom_site_fract_x
_atom_site_fract_y
_atom_site_fract_z
Si Si1 0.596855 0.663781 0.215902
Si Si2 0.917970 0.167598 0.407015
Si Si3 0.143956 0.837302 0.691851
Si Si4 0.223832 0.164364 0.210050
Si Si5 0.362470 0.167270 0.963930
Si Si6 0.197826 0.665266 0.383072
Si Si7 0.483366 0.832206 0.099068
O O1 0.597541 0.500000 0.188925
O O2 0.507887 0.718721 0.311931
O O3 0.640059 0.682278 0.252223
O O4 0.644461 0.752325 0.107489
O O5 0.871961 0.209094 0.377185
O O6 0.879821 0.254295 0.512383
O O7 0.912112 0.000000 0.431133
O O8 0.235397 0.817394 0.619897
O O9 0.095628 0.740049 0.795504
O O10 0.116503 0.000000 0.730705
O O11 0.227497 0.265198 0.277636
O O12 0.237569 0.000000 0.221004
O O13 0.292299 0.214931 0.086943
O O14 0.444537 0.212135 0.919940
O O15 0.357542 0.000000 0.952526
O O16 0.177780 0.500000 0.388397
O O17 0.468591 0.000000 0.113831
O O18 0.500000 0.776311 0.000000
#
# Coordination Sequence:
#
# PCOD8096463 Si02
#       7
#     8   8   8   8   8   8   8
#     4  10  21  38  62  87 113 151 195 234 282 342
#     4  10  21  39  61  84 113 150 191 237 287 343
#     4  10  21  38  58  83 114 148 191 235 283 340
#     4  10  22  40  60  84 116 155 193 232 283 343
#     4  10  20  35  57  86 118 151 190 234 282 335
#     4  11  24  39  58  86 115 149 193 241 290 337
#     4  10  20  33  53  83 118 155 189 225 277 338
#
# _framework density 19.557956000000001
#
# number of rings (size 3 to 8) (size 9 to 14) (size 15 to 20)
#    0.000    1.857    1.429    2.143    0.000    5.429 
#    0.000    2.857    0.000    0.000    0.000    0.000 
#    0.000    0.000    0.000    0.000    0.000    0.000 
#
# Total GULP energy -347353.953103 kJ/mol
# GULP energy per Si atom -12405.498325 kJ/mol
# Density = 1.951344 g / cm^3
# Si number density = 19.557956 Si / 1000 Ang^3
#
#
#
# Elastic Constant Matrix: (Units=GPa)
#
#
# Indices 1 2 3 4 5 6 
#
# 1 57.6536 25.5728 26.7994 0.0004 -3.4013 -0.0002
# 2 25.5728 63.2064 51.4253 -0.0011 -0.1659 0.0004
# 3 26.7994 51.4253 117.5590 -0.0006 -7.1863 0.0004
# 4 0.0004 -0.0011 -0.0006 37.0459 0.0002 5.8902
# 5 -3.4013 -0.1659 -7.1863 0.0002 24.3165 -0.0002
# 6 -0.0002 0.0004 0.0004 5.8902 -0.0002 26.3761
#
#
#
# Elastic Compliance Matrix: (Units=1/GPa)
#
#
# Indices 1 2 3 4 5 6 
#
# 1 0.021502 -0.007499 -0.001467 -0.000001 0.002523 0.000000
# 2 -0.007499 0.027405 -0.010521 0.000001 -0.003971 -0.000001
# 3 -0.001467 -0.010521 0.013673 0.000000 0.003764 0.000000
# 4 -0.000001 0.000001 0.000000 0.027987 0.000000 -0.006250
# 5 0.002523 -0.003971 0.003764 0.000000 0.042562 0.000000
# 6 0.000000 -0.000001 0.000000 -0.006250 0.000000 0.039309
#
#
# Mechanical properties :
#
#
# Convention : Reuss Voigt Hill
#
# Bulk Modulus (GPa) = 42.36347 49.55709 45.96028
# Shear Modulus (GPa) = 22.80155 26.52247 24.66201
#
# Velocity S-wave (km/s) = 3.41815 3.68652 3.55487
# Velocity P-wave (km/s) = 6.10621 6.59652 6.35610
#
# Compressibility (1/GPa) = 0.02360524
#
# Stress axis : x y z
#
# Youngs Moduli (GPa) = 46.50697 36.48933 73.13484
#
# Poissons Ratio (x) = 0.27365 0.10728
# Poissons Ratio (y) = 0.34878 0.76948
# Poissons Ratio (z) = 0.06822 0.38392
#
# Static dielectric constant tensor:
#      x y z
#    x 3.637860 0.000000 -0.071850 
#    y 0.000000 3.442460 0.000000 
#    z -0.071850 0.000000 3.464830 
# 
# 
# High freq. dielectric constant tensor:
#      x y z
#    x 1.768930 0.000000 -0.004170 
#    y 0.000000 1.753560 0.000000 
#    z -0.004170 0.000000 1.764850 
# 
# From -- ./inp_files/288149.got.cif
#   From: 2010.06.25/outbox.cif.g09.slc.cpg/sg12_145_cif.got.tgz:288149.got - 2010.06.28 00:19:55.
