data_PCOD8096134
_publ_section_title
;
Structure prediction by ZEFSAII (Michael W. Deem and Ramdas Pophale) SiO2 
 PCOD8096134
Probable space group: C 2/M
;
_chemical_formula_sum "Si O2"
_cell_formula_units_Z 64
_cell_length_a 29.573202
_cell_length_b 9.619708
_cell_length_c 19.300814
_cell_angle_alpha 90.000000
_cell_angle_beta 142.564305
_cell_angle_gamma 90.000000
_cell_volume 3337.697944
_symmetry_space_group_name_H-M "C 2/M"
_symmetry_group_IT_number 12
_symmetry_cell_setting 'monoclinic'
loop_
_space_group_symop_operation_xyz
x,y,z
-x,y,-z
-x,-y,-z
x,-y,z
1/2+x,1/2+y,z
1/2-x,1/2+y,-z
1/2-x,1/2-y,-z
1/2+x,1/2-y,z
loop_
_atom_site_type_symbol
_atom_site_label
_atom_site_fract_x
_atom_site_fract_y
_atom_site_fract_z
Si Si1 0.250278 0.841693 0.827252
Si Si2 0.541156 0.162818 0.241877
Si Si3 0.877512 0.657322 0.086244
Si Si4 0.775256 0.841758 0.727808
Si Si5 0.376947 0.841096 0.521046
Si Si6 0.064847 0.836422 0.132991
Si Si7 0.638808 0.341612 0.808382
Si Si8 0.019848 0.840294 0.447286
O O1 0.246281 0.748030 0.755618
O O2 0.186268 0.788052 0.801062
O O3 0.234330 0.000000 0.785744
O O4 0.331144 0.826579 0.959683
O O5 0.460641 0.205674 0.171912
O O6 0.599693 0.204508 0.373088
O O7 0.555990 0.253011 0.192616
O O8 0.545559 0.000000 0.227882
O O9 0.875790 0.500000 0.111791
O O10 0.840152 0.751756 0.099339
O O11 0.712644 0.826628 0.591839
O O12 0.855370 0.789443 0.799653
O O13 0.782281 0.000000 0.761718
O O14 0.414692 0.749077 0.507113
O O15 0.402518 0.000000 0.539349
O O16 0.062522 0.000000 0.146767
O O17 0.000000 0.795346 0.000000
O O18 0.661459 0.500000 0.852019
O O19 0.551902 0.325557 0.688097
O O20 0.000000 0.785064 0.500000
O O21 0.047019 0.000000 0.485128
#
# Coordination Sequence:
#
# PCOD8096134 Si02
#       8
#     8   8   8   8   8   8   8   8
#     4  10  21  36  55  81 112 147 187 232 279 328
#     4  10  21  37  58  84 113 146 186 232 278 332
#     4  10  20  35  55  80 112 148 186 228 276 331
#     4  10  22  39  58  82 111 145 185 229 279 334
#     4  10  21  38  57  80 113 148 186 231 278 332
#     4  10  22  40  61  86 114 143 181 230 283 340
#     4  10  20  33  51  79 112 146 187 231 276 327
#     4  10  20  34  53  78 111 151 193 234 275 325
#
# _framework density 19.174892
#
# number of rings (size 3 to 8) (size 9 to 14) (size 15 to 20)
#    0.000    2.000    1.250    1.875    0.000    5.000 
#    0.000    0.000    0.000    0.000    0.000    0.000 
#    0.000    0.000    0.000    0.000    0.000    0.000 
#
# Total GULP energy -396885.530874 kJ/mol
# GULP energy per Si atom -12402.672840 kJ/mol
# Density = 1.913125 g / cm^3
# Si number density = 19.174892 Si / 1000 Ang^3
#
#
#
# Elastic Constant Matrix: (Units=GPa)
#
#
# Indices 1 2 3 4 5 6 
#
# 1 120.5727 60.7635 60.5881 0.0000 -5.7878 0.0000
# 2 60.7635 62.5487 33.5809 0.0000 -11.1745 0.0000
# 3 60.5881 33.5809 101.3052 0.0000 4.3324 0.0000
# 4 0.0000 0.0000 0.0000 25.6519 0.0000 -8.2464
# 5 -5.7878 -11.1745 4.3324 0.0000 36.6038 0.0000
# 6 0.0000 0.0000 0.0000 -8.2464 0.0000 38.6972
#
#
#
# Elastic Compliance Matrix: (Units=1/GPa)
#
#
# Indices 1 2 3 4 5 6 
#
# 1 0.019203 -0.015419 -0.006334 0.000000 -0.000921 0.000000
# 2 -0.015419 0.033634 -0.002274 0.000000 0.008099 0.000000
# 3 -0.006334 -0.002274 0.014560 0.000000 -0.003419 0.000000
# 4 0.000000 0.000000 0.000000 0.041850 0.000000 0.008918
# 5 -0.000921 0.008099 -0.003419 0.000000 0.030051 0.000000
# 6 0.000000 0.000000 0.000000 0.008918 0.000000 0.027742
#
#
# Mechanical properties :
#
#
# Convention : Reuss Voigt Hill
#
# Bulk Modulus (GPa) = 51.69968 66.03241 58.86604
# Shear Modulus (GPa) = 22.56918 28.82352 25.69635
#
# Velocity S-wave (km/s) = 3.43449 3.88131 3.66471
# Velocity P-wave (km/s) = 6.53822 7.38903 6.97661
#
# Compressibility (1/GPa) = 0.01934248
#
# Stress axis : x y z
#
# Youngs Moduli (GPa) = 52.07552 29.73211 68.68320
#
# Poissons Ratio (x) = 0.45842 0.43507
# Poissons Ratio (y) = 0.80293 0.15618
# Poissons Ratio (z) = 0.32987 0.06761
#
# Static dielectric constant tensor:
#      x y z
#    x 3.523570 0.000000 0.231810 
#    y 0.000000 3.443960 0.000000 
#    z 0.231810 0.000000 3.704760 
# 
# 
# High freq. dielectric constant tensor:
#      x y z
#    x 1.738830 0.000000 0.008650 
#    y 0.000000 1.738720 0.000000 
#    z 0.008650 0.000000 1.761600 
# 
# From -- ./inp_files/295871.got.cif
#   From: 2010.06.25/outbox.cif.g09.slc.cpg/sg12_148_cif.got.tgz:295871.got - 2010.06.28 00:19:55.
