data_PCOD8096009
_publ_section_title
;
Structure prediction by ZEFSAII (Michael W. Deem and Ramdas Pophale) SiO2 
 PCOD8096009
Probable space group: C 2/M
;
_chemical_formula_sum "Si O2"
_cell_formula_units_Z 64
_cell_length_a 30.681923
_cell_length_b 8.902894
_cell_length_c 25.744231
_cell_angle_alpha 90.000000
_cell_angle_beta 150.163346
_cell_angle_gamma 90.000000
_cell_volume 3498.743460
_symmetry_space_group_name_H-M "C 2/M"
_symmetry_group_IT_number 12
_symmetry_cell_setting 'monoclinic'
loop_
_space_group_symop_operation_xyz
x,y,z
-x,y,-z
-x,-y,-z
x,-y,z
1/2+x,1/2+y,z
1/2-x,1/2+y,-z
1/2-x,1/2-y,-z
1/2+x,1/2-y,z
loop_
_atom_site_type_symbol
_atom_site_label
_atom_site_fract_x
_atom_site_fract_y
_atom_site_fract_z
Si Si1 0.879060 0.325168 0.319758
Si Si2 0.284687 0.674545 0.132745
Si Si3 0.911519 0.675390 0.093342
Si Si4 0.049924 0.675537 0.430464
Si Si5 0.639692 0.327676 0.161406
Si Si6 0.321703 0.676828 0.363420
Si Si7 0.971013 0.172201 0.052996
Si Si8 0.452105 0.324332 0.239729
O O1 0.866042 0.500000 0.317514
O O2 0.801184 0.269992 0.201773
O O3 0.875421 0.238778 0.370019
O O4 0.971858 0.288975 0.389805
O O5 0.288778 0.500000 0.152388
O O6 0.356285 0.715555 0.163294
O O7 0.190568 0.720879 0.013363
O O8 0.923450 0.500000 0.115844
O O9 0.957801 0.718273 0.087583
O O10 0.958415 0.764806 0.187872
O O11 0.066245 0.500000 0.440768
O O12 0.137766 0.752630 0.542434
O O13 0.027063 0.743952 0.350844
O O14 0.671923 0.500000 0.193847
O O15 0.720140 0.218871 0.255404
O O16 0.568940 0.303418 0.133420
O O17 0.598148 0.284577 0.063091
O O18 0.332078 0.500000 0.376298
O O19 0.957278 0.000000 0.056011
O O20 0.470744 0.500000 0.259893
#
# Coordination Sequence:
#
# PCOD8096009 Si02
#       8
#     8   8   8   8   8   8   8   8
#     4  10  20  33  51  75 104 139 176 213 255 303
#     4   9  19  33  49  74 107 140 174 213 256 302
#     4  11  21  32  50  77 107 139 175 212 254 306
#     4  10  21  37  54  73 101 137 177 218 258 301
#     4   9  19  37  58  79 105 135 169 210 256 307
#     4  12  23  33  51  78 106 137 173 211 255 308
#     4   9  19  36  57  80 105 135 170 209 256 307
#     4  10  20  35  53  73 102 139 178 218 257 299
#
# _framework density 18.292282
#
# number of rings (size 3 to 8) (size 9 to 14) (size 15 to 20)
#    0.000    2.000    0.000    4.875    0.000    7.500 
#    0.000    1.250    0.000    0.750    0.000    0.000 
#    0.000    0.000    0.000    0.000    0.000    0.000 
#
# Total GULP energy -396961.709988 kJ/mol
# GULP energy per Si atom -12405.053437 kJ/mol
# Density = 1.825065 g / cm^3
# Si number density = 18.292282 Si / 1000 Ang^3
#
#
#
# Elastic Constant Matrix: (Units=GPa)
#
#
# Indices 1 2 3 4 5 6 
#
# 1 66.8339 27.6448 35.1051 0.0000 -15.9233 0.0000
# 2 27.6448 91.7907 50.7323 0.0000 -11.0347 0.0000
# 3 35.1051 50.7323 105.9955 0.0000 -16.0076 0.0000
# 4 0.0000 0.0000 0.0000 32.5816 0.0000 -3.8874
# 5 -15.9233 -11.0347 -16.0076 0.0000 24.1401 0.0000
# 6 0.0000 0.0000 0.0000 -3.8874 0.0000 30.5904
#
#
#
# Elastic Compliance Matrix: (Units=1/GPa)
#
#
# Indices 1 2 3 4 5 6 
#
# 1 0.020512 -0.002815 -0.003997 0.000000 0.009593 0.000000
# 2 -0.002815 0.015315 -0.006247 0.000000 0.001002 0.000000
# 3 -0.003997 -0.006247 0.014356 0.000000 0.004028 0.000000
# 4 0.000000 0.000000 0.000000 0.031165 0.000000 0.003960
# 5 0.009593 0.001002 0.004028 0.000000 0.050881 0.000000
# 6 0.000000 0.000000 0.000000 0.003960 0.000000 0.033193
#
#
# Mechanical properties :
#
#
# Convention : Reuss Voigt Hill
#
# Bulk Modulus (GPa) = 41.55377 54.62052 48.08714
# Shear Modulus (GPa) = 25.05483 27.53827 26.29655
#
# Velocity S-wave (km/s) = 3.70495 3.88423 3.79565
# Velocity P-wave (km/s) = 6.40844 7.07397 6.74941
#
# Compressibility (1/GPa) = 0.02406521
#
# Stress axis : x y z
#
# Youngs Moduli (GPa) = 48.75194 65.29519 69.65570
#
# Poissons Ratio (x) = 0.18381 0.27844
# Poissons Ratio (y) = 0.13724 0.43511
# Poissons Ratio (z) = 0.19488 0.40787
#
# Static dielectric constant tensor:
#      x y z
#    x 3.181010 0.000000 -0.077890 
#    y 0.000000 3.354390 0.000000 
#    z -0.077890 0.000000 3.363840 
# 
# 
# High freq. dielectric constant tensor:
#      x y z
#    x 1.689290 0.000000 -0.009960 
#    y 0.000000 1.716210 0.000000 
#    z -0.009960 0.000000 1.707690 
# 
# From -- ./inp_files/353471.got.cif
#   From: 2010.06.25/outbox.cif.g09.slc.cpg/sg12_177_cif.got.tgz:353471.got - 2010.06.28 00:19:55.
