data_PCOD8096439
_publ_section_title
;
Structure prediction by ZEFSAII (Michael W. Deem and Ramdas Pophale) SiO2 
 PCOD8096439
Probable space group: C 2/M
;
_chemical_formula_sum "Si O2"
_cell_formula_units_Z 64
_cell_length_a 17.829424
_cell_length_b 8.749592
_cell_length_c 30.367076
_cell_angle_alpha 90.000000
_cell_angle_beta 137.136244
_cell_angle_gamma 90.000000
_cell_volume 3222.562357
_symmetry_space_group_name_H-M "C 2/M"
_symmetry_group_IT_number 12
_symmetry_cell_setting 'monoclinic'
loop_
_space_group_symop_operation_xyz
x,y,z
-x,y,-z
-x,-y,-z
x,-y,z
1/2+x,1/2+y,z
1/2-x,1/2+y,-z
1/2-x,1/2-y,-z
1/2+x,1/2-y,z
loop_
_atom_site_type_symbol
_atom_site_label
_atom_site_fract_x
_atom_site_fract_y
_atom_site_fract_z
Si Si1 0.766040 0.821943 0.181143
Si Si2 0.339104 0.326012 0.698857
Si Si3 0.501001 0.328242 0.571534
Si Si4 0.033470 0.178932 0.063352
Si Si5 0.367320 0.179075 0.060252
Si Si6 0.822593 0.171798 0.429836
Si Si7 0.163359 0.326037 0.700213
Si Si8 0.932867 0.321529 0.186366
O O1 0.659252 0.721217 0.125739
O O2 0.811860 0.785930 0.249064
O O3 0.857699 0.781058 0.185031
O O4 0.736107 0.000000 0.165146
O O5 0.380433 0.500000 0.713208
O O6 0.277812 0.282678 0.626746
O O7 0.258342 0.303140 0.705201
O O8 0.440348 0.212531 0.748956
O O9 0.488419 0.500000 0.584788
O O10 0.589027 0.327878 0.570709
O O11 0.383318 0.271152 0.500917
O O12 0.543666 0.217672 0.628641
O O13 0.956830 0.266882 0.064088
O O14 0.016569 0.000000 0.063536
O O15 0.000000 0.228625 0.000000
O O16 0.407363 0.228306 0.125660
O O17 0.354762 0.000000 0.050955
O O18 0.250000 0.250000 0.000000
O O19 0.777211 0.000000 0.417015
O O20 0.157947 0.500000 0.714636
O O21 0.908745 0.500000 0.184082
#
# Coordination Sequence:
#
# PCOD8096439 Si02
#       8
#     8   8   8   8   8   8   8   8
#     4  12  25  40  60  84 112 148 191 236 281 334
#     4  10  20  33  53  82 112 145 187 233 280 333
#     4   8  14  26  46  74 107 143 185 229 276 331
#     4  11  24  42  64  90 121 154 188 229 277 330
#     4  11  24  41  64  92 120 153 190 231 279 331
#     4   8  14  26  46  73 107 145 182 227 280 331
#     4  10  20  34  54  81 114 149 186 232 284 335
#     4  11  24  41  59  81 112 149 189 232 282 336
#
# _framework density 19.859971999999999
#
# number of rings (size 3 to 8) (size 9 to 14) (size 15 to 20)
#    0.000    1.875    0.000    5.250    0.000   10.000 
#    0.000    2.500    0.000    0.750    0.000    0.000 
#    0.000    0.000    0.000    0.000    0.000    0.000 
#
# Total GULP energy -396830.949874 kJ/mol
# GULP energy per Si atom -12400.967184 kJ/mol
# Density = 1.981477 g / cm^3
# Si number density = 19.859972 Si / 1000 Ang^3
#
#
#
# Elastic Constant Matrix: (Units=GPa)
#
#
# Indices 1 2 3 4 5 6 
#
# 1 57.6277 20.9406 41.5472 0.0000 0.3544 0.0000
# 2 20.9406 53.1825 29.4212 0.0000 -1.3868 0.0000
# 3 41.5472 29.4212 149.1572 0.0000 1.0906 0.0000
# 4 0.0000 0.0000 0.0000 34.9941 0.0000 4.8144
# 5 0.3544 -1.3868 1.0906 0.0000 20.5723 0.0000
# 6 0.0000 0.0000 0.0000 4.8144 0.0000 27.7415
#
#
#
# Elastic Compliance Matrix: (Units=1/GPa)
#
#
# Indices 1 2 3 4 5 6 
#
# 1 0.023466 -0.006331 -0.005283 0.000000 -0.000551 0.000000
# 2 -0.006331 0.022870 -0.002761 0.000000 0.001797 0.000000
# 3 -0.005283 -0.002761 0.008725 0.000000 -0.000558 0.000000
# 4 0.000000 0.000000 0.000000 0.029275 0.000000 -0.005081
# 5 -0.000551 0.001797 -0.000558 0.000000 0.048769 0.000000
# 6 0.000000 0.000000 0.000000 -0.005081 0.000000 0.036929
#
#
# Mechanical properties :
#
#
# Convention : Reuss Voigt Hill
#
# Bulk Modulus (GPa) = 38.00843 49.30949 43.65896
# Shear Modulus (GPa) = 24.09000 27.86548 25.97774
#
# Velocity S-wave (km/s) = 3.48658 3.74986 3.62061
# Velocity P-wave (km/s) = 5.94879 6.60538 6.28567
#
# Compressibility (1/GPa) = 0.02630995
#
# Stress axis : x y z
#
# Youngs Moduli (GPa) = 42.61491 43.72497 114.61750
#
# Poissons Ratio (x) = 0.27683 0.60558
# Poissons Ratio (y) = 0.26980 0.31643
# Poissons Ratio (z) = 0.22516 0.12071
#
# Static dielectric constant tensor:
#      x y z
#    x 3.281620 0.000000 -0.094730 
#    y 0.000000 3.661810 0.000000 
#    z -0.094730 0.000000 4.030640 
# 
# 
# High freq. dielectric constant tensor:
#      x y z
#    x 1.746850 0.000000 -0.000970 
#    y 0.000000 1.779350 0.000000 
#    z -0.000970 0.000000 1.796680 
# 
# From -- ./inp_files/378482.got.cif
#   From: 2010.06.25/outbox.cif.g09.slc.cpg/sg12_190_cif.got.tgz:378482.got - 2010.06.28 00:19:55.
