data_PCOD8096370
_publ_section_title
;
Structure prediction by ZEFSAII (Michael W. Deem and Ramdas Pophale) SiO2 
 PCOD8096370
Probable space group: C 2/M
;
_chemical_formula_sum "Si O2"
_cell_formula_units_Z 56
_cell_length_a 15.524651
_cell_length_b 15.538938
_cell_length_c 17.994347
_cell_angle_alpha 90.000000
_cell_angle_beta 48.806672
_cell_angle_gamma 90.000000
_cell_volume 3266.486978
_symmetry_space_group_name_H-M "C 2/M"
_symmetry_group_IT_number 12
_symmetry_cell_setting 'monoclinic'
loop_
_space_group_symop_operation_xyz
x,y,z
-x,y,-z
-x,-y,-z
x,-y,z
1/2+x,1/2+y,z
1/2-x,1/2+y,-z
1/2-x,1/2-y,-z
1/2+x,1/2-y,z
loop_
_atom_site_type_symbol
_atom_site_label
_atom_site_fract_x
_atom_site_fract_y
_atom_site_fract_z
Si Si1 0.596582 0.403428 0.538620
Si Si2 0.181276 0.597302 0.500023
Si Si3 0.315377 0.900062 0.106974
Si Si4 0.434431 0.813388 0.300451
Si Si5 0.193973 0.247188 0.388631
Si Si6 0.992369 0.599237 0.885874
Si Si7 0.394108 0.308119 0.712362
O O1 0.605832 0.500000 0.500258
O O2 0.684314 0.392516 0.557498
O O3 0.626473 0.334948 0.458388
O O4 0.466759 0.387908 0.638653
O O5 0.153411 0.500000 0.489102
O O6 0.109933 0.616133 0.615515
O O7 0.149188 0.665267 0.453614
O O8 0.386296 0.887431 0.142589
O O9 0.200368 0.845003 0.177891
O O10 0.285378 0.000000 0.112671
O O11 0.389350 0.864284 0.995530
O O12 0.328826 0.761209 0.325510
O O13 0.507056 0.856581 0.194051
O O14 0.518836 0.749277 0.292168
O O15 0.165450 0.250161 0.317590
O O16 0.968589 0.500000 0.886188
#
# Coordination Sequence:
#
# PCOD8096370 Si02
#       7
#     8   8   8   8   8   8   8
#     4  10  20  33  53  78 108 138 174 221 270 319
#     4  10  20  37  55  74 106 151 187 216 261 308
#     4   9  19  34  55  82 106 134 171 216 276 330
#     4  11  20  35  54  78 109 139 178 221 264 313
#     4  11  21  37  50  77 113 145 176 221 262 313
#     4   9  18  36  56  77 108 137 169 218 272 325
#     4  12  21  32  55  79 109 138 180 216 264 317
#
# _framework density 17.143801
#
# number of rings (size 3 to 8) (size 9 to 14) (size 15 to 20)
#    0.000    1.714    4.286    3.000    0.000    2.857 
#    0.000    2.143    0.000    0.000    0.000    0.000 
#    0.000    3.429    0.000    0.000    0.000    0.000 
#
# Total GULP energy -347170.811765 kJ/mol
# GULP energy per Si atom -12398.957563 kJ/mol
# Density = 1.710478 g / cm^3
# Si number density = 17.143801 Si / 1000 Ang^3
#
#
#
# Elastic Constant Matrix: (Units=GPa)
#
#
# Indices 1 2 3 4 5 6 
#
# 1 78.5794 40.3949 45.7138 0.0000 -6.5593 0.0000
# 2 40.3949 92.9971 43.7116 0.0000 0.0724 0.0000
# 3 45.7138 43.7116 100.0324 0.0000 -3.4480 0.0000
# 4 0.0000 0.0000 0.0000 28.5784 0.0000 -4.0903
# 5 -6.5593 0.0724 -3.4480 0.0000 25.0987 0.0000
# 6 0.0000 0.0000 0.0000 -4.0903 0.0000 8.4321
#
#
#
# Elastic Compliance Matrix: (Units=1/GPa)
#
#
# Indices 1 2 3 4 5 6 
#
# 1 0.019658 -0.005523 -0.006423 0.000000 0.004271 0.000000
# 2 -0.005523 0.015103 -0.004146 0.000000 -0.002057 0.000000
# 3 -0.006423 -0.004146 0.014756 0.000000 0.000361 0.000000
# 4 0.000000 0.000000 0.000000 0.037602 0.000000 0.018240
# 5 0.004271 -0.002057 0.000361 0.000000 0.041014 0.000000
# 6 0.000000 0.000000 0.000000 0.018240 0.000000 0.127443
#
#
# Mechanical properties :
#
#
# Convention : Reuss Voigt Hill
#
# Bulk Modulus (GPa) = 57.69587 59.02772 58.36180
# Shear Modulus (GPa) = 17.03351 21.87443 19.45397
#
# Velocity S-wave (km/s) = 3.15551 3.57590 3.37226
# Velocity P-wave (km/s) = 6.85591 7.18019 7.01992
#
# Compressibility (1/GPa) = 0.01733226
#
# Stress axis : x y z
#
# Youngs Moduli (GPa) = 50.86882 66.21363 67.76810
#
# Poissons Ratio (x) = 0.36572 0.43527
# Poissons Ratio (y) = 0.28096 0.28098
# Poissons Ratio (z) = 0.32673 0.27454
#
# Static dielectric constant tensor:
#      x y z
#    x 3.129670 0.000000 -0.095070 
#    y 0.000000 3.135010 0.000000 
#    z -0.095070 0.000000 3.287840 
# 
# 
# High freq. dielectric constant tensor:
#      x y z
#    x 1.654510 0.000000 -0.008100 
#    y 0.000000 1.650560 0.000000 
#    z -0.008100 0.000000 1.656090 
# 
# From -- ./inp_files/214303.got.cif
#   From: 2010.06.25/outbox.cif.g09.slc.cpg/sg12_108_cif.got.tgz:214303.got - 2010.06.28 00:19:55.
