data_PCOD8096389
_publ_section_title
;
Structure prediction by ZEFSAII (Michael W. Deem and Ramdas Pophale) SiO2 
 PCOD8096389
Probable space group: C 2/M
;
_chemical_formula_sum "Si O2"
_cell_formula_units_Z 48
_cell_length_a 18.952983
_cell_length_b 8.985299
_cell_length_c 15.726373
_cell_angle_alpha 90.000000
_cell_angle_beta 77.164942
_cell_angle_gamma 90.000000
_cell_volume 2611.255437
_symmetry_space_group_name_H-M "C 2/M"
_symmetry_group_IT_number 12
_symmetry_cell_setting 'monoclinic'
loop_
_space_group_symop_operation_xyz
x,y,z
-x,y,-z
-x,-y,-z
x,-y,z
1/2+x,1/2+y,z
1/2-x,1/2+y,-z
1/2-x,1/2-y,-z
1/2+x,1/2-y,z
loop_
_atom_site_type_symbol
_atom_site_label
_atom_site_fract_x
_atom_site_fract_y
_atom_site_fract_z
Si Si1 0.684489 0.173573 0.470070
Si Si2 0.312610 0.824606 0.723979
Si Si3 0.925353 0.671595 0.360925
Si Si4 0.020110 0.327571 0.900505
Si Si5 0.332670 0.169540 0.222928
Si Si6 0.949170 0.824172 0.761669
O O1 0.750000 0.250000 0.500000
O O2 0.677420 0.231020 0.375758
O O3 0.608809 0.208621 0.538134
O O4 0.701582 0.000000 0.467489
O O5 0.233332 0.779684 0.778668
O O6 0.370355 0.742400 0.766978
O O7 0.323173 0.000000 0.729815
O O8 0.949702 0.500000 0.347091
O O9 0.864862 0.707876 0.306742
O O10 0.996261 0.770601 0.327122
O O11 0.999779 0.500000 0.890810
O O12 0.105832 0.303297 0.864442
O O13 0.975139 0.229604 0.846723
O O14 0.000000 0.274049 0.000000
O O15 0.304576 0.000000 0.228037
O O16 0.945050 0.000000 0.761632
#
# Coordination Sequence:
#
# PCOD8096389 Si02
#       6
#     8   8   8   8   8   8
#     4  10  20  33  53  79 108 145 189 232 269 316
#     4  11  22  35  53  79 112 149 185 224 273 323
#     4   9  18  35  55  76 107 147 187 228 273 322
#     4   9  19  39  65  87 109 139 174 216 271 335
#     4   9  17  32  56  82 109 140 177 219 268 325
#     4  11  23  37  55  80 112 145 181 228 274 320
#
# _framework density 18.381962000000001
#
# number of rings (size 3 to 8) (size 9 to 14) (size 15 to 20)
#    0.000    2.167    1.667    3.000    0.000    5.000 
#    0.000    4.167    0.000    0.000    0.000    0.000 
#    0.000    0.000    0.000    0.000    0.000    0.000 
#
# Total GULP energy -297661.761372 kJ/mol
# GULP energy per Si atom -12402.573391 kJ/mol
# Density = 1.834012 g / cm^3
# Si number density = 18.381962 Si / 1000 Ang^3
#
#
#
# Elastic Constant Matrix: (Units=GPa)
#
#
# Indices 1 2 3 4 5 6 
#
# 1 113.7796 56.1331 43.9788 0.0000 -1.6025 0.0000
# 2 56.1331 89.4586 30.8074 0.0000 3.4121 0.0000
# 3 43.9788 30.8074 89.1864 0.0000 -14.7443 0.0000
# 4 0.0000 0.0000 0.0000 21.1700 0.0000 -1.4950
# 5 -1.6025 3.4121 -14.7443 0.0000 20.8535 0.0000
# 6 0.0000 0.0000 0.0000 -1.4950 0.0000 36.5670
#
#
#
# Elastic Compliance Matrix: (Units=1/GPa)
#
#
# Indices 1 2 3 4 5 6 
#
# 1 0.014137 -0.007234 -0.004639 0.000000 -0.001010 0.000000
# 2 -0.007234 0.017055 -0.003258 0.000000 -0.005650 0.000000
# 3 -0.004639 -0.003258 0.016594 0.000000 0.011910 0.000000
# 4 0.000000 0.000000 0.000000 0.047373 0.000000 0.001937
# 5 -0.001010 -0.005650 0.011910 0.000000 0.057221 0.000000
# 6 0.000000 0.000000 0.000000 0.001937 0.000000 0.027426
#
#
# Mechanical properties :
#
#
# Convention : Reuss Voigt Hill
#
# Bulk Modulus (GPa) = 57.06649 61.58481 59.32565
# Shear Modulus (GPa) = 23.15760 26.48510 24.82135
#
# Velocity S-wave (km/s) = 3.55322 3.79993 3.67864
# Velocity P-wave (km/s) = 6.92431 7.26830 7.09839
#
# Compressibility (1/GPa) = 0.01752342
#
# Stress axis : x y z
#
# Youngs Moduli (GPa) = 70.73662 58.63264 60.26144
#
# Poissons Ratio (x) = 0.42418 0.27956
# Poissons Ratio (y) = 0.51174 0.19634
# Poissons Ratio (z) = 0.32815 0.19103
#
# Static dielectric constant tensor:
#      x y z
#    x 3.319870 0.000000 -0.176660 
#    y 0.000000 3.289530 0.000000 
#    z -0.176660 0.000000 3.452170 
# 
# 
# High freq. dielectric constant tensor:
#      x y z
#    x 1.711550 0.000000 -0.011070 
#    y 0.000000 1.707980 0.000000 
#    z -0.011070 0.000000 1.701000 
# 
# From -- ./inp_files/221595.got.cif
#   From: 2010.06.25/outbox.cif.g09.slc.cpg/sg12_111_cif.got.tgz:221595.got - 2010.06.28 00:19:55.
