data_PCOD8096253
_publ_section_title
;
Structure prediction by ZEFSAII (Michael W. Deem and Ramdas Pophale) SiO2 
 PCOD8096253
Probable space group: C 2/M
;
_chemical_formula_sum "Si O2"
_cell_formula_units_Z 64
_cell_length_a 31.785585
_cell_length_b 9.189829
_cell_length_c 16.101792
_cell_angle_alpha 90.000000
_cell_angle_beta 46.423012
_cell_angle_gamma 90.000000
_cell_volume 3407.371887
_symmetry_space_group_name_H-M "C 2/M"
_symmetry_group_IT_number 12
_symmetry_cell_setting 'monoclinic'
loop_
_space_group_symop_operation_xyz
x,y,z
-x,y,-z
-x,-y,-z
x,-y,z
1/2+x,1/2+y,z
1/2-x,1/2+y,-z
1/2-x,1/2-y,-z
1/2+x,1/2-y,z
loop_
_atom_site_type_symbol
_atom_site_label
_atom_site_fract_x
_atom_site_fract_y
_atom_site_fract_z
Si Si1 0.253518 0.844209 0.415568
Si Si2 0.926957 0.674544 0.368060
Si Si3 0.886119 0.656634 0.243211
Si Si4 0.832546 0.825786 0.605331
Si Si5 0.669524 0.332547 0.071648
Si Si6 0.212406 0.330779 0.171249
Si Si7 0.542751 0.328732 0.173181
Si Si8 0.941998 0.155965 0.030757
O O1 0.250000 0.750000 0.500000
O O2 0.320306 0.866228 0.308322
O O3 0.220277 0.775907 0.382546
O O4 0.223681 0.000000 0.474743
O O5 0.925583 0.500000 0.380944
O O6 0.898642 0.724246 0.317667
O O7 0.890911 0.750328 0.491130
O O8 0.992591 0.735351 0.286552
O O9 0.918287 0.500000 0.197912
O O10 0.903198 0.749526 0.142030
O O11 0.815230 0.764014 0.718073
O O12 0.840896 0.000000 0.600180
O O13 0.673669 0.500000 0.096779
O O14 0.681443 0.221838 0.129597
O O15 0.605189 0.296086 0.127572
O O16 0.717766 0.307097 0.933378
O O17 0.197930 0.500000 0.205928
O O18 0.526785 0.500000 0.199120
O O19 0.545107 0.270115 0.075304
O O20 0.910731 0.000000 0.056882
O O21 0.000000 0.126521 0.000000
#
# Coordination Sequence:
#
# PCOD8096253 Si02
#       8
#     8   8   8   8   8   8   8   8
#     4  10  21  36  53  78 111 150 193 235 278 330
#     4  11  22  37  57  81 115 155 195 240 286 332
#     4  10  21  35  50  74 111 150 189 235 283 326
#     4  11  23  38  59  85 115 154 195 235 285 343
#     4   9  20  40  64  88 117 150 184 229 287 345
#     4  10  21  39  64  91 118 146 183 234 288 342
#     4  10  21  38  58  84 116 152 194 235 281 340
#     4  10  20  33  52  78 110 149 192 230 270 327
#
# _framework density 18.782806000000001
#
# number of rings (size 3 to 8) (size 9 to 14) (size 15 to 20)
#    0.000    1.875    2.500    1.125    1.750    3.250 
#    0.000    0.625    0.000    3.750    0.000    0.000 
#    0.000    0.000    0.000    0.000    0.000    0.000 
#
# Total GULP energy -396553.397788 kJ/mol
# GULP energy per Si atom -12392.293681 kJ/mol
# Density = 1.874006 g / cm^3
# Si number density = 18.782806 Si / 1000 Ang^3
#
#
#
# Elastic Constant Matrix: (Units=GPa)
#
#
# Indices 1 2 3 4 5 6 
#
# 1 88.6809 33.8823 48.5915 0.0001 -11.4949 0.0000
# 2 33.8823 97.2275 67.8667 0.0023 -2.5002 0.0002
# 3 48.5915 67.8667 137.6179 0.0002 -0.4137 0.0001
# 4 0.0001 0.0023 0.0002 47.7625 0.0000 5.2141
# 5 -11.4949 -2.5002 -0.4137 0.0000 27.7311 0.0000
# 6 0.0000 0.0002 0.0001 5.2141 0.0000 27.9157
#
#
#
# Elastic Compliance Matrix: (Units=1/GPa)
#
#
# Indices 1 2 3 4 5 6 
#
# 1 0.015241 -0.002153 -0.004302 0.000000 0.006059 0.000000
# 2 -0.002153 0.016035 -0.007146 -0.000001 0.000447 0.000000
# 3 -0.004302 -0.007146 0.012303 0.000000 -0.002244 0.000000
# 4 0.000000 -0.000001 0.000000 0.021373 0.000000 -0.003992
# 5 0.006059 0.000447 -0.002244 0.000000 0.038579 0.000000
# 6 0.000000 0.000000 0.000000 -0.003992 0.000000 0.036568
#
#
# Mechanical properties :
#
#
# Convention : Reuss Voigt Hill
#
# Bulk Modulus (GPa) = 61.05868 69.35635 65.20751
# Shear Modulus (GPa) = 28.94191 32.22759 30.58475
#
# Velocity S-wave (km/s) = 3.92965 4.14672 4.03964
# Velocity P-wave (km/s) = 7.29163 7.74162 7.51999
#
# Compressibility (1/GPa) = 0.01637769
#
# Stress axis : x y z
#
# Youngs Moduli (GPa) = 65.61068 62.36309 81.28231
#
# Poissons Ratio (x) = 0.13426 0.34965
# Poissons Ratio (y) = 0.14126 0.58086
# Poissons Ratio (z) = 0.28223 0.44566
#
# Static dielectric constant tensor:
#      x y z
#    x 3.672170 -0.000100 -0.376600 
#    y -0.000100 -33.427810 0.000100 
#    z -0.376600 0.000100 3.656060 
# 
# 
# High freq. dielectric constant tensor:
#      x y z
#    x 1.720230 0.000000 -0.005410 
#    y 0.000000 1.735770 0.000000 
#    z -0.005410 0.000000 1.728320 
# 
# From -- ./inp_files/249804.got.cif
#   From: 2010.06.25/outbox.cif.g09.slc.cpg/sg12_125_cif.got.tgz:249804.got - 2010.06.28 00:19:55.
