data_PCOD8096365
_publ_section_title
;
Structure prediction by ZEFSAII (Michael W. Deem and Ramdas Pophale) SiO2 
 PCOD8096365
Probable space group: C 2/M
;
_chemical_formula_sum "Si O2"
_cell_formula_units_Z 56
_cell_length_a 12.004985
_cell_length_b 12.312250
_cell_length_c 19.662719
_cell_angle_alpha 90.000000
_cell_angle_beta 76.431853
_cell_angle_gamma 90.000000
_cell_volume 2825.203913
_symmetry_space_group_name_H-M "C 2/M"
_symmetry_group_IT_number 12
_symmetry_cell_setting 'monoclinic'
loop_
_space_group_symop_operation_xyz
x,y,z
-x,y,-z
-x,-y,-z
x,-y,z
1/2+x,1/2+y,z
1/2-x,1/2+y,-z
1/2-x,1/2-y,-z
1/2+x,1/2-y,z
loop_
_atom_site_type_symbol
_atom_site_label
_atom_site_fract_x
_atom_site_fract_y
_atom_site_fract_z
Si Si1 0.740868 0.624283 0.067200
Si Si2 0.192752 0.878661 0.291265
Si Si3 0.381854 0.808076 0.169708
Si Si4 0.119144 0.373974 0.513382
Si Si5 0.544107 0.374405 0.743443
Si Si6 0.788616 0.773040 0.386129
Si Si7 0.921732 0.701534 0.947345
O O1 0.725296 0.500000 0.094050
O O2 0.799031 0.699403 0.116473
O O3 0.618897 0.679468 0.071763
O O4 0.815703 0.626415 0.986503
O O5 0.315978 0.880615 0.234790
O O6 0.199248 0.792616 0.351381
O O7 0.088226 0.845196 0.256150
O O8 0.170838 0.000000 0.323073
O O9 0.410868 0.690899 0.197480
O O10 0.503185 0.856569 0.123594
O O11 0.113903 0.500000 0.531941
O O12 0.139062 0.312906 0.581054
O O13 0.219155 0.352739 0.445005
O O14 0.000000 0.331695 0.500000
O O15 0.556426 0.500000 0.760222
O O16 0.623511 0.347015 0.667835
O O17 0.000000 0.725670 0.000000
#
# Coordination Sequence:
#
# PCOD8096365 Si02
#       7
#     8   8   8   8   8   8   8
#     4  10  20  36  57  79 106 140 175 215 265 316
#     4  10  20  34  54  78 104 138 179 221 265 312
#     4  10  20  33  53  78 105 135 174 216 262 315
#     4  10  20  34  54  80 110 143 176 214 263 314
#     4  10  21  37  56  77 105 140 176 218 266 312
#     4  10  20  35  55  79 108 140 178 220 260 311
#     4   9  20  36  54  80 109 136 174 220 263 313
#
# _framework density 19.821577000000001
#
# number of rings (size 3 to 8) (size 9 to 14) (size 15 to 20)
#    0.000    2.143    0.000    3.000    0.000    5.143 
#    0.000    5.714    0.000   34.286    0.000    0.000 
#    0.000    0.000    0.000    0.000    0.000    0.000 
#
# Total GULP energy -347016.647036 kJ/mol
# GULP energy per Si atom -12393.451680 kJ/mol
# Density = 1.977646 g / cm^3
# Si number density = 19.821577 Si / 1000 Ang^3
#
#
#
# Elastic Constant Matrix: (Units=GPa)
#
#
# Indices 1 2 3 4 5 6 
#
# 1 76.3995 35.4844 8.9215 0.0000 -1.6500 0.0000
# 2 35.4844 78.2398 11.3852 0.0000 16.1139 0.0000
# 3 8.9215 11.3852 64.5789 0.0000 -3.2158 0.0000
# 4 0.0000 0.0000 0.0000 18.1916 0.0000 3.3017
# 5 -1.6500 16.1139 -3.2158 0.0000 29.2442 0.0000
# 6 0.0000 0.0000 0.0000 3.3017 0.0000 19.4412
#
#
#
# Elastic Compliance Matrix: (Units=1/GPa)
#
#
# Indices 1 2 3 4 5 6 
#
# 1 0.017496 -0.009081 -0.000521 0.000000 0.005934 0.000000
# 2 -0.009081 0.019714 -0.002803 0.000000 -0.011683 0.000000
# 3 -0.000521 -0.002803 0.016215 0.000000 0.003298 0.000000
# 4 0.000000 0.000000 0.000000 0.056719 0.000000 -0.009633
# 5 0.005934 -0.011683 0.003298 0.000000 0.041330 0.000000
# 6 0.000000 0.000000 0.000000 -0.009633 0.000000 0.053073
#
#
# Mechanical properties :
#
#
# Convention : Reuss Voigt Hill
#
# Bulk Modulus (GPa) = 34.94568 36.75559 35.85063
# Shear Modulus (GPa) = 20.92972 24.27052 22.60012
#
# Velocity S-wave (km/s) = 3.25300 3.50301 3.38032
# Velocity P-wave (km/s) = 5.63717 5.91142 5.77592
#
# Compressibility (1/GPa) = 0.02861584
#
# Stress axis : x y z
#
# Youngs Moduli (GPa) = 57.15611 50.72540 61.67048
#
# Poissons Ratio (x) = 0.46066 0.03210
# Poissons Ratio (y) = 0.51905 0.17285
# Poissons Ratio (z) = 0.02975 0.14217
#
# Static dielectric constant tensor:
#      x y z
#    x 3.760600 0.000000 -0.158920 
#    y 0.000000 3.333650 0.000000 
#    z -0.158920 0.000000 3.825350 
# 
# 
# High freq. dielectric constant tensor:
#      x y z
#    x 1.777370 0.000000 -0.009830 
#    y 0.000000 1.752470 0.000000 
#    z -0.009830 0.000000 1.783290 
# 
# From -- ./inp_files/304291.got.cif
#   From: 2010.06.25/outbox.cif.g09.slc.cpg/sg12_153_cif.got.tgz:304291.got - 2010.06.28 00:19:55.
