data_PCOD8096775
_publ_section_title
;
Structure prediction by ZEFSAII (Michael W. Deem and Ramdas Pophale) SiO2 
 PCOD8096775
Probable space group: C 2/M
;
_chemical_formula_sum "Si O2"
_cell_formula_units_Z 64
_cell_length_a 9.785089
_cell_length_b 18.348320
_cell_length_c 31.555827
_cell_angle_alpha 90.000000
_cell_angle_beta 145.073123
_cell_angle_gamma 90.000000
_cell_volume 3243.689747
_symmetry_space_group_name_H-M "C 2/M"
_symmetry_group_IT_number 12
_symmetry_cell_setting 'monoclinic'
loop_
_space_group_symop_operation_xyz
x,y,z
-x,y,-z
-x,-y,-z
x,-y,z
1/2+x,1/2+y,z
1/2-x,1/2+y,-z
1/2-x,1/2-y,-z
1/2+x,1/2-y,z
loop_
_atom_site_type_symbol
_atom_site_label
_atom_site_fract_x
_atom_site_fract_y
_atom_site_fract_z
Si Si1 0.367828 0.712713 0.336556
Si Si2 0.802423 0.582208 0.174977
Si Si3 0.053419 0.680087 0.060077
Si Si4 0.778640 0.085186 0.254811
Si Si5 0.797932 0.196571 0.413703
Si Si6 0.929949 0.153086 0.026423
Si Si7 0.994631 0.158633 0.769829
Si Si8 0.434284 0.915849 0.299180
O O1 0.351880 0.629390 0.315833
O O2 0.599696 0.743143 0.372353
O O3 0.418822 0.713485 0.399424
O O4 0.130044 0.761764 0.266389
O O5 0.750168 0.500000 0.174990
O O6 0.550960 0.614876 0.097219
O O7 0.896712 0.619869 0.242589
O O8 0.989811 0.587129 0.183570
O O9 0.314592 0.660327 0.143523
O O10 0.033705 0.766237 0.052690
O O11 0.000000 0.646559 0.000000
O O12 0.854872 0.648725 0.041562
O O13 0.873491 0.130450 0.238875
O O14 0.867106 0.000000 0.278231
O O15 0.667115 0.118827 0.379735
O O16 0.000000 0.195994 0.500000
O O17 0.000000 0.114255 0.000000
O O18 0.797478 0.098777 0.731141
O O19 0.490751 0.000000 0.311310
#
# Coordination Sequence:
#
# PCOD8096775 Si02
#       8
#     8   8   8   8   8   8   8   8
#     4  11  22  40  64  96 124 163 202 256 300 369
#     4  10  20  35  57  80 112 157 205 251 297 362
#     4  10  21  34  53  81 112 153 196 256 310 355
#     4  11  22  38  62  91 123 159 208 259 306 362
#     4  11  23  40  65  96 127 160 199 250 306 369
#     4  10  20  34  50  77 114 147 195 254 306 358
#     4  11  22  38  64  87 121 163 209 256 308 365
#     4  10  22  39  60  88 118 158 207 251 300 361
#
# _framework density 19.730616999999999
#
# number of rings (size 3 to 8) (size 9 to 14) (size 15 to 20)
#    0.000    1.500    2.500    3.000    0.000    2.500 
#    0.000    1.250    0.000    3.750    0.000    0.000 
#    0.000    0.000    0.000    0.000    0.000    0.000 
#
# Total GULP energy -396682.510204 kJ/mol
# GULP energy per Si atom -12396.328444 kJ/mol
# Density = 1.968571 g / cm^3
# Si number density = 19.730617 Si / 1000 Ang^3
#
#
#
# Elastic Constant Matrix: (Units=GPa)
#
#
# Indices 1 2 3 4 5 6 
#
# 1 82.8996 21.1524 11.3598 0.0002 -14.9218 0.0001
# 2 21.1524 78.8786 35.1338 -0.0005 0.5886 -0.0002
# 3 11.3598 35.1338 105.5880 -0.0004 -12.7088 -0.0005
# 4 0.0002 -0.0005 -0.0004 13.4141 -0.0005 -7.8659
# 5 -14.9218 0.5886 -12.7088 -0.0005 28.8719 -0.0004
# 6 0.0001 -0.0002 -0.0005 -7.8659 -0.0004 21.7255
#
#
#
# Elastic Compliance Matrix: (Units=1/GPa)
#
#
# Indices 1 2 3 4 5 6 
#
# 1 0.014478 -0.004312 0.000833 0.000000 0.007937 0.000000
# 2 -0.004312 0.016359 -0.005583 0.000000 -0.005020 0.000000
# 3 0.000833 -0.005583 0.011937 0.000001 0.005799 0.000001
# 4 0.000000 0.000000 0.000001 0.094641 0.000002 0.034265
# 5 0.007937 -0.005020 0.005799 0.000002 0.041393 0.000002
# 6 0.000000 0.000000 0.000001 0.034265 0.000002 0.058435
#
#
# Mechanical properties :
#
#
# Convention : Reuss Voigt Hill
#
# Bulk Modulus (GPa) = 40.57350 44.73978 42.65664
# Shear Modulus (GPa) = 18.96928 26.11697 22.54313
#
# Velocity S-wave (km/s) = 3.10403 3.64218 3.38382
# Velocity P-wave (km/s) = 5.78403 6.35703 6.07729
#
# Compressibility (1/GPa) = 0.02464663
#
# Stress axis : x y z
#
# Youngs Moduli (GPa) = 69.07185 61.12993 83.77317
#
# Poissons Ratio (x) = 0.26362 -0.06975
# Poissons Ratio (y) = 0.29787 0.46775
# Poissons Ratio (z) = -0.05751 0.34132
#
# Static dielectric constant tensor:
#      x y z
#    x 3.841440 0.000000 -0.107810 
#    y 0.000000 3.466910 0.000000 
#    z -0.107810 0.000000 3.475990 
# 
# 
# High freq. dielectric constant tensor:
#      x y z
#    x 1.788830 0.000000 -0.001940 
#    y 0.000000 1.756580 0.000000 
#    z -0.001940 0.000000 1.753330 
# 
# From -- ./inp_files/372971.got.cif
#   From: 2010.06.25/outbox.cif.g09.slc.cpg/sg12_187_cif.got.tgz:372971.got - 2010.06.28 00:19:55.
