data_PCOD8096138
_publ_section_title
;
Structure prediction by ZEFSAII (Michael W. Deem and Ramdas Pophale) SiO2 
 PCOD8096138
Probable space group: C 2/M
;
_chemical_formula_sum "Si O2"
_cell_formula_units_Z 48
_cell_length_a 15.855839
_cell_length_b 8.791821
_cell_length_c 29.200193
_cell_angle_alpha 90.000000
_cell_angle_beta 35.273065
_cell_angle_gamma 90.000000
_cell_volume 2350.640096
_symmetry_space_group_name_H-M "C 2/M"
_symmetry_group_IT_number 12
_symmetry_cell_setting 'monoclinic'
loop_
_space_group_symop_operation_xyz
x,y,z
-x,y,-z
-x,-y,-z
x,-y,z
1/2+x,1/2+y,z
1/2-x,1/2+y,-z
1/2-x,1/2-y,-z
1/2+x,1/2-y,z
loop_
_atom_site_type_symbol
_atom_site_label
_atom_site_fract_x
_atom_site_fract_y
_atom_site_fract_z
Si Si1 0.593820 0.321076 0.335637
Si Si2 0.579425 0.319430 0.175457
Si Si3 0.863943 0.174283 0.093654
Si Si4 0.410875 0.167576 0.493994
Si Si5 0.410745 0.819259 0.170851
Si Si6 0.899932 0.819345 0.340256
O O1 0.588441 0.500000 0.336448
O O2 0.503246 0.269989 0.419295
O O3 0.761211 0.266066 0.262321
O O4 0.520597 0.256029 0.321947
O O5 0.589947 0.500000 0.165893
O O6 0.731279 0.260481 0.128125
O O7 0.544920 0.247081 0.141148
O O8 0.449033 0.268703 0.267795
O O9 0.912315 0.253618 0.119221
O O10 0.819314 0.000000 0.122999
O O11 0.000000 0.184711 0.000000
O O12 0.500000 0.148329 0.500000
O O13 0.256793 0.248255 0.574890
O O14 0.386366 0.000000 0.482817
O O15 0.425479 0.000000 0.161322
O O16 0.887827 0.000000 0.346970
#
# Coordination Sequence:
#
# PCOD8096138 Si02
#       6
#     8   8   8   8   8   8
#     4  10  20  36  56  81 117 159 205 255 305 360
#     4  11  22  41  68  95 127 167 208 257 314 370
#     4  11  25  45  68  96 128 161 203 255 311 377
#     4  10  20  33  51  79 115 156 205 255 303 360
#     4  11  23  41  65  94 128 167 211 258 310 371
#     4   9  18  35  56  81 118 160 203 252 308 364
#
# _framework density 20.419969999999999
#
# number of rings (size 3 to 8) (size 9 to 14) (size 15 to 20)
#    0.000    1.667    1.667    3.000    0.000    5.000 
#    0.000    1.667    0.000    0.000    0.000    0.000 
#    0.000    0.000    0.000    0.000    0.000    0.000 
#
# Total GULP energy -297564.947233 kJ/mol
# GULP energy per Si atom -12398.539468 kJ/mol
# Density = 2.037349 g / cm^3
# Si number density = 20.419970 Si / 1000 Ang^3
#
#
#
# Elastic Constant Matrix: (Units=GPa)
#
#
# Indices 1 2 3 4 5 6 
#
# 1 138.0088 40.5327 38.0361 0.0003 23.4392 -0.0031
# 2 40.5327 64.8686 34.7448 0.0015 9.9756 -0.0026
# 3 38.0361 34.7448 93.3012 -0.0004 8.3121 0.0003
# 4 0.0003 0.0015 -0.0004 39.0949 0.0004 11.0710
# 5 23.4392 9.9756 8.3121 0.0004 15.2953 -0.0006
# 6 -0.0031 -0.0026 0.0003 11.0710 -0.0006 37.3862
#
#
#
# Elastic Compliance Matrix: (Units=1/GPa)
#
#
# Indices 1 2 3 4 5 6 
#
# 1 0.011233 -0.003898 -0.001913 0.000000 -0.013632 0.000000
# 2 -0.003898 0.021896 -0.006121 -0.000001 -0.004981 0.000002
# 3 -0.001913 -0.006121 0.013830 0.000001 -0.000591 -0.000001
# 4 0.000000 -0.000001 0.000001 0.027920 -0.000001 -0.008268
# 5 -0.013632 -0.004981 -0.000591 -0.000001 0.089840 0.000000
# 6 0.000000 0.000002 -0.000001 -0.008268 0.000000 0.029196
#
#
# Mechanical properties :
#
#
# Convention : Reuss Voigt Hill
#
# Bulk Modulus (GPa) = 43.30019 58.08952 50.69485
# Shear Modulus (GPa) = 22.17505 30.54629 26.36067
#
# Velocity S-wave (km/s) = 3.29895 3.87189 3.59684
# Velocity P-wave (km/s) = 5.98010 6.96404 6.49074
#
# Compressibility (1/GPa) = 0.02309459
#
# Stress axis : x y z
#
# Youngs Moduli (GPa) = 89.02060 45.67085 72.30545
#
# Poissons Ratio (x) = 0.17801 0.13836
# Poissons Ratio (y) = 0.34698 0.44259
# Poissons Ratio (z) = 0.17034 0.27956
#
# Static dielectric constant tensor:
#      x y z
#    x 3.908480 0.000000 -0.002290 
#    y 0.000000 3.636400 0.000000 
#    z -0.002290 0.000000 3.941790 
# 
# 
# High freq. dielectric constant tensor:
#      x y z
#    x 1.811100 0.000000 -0.001850 
#    y 0.000000 1.782590 0.000000 
#    z -0.001850 0.000000 1.803450 
# 
# From -- ./inp_files/274135.got.cif
#   From: 2010.06.25/outbox.cif.g09.slc.cpg/sg12_138_cif.got.tgz:274135.got - 2010.06.28 00:19:55.
