data_PCOD8096744
_publ_section_title
;
Structure prediction by ZEFSAII (Michael W. Deem and Ramdas Pophale) SiO2 
 PCOD8096744
Probable space group: C 2/M
;
_chemical_formula_sum "Si O2"
_cell_formula_units_Z 64
_cell_length_a 23.429627
_cell_length_b 8.746548
_cell_length_c 18.054964
_cell_angle_alpha 90.000000
_cell_angle_beta 90.165989
_cell_angle_gamma 90.000000
_cell_volume 3699.958585
_symmetry_space_group_name_H-M "C 2/M"
_symmetry_group_IT_number 12
_symmetry_cell_setting 'monoclinic'
loop_
_space_group_symop_operation_xyz
x,y,z
-x,y,-z
-x,-y,-z
x,-y,z
1/2+x,1/2+y,z
1/2-x,1/2+y,-z
1/2-x,1/2-y,-z
1/2+x,1/2-y,z
loop_
_atom_site_type_symbol
_atom_site_label
_atom_site_fract_x
_atom_site_fract_y
_atom_site_fract_z
Si Si1 0.688229 0.319429 0.000527
Si Si2 0.117333 0.179673 0.863028
Si Si3 0.314832 0.173166 0.584888
Si Si4 0.302638 0.824837 0.427134
Si Si5 0.879526 0.321189 0.867213
Si Si6 0.994984 0.820450 0.913263
Si Si7 0.815401 0.326098 0.265558
Si Si8 0.818064 0.177383 0.732572
O O1 0.692953 0.500000 0.996346
O O2 0.654433 0.250269 0.930188
O O3 0.750000 0.250000 0.000000
O O4 0.656598 0.275204 0.074945
O O5 0.143985 0.224281 0.784807
O O6 0.052199 0.234715 0.871485
O O7 0.118454 0.000000 0.871259
O O8 0.341392 0.200598 0.501780
O O9 0.247642 0.201297 0.573157
O O10 0.338822 0.284849 0.648628
O O11 0.325250 0.000000 0.611354
O O12 0.337282 0.802553 0.350405
O O13 0.278152 0.000000 0.427167
O O14 0.871491 0.500000 0.881727
O O15 0.945459 0.276249 0.874582
O O16 0.856423 0.279476 0.786214
O O17 0.982565 0.000000 0.902771
O O18 0.000000 0.780830 0.000000
O O19 0.822626 0.500000 0.239581
O O20 0.748727 0.278503 0.258272
O O21 0.828825 0.000000 0.748799
#
# Coordination Sequence:
#
# PCOD8096744 Si02
#       8
#     8   8   8   8   8   8   8   8
#     4  11  22  37  53  74 103 137 170 205 251 305
#     4  10  21  35  53  73  96 129 169 207 251 300
#     4   9  15  25  44  69  98 132 172 212 243 288
#     4   8  15  27  42  65 100 140 171 198 246 303
#     4  12  24  36  53  78 101 128 169 215 257 303
#     4  10  20  40  60  72  93 130 168 211 262 308
#     4   9  18  31  48  72 104 137 168 203 246 297
#     4  10  20  34  50  71 104 142 171 203 254 310
#
# _framework density 17.297491000000001
#
# number of rings (size 3 to 8) (size 9 to 14) (size 15 to 20)
#    0.000    2.125    1.250    3.750    0.000    6.750 
#    0.000    0.000    0.000    0.000    0.000    0.875 
#    0.000    7.000    0.000    0.000    0.000    0.000 
#
# Total GULP energy -396647.193862 kJ/mol
# GULP energy per Si atom -12395.224808 kJ/mol
# Density = 1.725812 g / cm^3
# Si number density = 17.297491 Si / 1000 Ang^3
#
#
#
# Elastic Constant Matrix: (Units=GPa)
#
#
# Indices 1 2 3 4 5 6 
#
# 1 90.3457 24.6891 44.9683 0.0000 -0.1396 0.0000
# 2 24.6891 43.8297 17.5084 0.0000 -3.4633 0.0000
# 3 44.9683 17.5084 120.8566 0.0000 0.7900 0.0000
# 4 0.0000 0.0000 0.0000 29.7437 0.0000 -1.2417
# 5 -0.1396 -3.4633 0.7900 0.0000 3.5380 0.0000
# 6 0.0000 0.0000 0.0000 -1.2417 0.0000 23.8165
#
#
#
# Elastic Compliance Matrix: (Units=1/GPa)
#
#
# Indices 1 2 3 4 5 6 
#
# 1 0.015335 -0.007220 -0.004624 0.000000 -0.005430 0.000000
# 2 -0.007220 0.029946 -0.001844 0.000000 0.029441 0.000000
# 3 -0.004624 -0.001844 0.010290 0.000000 -0.004285 0.000000
# 4 0.000000 0.000000 0.000000 0.033694 0.000000 0.001757
# 5 -0.005430 0.029441 -0.004285 0.000000 0.312210 0.000000
# 6 0.000000 0.000000 0.000000 0.001757 0.000000 0.042079
#
#
# Mechanical properties :
#
#
# Convention : Reuss Voigt Hill
#
# Bulk Modulus (GPa) = 35.46913 47.70708 41.58811
# Shear Modulus (GPa) = 10.40954 22.61072 16.51013
#
# Velocity S-wave (km/s) = 2.45581 3.61940 3.09282
# Velocity P-wave (km/s) = 5.34708 6.71617 6.07035
#
# Compressibility (1/GPa) = 0.02819353
#
# Stress axis : x y z
#
# Youngs Moduli (GPa) = 65.21053 33.39391 97.18084
#
# Poissons Ratio (x) = 0.24110 0.44940
# Poissons Ratio (y) = 0.47082 0.17922
# Poissons Ratio (z) = 0.30156 0.06159
#
# Static dielectric constant tensor:
#      x y z
#    x 2.972980 0.000000 0.087320 
#    y 0.000000 3.182010 0.000000 
#    z 0.087320 0.000000 3.549000 
# 
# 
# High freq. dielectric constant tensor:
#      x y z
#    x 1.621590 0.000000 0.002800 
#    y 0.000000 1.670910 0.000000 
#    z 0.002800 0.000000 1.683940 
# 
# From -- ./inp_files/281362.got.cif
#   From: 2010.06.25/outbox.cif.g09.slc.cpg/sg12_141_cif.got.tgz:281362.got - 2010.06.28 00:19:55.
