data_PCOD8096613
_publ_section_title
;
Structure prediction by ZEFSAII (Michael W. Deem and Ramdas Pophale) SiO2 
 PCOD8096613
Probable space group: C 2/M
;
_chemical_formula_sum "Si O2"
_cell_formula_units_Z 64
_cell_length_a 22.339289
_cell_length_b 18.018587
_cell_length_c 9.899166
_cell_angle_alpha 90.000000
_cell_angle_beta 125.969925
_cell_angle_gamma 90.000000
_cell_volume 3224.867413
_symmetry_space_group_name_H-M "C 2/M"
_symmetry_group_IT_number 12
_symmetry_cell_setting 'monoclinic'
loop_
_space_group_symop_operation_xyz
x,y,z
-x,y,-z
-x,-y,-z
x,-y,z
1/2+x,1/2+y,z
1/2-x,1/2+y,-z
1/2-x,1/2-y,-z
1/2+x,1/2-y,z
loop_
_atom_site_type_symbol
_atom_site_label
_atom_site_fract_x
_atom_site_fract_y
_atom_site_fract_z
Si Si1 0.064538 0.168149 0.183163
Si Si2 0.289995 0.414761 0.586192
Si Si3 0.682086 0.416298 0.686996
Si Si4 0.661135 0.913165 0.023219
Si Si5 0.581180 0.835173 0.150650
Si Si6 0.075999 0.584047 0.652983
Si Si7 0.147533 0.350377 0.513126
Si Si8 0.932146 0.796592 0.508873
O O1 0.129088 0.108000 0.255349
O O2 0.092785 0.246928 0.164899
O O3 0.037940 0.177199 0.304258
O O4 0.000000 0.138453 0.000000
O O5 0.273682 0.500000 0.605871
O O6 0.285673 0.404363 0.420265
O O7 0.232247 0.357471 0.577944
O O8 0.652109 0.500000 0.664929
O O9 0.750514 0.401214 0.880630
O O10 0.613704 0.361971 0.625420
O O11 0.640078 0.869483 0.128671
O O12 0.644546 0.000000 0.021214
O O13 0.613737 0.879233 0.835298
O O14 0.594073 0.868069 0.316514
O O15 0.500000 0.859902 0.000000
O O16 0.057302 0.500000 0.665560
O O17 0.134580 0.587443 0.609271
O O18 0.000000 0.624348 0.500000
O O19 0.126149 0.270749 0.549250
O O20 0.000000 0.775240 0.500000
#
# Coordination Sequence:
#
# PCOD8096613 Si02
#       8
#     8   8   8   8   8   8   8   8
#     4   9  21  39  59  85 118 149 191 244 290 332
#     4  10  20  36  61  88 114 152 196 237 287 341
#     4   9  19  37  60  84 112 148 194 245 286 333
#     4  10  20  35  55  80 115 151 193 239 284 337
#     4  10  20  33  56  84 112 151 189 237 285 337
#     4  10  21  36  52  74 113 158 190 230 284 337
#     4  11  21  34  57  84 117 149 186 234 283 346
#     4  10  22  38  60  85 116 153 193 233 286 346
#
# _framework density 19.845776999999998
#
# number of rings (size 3 to 8) (size 9 to 14) (size 15 to 20)
#    0.000    2.125    1.250    1.500    1.750    4.750 
#    2.250    0.625    0.000    0.000    0.000    0.000 
#    0.000    0.000    0.000    0.000    0.000    0.000 
#
# Total GULP energy -396685.412615 kJ/mol
# GULP energy per Si atom -12396.419144 kJ/mol
# Density = 1.980061 g / cm^3
# Si number density = 19.845777 Si / 1000 Ang^3
#
#
#
# Elastic Constant Matrix: (Units=GPa)
#
#
# Indices 1 2 3 4 5 6 
#
# 1 90.1639 41.9405 32.9722 0.0000 6.4571 0.0000
# 2 41.9405 66.1772 38.1926 0.0000 7.8637 0.0000
# 3 32.9722 38.1926 124.7373 0.0000 15.9934 0.0000
# 4 0.0000 0.0000 0.0000 22.0934 0.0000 1.2874
# 5 6.4571 7.8637 15.9934 0.0000 27.0562 0.0000
# 6 0.0000 0.0000 0.0000 1.2874 0.0000 26.0845
#
#
#
# Elastic Compliance Matrix: (Units=1/GPa)
#
#
# Indices 1 2 3 4 5 6 
#
# 1 0.015917 -0.009286 -0.001323 0.000000 -0.000317 0.000000
# 2 -0.009286 0.023891 -0.004603 0.000000 -0.002007 0.000000
# 3 -0.001323 -0.004603 0.010348 0.000000 -0.004463 0.000000
# 4 0.000000 0.000000 0.000000 0.045393 0.000000 -0.002240
# 5 -0.000317 -0.002007 -0.004463 0.000000 0.040257 0.000000
# 6 0.000000 0.000000 0.000000 -0.002240 0.000000 0.038447
#
#
# Mechanical properties :
#
#
# Convention : Reuss Voigt Hill
#
# Bulk Modulus (GPa) = 50.68133 56.36545 53.52339
# Shear Modulus (GPa) = 23.66784 26.24504 24.95644
#
# Velocity S-wave (km/s) = 3.45713 3.64050 3.55000
# Velocity P-wave (km/s) = 6.44428 6.79223 6.62054
#
# Compressibility (1/GPa) = 0.01973113
#
# Stress axis : x y z
#
# Youngs Moduli (GPa) = 62.82531 41.85644 96.63337
#
# Poissons Ratio (x) = 0.38868 0.12789
# Poissons Ratio (y) = 0.58340 0.44482
# Poissons Ratio (z) = 0.08315 0.19267
#
# Static dielectric constant tensor:
#      x y z
#    x 3.384720 0.000000 0.095080 
#    y 0.000000 3.484320 0.000000 
#    z 0.095080 0.000000 3.886040 
# 
# 
# High freq. dielectric constant tensor:
#      x y z
#    x 1.755990 0.000000 0.007670 
#    y 0.000000 1.763200 0.000000 
#    z 0.007670 0.000000 1.780330 
# 
# From -- ./inp_files/89622.got.cif
#   From: 2010.06.25/outbox.cif.g09.slc.cpg/sg12_45_cif.got.tgz:89622.got - 2010.06.28 00:19:55.
