data_PCOD8096900
_publ_section_title
;
Structure prediction by ZEFSAII (Michael W. Deem and Ramdas Pophale) SiO2 
 PCOD8096900
Probable space group: C 2/M
;
_chemical_formula_sum "Si O2"
_cell_formula_units_Z 64
_cell_length_a 28.654406
_cell_length_b 9.127585
_cell_length_c 13.769892
_cell_angle_alpha 90.000000
_cell_angle_beta 104.147127
_cell_angle_gamma 90.000000
_cell_volume 3492.226275
_symmetry_space_group_name_H-M "C 2/M"
_symmetry_group_IT_number 12
_symmetry_cell_setting 'monoclinic'
loop_
_space_group_symop_operation_xyz
x,y,z
-x,y,-z
-x,-y,-z
x,-y,z
1/2+x,1/2+y,z
1/2-x,1/2+y,-z
1/2-x,1/2-y,-z
1/2+x,1/2-y,z
loop_
_atom_site_type_symbol
_atom_site_label
_atom_site_fract_x
_atom_site_fract_y
_atom_site_fract_z
Si Si1 0.863256 0.170973 0.139562
Si Si2 0.685457 0.669841 0.082174
Si Si3 0.769923 0.672626 0.604887
Si Si4 0.857415 0.169011 0.735988
Si Si5 0.443176 0.660321 0.463168
Si Si6 0.048004 0.829535 0.321490
Si Si7 0.271924 0.331062 0.213103
Si Si8 0.448102 0.173268 0.276885
O O1 0.826588 0.201794 0.209759
O O2 0.911510 0.263817 0.178914
O O3 0.876772 0.000000 0.139715
O O4 0.839977 0.228456 0.027728
O O5 0.697018 0.500000 0.076742
O O6 0.650175 0.702649 0.154490
O O7 0.736510 0.746774 0.122750
O O8 0.771285 0.500000 0.587722
O O9 0.750000 0.750000 0.500000
O O10 0.823558 0.729211 0.653289
O O11 0.735608 0.715708 0.678545
O O12 0.913049 0.205214 0.741637
O O13 0.845533 0.000000 0.705045
O O14 0.500000 0.647243 0.500000
O O15 0.421441 0.500000 0.424188
O O16 0.426071 0.709452 0.561942
O O17 0.429243 0.776577 0.373686
O O18 0.001065 0.732405 0.278857
O O19 0.032270 0.000000 0.313784
O O20 0.258941 0.500000 0.193040
O O21 0.448920 0.000000 0.273295
#
# Coordination Sequence:
#
# PCOD8096900 Si02
#       8
#     8   8   8   8   8   8   8   8
#     4  10  20  35  53  73 100 134 168 203 249 302
#     4   9  18  33  55  79 100 125 162 209 253 294
#     4  10  20  34  51  75 107 139 169 204 246 291
#     4   9  18  34  55  78 101 129 168 208 248 297
#     4   8  15  30  50  69  92 127 163 194 238 294
#     4   9  18  34  55  74  98 135 170 200 243 303
#     4   9  19  34  53  75 100 133 168 201 245 303
#     4  11  22  33  48  74 104 131 165 212 255 288
#
# _framework density 18.326419000000001
#
# number of rings (size 3 to 8) (size 9 to 14) (size 15 to 20)
#    0.000    2.625    0.000    2.625    0.000    5.250 
#    0.000    5.625    0.000    3.750    0.000    0.000 
#    0.000    0.000    0.000    0.000    0.000    0.000 
#
# Total GULP energy -396761.902929 kJ/mol
# GULP energy per Si atom -12398.809467 kJ/mol
# Density = 1.828471 g / cm^3
# Si number density = 18.326419 Si / 1000 Ang^3
#
#
#
# Elastic Constant Matrix: (Units=GPa)
#
#
# Indices 1 2 3 4 5 6 
#
# 1 85.0347 43.9256 42.4623 0.0000 -0.2400 0.0000
# 2 43.9256 89.5193 53.4198 0.0000 10.4632 0.0000
# 3 42.4623 53.4198 112.1058 0.0000 9.4084 0.0000
# 4 0.0000 0.0000 0.0000 25.5028 0.0000 7.1632
# 5 -0.2400 10.4632 9.4084 0.0000 22.1882 0.0000
# 6 0.0000 0.0000 0.0000 7.1632 0.0000 23.7584
#
#
#
# Elastic Compliance Matrix: (Units=1/GPa)
#
#
# Indices 1 2 3 4 5 6 
#
# 1 0.017108 -0.006788 -0.003660 0.000000 0.004938 0.000000
# 2 -0.006788 0.018720 -0.005809 0.000000 -0.006438 0.000000
# 3 -0.003660 -0.005809 0.013322 0.000000 -0.002949 0.000000
# 4 0.000000 0.000000 0.000000 0.042839 0.000000 -0.012916
# 5 0.004938 -0.006438 -0.002949 0.000000 0.049409 0.000000
# 6 0.000000 0.000000 0.000000 -0.012916 0.000000 0.045985
#
#
# Mechanical properties :
#
#
# Convention : Reuss Voigt Hill
#
# Bulk Modulus (GPa) = 60.10812 62.91947 61.51379
# Shear Modulus (GPa) = 22.17865 24.08002 23.12934
#
# Velocity S-wave (km/s) = 3.48257 3.62878 3.55643
# Velocity P-wave (km/s) = 7.00292 7.20865 7.10653
#
# Compressibility (1/GPa) = 0.01663669
#
# Stress axis : x y z
#
# Youngs Moduli (GPa) = 58.45359 53.41752 75.06325
#
# Poissons Ratio (x) = 0.36257 0.27472
# Poissons Ratio (y) = 0.39676 0.43606
# Poissons Ratio (z) = 0.21393 0.31032
#
# Static dielectric constant tensor:
#      x y z
#    x 3.356020 0.000000 -0.249750 
#    y 0.000000 3.286740 0.000000 
#    z -0.249750 0.000000 3.572590 
# 
# 
# High freq. dielectric constant tensor:
#      x y z
#    x 1.701570 0.000000 -0.008600 
#    y 0.000000 1.701490 0.000000 
#    z -0.008600 0.000000 1.707850 
# 
# From -- ./inp_files/244224.got.cif
#   From: 2010.06.25/outbox.cif.g09.slc.cpg/sg12_123_cif.got.tgz:244224.got - 2010.06.28 00:19:55.
