data_PCOD8096328
_publ_section_title
;
Structure prediction by ZEFSAII (Michael W. Deem and Ramdas Pophale) SiO2 
 PCOD8096328
Probable space group: C 2/M
;
_chemical_formula_sum "Si O2"
_cell_formula_units_Z 48
_cell_length_a 27.662315
_cell_length_b 9.089309
_cell_length_c 11.235577
_cell_angle_alpha 90.000000
_cell_angle_beta 58.812483
_cell_angle_gamma 90.000000
_cell_volume 2416.702328
_symmetry_space_group_name_H-M "C 2/M"
_symmetry_group_IT_number 12
_symmetry_cell_setting 'monoclinic'
loop_
_space_group_symop_operation_xyz
x,y,z
-x,y,-z
-x,-y,-z
x,-y,z
1/2+x,1/2+y,z
1/2-x,1/2+y,-z
1/2-x,1/2-y,-z
1/2+x,1/2-y,z
loop_
_atom_site_type_symbol
_atom_site_label
_atom_site_fract_x
_atom_site_fract_y
_atom_site_fract_z
Si Si1 0.178160 0.167380 0.833627
Si Si2 0.215698 0.331545 0.443761
Si Si3 0.469224 0.173841 0.359480
Si Si4 0.617846 0.326873 0.665571
Si Si5 0.582554 0.173699 0.329154
Si Si6 0.309548 0.825757 0.947529
O O1 0.246076 0.176958 0.723565
O O2 0.141167 0.216397 0.766327
O O3 0.162618 0.000000 0.888320
O O4 0.164816 0.276824 0.958139
O O5 0.204895 0.500000 0.493725
O O6 0.250000 0.250000 0.500000
O O7 0.155840 0.248650 0.512429
O O8 0.444867 0.261126 0.275366
O O9 0.534772 0.219028 0.293037
O O10 0.434453 0.232396 0.519309
O O11 0.462066 0.000000 0.348755
O O12 0.619076 0.500000 0.646089
O O13 0.644640 0.227575 0.209268
O O14 0.582292 0.000000 0.337952
O O15 0.301294 0.000000 0.956445
O O16 0.250000 0.750000 0.000000
#
# Coordination Sequence:
#
# PCOD8096328 Si02
#       6
#     8   8   8   8   8   8
#     4   9  20  37  52  73 110 149 183 221 266 323
#     4   9  17  30  49  73 105 142 179 222 267 315
#     4   9  17  35  62  83 104 141 184 227 277 326
#     4  10  20  33  52  82 114 141 179 228 278 328
#     4   8  18  37  58  81 108 141 184 228 271 326
#     4  11  23  38  57  81 111 146 184 224 270 329
#
# _framework density 19.861775000000002
#
# number of rings (size 3 to 8) (size 9 to 14) (size 15 to 20)
#    0.000    2.667    0.000    3.500    2.333    4.000 
#    0.000    5.000    0.000    5.000    0.000    0.000 
#    0.000    0.000    0.000    0.000    0.000    0.000 
#
# Total GULP energy -297404.661011 kJ/mol
# GULP energy per Si atom -12391.860875 kJ/mol
# Density = 1.981657 g / cm^3
# Si number density = 19.861775 Si / 1000 Ang^3
#
#
#
# Elastic Constant Matrix: (Units=GPa)
#
#
# Indices 1 2 3 4 5 6 
#
# 1 119.1983 35.1941 30.2265 0.0000 -8.9719 0.0000
# 2 35.1941 78.1663 27.6040 0.0000 -0.9869 0.0000
# 3 30.2265 27.6040 67.9572 0.0000 -11.0895 0.0000
# 4 0.0000 0.0000 0.0000 23.4992 0.0000 1.7860
# 5 -8.9719 -0.9869 -11.0895 0.0000 25.1493 0.0000
# 6 0.0000 0.0000 0.0000 1.7860 0.0000 35.1017
#
#
#
# Elastic Compliance Matrix: (Units=1/GPa)
#
#
# Indices 1 2 3 4 5 6 
#
# 1 0.010339 -0.003662 -0.002729 0.000000 0.002341 0.000000
# 2 -0.003662 0.016352 -0.005519 0.000000 -0.003098 0.000000
# 3 -0.002729 -0.005519 0.019370 0.000000 0.007351 0.000000
# 4 0.000000 0.000000 0.000000 0.042720 0.000000 -0.002174
# 5 0.002341 -0.003098 0.007351 0.000000 0.043718 0.000000
# 6 0.000000 0.000000 0.000000 -0.002174 0.000000 0.028599
#
#
# Mechanical properties :
#
#
# Convention : Reuss Voigt Hill
#
# Bulk Modulus (GPa) = 44.96118 50.15235 47.55677
# Shear Modulus (GPa) = 25.99686 28.23651 27.11668
#
# Velocity S-wave (km/s) = 3.62178 3.77457 3.69896
# Velocity P-wave (km/s) = 6.33845 6.65597 6.49915
#
# Compressibility (1/GPa) = 0.02224141
#
# Stress axis : x y z
#
# Youngs Moduli (GPa) = 96.72300 61.15557 51.62523
#
# Poissons Ratio (x) = 0.22393 0.14089
# Poissons Ratio (y) = 0.35417 0.28492
# Poissons Ratio (z) = 0.26397 0.33751
#
# Static dielectric constant tensor:
#      x y z
#    x 3.833690 0.000000 -0.265300 
#    y 0.000000 3.428370 0.000000 
#    z -0.265300 0.000000 3.847550 
# 
# 
# High freq. dielectric constant tensor:
#      x y z
#    x 1.785870 0.000000 -0.001980 
#    y 0.000000 1.758150 0.000000 
#    z -0.001980 0.000000 1.747660 
# 
# From -- ./inp_files/179741.got.cif
#   From: 2010.06.25/outbox.cif.g09.slc.cpg/sg12_90_cif.got.tgz:179741.got - 2010.06.28 00:19:55.
