data_PCOD8096687
_publ_section_title
;
Structure prediction by ZEFSAII (Michael W. Deem and Ramdas Pophale) SiO2 
 PCOD8096687
Probable space group: C 2/M
;
_chemical_formula_sum "Si O2"
_cell_formula_units_Z 56
_cell_length_a 14.508825
_cell_length_b 28.983078
_cell_length_c 9.092642
_cell_angle_alpha 90.000000
_cell_angle_beta 135.013868
_cell_angle_gamma 90.000000
_cell_volume 2703.004068
_symmetry_space_group_name_H-M "C 2/M"
_symmetry_group_IT_number 12
_symmetry_cell_setting 'monoclinic'
loop_
_space_group_symop_operation_xyz
x,y,z
-x,y,-z
-x,-y,-z
x,-y,z
1/2+x,1/2+y,z
1/2-x,1/2+y,-z
1/2-x,1/2-y,-z
1/2+x,1/2-y,z
loop_
_atom_site_type_symbol
_atom_site_label
_atom_site_fract_x
_atom_site_fract_y
_atom_site_fract_z
Si Si1 0.208574 0.191132 0.575425
Si Si2 0.209026 0.701112 0.014676
Si Si3 0.262820 0.098873 0.464004
Si Si4 0.496518 0.551081 0.821914
Si Si5 0.522554 0.051709 0.698608
Si Si6 0.738653 0.389544 0.090125
Si Si7 0.955252 0.250034 0.796161
O O1 0.206439 0.185043 0.748890
O O2 0.252447 0.144721 0.546535
O O3 0.068078 0.210232 0.354777
O O4 0.315393 0.229235 0.665728
O O5 0.250000 0.750000 0.000000
O O6 0.241642 0.663675 0.928237
O O7 0.053835 0.708058 0.865828
O O8 0.148189 0.065345 0.391340
O O9 0.401496 0.074478 0.648529
O O10 0.249617 0.109439 0.277273
O O11 0.528620 0.500000 0.794457
O O12 0.500000 0.548805 0.000000
O O13 0.601035 0.588725 0.882598
O O14 0.500000 0.050016 0.500000
O O15 0.651527 0.081486 0.872468
O O16 0.542816 0.000000 0.782444
O O17 0.000000 0.225882 0.000000
#
# Coordination Sequence:
#
# PCOD8096687 Si02
#       7
#     8   8   8   8   8   8   8
#     4  10  22  40  60  82 112 162 191 249 296 352
#     4  11  25  40  56  85 119 158 201 247 295 354
#     4  10  20  33  60  87 115 151 198 243 294 353
#     4   9  18  34  57  86 117 151 191 239 294 352
#     4   9  17  33  58  90 120 149 193 249 300 347
#     4  10  21  35  57  87 118 152 196 249 294 347
#     4   9  21  39  60  80 110 153 202 243 288 348
#
# _framework density 20.717689
#
# number of rings (size 3 to 8) (size 9 to 14) (size 15 to 20)
#    0.000    2.286    0.000    1.714    8.000    4.571 
#    0.000    0.000    0.000    5.143    0.000    0.000 
#    0.000    0.000    0.000    0.000    0.000    0.000 
#
# Total GULP energy -347034.528077 kJ/mol
# GULP energy per Si atom -12394.090288 kJ/mol
# Density = 2.067053 g / cm^3
# Si number density = 20.717689 Si / 1000 Ang^3
#
#
#
# Elastic Constant Matrix: (Units=GPa)
#
#
# Indices 1 2 3 4 5 6 
#
# 1 86.2872 46.1540 37.1659 0.0000 20.4971 0.0000
# 2 46.1540 133.9539 42.2290 0.0000 7.1084 0.0000
# 3 37.1659 42.2290 71.7536 0.0000 10.7246 0.0000
# 4 0.0000 0.0000 0.0000 -14.7526 0.0000 -5.5448
# 5 20.4971 7.1084 10.7246 0.0000 25.6748 0.0000
# 6 0.0000 0.0000 0.0000 -5.5448 0.0000 41.0448
#
#
#
# Elastic Compliance Matrix: (Units=1/GPa)
#
#
# Indices 1 2 3 4 5 6 
#
# 1 0.019021 -0.004148 -0.005667 0.000000 -0.011669 0.000000
# 2 -0.004148 0.010073 -0.004115 0.000000 0.002241 0.000000
# 3 -0.005667 -0.004115 0.019675 0.000000 -0.002555 0.000000
# 4 0.000000 0.000000 0.000000 -0.064509 0.000000 -0.008715
# 5 -0.011669 0.002241 -0.002555 0.000000 0.048712 0.000000
# 6 0.000000 0.000000 0.000000 -0.008715 0.000000 0.023186
#
#
# Mechanical properties :
#
#
# Convention : Reuss Voigt Hill
#
# Bulk Modulus (GPa) = 47.82371 60.34361 54.08366
# Shear Modulus (GPa) = 54.95362 21.48979 38.22170
#
# Velocity S-wave (km/s) = 5.15583 3.22416 4.29987
# Velocity P-wave (km/s) = 7.65356 6.56126 7.12836
#
# Compressibility (1/GPa) = 0.02091013
#
# Stress axis : x y z
#
# Youngs Moduli (GPa) = 52.57435 99.27934 50.82540
#
# Poissons Ratio (x) = 0.41180 0.28801
# Poissons Ratio (y) = 0.21807 0.20912
# Poissons Ratio (z) = 0.29792 0.40849
#
# Static dielectric constant tensor:
#      x y z
#    x 3.019650 0.000000 1.296620 
#    y 0.000000 3.916810 0.000000 
#    z 1.296620 0.000000 3.456570 
# 
# 
# High freq. dielectric constant tensor:
#      x y z
#    x 1.804990 0.000000 0.025550 
#    y 0.000000 1.813580 0.000000 
#    z 0.025550 0.000000 1.789540 
# 
# From -- ./inp_files/68310.got.cif
#   From: 2010.06.25/outbox.cif.g09.slc.cpg/sg12_35_cif.got.tgz:68310.got - 2010.06.28 00:19:55.
