data_PCOD8096352
_publ_section_title
;
Structure prediction by ZEFSAII (Michael W. Deem and Ramdas Pophale) SiO2 
 PCOD8096352
Probable space group: C 2/M
;
_chemical_formula_sum "Si O2"
_cell_formula_units_Z 64
_cell_length_a 28.050153
_cell_length_b 9.232056
_cell_length_c 13.976308
_cell_angle_alpha 90.000000
_cell_angle_beta 104.731870
_cell_angle_gamma 90.000000
_cell_volume 3500.333223
_symmetry_space_group_name_H-M "C 2/M"
_symmetry_group_IT_number 12
_symmetry_cell_setting 'monoclinic'
loop_
_space_group_symop_operation_xyz
x,y,z
-x,y,-z
-x,-y,-z
x,-y,z
1/2+x,1/2+y,z
1/2-x,1/2+y,-z
1/2-x,1/2-y,-z
1/2+x,1/2-y,z
loop_
_atom_site_type_symbol
_atom_site_label
_atom_site_fract_x
_atom_site_fract_y
_atom_site_fract_z
Si Si1 0.306100 0.163501 0.327447
Si Si2 0.525315 0.168109 0.231950
Si Si3 0.800619 0.667334 0.536259
Si Si4 0.579120 0.832318 0.906451
Si Si5 0.116710 0.169801 0.751928
Si Si6 0.111498 0.669832 0.134009
Si Si7 0.309481 0.669465 0.721051
Si Si8 0.987581 0.170117 0.387377
O O1 0.327215 0.178474 0.446734
O O2 0.334574 0.274628 0.275426
O O3 0.248194 0.200975 0.293007
O O4 0.314936 0.000000 0.295341
O O5 0.477662 0.204428 0.143567
O O6 0.572303 0.216028 0.194585
O O7 0.524451 0.254760 0.331144
O O8 0.527537 0.000000 0.259409
O O9 0.791580 0.500000 0.559355
O O10 0.750000 0.750000 0.500000
O O11 0.830018 0.747693 0.636317
O O12 0.614367 0.740743 0.855259
O O13 0.590624 0.000000 0.894002
O O14 0.589750 0.787390 0.020330
O O15 0.068684 0.212936 0.665519
O O16 0.121366 0.000000 0.767744
O O17 0.123805 0.500000 0.145735
O O18 0.160950 0.763363 0.174688
O O19 0.320153 0.500000 0.715400
O O20 0.000000 0.226590 0.500000
O O21 0.996400 0.000000 0.383560
#
# Coordination Sequence:
#
# PCOD8096352 Si02
#       8
#     8   8   8   8   8   8   8   8
#     4   9  19  35  53  73 100 136 174 210 251 301
#     4   9  18  33  54  79 103 131 170 209 250 307
#     4   9  17  31  51  74 101 133 169 209 251 299
#     4   9  18  35  56  75 101 135 168 208 259 312
#     4  10  20  33  53  78 101 132 175 215 251 299
#     4  10  20  34  54  79 104 132 168 213 263 309
#     4  10  21  35  51  75 106 138 173 214 259 307
#     4   9  19  35  51  73 108 141 167 201 248 301
#
# _framework density 18.283974000000001
#
# number of rings (size 3 to 8) (size 9 to 14) (size 15 to 20)
#    0.000    2.625    0.000    2.250    0.000    7.250 
#    0.000    3.125    0.000    3.750    0.000    0.000 
#    0.000    0.000    0.000    0.000    0.000    0.000 
#
# Total GULP energy -396781.330108 kJ/mol
# GULP energy per Si atom -12399.416566 kJ/mol
# Density = 1.824236 g / cm^3
# Si number density = 18.283974 Si / 1000 Ang^3
#
#
#
# Elastic Constant Matrix: (Units=GPa)
#
#
# Indices 1 2 3 4 5 6 
#
# 1 79.9242 45.2678 50.1215 0.0000 -14.7561 0.0000
# 2 45.2678 81.6550 55.5581 0.0000 -9.0959 0.0000
# 3 50.1215 55.5581 130.6840 0.0000 -10.1895 0.0000
# 4 0.0000 0.0000 0.0000 32.5068 0.0000 -0.4624
# 5 -14.7561 -9.0959 -10.1895 0.0000 23.2539 0.0000
# 6 0.0000 0.0000 0.0000 -0.4624 0.0000 23.2591
#
#
#
# Elastic Compliance Matrix: (Units=1/GPa)
#
#
# Indices 1 2 3 4 5 6 
#
# 1 0.021171 -0.008041 -0.004037 0.000000 0.008520 0.000000
# 2 -0.008041 0.020590 -0.005632 0.000000 0.000484 0.000000
# 3 -0.004037 -0.005632 0.011620 0.000000 0.000327 0.000000
# 4 0.000000 0.000000 0.000000 0.030771 0.000000 0.000612
# 5 0.008520 0.000484 0.000327 0.000000 0.048743 0.000000
# 6 0.000000 0.000000 0.000000 0.000612 0.000000 0.043006
#
#
# Mechanical properties :
#
#
# Convention : Reuss Voigt Hill
#
# Bulk Modulus (GPa) = 55.67401 66.01757 60.84579
# Shear Modulus (GPa) = 23.00886 25.22501 24.11693
#
# Velocity S-wave (km/s) = 3.55127 3.71836 3.63577
# Velocity P-wave (km/s) = 6.87976 7.39054 7.13972
#
# Compressibility (1/GPa) = 0.01796170
#
# Stress axis : x y z
#
# Youngs Moduli (GPa) = 47.23525 48.56696 86.05722
#
# Poissons Ratio (x) = 0.39051 0.34741
# Poissons Ratio (y) = 0.37981 0.48467
# Poissons Ratio (z) = 0.19069 0.27353
#
# Static dielectric constant tensor:
#      x y z
#    x 3.179900 0.000000 -0.082770 
#    y 0.000000 3.367460 0.000000 
#    z -0.082770 0.000000 3.231430 
# 
# 
# High freq. dielectric constant tensor:
#      x y z
#    x 1.691670 0.000000 -0.003490 
#    y 0.000000 1.710800 0.000000 
#    z -0.003490 0.000000 1.710390 
# 
# From -- ./inp_files/244177.got.cif
#   From: 2010.06.25/outbox.cif.g09.slc.cpg/sg12_123_cif.got.tgz:244177.got - 2010.06.28 00:19:55.
