data_PCOD8096384
_publ_section_title
;
Structure prediction by ZEFSAII (Michael W. Deem and Ramdas Pophale) SiO2 
 PCOD8096384
Probable space group: C 2/M
;
_chemical_formula_sum "Si O2"
_cell_formula_units_Z 56
_cell_length_a 19.590153
_cell_length_b 8.933514
_cell_length_c 20.764657
_cell_angle_alpha 90.000000
_cell_angle_beta 124.343695
_cell_angle_gamma 90.000000
_cell_volume 3000.478515
_symmetry_space_group_name_H-M "C 2/M"
_symmetry_group_IT_number 12
_symmetry_cell_setting 'monoclinic'
loop_
_space_group_symop_operation_xyz
x,y,z
-x,y,-z
-x,-y,-z
x,-y,z
1/2+x,1/2+y,z
1/2-x,1/2+y,-z
1/2-x,1/2-y,-z
1/2+x,1/2-y,z
loop_
_atom_site_type_symbol
_atom_site_label
_atom_site_fract_x
_atom_site_fract_y
_atom_site_fract_z
Si Si1 0.690679 0.324592 0.019650
Si Si2 0.590717 0.172329 0.522702
Si Si3 0.205074 0.822513 0.827829
Si Si4 0.837635 0.176556 0.557616
Si Si5 0.386726 0.677816 0.724275
Si Si6 0.434977 0.325155 0.148626
Si Si7 0.779557 0.323666 0.298450
O O1 0.709018 0.500000 0.035010
O O2 0.708794 0.246854 0.098060
O O3 0.750000 0.250000 0.000000
O O4 0.598270 0.295696 0.942099
O O5 0.500000 0.203524 0.500000
O O6 0.599807 0.273950 0.464652
O O7 0.657555 0.219629 0.611460
O O8 0.603824 0.000000 0.510175
O O9 0.128528 0.763158 0.830893
O O10 0.191244 0.765202 0.748657
O O11 0.212499 0.000000 0.832972
O O12 0.750000 0.250000 0.500000
O O13 0.873674 0.233874 0.644573
O O14 0.826388 0.000000 0.551620
O O15 0.387946 0.500000 0.726801
O O16 0.473752 0.746974 0.795807
O O17 0.311685 0.732892 0.729588
O O18 0.442542 0.500000 0.165953
O O19 0.781780 0.500000 0.285167
#
# Coordination Sequence:
#
# PCOD8096384 Si02
#       7
#     8   8   8   8   8   8   8
#     4   9  16  30  53  79 107 137 172 214 265 317
#     4  10  22  39  56  79 114 146 180 228 278 326
#     4  10  20  33  53  79 108 138 174 220 265 313
#     4  11  21  36  59  81 108 145 187 226 270 326
#     4   9  18  34  54  76 104 136 176 222 264 313
#     4   8  16  31  53  79 102 130 172 221 259 303
#     4  10  20  36  54  74 105 144 176 213 270 323
#
# _framework density 18.663689999999999
#
# number of rings (size 3 to 8) (size 9 to 14) (size 15 to 20)
#    0.000    2.429    1.429    2.143    2.000    0.857 
#    0.000    0.714    0.000   12.000    0.000    0.000 
#    0.000    0.000    0.000    0.000    0.000    0.000 
#
# Total GULP energy -347088.939665 kJ/mol
# GULP energy per Si atom -12396.033559 kJ/mol
# Density = 1.862121 g / cm^3
# Si number density = 18.663690 Si / 1000 Ang^3
#
#
#
# Elastic Constant Matrix: (Units=GPa)
#
#
# Indices 1 2 3 4 5 6 
#
# 1 84.4946 16.7087 41.4058 0.0000 13.3848 0.0000
# 2 16.7087 49.4046 19.2360 0.0000 2.5671 0.0000
# 3 41.4058 19.2360 79.4913 0.0000 23.7079 0.0000
# 4 0.0000 0.0000 0.0000 27.0151 0.0000 -8.3569
# 5 13.3848 2.5671 23.7079 0.0000 33.1017 0.0000
# 6 0.0000 0.0000 0.0000 -8.3569 0.0000 23.1556
#
#
#
# Elastic Compliance Matrix: (Units=1/GPa)
#
#
# Indices 1 2 3 4 5 6 
#
# 1 0.016171 -0.002484 -0.007540 0.000000 -0.000946 0.000000
# 2 -0.002484 0.022923 -0.005115 0.000000 0.002890 0.000000
# 3 -0.007540 -0.005115 0.021259 0.000000 -0.011780 0.000000
# 4 0.000000 0.000000 0.000000 0.041668 0.000000 0.015038
# 5 -0.000946 0.002890 -0.011780 0.000000 0.038805 0.000000
# 6 0.000000 0.000000 0.000000 0.015038 0.000000 0.048613
#
#
# Mechanical properties :
#
#
# Convention : Reuss Voigt Hill
#
# Bulk Modulus (GPa) = 33.25148 40.89906 37.07527
# Shear Modulus (GPa) = 21.76352 25.72382 23.74367
#
# Velocity S-wave (km/s) = 3.41851 3.71655 3.57064
# Velocity P-wave (km/s) = 5.78242 6.35439 6.07514
#
# Compressibility (1/GPa) = 0.03007385
#
# Stress axis : x y z
#
# Youngs Moduli (GPa) = 61.83887 43.62511 47.03981
#
# Poissons Ratio (x) = 0.10837 0.35468
# Poissons Ratio (y) = 0.15362 0.24061
# Poissons Ratio (z) = 0.46626 0.22314
#
# Static dielectric constant tensor:
#      x y z
#    x 3.494040 0.000000 0.155150 
#    y 0.000000 3.254700 0.000000 
#    z 0.155150 0.000000 3.974360 
# 
# 
# High freq. dielectric constant tensor:
#      x y z
#    x 1.710290 0.000000 0.004790 
#    y 0.000000 1.700030 0.000000 
#    z 0.004790 0.000000 1.740600 
# 
# From -- ./inp_files/280990.got.cif
#   From: 2010.06.25/outbox.cif.g09.slc.cpg/sg12_141_cif.got.tgz:280990.got - 2010.06.28 00:19:55.
