data_PCOD8096227
_publ_section_title
;
Structure prediction by ZEFSAII (Michael W. Deem and Ramdas Pophale) SiO2 
 PCOD8096227
Probable space group: C 2/M
;
_chemical_formula_sum "Si O2"
_cell_formula_units_Z 56
_cell_length_a 18.543087
_cell_length_b 8.909774
_cell_length_c 22.811862
_cell_angle_alpha 90.000000
_cell_angle_beta 51.850365
_cell_angle_gamma 90.000000
_cell_volume 2963.828505
_symmetry_space_group_name_H-M "C 2/M"
_symmetry_group_IT_number 12
_symmetry_cell_setting 'monoclinic'
loop_
_space_group_symop_operation_xyz
x,y,z
-x,y,-z
-x,-y,-z
x,-y,z
1/2+x,1/2+y,z
1/2-x,1/2+y,-z
1/2-x,1/2-y,-z
1/2+x,1/2-y,z
loop_
_atom_site_type_symbol
_atom_site_label
_atom_site_fract_x
_atom_site_fract_y
_atom_site_fract_z
Si Si1 0.343873 0.676481 0.433976
Si Si2 0.043503 0.677054 0.719396
Si Si3 0.009734 0.671857 0.562122
Si Si4 0.189792 0.322657 0.856859
Si Si5 0.826521 0.678558 0.002259
Si Si6 0.475643 0.178384 0.138647
Si Si7 0.629418 0.170388 0.270379
O O1 0.331490 0.500000 0.435339
O O2 0.250000 0.750000 0.500000
O O3 0.374525 0.739776 0.355436
O O4 0.418216 0.715774 0.445762
O O5 0.060612 0.500000 0.705362
O O6 0.043859 0.735061 0.785796
O O7 0.946023 0.719958 0.739621
O O8 0.044705 0.500000 0.551227
O O9 0.912021 0.689103 0.643632
O O10 0.000000 0.719180 0.500000
O O11 0.183427 0.500000 0.859691
O O12 0.188218 0.263036 0.924152
O O13 0.282756 0.275414 0.778246
O O14 0.102747 0.256615 0.865006
O O15 0.819453 0.500000 0.001407
O O16 0.750000 0.750000 0.000000
O O17 0.925672 0.737808 0.931782
O O18 0.475742 0.000000 0.137155
O O19 0.660248 0.000000 0.243060
#
# Coordination Sequence:
#
# PCOD8096227 Si02
#       7
#     8   8   8   8   8   8   8
#     4  11  22  36  55  79 109 142 179 222 266 315
#     4   9  18  35  56  75  99 136 179 217 260 315
#     4   9  19  37  58  79 106 140 178 220 269 323
#     4  10  20  33  52  78 105 134 172 216 257 304
#     4  10  20  35  55  77 103 137 175 212 255 307
#     4   9  18  34  55  77 103 136 173 215 261 308
#     4   9  18  33  53  76 104 137 169 207 260 316
#
# _framework density 18.894480000000001
#
# number of rings (size 3 to 8) (size 9 to 14) (size 15 to 20)
#    0.000    2.429    0.000    3.429    0.000    7.143 
#    0.000    5.000    0.000    1.714    0.000    0.000 
#    0.000    0.000    0.000    0.000    0.000    0.000 
#
# Total GULP energy -347238.945965 kJ/mol
# GULP energy per Si atom -12401.390927 kJ/mol
# Density = 1.885148 g / cm^3
# Si number density = 18.894480 Si / 1000 Ang^3
#
#
#
# Elastic Constant Matrix: (Units=GPa)
#
#
# Indices 1 2 3 4 5 6 
#
# 1 133.7967 28.4267 89.2837 0.0000 6.8996 -0.0001
# 2 28.4267 47.3125 37.4440 -0.0001 -4.0641 -0.0001
# 3 89.2837 37.4440 157.7537 0.0000 2.7396 -0.0001
# 4 0.0000 -0.0001 0.0000 28.8431 0.0000 -3.9030
# 5 6.8996 -4.0641 2.7396 0.0000 41.3273 0.0000
# 6 -0.0001 -0.0001 -0.0001 -3.9030 0.0000 27.0000
#
#
#
# Elastic Compliance Matrix: (Units=1/GPa)
#
#
# Indices 1 2 3 4 5 6 
#
# 1 0.012354 -0.002558 -0.006352 0.000000 -0.001893 0.000000
# 2 -0.002558 0.026924 -0.005002 0.000000 0.003406 0.000000
# 3 -0.006352 -0.005002 0.011124 0.000000 -0.000169 0.000000
# 4 0.000000 0.000000 0.000000 0.035362 0.000000 0.005112
# 5 -0.001893 0.003406 -0.000169 0.000000 0.024859 0.000000
# 6 0.000000 0.000000 0.000000 0.005112 0.000000 0.037776
#
#
# Mechanical properties :
#
#
# Convention : Reuss Voigt Hill
#
# Bulk Modulus (GPa) = 44.29029 72.13018 58.21024
# Shear Modulus (GPa) = 27.21096 31.68131 29.44614
#
# Velocity S-wave (km/s) = 3.79905 4.09926 3.95201
# Velocity P-wave (km/s) = 6.53724 7.78867 7.19023
#
# Compressibility (1/GPa) = 0.02257831
#
# Stress axis : x y z
#
# Youngs Moduli (GPa) = 80.94712 37.14109 89.89503
#
# Poissons Ratio (x) = 0.09501 0.57099
# Poissons Ratio (y) = 0.20708 0.44965
# Poissons Ratio (z) = 0.51416 0.18578
#
# Static dielectric constant tensor:
#      x y z
#    x 3.533670 0.000000 0.115990 
#    y 0.000000 3.190270 0.000000 
#    z 0.115990 0.000000 3.690570 
# 
# 
# High freq. dielectric constant tensor:
#      x y z
#    x 1.734320 0.000000 0.003710 
#    y 0.000000 1.707430 0.000000 
#    z 0.003710 0.000000 1.750230 
# 
# From -- ./inp_files/342207.got.cif
#   From: 2010.06.25/outbox.cif.g09.slc.cpg/sg12_172_cif.got.tgz:342207.got - 2010.06.28 00:19:55.
