data_PCOD8096120
_publ_section_title
;
Structure prediction by ZEFSAII (Michael W. Deem and Ramdas Pophale) SiO2 
 PCOD8096120
Probable space group: C 2/M
;
_chemical_formula_sum "Si O2"
_cell_formula_units_Z 40
_cell_length_a 15.438304
_cell_length_b 9.640107
_cell_length_c 30.291736
_cell_angle_alpha 90.000000
_cell_angle_beta 151.984409
_cell_angle_gamma 90.000000
_cell_volume 2117.566628
_symmetry_space_group_name_H-M "C 2/M"
_symmetry_group_IT_number 12
_symmetry_cell_setting 'monoclinic'
loop_
_space_group_symop_operation_xyz
x,y,z
-x,y,-z
-x,-y,-z
x,-y,z
1/2+x,1/2+y,z
1/2-x,1/2+y,-z
1/2-x,1/2-y,-z
1/2+x,1/2-y,z
loop_
_atom_site_type_symbol
_atom_site_label
_atom_site_fract_x
_atom_site_fract_y
_atom_site_fract_z
Si Si1 0.787032 0.158887 0.289854
Si Si2 0.878164 0.342546 0.087894
Si Si3 0.051947 0.840615 0.728305
Si Si4 0.295826 0.340615 0.897338
Si Si5 0.678542 0.837400 0.608006
O O1 0.592217 0.197612 0.179160
O O2 0.943946 0.178690 0.322970
O O3 0.830451 0.257733 0.350002
O O4 0.780637 0.000000 0.304031
O O5 0.840033 0.500000 0.056282
O O6 0.832909 0.318989 0.118552
O O7 0.750000 0.250000 0.000000
O O8 0.215525 0.749557 0.821762
O O9 0.854947 0.791761 0.658442
O O10 0.090092 0.000000 0.758118
O O11 0.302261 0.500000 0.884635
O O12 0.500000 0.286370 0.000000
O O13 0.500000 0.794987 0.500000
O O14 0.681956 0.000000 0.620273
#
# Coordination Sequence:
#
# PCOD8096120 Si02
#       5
#     8   8   8   8   8
#     4  10  21  38  58  83 114 147 188 235 281 335
#     4  10  20  33  51  78 112 147 184 227 272 328
#     4  10  21  37  58  83 113 148 187 233 281 334
#     4  10  20  34  53  80 114 149 187 231 277 330
#     4  10  22  40  60  84 114 148 189 237 287 338
#
# _framework density 18.889606000000001
#
# number of rings (size 3 to 8) (size 9 to 14) (size 15 to 20)
#    0.000    2.000    2.000    1.200    0.000    4.000 
#    0.000    0.000    0.000    0.000    0.000    0.000 
#    0.000    0.000    0.000    0.000    0.000    0.000 
#
# Total GULP energy -248053.605188 kJ/mol
# GULP energy per Si atom -12402.680259 kJ/mol
# Density = 1.884661 g / cm^3
# Si number density = 18.889606 Si / 1000 Ang^3
#
#
#
# Elastic Constant Matrix: (Units=GPa)
#
#
# Indices 1 2 3 4 5 6 
#
# 1 106.0533 45.4063 57.6051 -0.0002 -0.7303 -0.0001
# 2 45.4063 72.8129 61.7621 0.0003 -13.8212 0.0000
# 3 57.6051 61.7621 113.2910 0.0021 -6.5465 0.0000
# 4 -0.0002 0.0003 0.0021 29.1990 -0.0001 -11.9533
# 5 -0.7303 -13.8212 -6.5465 -0.0001 27.7109 0.0000
# 6 -0.0001 0.0000 0.0000 -11.9533 0.0000 29.1370
#
#
#
# Elastic Compliance Matrix: (Units=1/GPa)
#
#
# Indices 1 2 3 4 5 6 
#
# 1 0.014253 -0.006048 -0.004160 0.000001 -0.003623 0.000000
# 2 -0.006048 0.030897 -0.013066 0.000001 0.012164 0.000000
# 3 -0.004160 -0.013066 0.017927 -0.000001 -0.002391 -0.000001
# 4 0.000001 0.000001 -0.000001 0.041160 0.000000 0.016886
# 5 -0.003623 0.012164 -0.002391 0.000000 0.041494 0.000000
# 6 0.000000 0.000000 -0.000001 0.016886 0.000000 0.041248
#
#
# Mechanical properties :
#
#
# Convention : Reuss Voigt Hill
#
# Bulk Modulus (GPa) = 60.49501 69.07828 64.78665
# Shear Modulus (GPa) = 20.91741 25.70162 23.30951
#
# Velocity S-wave (km/s) = 3.33130 3.69266 3.51663
# Velocity P-wave (km/s) = 6.84776 7.40472 7.13168
#
# Compressibility (1/GPa) = 0.01653029
#
# Stress axis : x y z
#
# Youngs Moduli (GPa) = 70.16104 32.36543 55.78234
#
# Poissons Ratio (x) = 0.19573 0.23203
# Poissons Ratio (y) = 0.42431 0.72886
# Poissons Ratio (z) = 0.29184 0.42289
#
# Static dielectric constant tensor:
#      x y z
#    x 3.606920 0.000000 0.211730 
#    y 0.000000 3.404030 0.000000 
#    z 0.211730 0.000000 3.342140 
# 
# 
# High freq. dielectric constant tensor:
#      x y z
#    x 1.746590 0.000000 0.011120 
#    y 0.000000 1.729200 0.000000 
#    z 0.011120 0.000000 1.725290 
# 
# From -- ./inp_files/174915.got.cif
#   From: 2010.06.25/outbox.cif.g09.slc.cpg/sg12_88_cif.got.tgz:174915.got - 2010.06.28 00:19:55.
