data_PCOD8096446
_publ_section_title
;
Structure prediction by ZEFSAII (Michael W. Deem and Ramdas Pophale) SiO2 
 PCOD8096446
Probable space group: C 2/M
;
_chemical_formula_sum "Si O2"
_cell_formula_units_Z 64
_cell_length_a 14.911130
_cell_length_b 9.118143
_cell_length_c 32.668887
_cell_angle_alpha 90.000000
_cell_angle_beta 132.460023
_cell_angle_gamma 90.000000
_cell_volume 3276.873311
_symmetry_space_group_name_H-M "C 2/M"
_symmetry_group_IT_number 12
_symmetry_cell_setting 'monoclinic'
loop_
_space_group_symop_operation_xyz
x,y,z
-x,y,-z
-x,-y,-z
x,-y,z
1/2+x,1/2+y,z
1/2-x,1/2+y,-z
1/2-x,1/2-y,-z
1/2+x,1/2-y,z
loop_
_atom_site_type_symbol
_atom_site_label
_atom_site_fract_x
_atom_site_fract_y
_atom_site_fract_z
Si Si1 0.684616 0.838622 0.444699
Si Si2 0.246596 0.327606 0.254425
Si Si3 0.384038 0.830935 0.936597
Si Si4 0.690840 0.330924 0.944025
Si Si5 0.386981 0.337147 0.440031
Si Si6 0.973793 0.831219 0.661294
Si Si7 0.914053 0.172953 0.862272
Si Si8 0.723629 0.672225 0.331932
O O1 0.750000 0.750000 0.500000
O O2 0.773468 0.852380 0.434255
O O3 0.564641 0.757303 0.391316
O O4 0.648865 0.000000 0.450116
O O5 0.222284 0.500000 0.250785
O O6 0.386659 0.293956 0.286789
O O7 0.170210 0.261327 0.194254
O O8 0.203510 0.251720 0.282841
O O9 0.262339 0.796873 0.924419
O O10 0.381638 0.721655 0.897959
O O11 0.388165 0.000000 0.923006
O O12 0.500000 0.794399 0.000000
O O13 0.699216 0.500000 0.958219
O O14 0.552269 0.282393 0.894677
O O15 0.750000 0.250000 0.000000
O O16 0.500000 0.267754 0.500000
O O17 0.423175 0.500000 0.434519
O O18 0.348659 0.232265 0.390862
O O19 0.893797 0.790138 0.676445
O O20 0.953641 0.000000 0.643996
O O21 0.891452 0.000000 0.850573
O O22 0.738310 0.500000 0.329313
#
# Coordination Sequence:
#
# PCOD8096446 Si02
#       8
#     8   8   8   8   8   8   8   8
#     4  10  20  33  53  82 115 148 185 235 291 351
#     4  11  24  42  64  85 114 160 204 240 290 358
#     4  10  20  37  62  89 121 161 200 238 287 350
#     4  10  21  37  60  89 123 160 195 239 292 345
#     4   9  19  35  54  79 112 150 188 229 285 355
#     4   9  21  41  61  81 112 154 195 240 295 352
#     4  11  24  40  59  90 125 155 197 248 293 341
#     4  10  21  39  61  86 115 147 192 249 299 344
#
# _framework density 19.530812000000001
#
# number of rings (size 3 to 8) (size 9 to 14) (size 15 to 20)
#    0.000    2.000    1.250    1.500    1.750    4.500 
#    0.000    5.000    0.000    0.000    0.000    0.000 
#    0.000    0.000    0.000    0.000    0.000    0.000 
#
# Total GULP energy -396853.748342 kJ/mol
# GULP energy per Si atom -12401.679636 kJ/mol
# Density = 1.948636 g / cm^3
# Si number density = 19.530812 Si / 1000 Ang^3
#
#
#
# Elastic Constant Matrix: (Units=GPa)
#
#
# Indices 1 2 3 4 5 6 
#
# 1 92.9001 51.7147 62.8062 0.0000 8.1865 0.0000
# 2 51.7147 109.0362 75.8807 0.0000 1.3248 0.0000
# 3 62.8062 75.8807 147.0612 0.0000 6.4158 0.0000
# 4 0.0000 0.0000 0.0000 35.2595 0.0000 -6.5181
# 5 8.1865 1.3248 6.4158 0.0000 30.4789 0.0000
# 6 0.0000 0.0000 0.0000 -6.5181 0.0000 28.0689
#
#
#
# Elastic Compliance Matrix: (Units=1/GPa)
#
#
# Indices 1 2 3 4 5 6 
#
# 1 0.016793 -0.004734 -0.004583 0.000000 -0.003340 0.000000
# 2 -0.004734 0.015671 -0.006146 0.000000 0.001884 0.000000
# 3 -0.004583 -0.006146 0.011973 0.000000 -0.001022 0.000000
# 4 0.000000 0.000000 0.000000 0.029633 0.000000 0.006881
# 5 -0.003340 0.001884 -0.001022 0.000000 0.033840 0.000000
# 6 0.000000 0.000000 0.000000 0.006881 0.000000 0.037225
#
#
# Mechanical properties :
#
#
# Convention : Reuss Voigt Hill
#
# Bulk Modulus (GPa) = 74.02320 81.08894 77.55607
# Shear Modulus (GPa) = 27.69081 29.33453 28.51267
#
# Velocity S-wave (km/s) = 3.76946 3.87972 3.82498
# Velocity P-wave (km/s) = 7.54507 7.85355 7.70085
#
# Compressibility (1/GPa) = 0.01350928
#
# Stress axis : x y z
#
# Youngs Moduli (GPa) = 59.55025 63.81135 83.52028
#
# Poissons Ratio (x) = 0.30211 0.38278
# Poissons Ratio (y) = 0.28194 0.51334
# Poissons Ratio (z) = 0.27292 0.39220
#
# Static dielectric constant tensor:
#      x y z
#    x 3.577740 0.000000 0.158340 
#    y 0.000000 3.739500 0.000000 
#    z 0.158340 0.000000 3.494750 
# 
# 
# High freq. dielectric constant tensor:
#      x y z
#    x 1.764830 0.000000 0.003080 
#    y 0.000000 1.765930 0.000000 
#    z 0.003080 0.000000 1.759960 
# 
# From -- ./inp_files/375573.got.cif
#   From: 2010.06.25/outbox.cif.g09.slc.cpg/sg12_188_cif.got.tgz:375573.got - 2010.06.28 00:19:55.
