data_PCOD8096958
_publ_section_title
;
Structure prediction by ZEFSAII (Michael W. Deem and Ramdas Pophale) SiO2 
 PCOD8096958
Probable space group: C 2/M
;
_chemical_formula_sum "Si O2"
_cell_formula_units_Z 64
_cell_length_a 15.270589
_cell_length_b 9.348371
_cell_length_c 24.724550
_cell_angle_alpha 90.000000
_cell_angle_beta 74.000160
_cell_angle_gamma 90.000000
_cell_volume 3392.830071
_symmetry_space_group_name_H-M "C 2/M"
_symmetry_group_IT_number 12
_symmetry_cell_setting 'monoclinic'
loop_
_space_group_symop_operation_xyz
x,y,z
-x,y,-z
-x,-y,-z
x,-y,z
1/2+x,1/2+y,z
1/2-x,1/2+y,-z
1/2-x,1/2-y,-z
1/2+x,1/2-y,z
loop_
_atom_site_type_symbol
_atom_site_label
_atom_site_fract_x
_atom_site_fract_y
_atom_site_fract_z
Si Si1 0.878936 0.669500 0.570517
Si Si2 0.071352 0.165454 0.182859
Si Si3 0.795630 0.668874 0.367482
Si Si4 0.580730 0.169025 0.556240
Si Si5 0.896236 0.668013 0.240361
Si Si6 0.227861 0.665260 0.837349
Si Si7 0.865135 0.831032 0.058080
Si Si8 0.061675 0.168752 0.064053
O O1 0.864375 0.500000 0.578966
O O2 0.800994 0.752572 0.615794
O O3 0.876289 0.717748 0.508108
O O4 0.975727 0.719334 0.579256
O O5 0.166610 0.185943 0.198298
O O6 0.087839 0.224243 0.118989
O O7 0.993442 0.254761 0.225711
O O8 0.040890 0.000000 0.186828
O O9 0.779509 0.500000 0.375947
O O10 0.858814 0.730666 0.405120
O O11 0.843512 0.709237 0.303500
O O12 0.580198 0.000000 0.558604
O O13 0.913875 0.500000 0.233720
O O14 0.836063 0.722908 0.200007
O O15 0.207773 0.500000 0.852788
O O16 0.213270 0.750726 0.895534
O O17 0.959774 0.780329 0.068679
O O18 0.849009 0.000000 0.065969
O O19 0.867791 0.778455 0.994691
O O20 0.063688 0.000000 0.060597
#
# Coordination Sequence:
#
# PCOD8096958 Si02
#       8
#     8   8   8   8   8   8   8   8
#     4   9  17  32  54  79 104 130 166 208 246 290
#     4  10  20  36  56  73  95 132 171 205 248 300
#     4  10  20  34  52  73 102 138 169 202 250 298
#     4   8  16  32  53  76 105 137 164 199 249 298
#     4  10  22  38  51  70 103 136 168 209 250 289
#     4  10  21  35  51  74 103 130 161 208 257 292
#     4   9  16  30  53  76  98 127 162 199 245 304
#     4   8  15  29  51  76  98 124 160 203 246 295
#
# _framework density 18.863309000000001
#
# number of rings (size 3 to 8) (size 9 to 14) (size 15 to 20)
#    0.000    2.750    1.250    1.875    0.000    2.500 
#    0.000    3.750    0.000    0.000    0.000    0.000 
#    0.000    0.000    0.000    0.000    0.000    0.000 
#
# Total GULP energy -396679.466150 kJ/mol
# GULP energy per Si atom -12396.233317 kJ/mol
# Density = 1.882038 g / cm^3
# Si number density = 18.863309 Si / 1000 Ang^3
#
#
#
# Elastic Constant Matrix: (Units=GPa)
#
#
# Indices 1 2 3 4 5 6 
#
# 1 78.8382 27.8963 39.3405 0.0000 -23.3942 0.0000
# 2 27.8963 37.5567 37.5060 0.0000 -14.5609 0.0000
# 3 39.3405 37.5060 103.6173 0.0000 -23.8123 0.0000
# 4 0.0000 0.0000 0.0000 25.3132 0.0000 -8.1370
# 5 -23.3942 -14.5609 -23.8123 0.0000 25.7329 0.0000
# 6 0.0000 0.0000 0.0000 -8.1370 0.0000 26.0381
#
#
#
# Elastic Compliance Matrix: (Units=1/GPa)
#
#
# Indices 1 2 3 4 5 6 
#
# 1 0.020113 -0.008544 -0.001845 0.000000 0.011743 0.000000
# 2 -0.008544 0.048597 -0.012462 0.000000 0.008199 0.000000
# 3 -0.001845 -0.012462 0.016329 0.000000 0.006381 0.000000
# 4 0.000000 0.000000 0.000000 0.043917 0.000000 0.013724
# 5 0.011743 0.008199 0.006381 0.000000 0.060080 0.000000
# 6 0.000000 0.000000 0.000000 0.013724 0.000000 0.042694
#
#
# Mechanical properties :
#
#
# Convention : Reuss Voigt Hill
#
# Bulk Modulus (GPa) = 25.42219 47.72198 36.57208
# Shear Modulus (GPa) = 17.20909 23.10147 20.15528
#
# Velocity S-wave (km/s) = 3.02372 3.50334 3.27232
# Velocity P-wave (km/s) = 5.06920 6.45897 5.80582
#
# Compressibility (1/GPa) = 0.03933572
#
# Stress axis : x y z
#
# Youngs Moduli (GPa) = 49.72007 20.57738 61.24179
#
# Poissons Ratio (x) = 0.17581 0.11298
# Poissons Ratio (y) = 0.42481 0.76322
# Poissons Ratio (z) = 0.09173 0.25644
#
# Static dielectric constant tensor:
#      x y z
#    x 3.600100 0.000000 0.219320 
#    y 0.000000 3.053510 0.000000 
#    z 0.219320 0.000000 3.659310 
# 
# 
# High freq. dielectric constant tensor:
#      x y z
#    x 1.736430 0.000000 -0.001490 
#    y 0.000000 1.696710 0.000000 
#    z -0.001490 0.000000 1.732590 
# 
# From -- ./inp_files/359774.got.cif
#   From: 2010.06.25/outbox.cif.g09.slc.cpg/sg12_180_cif.got.tgz:359774.got - 2010.06.28 00:19:55.
