data_PCOD8096172
_publ_section_title
;
Structure prediction by ZEFSAII (Michael W. Deem and Ramdas Pophale) SiO2 
 PCOD8096172
Probable space group: C 2/M
;
_chemical_formula_sum "Si O2"
_cell_formula_units_Z 40
_cell_length_a 14.424036
_cell_length_b 35.089905
_cell_length_c 4.966165
_cell_angle_alpha 90.000000
_cell_angle_beta 124.377524
_cell_angle_gamma 90.000000
_cell_volume 2074.533390
_symmetry_space_group_name_H-M "C 2/M"
_symmetry_group_IT_number 12
_symmetry_cell_setting 'monoclinic'
loop_
_space_group_symop_operation_xyz
x,y,z
-x,y,-z
-x,-y,-z
x,-y,z
1/2+x,1/2+y,z
1/2-x,1/2+y,-z
1/2-x,1/2-y,-z
1/2+x,1/2-y,z
loop_
_atom_site_type_symbol
_atom_site_label
_atom_site_fract_x
_atom_site_fract_y
_atom_site_fract_z
Si Si1 0.614777 0.320638 0.838518
Si Si2 0.754688 0.894276 0.971317
Si Si3 0.369590 0.134152 0.721971
Si Si4 0.424033 0.543051 0.116127
Si Si5 0.727846 0.706513 0.524053
O O1 0.500000 0.312377 0.500000
O O2 0.704669 0.298113 0.802632
O O3 0.640911 0.365376 0.887809
O O4 0.622792 0.305587 0.158778
O O5 0.652893 0.885312 0.601628
O O6 0.703575 0.890300 0.185474
O O7 0.807674 0.935137 0.987829
O O8 0.333103 0.178581 0.637085
O O9 0.500000 0.132100 0.000000
O O10 0.500000 0.544065 0.500000
O O11 0.388683 0.500000 0.980462
O O12 0.500000 0.560976 0.000000
O O13 0.750000 0.750000 0.500000
#
# Coordination Sequence:
#
# PCOD8096172 Si02
#       5
#     8   8   8   8   8
#     4  10  20  33  52  76 101 132 166 207 265 319
#     4  10  20  35  55  78 107 137 175 219 256 315
#     4  10  21  36  55  76 102 143 185 221 262 307
#     4  10  20  34  56  86 115 142 170 209 270 329
#     4  10  21  36  51  75 103 131 174 220 264 315
#
# _framework density 19.281445999999999
#
# number of rings (size 3 to 8) (size 9 to 14) (size 15 to 20)
#    0.000    2.000    0.000    3.600    0.000    4.800 
#    0.000    0.000    0.000    3.600    0.000    0.000 
#    0.000    0.000    0.000    0.000    0.000    0.000 
#
# Total GULP energy -247918.990811 kJ/mol
# GULP energy per Si atom -12395.949541 kJ/mol
# Density = 1.923756 g / cm^3
# Si number density = 19.281446 Si / 1000 Ang^3
#
#
#
# Elastic Constant Matrix: (Units=GPa)
#
#
# Indices 1 2 3 4 5 6 
#
# 1 52.8948 32.4603 16.5803 0.0000 -4.1837 0.0000
# 2 32.4603 94.3249 16.8519 0.0000 9.8498 0.0000
# 3 16.5803 16.8519 78.3940 0.0000 2.7418 0.0000
# 4 0.0000 0.0000 0.0000 19.8508 0.0000 -3.4700
# 5 -4.1837 9.8498 2.7418 0.0000 42.7992 0.0000
# 6 0.0000 0.0000 0.0000 -3.4700 0.0000 20.5629
#
#
#
# Elastic Compliance Matrix: (Units=1/GPa)
#
#
# Indices 1 2 3 4 5 6 
#
# 1 0.025802 -0.008707 -0.003752 0.000000 0.004766 0.000000
# 2 -0.008707 0.014213 -0.001072 0.000000 -0.004053 0.000000
# 3 -0.003752 -0.001072 0.013815 0.000000 -0.001005 0.000000
# 4 0.000000 0.000000 0.000000 0.051907 0.000000 0.008759
# 5 0.004766 -0.004053 -0.001005 0.000000 0.024828 0.000000
# 6 0.000000 0.000000 0.000000 0.008759 0.000000 0.050109
#
#
# Mechanical properties :
#
#
# Convention : Reuss Voigt Hill
#
# Bulk Modulus (GPa) = 37.35790 39.71097 38.53443
# Shear Modulus (GPa) = 23.07788 27.29067 25.18427
#
# Velocity S-wave (km/s) = 3.46337 3.76624 3.61798
# Velocity P-wave (km/s) = 5.95066 6.28911 6.12222
#
# Compressibility (1/GPa) = 0.02676810
#
# Stress axis : x y z
#
# Youngs Moduli (GPa) = 38.75741 70.35991 72.38375
#
# Poissons Ratio (x) = 0.61259 0.27159
# Poissons Ratio (y) = 0.33744 0.07760
# Poissons Ratio (z) = 0.14542 0.07543
#
# Static dielectric constant tensor:
#      x y z
#    x 3.393620 0.000000 -0.313830 
#    y 0.000000 3.471880 0.000000 
#    z -0.313830 0.000000 3.647740 
# 
# 
# High freq. dielectric constant tensor:
#      x y z
#    x 1.742070 0.000000 -0.023430 
#    y 0.000000 1.733330 0.000000 
#    z -0.023430 0.000000 1.763610 
# 
# From -- ./inp_files/8188.got.cif
#   From: 2010.06.25/outbox.cif.g09.slc.cpg/sg12_5_cif.got.tgz:8188.got - 2010.06.28 00:19:55.
