data_PCOD8096350
_publ_section_title
;
Structure prediction by ZEFSAII (Michael W. Deem and Ramdas Pophale) SiO2 
 PCOD8096350
Probable space group: C 2/M
;
_chemical_formula_sum "Si O2"
_cell_formula_units_Z 64
_cell_length_a 23.779128
_cell_length_b 9.330136
_cell_length_c 21.176518
_cell_angle_alpha 90.000000
_cell_angle_beta 52.530643
_cell_angle_gamma 90.000000
_cell_volume 3728.921437
_symmetry_space_group_name_H-M "C 2/M"
_symmetry_group_IT_number 12
_symmetry_cell_setting 'monoclinic'
loop_
_space_group_symop_operation_xyz
x,y,z
-x,y,-z
-x,-y,-z
x,-y,z
1/2+x,1/2+y,z
1/2-x,1/2+y,-z
1/2-x,1/2-y,-z
1/2+x,1/2-y,z
loop_
_atom_site_type_symbol
_atom_site_label
_atom_site_fract_x
_atom_site_fract_y
_atom_site_fract_z
Si Si1 0.234925 0.165885 0.604751
Si Si2 0.500224 0.163731 0.713269
Si Si3 0.458961 0.162298 0.172073
Si Si4 0.174951 0.831093 0.777661
Si Si5 0.368331 0.665845 0.833214
Si Si6 0.854721 0.665519 0.433089
Si Si7 0.220422 0.664964 0.867482
Si Si8 0.118204 0.333814 0.049041
O O1 0.225503 0.209642 0.684003
O O2 0.178381 0.248069 0.601631
O O3 0.315090 0.202117 0.526248
O O4 0.217531 0.000000 0.607309
O O5 0.535723 0.189932 0.757039
O O6 0.433462 0.267067 0.749095
O O7 0.561136 0.200124 0.619752
O O8 0.473607 0.000000 0.725606
O O9 0.403740 0.270004 0.178333
O O10 0.535831 0.191741 0.088656
O O11 0.434179 0.000000 0.175043
O O12 0.212107 0.763130 0.812461
O O13 0.168435 0.000000 0.791756
O O14 0.384334 0.500000 0.835118
O O15 0.298940 0.688363 0.839344
O O16 0.357672 0.742873 0.907250
O O17 0.844626 0.500000 0.422123
O O18 0.206670 0.500000 0.858660
O O19 0.164072 0.716196 0.958230
O O20 0.132201 0.500000 0.056169
#
# Coordination Sequence:
#
# PCOD8096350 Si02
#       8
#     8   8   8   8   8   8   8   8
#     4   9  18  30  46  73 105 131 160 203 245 285
#     4   9  17  30  51  76 101 132 165 199 243 297
#     4   9  17  31  50  72  98 130 164 197 242 297
#     4  11  22  33  48  72 104 136 164 202 248 291
#     4  10  20  33  53  78 100 124 160 211 258 290
#     4   9  16  29  50  74 100 131 166 197 237 294
#     4  10  22  38  53  70  95 133 174 205 242 296
#     4   9  19  36  56  75  96 126 165 207 249 295
#
# _framework density 17.163139999999999
#
# number of rings (size 3 to 8) (size 9 to 14) (size 15 to 20)
#    0.000    2.500    1.250    1.875    0.000    5.000 
#    0.000    2.500    0.000    0.750    0.000    5.250 
#    0.000    0.000    0.000    0.000    0.000    0.000 
#
# Total GULP energy -396755.471248 kJ/mol
# GULP energy per Si atom -12398.608477 kJ/mol
# Density = 1.712408 g / cm^3
# Si number density = 17.163140 Si / 1000 Ang^3
#
#
#
# Elastic Constant Matrix: (Units=GPa)
#
#
# Indices 1 2 3 4 5 6 
#
# 1 80.0634 53.6018 64.0326 -0.0007 -5.8849 0.0016
# 2 53.6018 79.0167 46.3063 -0.0048 -3.3590 0.0097
# 3 64.0326 46.3063 91.7038 -0.0045 -28.1359 0.0069
# 4 -0.0007 -0.0048 -0.0045 23.9205 -0.0005 -0.6139
# 5 -5.8849 -3.3590 -28.1359 -0.0005 19.7066 -0.0001
# 6 0.0016 0.0097 0.0069 -0.6139 -0.0001 29.6591
#
#
#
# Elastic Compliance Matrix: (Units=1/GPa)
#
#
# Indices 1 2 3 4 5 6 
#
# 1 0.059155 -0.010236 -0.055614 -0.000012 -0.063481 0.000013
# 2 -0.010236 0.023990 -0.008275 0.000003 -0.010782 -0.000005
# 3 -0.055614 -0.008275 0.086106 0.000015 0.104919 -0.000014
# 4 -0.000012 0.000003 0.000015 0.041827 0.000019 0.000866
# 5 -0.063481 -0.010782 0.104919 0.000019 0.179747 -0.000016
# 6 0.000013 -0.000005 -0.000014 0.000866 -0.000016 0.033734
#
#
# Mechanical properties :
#
#
# Convention : Reuss Voigt Hill
#
# Bulk Modulus (GPa) = 47.61218 64.29616 55.95417
# Shear Modulus (GPa) = 8.62352 20.44678 14.53515
#
# Velocity S-wave (km/s) = 2.24396 3.45529 2.91328
# Velocity P-wave (km/s) = 5.87494 7.31176 6.63238
#
# Compressibility (1/GPa) = 0.02100303
#
# Stress axis : x y z
#
# Youngs Moduli (GPa) = 16.90477 41.68407 11.61356
#
# Poissons Ratio (x) = 0.42666 0.64587
# Poissons Ratio (y) = 0.17303 0.09610
# Poissons Ratio (z) = 0.94013 0.34493
#
# Static dielectric constant tensor:
#      x y z
#    x 2.964500 0.000000 -0.268810 
#    y 0.000000 3.247870 0.000000 
#    z -0.268810 0.000000 3.494850 
# 
# 
# High freq. dielectric constant tensor:
#      x y z
#    x 1.636600 0.000000 -0.023340 
#    y 0.000000 1.665670 0.000000 
#    z -0.023340 0.000000 1.667870 
# 
# From -- ./inp_files/323690.got.cif
#   From: 2010.06.25/outbox.cif.g09.slc.cpg/sg12_162_cif.got.tgz:323690.got - 2010.06.28 00:19:55.
