data_PCOD8096152
_publ_section_title
;
Structure prediction by ZEFSAII (Michael W. Deem and Ramdas Pophale) SiO2 
 PCOD8096152
Probable space group: C 2/M
;
_chemical_formula_sum "Si O2"
_cell_formula_units_Z 40
_cell_length_a 21.368960
_cell_length_b 9.387488
_cell_length_c 28.635528
_cell_angle_alpha 90.000000
_cell_angle_beta 19.734508
_cell_angle_gamma 90.000000
_cell_volume 1939.636971
_symmetry_space_group_name_H-M "C 2/M"
_symmetry_group_IT_number 12
_symmetry_cell_setting 'monoclinic'
loop_
_space_group_symop_operation_xyz
x,y,z
-x,y,-z
-x,-y,-z
x,-y,z
1/2+x,1/2+y,z
1/2-x,1/2+y,-z
1/2-x,1/2-y,-z
1/2+x,1/2-y,z
loop_
_atom_site_type_symbol
_atom_site_label
_atom_site_fract_x
_atom_site_fract_y
_atom_site_fract_z
Si Si1 0.166896 0.668976 0.413582
Si Si2 0.288391 0.337409 0.426721
Si Si3 0.205550 0.162544 0.139220
Si Si4 0.790668 0.845007 0.163223
Si Si5 0.463591 0.333582 0.134490
O O1 0.147644 0.500000 0.426083
O O2 0.165628 0.719705 0.468854
O O3 0.366774 0.710625 0.250968
O O4 0.000000 0.737053 0.500000
O O5 0.238039 0.500000 0.473539
O O6 0.250000 0.250000 0.500000
O O7 0.502056 0.326161 0.260131
O O8 0.187968 0.229168 0.203642
O O9 0.272510 0.000000 0.097040
O O10 0.349575 0.244150 0.004709
O O11 0.802844 0.799853 0.208856
O O12 0.691373 0.000000 0.227714
O O13 0.000000 0.859205 0.000000
O O14 0.519110 0.500000 0.093412
#
# Coordination Sequence:
#
# PCOD8096152 Si02
#       5
#     8   8   8   8   8
#     4   9  19  37  61  85 109 144 192 242 281 321
#     4  10  23  40  59  84 114 149 190 232 282 341
#     4  10  20  33  51  81 117 149 179 221 284 344
#     4   8  15  28  49  79 108 139 183 227 264 315
#     4   9  18  33  56  85 109 139 190 238 274 321
#
# _framework density 20.622416999999999
#
# number of rings (size 3 to 8) (size 9 to 14) (size 15 to 20)
#    0.000    2.800    0.000    1.800    2.800    6.000 
#    0.000    1.000    0.000    1.200    0.000    0.000 
#    0.000    0.000    0.000    0.000    0.000    0.000 
#
# Total GULP energy -247836.804182 kJ/mol
# GULP energy per Si atom -12391.840209 kJ/mol
# Density = 2.057548 g / cm^3
# Si number density = 20.622417 Si / 1000 Ang^3
#
#
#
# Elastic Constant Matrix: (Units=GPa)
#
#
# Indices 1 2 3 4 5 6 
#
# 1 141.7410 48.1868 53.3940 0.0293 12.8640 0.0105
# 2 48.1868 82.4944 38.3200 0.0099 2.7933 0.0015
# 3 53.3940 38.3200 77.2170 0.1015 7.7211 -0.0122
# 4 0.0293 0.0099 0.1015 19.6185 -0.0281 0.8650
# 5 12.8640 2.7933 7.7211 -0.0281 35.9487 -0.0177
# 6 0.0105 0.0015 -0.0122 0.8650 -0.0177 22.1369
#
#
#
# Elastic Compliance Matrix: (Units=1/GPa)
#
#
# Indices 1 2 3 4 5 6 
#
# 1 0.010456 -0.003611 -0.005204 0.000010 -0.002343 -0.000010
# 2 -0.003611 0.017008 -0.006071 0.000030 0.001275 -0.000003
# 3 -0.005204 -0.006071 0.019753 -0.000095 -0.001909 0.000016
# 4 0.000010 0.000030 -0.000095 0.051061 0.000053 -0.001995
# 5 -0.002343 0.001275 -0.001909 0.000053 0.028967 0.000021
# 6 -0.000010 -0.000003 0.000016 -0.001995 0.000021 0.045251
#
#
# Mechanical properties :
#
#
# Convention : Reuss Voigt Hill
#
# Bulk Modulus (GPa) = 57.32274 64.58379 60.95326
# Shear Modulus (GPa) = 24.02900 26.31092 25.16996
#
# Velocity S-wave (km/s) = 3.41719 3.57577 3.49738
# Velocity P-wave (km/s) = 6.58986 6.95941 6.77715
#
# Compressibility (1/GPa) = 0.01744508
#
# Stress axis : x y z
#
# Youngs Moduli (GPa) = 95.64325 58.79509 50.62627
#
# Poissons Ratio (x) = 0.21230 0.26344
# Poissons Ratio (y) = 0.34535 0.30736
# Poissons Ratio (z) = 0.49769 0.35696
#
# Static dielectric constant tensor:
#      x y z
#    x 4.495180 -0.000020 0.166330 
#    y -0.000020 3.465870 0.000090 
#    z 0.166330 0.000090 3.716480 
# 
# 
# High freq. dielectric constant tensor:
#      x y z
#    x 1.807560 0.000000 0.003500 
#    y 0.000000 1.765180 0.000010 
#    z 0.003500 0.000010 1.810770 
# 
# From -- ./inp_files/381967.got.cif
#   From: 2010.06.25/outbox.cif.g09.slc.cpg/sg12_191_cif.got.tgz:381967.got - 2010.06.28 00:19:55.
