data_PCOD8096778
_publ_section_title
;
Structure prediction by ZEFSAII (Michael W. Deem and Ramdas Pophale) SiO2 
 PCOD8096778
Probable space group: C 2/M
;
_chemical_formula_sum "Si O2"
_cell_formula_units_Z 56
_cell_length_a 9.740530
_cell_length_b 27.888192
_cell_length_c 13.946249
_cell_angle_alpha 90.000000
_cell_angle_beta 49.173398
_cell_angle_gamma 90.000000
_cell_volume 2866.680376
_symmetry_space_group_name_H-M "C 2/M"
_symmetry_group_IT_number 12
_symmetry_cell_setting 'monoclinic'
loop_
_space_group_symop_operation_xyz
x,y,z
-x,y,-z
-x,-y,-z
x,-y,z
1/2+x,1/2+y,z
1/2-x,1/2+y,-z
1/2-x,1/2-y,-z
1/2+x,1/2-y,z
loop_
_atom_site_type_symbol
_atom_site_label
_atom_site_fract_x
_atom_site_fract_y
_atom_site_fract_z
Si Si1 0.703569 0.761673 0.411923
Si Si2 0.162198 0.799181 0.003056
Si Si3 0.572370 0.625078 0.203743
Si Si4 0.809011 0.636500 0.637863
Si Si5 0.345883 0.055191 0.991950
Si Si6 0.185094 0.840532 0.355982
Si Si7 0.928254 0.627166 0.791988
O O1 0.500000 0.778712 0.500000
O O2 0.750000 0.750000 0.500000
O O3 0.787621 0.810460 0.332538
O O4 0.733890 0.716101 0.330008
O O5 0.337471 0.826540 0.881232
O O6 0.250000 0.750000 0.000000
O O7 0.081180 0.830403 0.126424
O O8 0.000000 0.790420 0.000000
O O9 0.365522 0.607088 0.320899
O O10 0.665119 0.578661 0.116065
O O11 0.672287 0.640409 0.255031
O O12 0.828680 0.620439 0.737513
O O13 0.000000 0.625848 0.500000
O O14 0.307110 0.000000 0.987195
O O15 0.500000 0.062471 0.000000
O O16 0.403937 0.079768 0.866185
O O17 0.357157 0.865534 0.327135
O O18 0.000000 0.849340 0.500000
#
# Coordination Sequence:
#
# PCOD8096778 Si02
#       7
#     8   8   8   8   8   8   8
#     4  10  20  34  50  79 120 175 215 232 270 337
#     4  11  26  40  56  84 123 168 210 258 301 350
#     4  11  23  39  63  91 120 160 207 253 317 368
#     4  11  22  38  59  87 132 172 201 249 299 364
#     4  10  22  45  71  93 116 152 209 270 320 383
#     4  11  22  36  59  91 128 164 213 251 291 369
#     4  11  23  39  63  91 122 162 208 254 321 368
#
# _framework density 19.534790999999998
#
# number of rings (size 3 to 8) (size 9 to 14) (size 15 to 20)
#    0.000    1.286    2.857    4.286    6.000    0.000 
#    0.000    1.429    0.000    5.143    0.000    0.000 
#    0.000    0.000    0.000    0.000    0.000    0.000 
#
# Total GULP energy -346912.985909 kJ/mol
# GULP energy per Si atom -12389.749497 kJ/mol
# Density = 1.949033 g / cm^3
# Si number density = 19.534791 Si / 1000 Ang^3
#
#
#
# Elastic Constant Matrix: (Units=GPa)
#
#
# Indices 1 2 3 4 5 6 
#
# 1 102.7416 36.2242 20.6375 0.0000 -6.1385 0.0000
# 2 36.2242 111.6915 45.1833 0.0000 -2.7914 0.0000
# 3 20.6375 45.1833 88.4974 0.0000 -17.3149 0.0000
# 4 0.0000 0.0000 0.0000 12.6894 0.0000 -0.5376
# 5 -6.1385 -2.7914 -17.3149 0.0000 46.8361 0.0000
# 6 0.0000 0.0000 0.0000 -0.5376 0.0000 18.2438
#
#
#
# Elastic Compliance Matrix: (Units=1/GPa)
#
#
# Indices 1 2 3 4 5 6 
#
# 1 0.011094 -0.003283 -0.000716 0.000000 0.000994 0.000000
# 2 -0.003283 0.012364 -0.005915 0.000000 -0.001880 0.000000
# 3 -0.000716 -0.005915 0.015522 0.000000 0.005292 0.000000
# 4 0.000000 0.000000 0.000000 0.078904 0.000000 0.002325
# 5 0.000994 -0.001880 0.005292 0.000000 0.023326 0.000000
# 6 0.000000 0.000000 0.000000 0.002325 0.000000 0.054882
#
#
# Mechanical properties :
#
#
# Convention : Reuss Voigt Hill
#
# Bulk Modulus (GPa) = 52.21647 56.33561 54.27604
# Shear Modulus (GPa) = 22.49171 28.94622 25.71896
#
# Velocity S-wave (km/s) = 3.39686 3.85356 3.63240
# Velocity P-wave (km/s) = 6.49407 6.97862 6.74070
#
# Compressibility (1/GPa) = 0.01915104
#
# Stress axis : x y z
#
# Youngs Moduli (GPa) = 90.13824 80.88110 64.42470
#
# Poissons Ratio (x) = 0.26557 0.04615
# Poissons Ratio (y) = 0.29596 0.38105
# Poissons Ratio (z) = 0.06457 0.47838
#
# Static dielectric constant tensor:
#      x y z
#    x 3.800720 0.000000 -0.070160 
#    y 0.000000 3.320830 0.000000 
#    z -0.070160 0.000000 4.156560 
# 
# 
# High freq. dielectric constant tensor:
#      x y z
#    x 1.784140 0.000000 -0.009970 
#    y 0.000000 1.722350 0.000000 
#    z -0.009970 0.000000 1.771250 
# 
# From -- ./inp_files/185211.got.cif
#   From: 2010.06.25/outbox.cif.g09.slc.cpg/sg12_93_cif.got.tgz:185211.got - 2010.06.28 00:19:55.
