data_PCOD8096767
_publ_section_title
;
Structure prediction by ZEFSAII (Michael W. Deem and Ramdas Pophale) SiO2 
 PCOD8096767
Probable space group: C 2/M
;
_chemical_formula_sum "Si O2"
_cell_formula_units_Z 56
_cell_length_a 25.510362
_cell_length_b 8.903681
_cell_length_c 13.907470
_cell_angle_alpha 90.000000
_cell_angle_beta 104.550736
_cell_angle_gamma 90.000000
_cell_volume 3057.569218
_symmetry_space_group_name_H-M "C 2/M"
_symmetry_group_IT_number 12
_symmetry_cell_setting 'monoclinic'
loop_
_space_group_symop_operation_xyz
x,y,z
-x,y,-z
-x,-y,-z
x,-y,z
1/2+x,1/2+y,z
1/2-x,1/2+y,-z
1/2-x,1/2-y,-z
1/2+x,1/2-y,z
loop_
_atom_site_type_symbol
_atom_site_label
_atom_site_fract_x
_atom_site_fract_y
_atom_site_fract_z
Si Si1 0.702565 0.822025 0.600565
Si Si2 0.416507 0.826516 0.791512
Si Si3 0.093930 0.822519 0.012666
Si Si4 0.806800 0.672270 0.036624
Si Si5 0.963957 0.674454 0.184658
Si Si6 0.813009 0.323436 0.623535
Si Si7 0.132713 0.670882 0.739607
O O1 0.761845 0.755285 0.650066
O O2 0.682597 0.773603 0.485705
O O3 0.659324 0.752703 0.657259
O O4 0.707416 0.000000 0.614263
O O5 0.420633 0.723484 0.886375
O O6 0.473028 0.806767 0.759110
O O7 0.367906 0.770978 0.701067
O O8 0.408610 0.000000 0.818292
O O9 0.152292 0.755540 0.015295
O O10 0.095551 0.000000 0.004465
O O11 0.048103 0.759853 0.920125
O O12 0.802905 0.500000 0.002393
O O13 0.750000 0.750000 0.000000
O O14 0.824817 0.687775 0.154810
O O15 0.948083 0.500000 0.160343
O O16 0.925429 0.739883 0.252913
O O17 0.804487 0.500000 0.628018
O O18 0.122008 0.500000 0.706329
#
# Coordination Sequence:
#
# PCOD8096767 Si02
#       7
#     8   8   8   8   8   8   8
#     4   9  17  33  54  74 101 132 164 206 256 307
#     4  10  20  34  52  74 102 136 172 213 260 309
#     4  11  22  34  50  74 103 137 175 213 256 303
#     4  10  20  34  50  74 107 138 172 211 252 305
#     4   9  18  35  54  72 100 137 172 209 259 313
#     4   9  19  33  50  76 103 129 166 210 254 307
#     4   8  16  31  52  73  96 131 168 202 249 304
#
# _framework density 18.315201999999999
#
# number of rings (size 3 to 8) (size 9 to 14) (size 15 to 20)
#    0.000    2.571    0.000    3.000    2.000    2.857 
#    0.000    3.571    0.000    4.286    0.000    0.000 
#    0.000   10.286    0.000    0.000    0.000    0.000 
#
# Total GULP energy -347122.437371 kJ/mol
# GULP energy per Si atom -12397.229906 kJ/mol
# Density = 1.827352 g / cm^3
# Si number density = 18.315202 Si / 1000 Ang^3
#
#
#
# Elastic Constant Matrix: (Units=GPa)
#
#
# Indices 1 2 3 4 5 6 
#
# 1 151.6908 36.3720 76.8722 0.0000 -0.6179 0.0000
# 2 36.3720 63.5718 25.4364 0.0000 -0.8428 0.0000
# 3 76.8722 25.4364 82.4982 0.0000 -9.2411 0.0000
# 4 0.0000 0.0000 0.0000 17.0787 0.0000 1.4356
# 5 -0.6179 -0.8428 -9.2411 0.0000 32.3092 0.0000
# 6 0.0000 0.0000 0.0000 1.4356 0.0000 26.7034
#
#
#
# Elastic Compliance Matrix: (Units=1/GPa)
#
#
# Indices 1 2 3 4 5 6 
#
# 1 0.013270 -0.002902 -0.011829 0.000000 -0.003205 0.000000
# 2 -0.002902 0.018620 -0.003088 0.000000 -0.000453 0.000000
# 3 -0.011829 -0.003088 0.024858 0.000000 0.006803 0.000000
# 4 0.000000 0.000000 0.000000 0.058818 0.000000 -0.003162
# 5 -0.003205 -0.000453 0.006803 0.000000 0.032824 0.000000
# 6 0.000000 0.000000 0.000000 -0.003162 0.000000 0.037618
#
#
# Mechanical properties :
#
#
# Convention : Reuss Voigt Hill
#
# Bulk Modulus (GPa) = 47.37057 63.90244 55.63650
# Shear Modulus (GPa) = 21.86437 25.82361 23.84399
#
# Velocity S-wave (km/s) = 3.45886 3.75901 3.61206
# Velocity P-wave (km/s) = 6.47085 7.33528 6.91658
#
# Compressibility (1/GPa) = 0.02111015
#
# Stress axis : x y z
#
# Youngs Moduli (GPa) = 75.35977 53.70583 40.22817
#
# Poissons Ratio (x) = 0.15583 0.47587
# Poissons Ratio (y) = 0.21866 0.12423
# Poissons Ratio (z) = 0.89144 0.16585
#
# Static dielectric constant tensor:
#      x y z
#    x 3.656960 0.000000 -0.137790 
#    y 0.000000 3.202010 0.000000 
#    z -0.137790 0.000000 3.346040 
# 
# 
# High freq. dielectric constant tensor:
#      x y z
#    x 1.725980 0.000000 -0.006530 
#    y 0.000000 1.689460 0.000000 
#    z -0.006530 0.000000 1.691720 
# 
# From -- ./inp_files/181021.got.cif
#   From: 2010.06.25/outbox.cif.g09.slc.cpg/sg12_91_cif.got.tgz:181021.got - 2010.06.28 00:19:55.
