data_PCOD8096822
_publ_section_title
;
Structure prediction by ZEFSAII (Michael W. Deem and Ramdas Pophale) SiO2 
 PCOD8096822
Probable space group: C 2/M
;
_chemical_formula_sum "Si O2"
_cell_formula_units_Z 56
_cell_length_a 14.271533
_cell_length_b 9.741880
_cell_length_c 22.473479
_cell_angle_alpha 90.000000
_cell_angle_beta 73.283060
_cell_angle_gamma 90.000000
_cell_volume 2992.472714
_symmetry_space_group_name_H-M "C 2/M"
_symmetry_group_IT_number 12
_symmetry_cell_setting 'monoclinic'
loop_
_space_group_symop_operation_xyz
x,y,z
-x,y,-z
-x,-y,-z
x,-y,z
1/2+x,1/2+y,z
1/2-x,1/2+y,-z
1/2-x,1/2-y,-z
1/2+x,1/2-y,z
loop_
_atom_site_type_symbol
_atom_site_label
_atom_site_fract_x
_atom_site_fract_y
_atom_site_fract_z
Si Si1 0.174504 0.159487 0.230086
Si Si2 0.276534 0.656757 0.912033
Si Si3 0.608794 0.346616 0.540834
Si Si4 0.974990 0.837076 0.324855
Si Si5 0.888575 0.840468 0.009748
Si Si6 0.280678 0.338715 0.298235
Si Si7 0.681106 0.847989 0.435527
O O1 0.171575 0.184212 0.160199
O O2 0.259454 0.251123 0.243167
O O3 0.073529 0.214943 0.276278
O O4 0.191975 0.000000 0.242339
O O5 0.240023 0.500000 0.924139
O O6 0.181918 0.753421 0.934626
O O7 0.358076 0.689090 0.947100
O O8 0.578349 0.500000 0.527384
O O9 0.535252 0.284762 0.604733
O O10 0.605684 0.255705 0.481399
O O11 0.715854 0.347431 0.549734
O O12 0.885506 0.784218 0.301118
O O13 0.967877 0.000000 0.328581
O O14 0.876266 0.000000 0.028681
O O15 0.000000 0.792608 0.000000
O O16 0.281952 0.500000 0.282451
O O17 0.199293 0.305712 0.363648
O O18 0.635284 0.000000 0.447093
#
# Coordination Sequence:
#
# PCOD8096822 Si02
#       7
#     8   8   8   8   8   8   8
#     4  10  20  34  51  72 101 134 166 201 242 289
#     4   9  19  34  51  76 108 135 160 198 246 286
#     4   8  13  24  44  66  86 116 160 202 244 298
#     4   8  16  32  51  69  94 130 167 204 249 299
#     4   9  18  34  57  82 104 130 167 202 232 279
#     4   9  18  33  51  70  95 130 170 208 249 298
#     4   8  14  25  42  65  91 118 153 203 257 297
#
# _framework density 18.713619999999999
#
# number of rings (size 3 to 8) (size 9 to 14) (size 15 to 20)
#    0.000    3.286    0.000    1.714    0.000    2.571 
#    0.000    7.143    0.000    4.286    0.000    0.000 
#    0.000    0.000    0.000    0.000    0.000    0.000 
#
# Total GULP energy -347106.292136 kJ/mol
# GULP energy per Si atom -12396.653291 kJ/mol
# Density = 1.867103 g / cm^3
# Si number density = 18.713620 Si / 1000 Ang^3
#
#
#
# Elastic Constant Matrix: (Units=GPa)
#
#
# Indices 1 2 3 4 5 6 
#
# 1 74.2178 27.4057 32.4826 0.0000 -4.8070 0.0000
# 2 27.4057 59.2655 40.1915 0.0000 -1.5920 0.0000
# 3 32.4826 40.1915 94.6657 0.0000 -2.3129 0.0000
# 4 0.0000 0.0000 0.0000 31.9353 0.0000 1.4436
# 5 -4.8070 -1.5920 -2.3129 0.0000 25.0372 0.0000
# 6 0.0000 0.0000 0.0000 1.4436 0.0000 20.6134
#
#
#
# Elastic Compliance Matrix: (Units=1/GPa)
#
#
# Indices 1 2 3 4 5 6 
#
# 1 0.017213 -0.005515 -0.003500 0.000000 0.002631 0.000000
# 2 -0.005515 0.025471 -0.008928 0.000000 -0.000264 0.000000
# 3 -0.003500 -0.008928 0.015560 0.000000 0.000198 0.000000
# 4 0.000000 0.000000 0.000000 0.031413 0.000000 -0.002200
# 5 0.002631 -0.000264 0.000198 0.000000 0.040447 0.000000
# 6 0.000000 0.000000 0.000000 -0.002200 0.000000 0.048666
#
#
# Mechanical properties :
#
#
# Convention : Reuss Voigt Hill
#
# Bulk Modulus (GPa) = 44.72957 47.58984 46.15971
# Shear Modulus (GPa) = 22.51142 24.05513 23.28327
#
# Velocity S-wave (km/s) = 3.47211 3.58918 3.53113
# Velocity P-wave (km/s) = 6.32678 6.53163 6.43002
#
# Compressibility (1/GPa) = 0.02235657
#
# Stress axis : x y z
#
# Youngs Moduli (GPa) = 58.09651 39.26012 64.26732
#
# Poissons Ratio (x) = 0.21652 0.22496
# Poissons Ratio (y) = 0.32040 0.57379
# Poissons Ratio (z) = 0.20336 0.35052
#
# Static dielectric constant tensor:
#      x y z
#    x 3.276520 0.000000 -0.048990 
#    y 0.000000 3.356640 0.000000 
#    z -0.048990 0.000000 3.501480 
# 
# 
# High freq. dielectric constant tensor:
#      x y z
#    x 1.716010 0.000000 0.002840 
#    y 0.000000 1.707890 0.000000 
#    z 0.002840 0.000000 1.725290 
# 
# From -- ./inp_files/337838.got.cif
#   From: 2010.06.25/outbox.cif.g09.slc.cpg/sg12_169_cif.got.tgz:337838.got - 2010.06.28 00:19:55.
