data_PCOD8096059
_publ_section_title
;
Structure prediction by ZEFSAII (Michael W. Deem and Ramdas Pophale) SiO2 
 PCOD8096059
Probable space group: C 2/M
;
_chemical_formula_sum "Si O2"
_cell_formula_units_Z 64
_cell_length_a 23.672361
_cell_length_b 9.383497
_cell_length_c 30.012049
_cell_angle_alpha 90.000000
_cell_angle_beta 150.750666
_cell_angle_gamma 90.000000
_cell_volume 3257.356332
_symmetry_space_group_name_H-M "C 2/M"
_symmetry_group_IT_number 12
_symmetry_cell_setting 'monoclinic'
loop_
_space_group_symop_operation_xyz
x,y,z
-x,y,-z
-x,-y,-z
x,-y,z
1/2+x,1/2+y,z
1/2-x,1/2+y,-z
1/2-x,1/2-y,-z
1/2+x,1/2-y,z
loop_
_atom_site_type_symbol
_atom_site_label
_atom_site_fract_x
_atom_site_fract_y
_atom_site_fract_z
Si Si1 0.078813 0.836272 0.866690
Si Si2 0.787101 0.845243 0.169177
Si Si3 0.411744 0.843416 0.902515
Si Si4 0.764819 0.836440 0.943803
Si Si5 0.203617 0.332443 0.511422
Si Si6 0.237353 0.166967 0.261009
Si Si7 0.815575 0.832363 0.678862
Si Si8 0.435665 0.836236 0.328516
O O1 0.147629 0.731498 0.882001
O O2 0.947816 0.785125 0.774993
O O3 0.094202 0.000000 0.861683
O O4 0.126053 0.817885 0.949120
O O5 0.712177 0.869179 0.161030
O O6 0.706786 0.753923 0.080519
O O7 0.900920 0.757389 0.261566
O O8 0.823272 0.000000 0.174043
O O9 0.380235 0.738586 0.840083
O O10 0.459094 0.000000 0.919079
O O11 0.500000 0.776976 0.000000
O O12 0.740634 0.000000 0.915489
O O13 0.228088 0.500000 0.520899
O O14 0.250000 0.250000 0.500000
O O15 0.265377 0.268746 0.598269
O O16 0.069175 0.303647 0.429110
O O17 0.251189 0.218793 0.322091
O O18 0.357147 0.202467 0.317782
O O19 0.209833 0.000000 0.240514
O O20 0.802783 0.000000 0.666207
O O21 0.415068 0.000000 0.301463
#
# Coordination Sequence:
#
# PCOD8096059 Si02
#       8
#     8   8   8   8   8   8   8   8
#     4   9  19  35  52  74 107 143 182 222 270 330
#     4  10  20  33  53  77 105 146 185 220 272 330
#     4   9  19  34  50  75 111 147 183 223 268 322
#     4  10  20  33  51  76 107 142 184 230 270 320
#     4  10  22  39  59  84 114 144 182 228 278 335
#     4   9  18  34  57  82 109 143 184 227 277 328
#     4   9  19  36  58  84 110 142 183 228 279 333
#     4   9  19  36  56  82 112 141 182 233 274 322
#
# _framework density 19.647835000000001
#
# number of rings (size 3 to 8) (size 9 to 14) (size 15 to 20)
#    0.000    2.625    0.000    0.750    3.500    2.250 
#    0.000    3.750    0.000    0.000    0.000    4.375 
#    0.000    0.000    0.000    0.000    0.000    0.000 
#
# Total GULP energy -396544.630303 kJ/mol
# GULP energy per Si atom -12392.019697 kJ/mol
# Density = 1.960312 g / cm^3
# Si number density = 19.647835 Si / 1000 Ang^3
#
#
#
# Elastic Constant Matrix: (Units=GPa)
#
#
# Indices 1 2 3 4 5 6 
#
# 1 85.7903 33.7287 57.3315 -0.0001 -16.5638 -0.0001
# 2 33.7287 82.1772 47.2949 0.0000 -9.9918 -0.0003
# 3 57.3315 47.2949 131.3432 0.0013 -9.6429 0.0001
# 4 -0.0001 0.0000 0.0013 23.3292 0.0002 -2.3541
# 5 -16.5638 -9.9918 -9.6429 0.0002 31.5061 -0.0001
# 6 -0.0001 -0.0003 0.0001 -2.3541 -0.0001 24.1109
#
#
#
# Elastic Compliance Matrix: (Units=1/GPa)
#
#
# Indices 1 2 3 4 5 6 
#
# 1 0.018488 -0.003035 -0.006480 0.000000 0.006774 0.000000
# 2 -0.003035 0.016180 -0.004339 0.000000 0.002208 0.000000
# 3 -0.006480 -0.004339 0.011921 -0.000001 -0.001134 0.000000
# 4 0.000000 0.000000 -0.000001 0.043291 0.000000 0.004227
# 5 0.006774 0.002208 -0.001134 0.000000 0.035654 0.000000
# 6 0.000000 0.000000 0.000000 0.004227 0.000000 0.041888
#
#
# Mechanical properties :
#
#
# Convention : Reuss Voigt Hill
#
# Bulk Modulus (GPa) = 52.96368 64.00232 58.48300
# Shear Modulus (GPa) = 24.82318 26.51960 25.67139
#
# Velocity S-wave (km/s) = 3.55830 3.67788 3.61858
# Velocity P-wave (km/s) = 6.62548 7.11907 6.87671
#
# Compressibility (1/GPa) = 0.01888086
#
# Stress axis : x y z
#
# Youngs Moduli (GPa) = 54.09013 61.80306 83.88345
#
# Poissons Ratio (x) = 0.18759 0.54353
# Poissons Ratio (y) = 0.16418 0.36400
# Poissons Ratio (z) = 0.35048 0.26819
#
# Static dielectric constant tensor:
#      x y z
#    x 3.592570 0.000000 -0.151110 
#    y 0.000000 3.725810 0.000000 
#    z -0.151110 0.000000 3.604570 
# 
# 
# High freq. dielectric constant tensor:
#      x y z
#    x 1.761150 0.000000 -0.005150 
#    y 0.000000 1.749850 0.000000 
#    z -0.005150 0.000000 1.762900 
# 
# From -- ./inp_files/382503.got.cif
#   From: 2010.06.25/outbox.cif.g09.slc.cpg/sg12_192_cif.got.tgz:382503.got - 2010.06.28 00:19:55.
