data_PCOD8096837
_publ_section_title
;
Structure prediction by ZEFSAII (Michael W. Deem and Ramdas Pophale) SiO2 
 PCOD8096837
Probable space group: C 2/M
;
_chemical_formula_sum "Si O2"
_cell_formula_units_Z 64
_cell_length_a 17.417217
_cell_length_b 11.434837
_cell_length_c 17.335241
_cell_angle_alpha 90.000000
_cell_angle_beta 97.491406
_cell_angle_gamma 90.000000
_cell_volume 3423.069855
_symmetry_space_group_name_H-M "C 2/M"
_symmetry_group_IT_number 12
_symmetry_cell_setting 'monoclinic'
loop_
_space_group_symop_operation_xyz
x,y,z
-x,y,-z
-x,-y,-z
x,-y,z
1/2+x,1/2+y,z
1/2-x,1/2+y,-z
1/2-x,1/2-y,-z
1/2+x,1/2-y,z
loop_
_atom_site_type_symbol
_atom_site_label
_atom_site_fract_x
_atom_site_fract_y
_atom_site_fract_z
Si Si1 0.810109 0.639339 0.011564
Si Si2 0.159168 0.245893 0.406692
Si Si3 0.876927 0.752084 0.304255
Si Si4 0.813047 0.371200 0.434553
Si Si5 0.568528 0.135592 0.841027
Si Si6 0.214071 0.634852 0.268741
Si Si7 0.903530 0.636389 0.871591
Si Si8 0.005535 0.134353 0.413554
O O1 0.778723 0.500000 0.001774
O O2 0.871748 0.662884 0.952214
O O3 0.750000 0.750000 0.000000
O O4 0.855826 0.654986 0.097020
O O5 0.160804 0.283566 0.495697
O O6 0.222106 0.143451 0.403473
O O7 0.181170 0.349775 0.350893
O O8 0.073690 0.200646 0.376720
O O9 0.862390 0.648752 0.363588
O O10 0.922763 0.704826 0.237131
O O11 0.796323 0.805520 0.266263
O O12 0.927106 0.850124 0.354872
O O13 0.829435 0.500000 0.467057
O O14 0.491127 0.185054 0.873351
O O15 0.558936 0.000000 0.819703
O O16 0.226310 0.500000 0.252925
O O17 0.154215 0.692161 0.199702
O O18 0.907072 0.500000 0.856239
O O19 0.000000 0.184082 0.500000
O O20 0.028253 0.000000 0.420572
#
# Coordination Sequence:
#
# PCOD8096837 Si02
#       8
#     8   8   8   8   8   8   8   8
#     4  10  20  36  61  91 121 155 193 235 283 341
#     4  10  20  35  52  74  98 136 181 220 271 331
#     4  11  21  35  53  79 109 141 183 225 277 337
#     4  10  20  34  51  72  99 132 174 224 270 320
#     4  10  20  35  58  85 116 151 187 231 278 329
#     4  10  20  34  55  79 107 142 183 235 280 324
#     4   9  18  34  56  83 112 147 190 230 276 333
#     4  11  22  37  54  74 104 141 181 226 279 341
#
# _framework density 18.696667999999999
#
# number of rings (size 3 to 8) (size 9 to 14) (size 15 to 20)
#    0.000    1.875    1.250    3.375    0.000    1.500 
#    0.000    3.125    0.000    6.750    0.000    0.000 
#    0.000    0.000    0.000    0.000    0.000    0.000 
#
# Total GULP energy -396610.891897 kJ/mol
# GULP energy per Si atom -12394.090372 kJ/mol
# Density = 1.865411 g / cm^3
# Si number density = 18.696668 Si / 1000 Ang^3
#
#
#
# Elastic Constant Matrix: (Units=GPa)
#
#
# Indices 1 2 3 4 5 6 
#
# 1 104.4803 34.8816 30.0351 0.0000 -3.9413 0.0000
# 2 34.8816 67.2515 22.3026 0.0000 -6.7386 0.0000
# 3 30.0351 22.3026 97.8064 0.0000 -9.1638 0.0000
# 4 0.0000 0.0000 0.0000 23.5603 0.0000 2.6807
# 5 -3.9413 -6.7386 -9.1638 0.0000 35.6203 0.0000
# 6 0.0000 0.0000 0.0000 2.6807 0.0000 18.2688
#
#
#
# Elastic Compliance Matrix: (Units=1/GPa)
#
#
# Indices 1 2 3 4 5 6 
#
# 1 0.012108 -0.005486 -0.002499 0.000000 -0.000341 0.000000
# 2 -0.005486 0.018734 -0.002369 0.000000 0.002328 0.000000
# 3 -0.002499 -0.002369 0.011747 0.000000 0.002297 0.000000
# 4 0.000000 0.000000 0.000000 0.043165 0.000000 -0.006334
# 5 -0.000341 0.002328 0.002297 0.000000 0.029067 0.000000
# 6 0.000000 0.000000 0.000000 -0.006334 0.000000 0.055667
#
#
# Mechanical properties :
#
#
# Convention : Reuss Voigt Hill
#
# Bulk Modulus (GPa) = 45.70174 49.33076 47.51625
# Shear Modulus (GPa) = 25.19006 27.64447 26.41726
#
# Velocity S-wave (km/s) = 3.67454 3.84940 3.76299
# Velocity P-wave (km/s) = 6.51919 6.79700 6.65955
#
# Compressibility (1/GPa) = 0.02188100
#
# Stress axis : x y z
#
# Youngs Moduli (GPa) = 82.58858 53.37982 85.12588
#
# Poissons Ratio (x) = 0.29282 0.21276
# Poissons Ratio (y) = 0.45304 0.20168
# Poissons Ratio (z) = 0.20642 0.12647
#
# Static dielectric constant tensor:
#      x y z
#    x 3.630410 0.000000 0.037650 
#    y 0.000000 3.239990 0.000000 
#    z 0.037650 0.000000 3.418980 
# 
# 
# High freq. dielectric constant tensor:
#      x y z
#    x 1.734590 0.000000 -0.000630 
#    y 0.000000 1.698810 0.000000 
#    z -0.000630 0.000000 1.731860 
# 
# From -- ./inp_files/223834.got.cif
#   From: 2010.06.25/outbox.cif.g09.slc.cpg/sg12_112_cif.got.tgz:223834.got - 2010.06.28 00:19:55.
