data_PCOD8096967
_publ_section_title
;
Structure prediction by ZEFSAII (Michael W. Deem and Ramdas Pophale) SiO2 
 PCOD8096967
Probable space group: C 2/M
;
_chemical_formula_sum "Si O2"
_cell_formula_units_Z 64
_cell_length_a 14.791416
_cell_length_b 9.636841
_cell_length_c 27.996231
_cell_angle_alpha 90.000000
_cell_angle_beta 57.526050
_cell_angle_gamma 90.000000
_cell_volume 3366.657489
_symmetry_space_group_name_H-M "C 2/M"
_symmetry_group_IT_number 12
_symmetry_cell_setting 'monoclinic'
loop_
_space_group_symop_operation_xyz
x,y,z
-x,y,-z
-x,-y,-z
x,-y,z
1/2+x,1/2+y,z
1/2-x,1/2+y,-z
1/2-x,1/2-y,-z
1/2+x,1/2-y,z
loop_
_atom_site_type_symbol
_atom_site_label
_atom_site_fract_x
_atom_site_fract_y
_atom_site_fract_z
Si Si1 0.074521 0.662649 0.206509
Si Si2 0.402507 0.661774 0.992222
Si Si3 0.168281 0.341911 0.711778
Si Si4 0.021881 0.845888 0.615727
Si Si5 0.341913 0.160512 0.920665
Si Si6 0.905209 0.653438 0.490066
Si Si7 0.732554 0.344598 0.611442
Si Si8 0.161144 0.841530 0.263332
O O1 0.090187 0.500000 0.211311
O O2 0.105218 0.702584 0.144198
O O3 0.152850 0.744781 0.219628
O O4 0.953209 0.711343 0.250646
O O5 0.417354 0.500000 0.975278
O O6 0.285544 0.690268 0.048480
O O7 0.500000 0.708756 0.000000
O O8 0.403743 0.749344 0.942958
O O9 0.172125 0.500000 0.692356
O O10 0.241164 0.252345 0.655148
O O11 0.218310 0.330122 0.750618
O O12 0.059661 0.748603 0.562915
O O13 0.109702 0.848891 0.631963
O O14 0.915856 0.789561 0.671835
O O15 0.002573 0.000000 0.600093
O O16 0.361688 0.000000 0.927925
O O17 0.877151 0.500000 0.477905
O O18 0.802539 0.715777 0.547407
O O19 0.000000 0.643521 0.500000
O O20 0.774717 0.500000 0.612097
O O21 0.132417 0.000000 0.257386
#
# Coordination Sequence:
#
# PCOD8096967 Si02
#       8
#     8   8   8   8   8   8   8   8
#     4  10  21  37  55  79 110 143 180 221 265 312
#     4   9  18  34  56  82 112 146 183 220 260 309
#     4  10  21  36  55  78 104 138 179 219 264 319
#     4  10  20  34  52  73  98 131 171 214 263 318
#     4   9  19  35  54  79 113 146 179 222 265 308
#     4  10  21  34  49  73 101 128 165 214 265 320
#     4  10  20  35  53  74 101 133 171 215 265 321
#     4  10  21  37  55  77 106 139 177 222 267 315
#
# _framework density 19.009954
#
# number of rings (size 3 to 8) (size 9 to 14) (size 15 to 20)
#    0.000    2.250    1.250    1.125    0.000    4.000 
#    0.000    0.000    0.000    0.000    0.000    0.000 
#    0.000    0.000    0.000    0.000    0.000    0.000 
#
# Total GULP energy -396751.157358 kJ/mol
# GULP energy per Si atom -12398.473667 kJ/mol
# Density = 1.896669 g / cm^3
# Si number density = 19.009954 Si / 1000 Ang^3
#
#
#
# Elastic Constant Matrix: (Units=GPa)
#
#
# Indices 1 2 3 4 5 6 
#
# 1 82.4158 33.3338 20.4336 0.0000 15.7408 0.0000
# 2 33.3338 73.8154 57.9697 0.0000 19.3473 0.0000
# 3 20.4336 57.9697 103.7931 0.0000 21.4428 0.0000
# 4 0.0000 0.0000 0.0000 33.8133 0.0000 8.3913
# 5 15.7408 19.3473 21.4428 0.0000 22.8118 0.0000
# 6 0.0000 0.0000 0.0000 8.3913 0.0000 28.9554
#
#
#
# Elastic Compliance Matrix: (Units=1/GPa)
#
#
# Indices 1 2 3 4 5 6 
#
# 1 0.015774 -0.007092 0.002310 0.000000 -0.007041 0.000000
# 2 -0.007092 0.029174 -0.013399 0.000000 -0.007255 0.000000
# 3 0.002310 -0.013399 0.018174 0.000000 -0.007314 0.000000
# 4 0.000000 0.000000 0.000000 0.031866 0.000000 -0.009235
# 5 -0.007041 -0.007255 -0.007314 0.000000 0.061723 0.000000
# 6 0.000000 0.000000 0.000000 -0.009235 0.000000 0.037212
#
#
# Mechanical properties :
#
#
# Convention : Reuss Voigt Hill
#
# Bulk Modulus (GPa) = 37.36852 53.72206 45.54529
# Shear Modulus (GPa) = 20.90249 27.00193 23.95221
#
# Velocity S-wave (km/s) = 3.31955 3.77292 3.55347
# Velocity P-wave (km/s) = 5.86452 6.87759 6.39116
#
# Compressibility (1/GPa) = 0.02676049
#
# Stress axis : x y z
#
# Youngs Moduli (GPa) = 63.39516 34.27672 55.02278
#
# Poissons Ratio (x) = 0.24309 -0.12712
# Poissons Ratio (y) = 0.44961 0.73726
# Poissons Ratio (z) = -0.14646 0.45928
#
# Static dielectric constant tensor:
#      x y z
#    x 3.285670 0.000000 -0.698130 
#    y 0.000000 3.533080 0.000000 
#    z -0.698130 0.000000 2.261240 
# 
# 
# High freq. dielectric constant tensor:
#      x y z
#    x 1.743260 0.000000 -0.007940 
#    y 0.000000 1.732890 0.000000 
#    z -0.007940 0.000000 1.730150 
# 
# From -- ./inp_files/375069.got.cif
#   From: 2010.06.25/outbox.cif.g09.slc.cpg/sg12_188_cif.got.tgz:375069.got - 2010.06.28 00:19:55.
