data_PCOD8096413
_publ_section_title
;
Structure prediction by ZEFSAII (Michael W. Deem and Ramdas Pophale) SiO2 
 PCOD8096413
Probable space group: C 2/M
;
_chemical_formula_sum "Si O2"
_cell_formula_units_Z 56
_cell_length_a 30.810882
_cell_length_b 8.700579
_cell_length_c 11.652587
_cell_angle_alpha 90.000000
_cell_angle_beta 64.004138
_cell_angle_gamma 90.000000
_cell_volume 2807.696257
_symmetry_space_group_name_H-M "C 2/M"
_symmetry_group_IT_number 12
_symmetry_cell_setting 'monoclinic'
loop_
_space_group_symop_operation_xyz
x,y,z
-x,y,-z
-x,-y,-z
x,-y,z
1/2+x,1/2+y,z
1/2-x,1/2+y,-z
1/2-x,1/2-y,-z
1/2+x,1/2-y,z
loop_
_atom_site_type_symbol
_atom_site_label
_atom_site_fract_x
_atom_site_fract_y
_atom_site_fract_z
Si Si1 0.853472 0.824177 0.945270
Si Si2 0.770355 0.321001 0.167106
Si Si3 0.385966 0.818946 0.432356
Si Si4 0.296462 0.177774 0.390786
Si Si5 0.961505 0.181359 0.191363
Si Si6 0.439425 0.819389 0.978528
Si Si7 0.660572 0.676930 0.299662
O O1 0.890006 0.714851 0.970259
O O2 0.861598 0.803351 0.800663
O O3 0.861716 0.000000 0.972673
O O4 0.798593 0.774571 0.037587
O O5 0.770466 0.500000 0.133288
O O6 0.798354 0.289352 0.253462
O O7 0.715521 0.260658 0.239792
O O8 0.344276 0.755826 0.395483
O O9 0.434988 0.732954 0.338700
O O10 0.372753 0.776428 0.577778
O O11 0.394009 0.000000 0.412645
O O12 0.250000 0.250000 0.500000
O O13 0.293015 0.000000 0.422119
O O14 0.017076 0.232812 0.136200
O O15 0.959087 0.000000 0.177585
O O16 0.935478 0.263102 0.114055
O O17 0.449318 0.000000 0.966543
O O18 0.659842 0.500000 0.340624
#
# Coordination Sequence:
#
# PCOD8096413 Si02
#       7
#     8   8   8   8   8   8   8
#     4  11  23  38  58  85 115 153 202 246 291 344
#     4  10  20  36  57  82 115 155 197 242 295 347
#     4  11  22  36  57  88 121 157 196 237 291 349
#     4  10  20  33  53  80 113 148 186 232 281 337
#     4  11  22  39  65  93 120 150 186 234 291 349
#     4  11  22  40  64  90 120 150 188 239 292 346
#     4  10  22  39  57  80 116 160 202 245 288 342
#
# _framework density 19.945177000000001
#
# number of rings (size 3 to 8) (size 9 to 14) (size 15 to 20)
#    0.000    1.429    1.429    5.571    0.000    4.000 
#    0.000    0.714    0.000    4.286    0.000    0.000 
#    0.000    0.000    0.000    0.000    0.000    0.000 
#
# Total GULP energy -347355.737414 kJ/mol
# GULP energy per Si atom -12405.562050 kJ/mol
# Density = 1.989978 g / cm^3
# Si number density = 19.945177 Si / 1000 Ang^3
#
#
#
# Elastic Constant Matrix: (Units=GPa)
#
#
# Indices 1 2 3 4 5 6 
#
# 1 56.8319 18.2213 26.6446 0.0000 -6.9247 0.0000
# 2 18.2213 84.0241 38.2142 0.0000 -1.9712 0.0000
# 3 26.6446 38.2142 115.4503 0.0000 -17.9013 0.0000
# 4 0.0000 0.0000 0.0000 35.5531 0.0000 -4.7455
# 5 -6.9247 -1.9712 -17.9013 0.0000 26.6713 0.0000
# 6 0.0000 0.0000 0.0000 -4.7455 0.0000 28.8971
#
#
#
# Elastic Compliance Matrix: (Units=1/GPa)
#
#
# Indices 1 2 3 4 5 6 
#
# 1 0.020416 -0.002848 -0.003326 0.000000 0.002858 0.000000
# 2 -0.002848 0.014537 -0.004579 0.000000 -0.002738 0.000000
# 3 -0.003326 -0.004579 0.012008 0.000000 0.006858 0.000000
# 4 0.000000 0.000000 0.000000 0.028757 0.000000 0.004723
# 5 0.002858 -0.002738 0.006858 0.000000 0.042636 0.000000
# 6 0.000000 0.000000 0.000000 0.004723 0.000000 0.035381
#
#
# Mechanical properties :
#
#
# Convention : Reuss Voigt Hill
#
# Bulk Modulus (GPa) = 39.28359 46.94074 43.11216
# Shear Modulus (GPa) = 27.21416 29.77273 28.49344
#
# Velocity S-wave (km/s) = 3.69785 3.86778 3.78377
# Velocity P-wave (km/s) = 6.16204 6.59790 6.38369
#
# Compressibility (1/GPa) = 0.02545592
#
# Stress axis : x y z
#
# Youngs Moduli (GPa) = 48.98029 68.78859 83.27453
#
# Poissons Ratio (x) = 0.19589 0.27699
# Poissons Ratio (y) = 0.13948 0.38134
# Poissons Ratio (z) = 0.16292 0.31500
#
# Static dielectric constant tensor:
#      x y z
#    x 3.557700 0.000000 -0.057470 
#    y 0.000000 3.584030 0.000000 
#    z -0.057470 0.000000 3.592720 
# 
# 
# High freq. dielectric constant tensor:
#      x y z
#    x 1.767750 0.000000 -0.006330 
#    y 0.000000 1.780440 0.000000 
#    z -0.006330 0.000000 1.782890 
# 
# From -- ./inp_files/180869.got.cif
#   From: 2010.06.25/outbox.cif.g09.slc.cpg/sg12_91_cif.got.tgz:180869.got - 2010.06.28 00:19:55.
