data_PCOD8096298
_publ_section_title
;
Structure prediction by ZEFSAII (Michael W. Deem and Ramdas Pophale) SiO2 
 PCOD8096298
Probable space group: C 2/M
;
_chemical_formula_sum "Si O2"
_cell_formula_units_Z 64
_cell_length_a 14.960095
_cell_length_b 9.076035
_cell_length_c 30.242644
_cell_angle_alpha 90.000000
_cell_angle_beta 50.578928
_cell_angle_gamma 90.000000
_cell_volume 3172.114135
_symmetry_space_group_name_H-M "C 2/M"
_symmetry_group_IT_number 12
_symmetry_cell_setting 'monoclinic'
loop_
_space_group_symop_operation_xyz
x,y,z
-x,y,-z
-x,-y,-z
x,-y,z
1/2+x,1/2+y,z
1/2-x,1/2+y,-z
1/2-x,1/2-y,-z
1/2+x,1/2-y,z
loop_
_atom_site_type_symbol
_atom_site_label
_atom_site_fract_x
_atom_site_fract_y
_atom_site_fract_z
Si Si1 0.748618 0.326966 0.173159
Si Si2 0.165873 0.672768 0.379538
Si Si3 0.787843 0.169556 0.249745
Si Si4 0.449053 0.328757 0.832377
Si Si5 0.723164 0.829702 0.576538
Si Si6 0.193502 0.662482 0.057301
Si Si7 0.570976 0.670435 0.556560
Si Si8 0.896981 0.836599 0.061465
O O1 0.764158 0.500000 0.170341
O O2 0.736605 0.265706 0.226207
O O3 0.632802 0.281052 0.182825
O O4 0.865150 0.261817 0.113888
O O5 0.152684 0.500000 0.394059
O O6 0.209073 0.702040 0.316604
O O7 0.258848 0.743399 0.383501
O O8 0.044727 0.754010 0.424695
O O9 0.919489 0.212435 0.220799
O O10 0.781316 0.000000 0.237254
O O11 0.431787 0.500000 0.847538
O O12 0.417586 0.245788 0.887929
O O13 0.614328 0.755232 0.586480
O O14 0.837322 0.813478 0.511321
O O15 0.693522 0.000000 0.595169
O O16 0.156446 0.500000 0.052463
O O17 0.284238 0.650067 0.067728
O O18 0.250000 0.750000 0.000000
O O19 0.548276 0.500000 0.575421
O O20 0.936590 0.000000 0.065069
O O21 0.000000 0.763437 0.000000
#
# Coordination Sequence:
#
# PCOD8096298 Si02
#       8
#     8   8   8   8   8   8   8   8
#     4  10  21  37  58  84 110 140 184 239 288 332
#     4  11  23  38  58  88 121 157 204 251 297 351
#     4  10  23  41  60  81 111 155 197 233 285 349
#     4   9  20  40  59  76 107 147 184 226 280 339
#     4  10  21  38  61  90 123 160 201 246 298 353
#     4  10  20  33  52  80 109 137 173 219 274 335
#     4  10  21  38  61  89 123 162 200 244 300 355
#     4   9  19  35  54  76 104 142 178 213 273 346
#
# _framework density 20.175819000000001
#
# number of rings (size 3 to 8) (size 9 to 14) (size 15 to 20)
#    0.000    2.125    0.000    2.250    1.750    6.750 
#    0.000    1.250    0.000    0.000    0.000    0.000 
#    0.000    0.000    0.000    0.000    0.000    0.000 
#
# Total GULP energy -396874.459933 kJ/mol
# GULP energy per Si atom -12402.326873 kJ/mol
# Density = 2.012990 g / cm^3
# Si number density = 20.175819 Si / 1000 Ang^3
#
#
#
# Elastic Constant Matrix: (Units=GPa)
#
#
# Indices 1 2 3 4 5 6 
#
# 1 68.5563 38.2627 13.6905 0.0000 12.5554 0.0000
# 2 38.2627 115.9277 34.6076 -0.0001 14.5005 0.0000
# 3 13.6905 34.6076 47.1452 0.0000 11.1961 0.0000
# 4 0.0000 -0.0001 0.0000 30.0547 -0.0001 5.4518
# 5 12.5554 14.5005 11.1961 -0.0001 31.9697 0.0000
# 6 0.0000 0.0000 0.0000 5.4518 0.0000 34.0361
#
#
#
# Elastic Compliance Matrix: (Units=1/GPa)
#
#
# Indices 1 2 3 4 5 6 
#
# 1 0.018546 -0.005453 -0.000262 0.000000 -0.004719 0.000000
# 2 -0.005453 0.012817 -0.007584 0.000000 -0.001016 0.000000
# 3 -0.000262 -0.007584 0.028372 0.000000 -0.006394 0.000000
# 4 0.000000 0.000000 0.000000 0.034268 0.000000 -0.005489
# 5 -0.004719 -0.001016 -0.006394 0.000000 0.035833 0.000000
# 6 0.000000 0.000000 0.000000 -0.005489 0.000000 0.030260
#
#
# Mechanical properties :
#
#
# Convention : Reuss Voigt Hill
#
# Bulk Modulus (GPa) = 30.17684 44.97230 37.57457
# Shear Modulus (GPa) = 25.28569 28.88332 27.08451
#
# Velocity S-wave (km/s) = 3.54399 3.78773 3.66789
# Velocity P-wave (km/s) = 5.63346 6.43955 6.04995
#
# Compressibility (1/GPa) = 0.03313799
#
# Stress axis : x y z
#
# Youngs Moduli (GPa) = 53.91868 78.02250 35.24541
#
# Poissons Ratio (x) = 0.42544 0.00925
# Poissons Ratio (y) = 0.29401 0.26729
# Poissons Ratio (z) = 0.01415 0.59169
#
# Static dielectric constant tensor:
#      x y z
#    x 3.493420 0.000000 -0.106310 
#    y 0.000000 3.737400 0.000000 
#    z -0.106310 0.000000 3.509110 
# 
# 
# High freq. dielectric constant tensor:
#      x y z
#    x 1.789380 0.000000 0.001670 
#    y 0.000000 1.793630 0.000000 
#    z 0.001670 0.000000 1.780350 
# 
# From -- ./inp_files/375464.got.cif
#   From: 2010.06.25/outbox.cif.g09.slc.cpg/sg12_188_cif.got.tgz:375464.got - 2010.06.28 00:19:55.
