data_PCOD8096858
_publ_section_title
;
Structure prediction by ZEFSAII (Michael W. Deem and Ramdas Pophale) SiO2 
 PCOD8096858
Probable space group: C 2/M
;
_chemical_formula_sum "Si O2"
_cell_formula_units_Z 56
_cell_length_a 14.019880
_cell_length_b 13.979073
_cell_length_c 14.941771
_cell_angle_alpha 90.000000
_cell_angle_beta 75.796743
_cell_angle_gamma 90.000000
_cell_volume 2838.845971
_symmetry_space_group_name_H-M "C 2/M"
_symmetry_group_IT_number 12
_symmetry_cell_setting 'monoclinic'
loop_
_space_group_symop_operation_xyz
x,y,z
-x,y,-z
-x,-y,-z
x,-y,z
1/2+x,1/2+y,z
1/2-x,1/2+y,-z
1/2-x,1/2-y,-z
1/2+x,1/2-y,z
loop_
_atom_site_type_symbol
_atom_site_label
_atom_site_fract_x
_atom_site_fract_y
_atom_site_fract_z
Si Si1 0.208695 0.254447 0.788263
Si Si2 0.037499 0.346636 0.582303
Si Si3 0.923601 0.281139 0.775064
Si Si4 0.438118 0.607229 0.255291
Si Si5 0.545147 0.111678 0.893287
Si Si6 0.592295 0.362021 0.535622
Si Si7 0.771204 0.398435 0.371633
O O1 0.306833 0.223395 0.817587
O O2 0.149868 0.158022 0.778620
O O3 0.145195 0.327099 0.863102
O O4 0.240283 0.308425 0.690334
O O5 0.092084 0.251707 0.536805
O O6 0.118461 0.407746 0.615170
O O7 0.000000 0.399485 0.500000
O O8 0.948210 0.321015 0.670310
O O9 0.965548 0.173615 0.777445
O O10 0.968003 0.353797 0.836776
O O11 0.456536 0.500000 0.211910
O O12 0.410395 0.595024 0.364952
O O13 0.568621 0.000000 0.873094
O O14 0.500000 0.131649 0.000000
O O15 0.500000 0.402333 0.500000
O O16 0.694326 0.393243 0.469404
O O17 0.753872 0.500000 0.324681
#
# Coordination Sequence:
#
# PCOD8096858 Si02
#       7
#     8   8   8   8   8   8   8
#     4  11  22  38  61  87 117 154 193 243 295 352
#     4  10  20  35  55  77 117 161 196 242 291 343
#     4  10  22  39  61  89 119 157 195 246 290 345
#     4  10  21  37  54  81 116 156 199 240 293 344
#     4  10  22  43  68  92 120 151 189 242 301 359
#     4  10  20  34  51  73 108 154 203 251 289 333
#     4  12  22  33  54  81 115 159 206 251 290 341
#
# _framework density 19.726324999999999
#
# number of rings (size 3 to 8) (size 9 to 14) (size 15 to 20)
#    0.000    1.571    4.286    3.857    2.000    4.857 
#    0.000    0.000    0.000    6.857    0.000    0.000 
#    0.000    0.000    0.000    0.000    0.000    0.000 
#
# Total GULP energy -347123.282873 kJ/mol
# GULP energy per Si atom -12397.260103 kJ/mol
# Density = 1.968143 g / cm^3
# Si number density = 19.726325 Si / 1000 Ang^3
#
#
#
# Elastic Constant Matrix: (Units=GPa)
#
#
# Indices 1 2 3 4 5 6 
#
# 1 130.7625 26.3688 33.9799 0.0000 -14.1541 0.0000
# 2 26.3688 101.5851 34.0285 0.0000 -7.7703 0.0000
# 3 33.9799 34.0285 83.0471 0.0000 -7.9617 0.0000
# 4 0.0000 0.0000 0.0000 -59.9453 0.0000 28.8734
# 5 -14.1541 -7.7703 -7.9617 0.0000 18.2482 0.0000
# 6 0.0000 0.0000 0.0000 28.8734 0.0000 151.3349
#
#
#
# Elastic Compliance Matrix: (Units=1/GPa)
#
#
# Indices 1 2 3 4 5 6 
#
# 1 0.009175 -0.001022 -0.002812 0.000000 0.005454 0.000000
# 2 -0.001022 0.011677 -0.004139 0.000000 0.002374 0.000000
# 3 -0.002812 -0.004139 0.015143 0.000000 0.002663 0.000000
# 4 0.000000 0.000000 0.000000 -0.015278 0.000000 0.002915
# 5 0.005454 0.002374 0.002663 0.000000 0.061203 0.000000
# 6 0.000000 0.000000 0.000000 0.002915 0.000000 0.006052
#
#
# Mechanical properties :
#
#
# Convention : Reuss Voigt Hill
#
# Bulk Modulus (GPa) = 49.87919 56.01656 52.94788
# Shear Modulus (GPa) = 45.20710 36.66206 40.93458
#
# Velocity S-wave (km/s) = 4.79238 4.31575 4.56030
# Velocity P-wave (km/s) = 7.48084 7.30019 7.39107
#
# Compressibility (1/GPa) = 0.02004844
#
# Stress axis : x y z
#
# Youngs Moduli (GPa) = 108.99483 85.63605 66.03598
#
# Poissons Ratio (x) = 0.08755 0.18571
# Poissons Ratio (y) = 0.11143 0.27332
# Poissons Ratio (z) = 0.30652 0.35444
#
# Static dielectric constant tensor:
#      x y z
#    x 3.640510 0.000000 0.052700 
#    y 0.000000 3.651840 0.000000 
#    z 0.052700 0.000000 3.409000 
# 
# 
# High freq. dielectric constant tensor:
#      x y z
#    x 1.767650 0.000000 -0.002440 
#    y 0.000000 1.776800 0.000000 
#    z -0.002440 0.000000 1.740330 
# 
# From -- ./inp_files/214187.got.cif
#   From: 2010.06.25/outbox.cif.g09.slc.cpg/sg12_108_cif.got.tgz:214187.got - 2010.06.28 00:19:55.
