data_PCOD8096121
_publ_section_title
;
Structure prediction by ZEFSAII (Michael W. Deem and Ramdas Pophale) SiO2 
 PCOD8096121
Probable space group: C 2/M
;
_chemical_formula_sum "Si O2"
_cell_formula_units_Z 64
_cell_length_a 29.040207
_cell_length_b 9.168655
_cell_length_c 18.866980
_cell_angle_alpha 90.000000
_cell_angle_beta 40.443634
_cell_angle_gamma 90.000000
_cell_volume 3258.752697
_symmetry_space_group_name_H-M "C 2/M"
_symmetry_group_IT_number 12
_symmetry_cell_setting 'monoclinic'
loop_
_space_group_symop_operation_xyz
x,y,z
-x,y,-z
-x,-y,-z
x,-y,z
1/2+x,1/2+y,z
1/2-x,1/2+y,-z
1/2-x,1/2-y,-z
1/2+x,1/2-y,z
loop_
_atom_site_type_symbol
_atom_site_label
_atom_site_fract_x
_atom_site_fract_y
_atom_site_fract_z
Si Si1 0.624854 0.665356 0.465785
Si Si2 0.048565 0.327377 0.675525
Si Si3 0.828344 0.666284 0.839897
Si Si4 0.902361 0.167901 0.872882
Si Si5 0.421348 0.164528 0.603832
Si Si6 0.214956 0.664533 0.726409
Si Si7 0.704397 0.666343 0.883431
Si Si8 0.682274 0.828688 0.612445
O O1 0.596699 0.500000 0.500440
O O2 0.571109 0.765276 0.573045
O O3 0.628955 0.727440 0.381206
O O4 0.705271 0.676481 0.397986
O O5 0.038404 0.500000 0.681800
O O6 0.109662 0.281236 0.659156
O O7 0.974579 0.258445 0.786615
O O8 0.811063 0.500000 0.884208
O O9 0.841196 0.768020 0.892664
O O10 0.901533 0.671202 0.709636
O O11 0.765747 0.730608 0.863222
O O12 0.916719 0.000000 0.835360
O O13 0.871286 0.180199 0.988721
O O14 0.500000 0.223608 0.500000
O O15 0.412843 0.000000 0.584622
O O16 0.197648 0.500000 0.769887
O O17 0.198070 0.759919 0.814542
O O18 0.169897 0.712565 0.710027
O O19 0.725690 0.500000 0.843502
O O20 0.750000 0.750000 0.500000
O O21 0.696147 0.000000 0.587428
#
# Coordination Sequence:
#
# PCOD8096121 Si02
#       8
#     8   8   8   8   8   8   8   8
#     4  11  21  34  56  85 118 150 185 236 291 342
#     4  11  23  39  61  86 117 158 196 234 292 356
#     4  10  20  36  58  84 117 154 198 242 285 347
#     4  11  24  40  59  85 118 153 198 250 293 338
#     4  10  20  33  51  78 115 156 193 231 282 347
#     4  10  21  37  59  89 119 147 187 240 291 342
#     4  10  22  40  61  86 116 157 201 241 289 344
#     4  10  21  38  61  90 120 151 191 236 288 351
#
# _framework density 19.639416000000001
#
# number of rings (size 3 to 8) (size 9 to 14) (size 15 to 20)
#    0.000    1.625    2.500    2.250    0.000    4.750 
#    0.000    0.625    0.000    3.750    0.000    0.000 
#    0.000    0.000    0.000    0.000    0.000    0.000 
#
# Total GULP energy -396786.975924 kJ/mol
# GULP energy per Si atom -12399.592998 kJ/mol
# Density = 1.959472 g / cm^3
# Si number density = 19.639416 Si / 1000 Ang^3
#
#
#
# Elastic Constant Matrix: (Units=GPa)
#
#
# Indices 1 2 3 4 5 6 
#
# 1 85.7196 43.6391 26.3901 0.0008 14.6605 -0.0054
# 2 43.6391 92.6568 37.5947 -0.0130 8.6954 -0.0009
# 3 26.3901 37.5947 86.4728 -0.0064 11.5867 -0.0018
# 4 0.0008 -0.0130 -0.0064 30.3144 0.0015 1.7523
# 5 14.6605 8.6954 11.5867 0.0015 23.5523 0.0027
# 6 -0.0054 -0.0009 -0.0018 1.7523 0.0027 28.8950
#
#
#
# Elastic Compliance Matrix: (Units=1/GPa)
#
#
# Indices 1 2 3 4 5 6 
#
# 1 0.016694 -0.006685 -0.001206 -0.000003 -0.007330 0.000004
# 2 -0.006685 0.015887 -0.004966 0.000006 0.000739 -0.000002
# 3 -0.001206 -0.004966 0.014715 0.000001 -0.004655 0.000001
# 4 -0.000003 0.000006 0.000001 0.033104 -0.000002 -0.002008
# 5 -0.007330 0.000739 -0.004655 -0.000002 0.049039 -0.000006
# 6 0.000004 -0.000002 0.000001 -0.002008 -0.000006 0.034730
#
#
# Mechanical properties :
#
#
# Convention : Reuss Voigt Hill
#
# Bulk Modulus (GPa) = 46.33542 53.34412 49.83977
# Shear Modulus (GPa) = 25.37087 27.03401 26.20244
#
# Velocity S-wave (km/s) = 3.59811 3.71417 3.65660
# Velocity P-wave (km/s) = 6.39579 6.75382 6.57724
#
# Compressibility (1/GPa) = 0.02158176
#
# Stress axis : x y z
#
# Youngs Moduli (GPa) = 59.90023 62.94633 67.95790
#
# Poissons Ratio (x) = 0.42082 0.08197
# Poissons Ratio (y) = 0.40046 0.33745
# Poissons Ratio (z) = 0.07225 0.31256
#
# Static dielectric constant tensor:
#      x y z
#    x 3.635010 -0.000020 0.006570 
#    y -0.000020 3.535510 0.000020 
#    z 0.006570 0.000020 3.470200 
# 
# 
# High freq. dielectric constant tensor:
#      x y z
#    x 1.761240 0.000000 0.003850 
#    y 0.000000 1.762920 0.000000 
#    z 0.003850 0.000000 1.763700 
# 
# From -- ./inp_files/295634.got.cif
#   From: 2010.06.25/outbox.cif.g09.slc.cpg/sg12_148_cif.got.tgz:295634.got - 2010.06.28 00:19:55.
