data_PCOD8096467
_publ_section_title
;
Structure prediction by ZEFSAII (Michael W. Deem and Ramdas Pophale) SiO2 
 PCOD8096467
Probable space group: C 2/M
;
_chemical_formula_sum "Si O2"
_cell_formula_units_Z 60
_cell_length_a 18.073728
_cell_length_b 22.562393
_cell_length_c 8.639280
_cell_angle_alpha 90.000000
_cell_angle_beta 55.859525
_cell_angle_gamma 90.000000
_cell_volume 2915.845840
_symmetry_space_group_name_H-M "C 2/M"
_symmetry_group_IT_number 12
_symmetry_cell_setting 'monoclinic'
loop_
_space_group_symop_operation_xyz
x,y,z
-x,y,-z
-x,-y,-z
x,-y,z
1/2+x,1/2+y,z
1/2-x,1/2+y,-z
1/2-x,1/2-y,-z
1/2+x,1/2-y,z
loop_
_atom_site_type_symbol
_atom_site_label
_atom_site_fract_x
_atom_site_fract_y
_atom_site_fract_z
Si Si1 0.371467 0.858813 0.929451
Si Si2 0.293810 0.935825 0.261408
Si Si3 0.548451 0.932069 0.680698
Si Si4 0.820982 0.644977 0.650697
Si Si5 0.374286 0.726013 0.552345
Si Si6 0.000000 0.852856 0.000000
Si Si7 0.664004 0.619206 0.621967
Si Si8 0.065807 0.770114 0.185717
O O1 0.455045 0.903470 0.841136
O O2 0.315266 0.861016 0.839540
O O3 0.399211 0.791175 0.929046
O O4 0.298610 0.881058 0.138435
O O5 0.381794 0.930127 0.262000
O O6 0.200581 0.932748 0.467801
O O7 0.293551 0.000000 0.178448
O O8 0.589716 0.891863 0.496505
O O9 0.532945 0.000000 0.643863
O O10 0.821181 0.713062 0.597481
O O11 0.731314 0.618999 0.685933
O O12 0.330995 0.677457 0.491363
O O13 0.375495 0.706972 0.734767
O O14 0.470691 0.741627 0.372251
O O15 0.062260 0.814597 0.043554
O O16 0.934399 0.891783 0.187712
#
# Coordination Sequence:
#
# PCOD8096467 Si02
#       8
#     8   8   8   8   8   4   8   8
#     4  11  20  32  54  83 119 157 185 224 274 333
#     4  10  23  39  55  81 114 151 197 240 278 335
#     4  10  20  34  53  79 117 164 202 225 264 326
#     4  10  20  33  53  84 116 149 194 235 272 325
#     4   9  17  35  54  81 116 154 183 226 280 341
#     4  10  22  38  59  84 105 142 188 242 296 346
#     4  10  22  39  59  77 108 146 189 243 296 338
#     4   9  19  31  54  85 119 146 186 226 272 338
#
# _framework density 20.577220000000001
#
# number of rings (size 3 to 8) (size 9 to 14) (size 15 to 20)
#    0.000    2.133    1.333    1.600    1.867    5.867 
#    0.000    3.000    0.000    0.000    0.000   12.133 
#    0.000    0.000    0.000    0.000    0.000    0.000 
#
# Total GULP energy -371702.623700 kJ/mol
# GULP energy per Si atom -12390.087457 kJ/mol
# Density = 2.053038 g / cm^3
# Si number density = 20.577220 Si / 1000 Ang^3
#
#
#
# Elastic Constant Matrix: (Units=GPa)
#
#
# Indices 1 2 3 4 5 6 
#
# 1 48.9005 22.0421 29.6202 0.0000 -2.4378 0.0000
# 2 22.0421 47.0959 22.6371 0.0000 -1.4402 0.0000
# 3 29.6202 22.6371 87.6229 0.0000 -5.3140 0.0000
# 4 0.0000 0.0000 0.0000 19.4013 0.0000 -5.4969
# 5 -2.4378 -1.4402 -5.3140 0.0000 23.3175 0.0000
# 6 0.0000 0.0000 0.0000 -5.4969 0.0000 8.3781
#
#
#
# Elastic Compliance Matrix: (Units=1/GPa)
#
#
# Indices 1 2 3 4 5 6 
#
# 1 0.029541 -0.010305 -0.007276 0.000000 0.000794 0.000000
# 2 -0.010305 0.027838 -0.003721 0.000000 -0.000206 0.000000
# 3 -0.007276 -0.003721 0.014980 0.000000 0.002423 0.000000
# 4 0.000000 0.000000 0.000000 0.063312 0.000000 0.041539
# 5 0.000794 -0.000206 0.002423 0.000000 0.043509 0.000000
# 6 0.000000 0.000000 0.000000 0.041539 0.000000 0.146613
#
#
# Mechanical properties :
#
#
# Convention : Reuss Voigt Hill
#
# Bulk Modulus (GPa) = 33.60558 36.91313 35.25936
# Shear Modulus (GPa) = 13.21647 17.50737 15.36192
#
# Velocity S-wave (km/s) = 2.53709 2.92003 2.73527
# Velocity P-wave (km/s) = 4.99493 5.41725 5.21037
#
# Compressibility (1/GPa) = 0.02975696
#
# Stress axis : x y z
#
# Youngs Moduli (GPa) = 33.85090 35.92171 66.75386
#
# Poissons Ratio (x) = 0.37016 0.48570
# Poissons Ratio (y) = 0.34882 0.24839
# Poissons Ratio (z) = 0.24630 0.13367
#
# Static dielectric constant tensor:
#      x y z
#    x 3.661710 0.000000 0.129120 
#    y 0.000000 3.657220 0.000000 
#    z 0.129120 0.000000 3.831140 
# 
# 
# High freq. dielectric constant tensor:
#      x y z
#    x 1.797390 0.000000 0.008700 
#    y 0.000000 1.779890 0.000000 
#    z 0.008700 0.000000 1.811290 
# 
# From -- ./inp_files/79099.got.cif
#   From: 2010.06.25/outbox.cif.g09.slc.cpg/sg12_40_cif.got.tgz:79099.got - 2010.06.28 00:19:55.
