data_PCOD8096678
_publ_section_title
;
Structure prediction by ZEFSAII (Michael W. Deem and Ramdas Pophale) SiO2 
 PCOD8096678
Probable space group: C 2/M
;
_chemical_formula_sum "Si O2"
_cell_formula_units_Z 40
_cell_length_a 20.268931
_cell_length_b 9.677378
_cell_length_c 25.090326
_cell_angle_alpha 90.000000
_cell_angle_beta 155.876097
_cell_angle_gamma 90.000000
_cell_volume 2011.460191
_symmetry_space_group_name_H-M "C 2/M"
_symmetry_group_IT_number 12
_symmetry_cell_setting 'monoclinic'
loop_
_space_group_symop_operation_xyz
x,y,z
-x,y,-z
-x,-y,-z
x,-y,z
1/2+x,1/2+y,z
1/2-x,1/2+y,-z
1/2-x,1/2-y,-z
1/2+x,1/2-y,z
loop_
_atom_site_type_symbol
_atom_site_label
_atom_site_fract_x
_atom_site_fract_y
_atom_site_fract_z
Si Si1 0.762792 0.500000 0.779589
Si Si2 0.684426 0.500000 0.135842
Si Si3 0.745119 0.000000 0.934266
Si Si4 0.874153 0.217210 0.174453
Si Si5 0.380195 0.000000 0.986670
Si Si6 0.902927 0.731560 0.317925
Si Si7 0.092636 0.500000 0.513010
Si Si8 0.461590 0.500000 0.772278
O O1 0.833297 0.500000 0.890583
O O2 0.643622 0.368905 0.682914
O O3 0.923954 0.500000 0.860583
O O4 0.745977 0.500000 0.121951
O O5 0.744737 0.637357 0.209184
O O6 0.500000 0.500000 0.000000
O O7 0.648053 0.859282 0.875503
O O8 0.918574 0.000000 0.089380
O O9 0.701827 0.135246 0.046989
O O10 0.938782 0.236042 0.282423
O O11 0.011220 0.133831 0.244441
O O12 0.051370 0.641922 0.450685
O O13 0.282680 0.500000 0.663820
O O14 0.000000 0.500000 0.500000
#
# Coordination Sequence:
#
# PCOD8096678 Si02
#       8
#     4   4   4   8   4   8   4   4
#     4   9  16  28  54  80 111 146 179 235 294 321
#     4   9  19  29  54  87 117 152 192 231 281 337
#     4  10  20  33  58  89 119 144 183 237 288 344
#     4   9  19  37  57  86 115 145 191 235 286 341
#     4   8  16  27  49  86 116 137 176 228 289 343
#     4   9  20  37  56  81 116 150 197 242 271 341
#     4  11  26  43  57  81 114 155 198 236 286 349
#     4  11  23  38  59  82 118 158 182 234 298 341
#
# _framework density 19.886050999999998
#
# number of rings (size 3 to 8) (size 9 to 14) (size 15 to 20)
#    0.000    2.600    0.000    1.800   11.200    0.800 
#    0.000    1.500    0.000    0.000    0.000    0.000 
#    0.000    0.000    0.000    0.000    0.000    0.000 
#
# Total GULP energy -247831.664062 kJ/mol
# GULP energy per Si atom -12391.583203 kJ/mol
# Density = 1.984079 g / cm^3
# Si number density = 19.886051 Si / 1000 Ang^3
#
#
#
# Elastic Constant Matrix: (Units=GPa)
#
#
# Indices 1 2 3 4 5 6 
#
# 1 54.6051 40.3293 35.7717 0.0026 16.4637 -0.0003
# 2 40.3293 163.6710 42.8926 -0.0008 5.3266 0.0011
# 3 35.7717 42.8926 86.6501 0.0017 8.8409 0.0009
# 4 0.0026 -0.0008 0.0017 13.5914 -0.0020 -5.2014
# 5 16.4637 5.3266 8.8409 -0.0020 27.8406 -0.0003
# 6 -0.0003 0.0011 0.0009 -5.2014 -0.0003 6.4821
#
#
#
# Elastic Compliance Matrix: (Units=1/GPa)
#
#
# Indices 1 2 3 4 5 6 
#
# 1 0.033013 -0.005140 -0.009501 -0.000009 -0.015522 -0.000004
# 2 -0.005140 0.007822 -0.001972 0.000002 0.002169 0.000001
# 3 -0.009501 -0.001972 0.016357 -0.000002 0.000801 -0.000004
# 4 -0.000009 0.000002 -0.000002 0.106183 0.000014 0.085203
# 5 -0.015522 0.002169 0.000801 0.000014 0.044428 0.000012
# 6 -0.000004 0.000001 -0.000004 0.085203 0.000012 0.222638
#
#
# Mechanical properties :
#
#
# Convention : Reuss Voigt Hill
#
# Bulk Modulus (GPa) = 41.72158 60.32371 51.02264
# Shear Modulus (GPa) = 10.60094 21.97835 16.28964
#
# Velocity S-wave (km/s) = 2.31137 3.32808 2.86518
# Velocity P-wave (km/s) = 5.30557 6.72077 6.05466
#
# Compressibility (1/GPa) = 0.02396841
#
# Stress axis : x y z
#
# Youngs Moduli (GPa) = 30.29075 127.83883 61.13525
#
# Poissons Ratio (x) = 0.65704 0.58085
# Poissons Ratio (y) = 0.15568 0.12054
# Poissons Ratio (z) = 0.28779 0.25205
#
# Static dielectric constant tensor:
#      x y z
#    x 3.424670 -0.000020 -0.038790 
#    y -0.000020 4.318160 -0.000020 
#    z -0.038790 -0.000020 3.269410 
# 
# 
# High freq. dielectric constant tensor:
#      x y z
#    x 1.758500 0.000000 -0.001250 
#    y 0.000000 1.796510 0.000000 
#    z -0.001250 0.000000 1.739080 
# 
# From -- ./inp_files/382143.got.cif
#   From: 2010.06.25/outbox.cif.g09.slc.cpg/sg12_192_cif.got.tgz:382143.got - 2010.06.28 00:19:55.
