data_PCOD8096617
_publ_section_title
;
Structure prediction by ZEFSAII (Michael W. Deem and Ramdas Pophale) SiO2 
 PCOD8096617
Probable space group: C 2/M
;
_chemical_formula_sum "Si O2"
_cell_formula_units_Z 64
_cell_length_a 19.868601
_cell_length_b 9.066342
_cell_length_c 21.585490
_cell_angle_alpha 90.000000
_cell_angle_beta 120.619640
_cell_angle_gamma 90.000000
_cell_volume 3346.156361
_symmetry_space_group_name_H-M "C 2/M"
_symmetry_group_IT_number 12
_symmetry_cell_setting 'monoclinic'
loop_
_space_group_symop_operation_xyz
x,y,z
-x,y,-z
-x,-y,-z
x,-y,z
1/2+x,1/2+y,z
1/2-x,1/2+y,-z
1/2-x,1/2-y,-z
1/2+x,1/2-y,z
loop_
_atom_site_type_symbol
_atom_site_label
_atom_site_fract_x
_atom_site_fract_y
_atom_site_fract_z
Si Si1 0.527138 0.828987 0.267758
Si Si2 0.703521 0.830970 0.685109
Si Si3 0.764327 0.329976 0.942581
Si Si4 0.116656 0.170245 0.202998
Si Si5 0.653019 0.170424 0.795607
Si Si6 0.706740 0.670233 0.567226
Si Si7 0.914935 0.330534 0.937124
Si Si8 0.360103 0.329407 0.593313
O O1 0.558610 0.760861 0.219169
O O2 0.434998 0.803656 0.224444
O O3 0.563163 0.751145 0.345241
O O4 0.549333 0.000000 0.280713
O O5 0.796001 0.806152 0.732256
O O6 0.662596 0.778085 0.729107
O O7 0.669414 0.731170 0.613321
O O8 0.682350 0.000000 0.661215
O O9 0.743661 0.500000 0.942237
O O10 0.708663 0.267552 0.863672
O O11 0.854481 0.308420 0.965164
O O12 0.750000 0.250000 0.000000
O O13 0.110952 0.226964 0.130705
O O14 0.092194 0.000000 0.193200
O O15 0.678562 0.000000 0.814060
O O16 0.730330 0.500000 0.585396
O O17 0.643766 0.691494 0.482687
O O18 0.783981 0.762856 0.589674
O O19 0.915548 0.500000 0.914671
O O20 0.000000 0.281047 0.000000
O O21 0.363802 0.500000 0.614235
#
# Coordination Sequence:
#
# PCOD8096617 Si02
#       8
#     8   8   8   8   8   8   8   8
#     4  11  23  38  60  86 116 155 196 240 290 347
#     4  10  20  37  60  85 115 152 193 241 290 339
#     4  11  24  41  63  88 118 157 195 236 287 345
#     4  11  22  37  61  89 118 150 191 245 294 339
#     4  10  23  43  62  83 116 156 197 239 286 344
#     4  10  20  33  56  86 116 153 194 237 290 346
#     4  10  23  42  62  87 119 155 195 238 286 341
#     4  10  20  35  54  83 120 153 191 241 290 341
#
# _framework density 19.126422000000002
#
# number of rings (size 3 to 8) (size 9 to 14) (size 15 to 20)
#    0.000    1.625    2.500    1.875    1.750    4.250 
#    0.000    0.625    0.000    3.750    0.000    0.000 
#    0.000    0.000    0.000    0.000    0.000    0.000 
#
# Total GULP energy -396941.039580 kJ/mol
# GULP energy per Si atom -12404.407487 kJ/mol
# Density = 1.908289 g / cm^3
# Si number density = 19.126422 Si / 1000 Ang^3
#
#
#
# Elastic Constant Matrix: (Units=GPa)
#
#
# Indices 1 2 3 4 5 6 
#
# 1 87.4769 46.8645 30.6075 0.0000 -17.3691 0.0000
# 2 46.8645 114.7930 52.5226 0.0000 -7.7380 0.0000
# 3 30.6075 52.5226 90.6204 0.0000 -17.3780 0.0000
# 4 0.0000 0.0000 0.0000 35.9277 0.0000 -7.7710
# 5 -17.3691 -7.7380 -17.3780 0.0000 31.8810 0.0000
# 6 0.0000 0.0000 0.0000 -7.7710 0.0000 26.1306
#
#
#
# Elastic Compliance Matrix: (Units=1/GPa)
#
#
# Indices 1 2 3 4 5 6 
#
# 1 0.016190 -0.005784 -0.000775 0.000000 0.006994 0.000000
# 2 -0.005784 0.013948 -0.006796 0.000000 -0.003470 0.000000
# 3 -0.000775 -0.006796 0.016571 0.000000 0.006961 0.000000
# 4 0.000000 0.000000 0.000000 0.029747 0.000000 0.008847
# 5 0.006994 -0.003470 0.006961 0.000000 0.038129 0.000000
# 6 0.000000 0.000000 0.000000 0.008847 0.000000 0.040900
#
#
# Mechanical properties :
#
#
# Convention : Reuss Voigt Hill
#
# Bulk Modulus (GPa) = 50.00143 61.43105 55.71624
# Shear Modulus (GPa) = 26.47448 29.64756 28.06102
#
# Velocity S-wave (km/s) = 3.72450 3.94138 3.83447
# Velocity P-wave (km/s) = 6.68545 7.27329 6.98556
#
# Compressibility (1/GPa) = 0.01999943
#
# Stress axis : x y z
#
# Youngs Moduli (GPa) = 61.76668 71.69426 60.34788
#
# Poissons Ratio (x) = 0.41465 0.04676
# Poissons Ratio (y) = 0.35723 0.41014
# Poissons Ratio (z) = 0.04786 0.48725
#
# Static dielectric constant tensor:
#      x y z
#    x 3.358780 0.000000 -0.083920 
#    y 0.000000 3.625190 0.000000 
#    z -0.083920 0.000000 3.635300 
# 
# 
# High freq. dielectric constant tensor:
#      x y z
#    x 1.733760 0.000000 -0.011710 
#    y 0.000000 1.753690 0.000000 
#    z -0.011710 0.000000 1.751840 
# 
# From -- ./inp_files/320049.got.cif
#   From: 2010.06.25/outbox.cif.g09.slc.cpg/sg12_161_cif.got.tgz:320049.got - 2010.06.28 00:19:55.
