data_PCOD8096829
_publ_section_title
;
Structure prediction by ZEFSAII (Michael W. Deem and Ramdas Pophale) SiO2 
 PCOD8096829
Probable space group: C 2/M
;
_chemical_formula_sum "Si O2"
_cell_formula_units_Z 56
_cell_length_a 22.940552
_cell_length_b 8.904831
_cell_length_c 15.012217
_cell_angle_alpha 90.000000
_cell_angle_beta 90.584629
_cell_angle_gamma 90.000000
_cell_volume 3066.562144
_symmetry_space_group_name_H-M "C 2/M"
_symmetry_group_IT_number 12
_symmetry_cell_setting 'monoclinic'
loop_
_space_group_symop_operation_xyz
x,y,z
-x,y,-z
-x,-y,-z
x,-y,z
1/2+x,1/2+y,z
1/2-x,1/2+y,-z
1/2-x,1/2-y,-z
1/2+x,1/2-y,z
loop_
_atom_site_type_symbol
_atom_site_label
_atom_site_fract_x
_atom_site_fract_y
_atom_site_fract_z
Si Si1 0.947771 0.330194 0.745666
Si Si2 0.013241 0.178150 0.902285
Si Si3 0.119219 0.833887 0.794758
Si Si4 0.671618 0.173104 0.344509
Si Si5 0.968374 0.164393 0.370108
Si Si6 0.790274 0.677401 0.313241
Si Si7 0.638873 0.677609 0.527148
O O1 0.966748 0.500000 0.763626
O O2 0.965002 0.235860 0.832435
O O3 0.879013 0.313814 0.729735
O O4 0.980442 0.277879 0.655454
O O5 0.078986 0.227731 0.875283
O O6 0.008785 0.000000 0.900435
O O7 0.000000 0.243480 0.000000
O O8 0.077777 0.846703 0.709574
O O9 0.171681 0.720334 0.773531
O O10 0.144492 0.000000 0.817135
O O11 0.728361 0.242868 0.300039
O O12 0.654692 0.269803 0.429704
O O13 0.681937 0.000000 0.372261
O O14 0.929960 0.215627 0.455414
O O15 0.996469 0.000000 0.387503
O O16 0.782438 0.500000 0.317688
O O17 0.819593 0.734925 0.404150
O O18 0.650152 0.500000 0.538149
#
# Coordination Sequence:
#
# PCOD8096829 Si02
#       7
#     8   8   8   8   8   8   8
#     4  10  21  34  50  74 103 133 164 203 251 297
#     4   9  18  34  58  84 106 129 157 192 240 300
#     4   8  15  30  51  75 102 130 160 197 242 290
#     4  11  23  36  48  67  99 137 173 210 252 293
#     4   8  16  31  50  70  97 132 166 203 247 297
#     4  11  21  33  51  73  98 132 173 213 249 287
#     4  10  20  34  51  72  97 130 173 215 253 290
#
# _framework density 18.261492000000001
#
# number of rings (size 3 to 8) (size 9 to 14) (size 15 to 20)
#    0.000    2.429    0.000    4.714    0.000    8.857 
#    0.000    2.857    0.000    0.857    0.000    0.000 
#    0.000    0.000    0.000    0.000    0.000    0.000 
#
# Total GULP energy -347106.103025 kJ/mol
# GULP energy per Si atom -12396.646537 kJ/mol
# Density = 1.821993 g / cm^3
# Si number density = 18.261492 Si / 1000 Ang^3
#
#
#
# Elastic Constant Matrix: (Units=GPa)
#
#
# Indices 1 2 3 4 5 6 
#
# 1 71.6936 36.0158 40.2860 0.0000 -12.4041 0.0000
# 2 36.0158 65.5526 23.3784 0.0000 -5.4893 0.0000
# 3 40.2860 23.3784 95.3983 0.0000 -23.7864 0.0000
# 4 0.0000 0.0000 0.0000 21.0991 0.0000 -2.8763
# 5 -12.4041 -5.4893 -23.7864 0.0000 21.3560 0.0000
# 6 0.0000 0.0000 0.0000 -2.8763 0.0000 28.0625
#
#
#
# Elastic Compliance Matrix: (Units=1/GPa)
#
#
# Indices 1 2 3 4 5 6 
#
# 1 0.023338 -0.010220 -0.006405 0.000000 0.003795 0.000000
# 2 -0.010220 0.021194 -0.001384 0.000000 -0.002030 0.000000
# 3 -0.006405 -0.001384 0.017320 0.000000 0.015215 0.000000
# 4 0.000000 0.000000 0.000000 0.048067 0.000000 0.004927
# 5 0.003795 -0.002030 0.015215 0.000000 0.065454 0.000000
# 6 0.000000 0.000000 0.000000 0.004927 0.000000 0.036140
#
#
# Mechanical properties :
#
#
# Convention : Reuss Voigt Hill
#
# Bulk Modulus (GPa) = 38.70929 48.00053 43.35491
# Shear Modulus (GPa) = 19.52043 22.96782 21.24412
#
# Velocity S-wave (km/s) = 3.27301 3.55028 3.41446
# Velocity P-wave (km/s) = 5.96043 6.56873 6.27196
#
# Compressibility (1/GPa) = 0.02583359
#
# Stress axis : x y z
#
# Youngs Moduli (GPa) = 42.84850 47.18364 57.73707
#
# Poissons Ratio (x) = 0.48224 0.36979
# Poissons Ratio (y) = 0.43793 0.07990
# Poissons Ratio (z) = 0.27443 0.06530
#
# Static dielectric constant tensor:
#      x y z
#    x 3.484080 0.000000 -0.432520 
#    y 0.000000 3.403390 0.000000 
#    z -0.432520 0.000000 3.447570 
# 
# 
# High freq. dielectric constant tensor:
#      x y z
#    x 1.702040 0.000000 -0.023830 
#    y 0.000000 1.710710 0.000000 
#    z -0.023830 0.000000 1.681090 
# 
# From -- ./inp_files/280204.got.cif
#   From: 2010.06.25/outbox.cif.g09.slc.cpg/sg12_141_cif.got.tgz:280204.got - 2010.06.28 00:19:55.
