data_PCOD8096514
_publ_section_title
;
Structure prediction by ZEFSAII (Michael W. Deem and Ramdas Pophale) SiO2 
 PCOD8096514
Probable space group: C 2/M
;
_chemical_formula_sum "Si O2"
_cell_formula_units_Z 56
_cell_length_a 19.493762
_cell_length_b 8.972596
_cell_length_c 27.554451
_cell_angle_alpha 90.000000
_cell_angle_beta 37.929010
_cell_angle_gamma 90.000000
_cell_volume 2962.496895
_symmetry_space_group_name_H-M "C 2/M"
_symmetry_group_IT_number 12
_symmetry_cell_setting 'monoclinic'
loop_
_space_group_symop_operation_xyz
x,y,z
-x,y,-z
-x,-y,-z
x,-y,z
1/2+x,1/2+y,z
1/2-x,1/2+y,-z
1/2-x,1/2-y,-z
1/2+x,1/2-y,z
loop_
_atom_site_type_symbol
_atom_site_label
_atom_site_fract_x
_atom_site_fract_y
_atom_site_fract_z
Si Si1 0.926567 0.163932 0.993115
Si Si2 0.307938 0.672209 0.312732
Si Si3 0.248075 0.827655 0.147853
Si Si4 0.141335 0.823280 0.823997
Si Si5 0.507744 0.669667 0.713029
Si Si6 0.630737 0.824142 0.559693
Si Si7 0.397003 0.327089 0.522682
O O1 0.821852 0.271096 0.061176
O O2 0.880876 0.000000 0.004284
O O3 0.000000 0.151664 0.000000
O O4 0.011694 0.226563 0.904519
O O5 0.269968 0.500000 0.335861
O O6 0.321924 0.728213 0.249857
O O7 0.425133 0.694853 0.274693
O O8 0.216120 0.773147 0.389375
O O9 0.275703 0.748028 0.183142
O O10 0.120860 0.795295 0.204467
O O11 0.273327 0.000000 0.141296
O O12 0.149265 0.000000 0.825979
O O13 0.523515 0.500000 0.685528
O O14 0.549975 0.782362 0.648633
O O15 0.750000 0.750000 0.500000
O O16 0.576585 0.765507 0.540351
O O17 0.646029 0.000000 0.548481
O O18 0.500000 0.297040 0.500000
O O19 0.383417 0.500000 0.516984
#
# Coordination Sequence:
#
# PCOD8096514 Si02
#       7
#     8   8   8   8   8   8   8
#     4   8  15  31  53  77 109 144 183 229 275 329
#     4  10  21  39  60  80 109 150 192 230 276 338
#     4  10  20  33  54  83 113 144 183 230 282 333
#     4   9  19  35  56  82 109 144 188 232 280 332
#     4  10  22  39  57  81 114 151 187 231 281 331
#     4  12  24  40  63  86 112 150 193 233 279 338
#     4  11  25  42  60  85 118 149 185 237 287 333
#
# _framework density 18.902972999999999
#
# number of rings (size 3 to 8) (size 9 to 14) (size 15 to 20)
#    0.000    2.000    1.429    3.000    2.000    5.429 
#    0.000    0.714    0.000    0.000    0.000    0.000 
#    0.000    0.000    0.000    0.000    0.000    0.000 
#
# Total GULP energy -347220.022542 kJ/mol
# GULP energy per Si atom -12400.715091 kJ/mol
# Density = 1.885995 g / cm^3
# Si number density = 18.902973 Si / 1000 Ang^3
#
#
#
# Elastic Constant Matrix: (Units=GPa)
#
#
# Indices 1 2 3 4 5 6 
#
# 1 80.5259 36.6283 24.5613 -0.0002 -11.9857 0.0005
# 2 36.6283 82.6761 18.7273 -0.0006 -12.1513 0.0001
# 3 24.5613 18.7273 58.8597 0.0000 -17.4101 -0.0001
# 4 -0.0002 -0.0006 0.0000 31.2296 0.0002 -2.2612
# 5 -11.9857 -12.1513 -17.4101 0.0002 30.6070 -0.0010
# 6 0.0005 0.0001 -0.0001 -2.2612 -0.0010 23.3220
#
#
#
# Elastic Compliance Matrix: (Units=1/GPa)
#
#
# Indices 1 2 3 4 5 6 
#
# 1 0.016877 -0.006208 -0.004618 0.000000 0.001517 0.000000
# 2 -0.006208 0.015617 -0.001519 0.000000 0.002905 0.000000
# 3 -0.004618 -0.001519 0.022467 0.000000 0.010368 0.000001
# 4 0.000000 0.000000 0.000000 0.032247 0.000000 0.003127
# 5 0.001517 0.002905 0.010368 0.000000 0.040317 0.000002
# 6 0.000000 0.000000 0.000001 0.003127 0.000002 0.043181
#
#
# Mechanical properties :
#
#
# Convention : Reuss Voigt Hill
#
# Bulk Modulus (GPa) = 33.03651 42.43284 37.73468
# Shear Modulus (GPa) = 24.33255 26.50806 25.42031
#
# Velocity S-wave (km/s) = 3.59170 3.74882 3.67110
# Velocity P-wave (km/s) = 5.89196 6.42142 6.16238
#
# Compressibility (1/GPa) = 0.03026954
#
# Stress axis : x y z
#
# Youngs Moduli (GPa) = 59.25383 64.03406 44.51001
#
# Poissons Ratio (x) = 0.39751 0.20557
# Poissons Ratio (y) = 0.36783 0.06762
# Poissons Ratio (z) = 0.27366 0.09727
#
# Static dielectric constant tensor:
#      x y z
#    x 3.503670 0.000000 0.035890 
#    y 0.000000 3.499150 0.000000 
#    z 0.035890 0.000000 4.029090 
# 
# 
# High freq. dielectric constant tensor:
#      x y z
#    x 1.721690 0.000000 -0.001270 
#    y 0.000000 1.734460 0.000000 
#    z -0.001270 0.000000 1.743330 
# 
# From -- ./inp_files/362954.got.cif
#   From: 2010.06.25/outbox.cif.g09.slc.cpg/sg12_182_cif.got.tgz:362954.got - 2010.06.28 00:19:55.
