data_PCOD8096840
_publ_section_title
;
Structure prediction by ZEFSAII (Michael W. Deem and Ramdas Pophale) SiO2 
 PCOD8096840
Probable space group: C 2/M
;
_chemical_formula_sum "Si O2"
_cell_formula_units_Z 64
_cell_length_a 14.060325
_cell_length_b 9.347743
_cell_length_c 28.818334
_cell_angle_alpha 90.000000
_cell_angle_beta 104.069369
_cell_angle_gamma 90.000000
_cell_volume 3674.038266
_symmetry_space_group_name_H-M "C 2/M"
_symmetry_group_IT_number 12
_symmetry_cell_setting 'monoclinic'
loop_
_space_group_symop_operation_xyz
x,y,z
-x,y,-z
-x,-y,-z
x,-y,z
1/2+x,1/2+y,z
1/2-x,1/2+y,-z
1/2-x,1/2-y,-z
1/2+x,1/2-y,z
loop_
_atom_site_type_symbol
_atom_site_label
_atom_site_fract_x
_atom_site_fract_y
_atom_site_fract_z
Si Si1 0.715033 0.667373 0.618277
Si Si2 0.444896 0.164595 0.130215
Si Si3 0.396264 0.333436 0.302819
Si Si4 0.847639 0.333014 0.885215
Si Si5 0.754552 0.667432 0.048433
Si Si6 0.952077 0.666374 0.446670
Si Si7 0.436368 0.166339 0.633143
Si Si8 0.842080 0.834664 0.194361
O O1 0.705927 0.500000 0.606816
O O2 0.681361 0.706207 0.666372
O O3 0.648335 0.748359 0.572974
O O4 0.825671 0.721764 0.625190
O O5 0.547867 0.216949 0.121797
O O6 0.362482 0.191906 0.081835
O O7 0.422656 0.250753 0.174229
O O8 0.450433 0.000000 0.145392
O O9 0.421932 0.500000 0.306738
O O10 0.497372 0.249403 0.321966
O O11 0.348478 0.286243 0.248526
O O12 0.847821 0.500000 0.899709
O O13 0.826337 0.236868 0.927553
O O14 0.767514 0.301179 0.836042
O O15 0.731042 0.500000 0.038771
O O16 0.750000 0.750000 0.000000
O O17 0.925148 0.500000 0.446109
O O18 0.000000 0.720565 0.500000
O O19 0.028857 0.699268 0.414883
O O20 0.444264 0.000000 0.646311
O O21 0.867752 0.000000 0.191512
#
# Coordination Sequence:
#
# PCOD8096840 Si02
#       8
#     8   8   8   8   8   8   8   8
#     4   9  18  32  49  69  94 123 159 199 235 278
#     4   9  19  34  52  73  97 126 161 198 236 281
#     4   9  18  32  48  69  96 124 154 192 236 280
#     4   9  18  34  53  72  96 127 160 196 238 282
#     4  10  20  34  51  73 100 129 162 200 240 284
#     4   9  18  32  48  68  96 126 156 194 241 289
#     4   9  18  32  49  69  93 124 160 196 235 282
#     4   9  18  32  50  71  96 124 155 192 236 283
#
# _framework density 17.419525
#
# number of rings (size 3 to 8) (size 9 to 14) (size 15 to 20)
#    0.000    2.875    0.000    0.375    0.000    4.250 
#    0.000    5.000    0.000    0.000    0.000    0.000 
#    0.000    0.000    0.000    0.000    0.000    0.000 
#
# Total GULP energy -396875.498151 kJ/mol
# GULP energy per Si atom -12402.359317 kJ/mol
# Density = 1.737988 g / cm^3
# Si number density = 17.419525 Si / 1000 Ang^3
#
#
#
# Elastic Constant Matrix: (Units=GPa)
#
#
# Indices 1 2 3 4 5 6 
#
# 1 131.5988 40.5308 40.7161 0.0000 -3.4317 0.0000
# 2 40.5308 51.9341 42.2154 0.0000 -0.8899 0.0000
# 3 40.7161 42.2154 112.1021 0.0000 0.1832 0.0000
# 4 0.0000 0.0000 0.0000 30.5740 0.0000 1.2338
# 5 -3.4317 -0.8899 0.1832 0.0000 14.5883 0.0000
# 6 0.0000 0.0000 0.0000 1.2338 0.0000 28.5571
#
#
#
# Elastic Compliance Matrix: (Units=1/GPa)
#
#
# Indices 1 2 3 4 5 6 
#
# 1 0.010138 -0.007036 -0.001036 0.000000 0.001969 0.000000
# 2 -0.007036 0.032682 -0.009752 0.000000 0.000461 0.000000
# 3 -0.001036 -0.009752 0.012971 0.000000 -0.001001 0.000000
# 4 0.000000 0.000000 0.000000 0.032765 0.000000 -0.001416
# 5 0.001969 0.000461 -0.001001 0.000000 0.069052 0.000000
# 6 0.000000 0.000000 0.000000 -0.001416 0.000000 0.035079
#
#
# Mechanical properties :
#
#
# Convention : Reuss Voigt Hill
#
# Bulk Modulus (GPa) = 49.64819 60.28440 54.96630
# Shear Modulus (GPa) = 21.27228 26.22207 23.74717
#
# Velocity S-wave (km/s) = 3.49832 3.88406 3.69623
# Velocity P-wave (km/s) = 6.69933 7.40251 7.05968
#
# Compressibility (1/GPa) = 0.02014172
#
# Stress axis : x y z
#
# Youngs Moduli (GPa) = 98.64222 30.59812 77.09628
#
# Poissons Ratio (x) = 0.21529 0.07984
# Poissons Ratio (y) = 0.69406 0.75188
# Poissons Ratio (z) = 0.10215 0.29841
#
# Static dielectric constant tensor:
#      x y z
#    x 3.312930 0.000000 0.005170 
#    y 0.000000 3.224320 0.000000 
#    z 0.005170 0.000000 3.298740 
# 
# 
# High freq. dielectric constant tensor:
#      x y z
#    x 1.673320 0.000000 -0.000140 
#    y 0.000000 1.670220 0.000000 
#    z -0.000140 0.000000 1.673630 
# 
# From -- ./inp_files/359864.got.cif
#   From: 2010.06.25/outbox.cif.g09.slc.cpg/sg12_180_cif.got.tgz:359864.got - 2010.06.28 00:19:55.
