data_PCOD8096742
_publ_section_title
;
Structure prediction by ZEFSAII (Michael W. Deem and Ramdas Pophale) SiO2 
 PCOD8096742
Probable space group: C 2/M
;
_chemical_formula_sum "Si O2"
_cell_formula_units_Z 64
_cell_length_a 24.318994
_cell_length_b 9.069033
_cell_length_c 31.017560
_cell_angle_alpha 90.000000
_cell_angle_beta 149.548667
_cell_angle_gamma 90.000000
_cell_volume 3467.019102
_symmetry_space_group_name_H-M "C 2/M"
_symmetry_group_IT_number 12
_symmetry_cell_setting 'monoclinic'
loop_
_space_group_symop_operation_xyz
x,y,z
-x,y,-z
-x,-y,-z
x,-y,z
1/2+x,1/2+y,z
1/2-x,1/2+y,-z
1/2-x,1/2-y,-z
1/2+x,1/2-y,z
loop_
_atom_site_type_symbol
_atom_site_label
_atom_site_fract_x
_atom_site_fract_y
_atom_site_fract_z
Si Si1 0.010336 0.671050 0.277426
Si Si2 0.889481 0.665591 0.347984
Si Si3 0.370575 0.166295 0.487702
Si Si4 0.681017 0.166954 0.794304
Si Si5 0.140661 0.172003 0.290769
Si Si6 0.859509 0.828212 0.563665
Si Si7 0.185806 0.672939 0.237041
Si Si8 0.613676 0.826669 0.093880
O O1 0.045388 0.500000 0.298011
O O2 0.882314 0.686756 0.202491
O O3 0.054621 0.753906 0.265283
O O4 0.053228 0.748269 0.348795
O O5 0.843901 0.500000 0.323855
O O6 0.891067 0.704532 0.297535
O O7 0.811179 0.776862 0.320376
O O8 0.008766 0.674606 0.451257
O O9 0.267773 0.200041 0.387847
O O10 0.378764 0.299110 0.526814
O O11 0.355199 0.000000 0.497025
O O12 0.788050 0.266294 0.868587
O O13 0.720695 0.000000 0.817121
O O14 0.120707 0.244372 0.230877
O O15 0.113345 0.000000 0.271070
O O16 0.750000 0.750000 0.500000
O O17 0.857113 0.000000 0.572891
O O18 0.181433 0.500000 0.243040
O O19 0.127655 0.718285 0.153240
O O20 0.616173 0.000000 0.089800
O O21 0.500000 0.761005 0.000000
#
# Coordination Sequence:
#
# PCOD8096742 Si02
#       8
#     8   8   8   8   8   8   8   8
#     4  11  21  35  53  76 108 144 183 227 271 318
#     4   9  17  33  53  73 102 139 180 226 272 314
#     4  10  20  34  50  71 101 141 188 234 275 314
#     4   9  18  32  54  83 112 139 170 216 271 321
#     4  11  23  36  52  74 104 148 192 225 266 317
#     4  12  22  31  47  71 102 141 188 238 278 312
#     4  10  21  37  55  77 107 140 175 219 270 323
#     4   9  19  37  62  89 112 135 167 211 265 324
#
# _framework density 18.459662000000002
#
# number of rings (size 3 to 8) (size 9 to 14) (size 15 to 20)
#    0.000    1.875    2.500    2.250    0.000    3.250 
#    0.000    2.500    0.000    0.750    0.000    0.000 
#    0.000    0.000    0.000    0.000    0.000    0.000 
#
# Total GULP energy -396481.260238 kJ/mol
# GULP energy per Si atom -12390.039382 kJ/mol
# Density = 1.841765 g / cm^3
# Si number density = 18.459662 Si / 1000 Ang^3
#
#
#
# Elastic Constant Matrix: (Units=GPa)
#
#
# Indices 1 2 3 4 5 6 
#
# 1 107.3819 57.0566 40.7587 0.0000 -1.7495 0.0000
# 2 57.0566 90.9219 38.3547 0.0001 1.3343 -0.0014
# 3 40.7587 38.3547 78.5902 -0.0002 11.0845 0.0000
# 4 0.0000 0.0001 -0.0002 20.4388 0.0000 3.1872
# 5 -1.7495 1.3343 11.0845 0.0000 16.9120 0.0000
# 6 0.0000 -0.0014 0.0000 3.1872 0.0000 34.9371
#
#
#
# Elastic Compliance Matrix: (Units=1/GPa)
#
#
# Indices 1 2 3 4 5 6 
#
# 1 0.015341 -0.007587 -0.005026 0.000000 0.005480 0.000000
# 2 -0.007587 0.017813 -0.004903 0.000000 0.001023 0.000001
# 3 -0.005026 -0.004903 0.019550 0.000000 -0.012946 0.000000
# 4 0.000000 0.000000 0.000000 0.049633 0.000000 -0.004528
# 5 0.005480 0.001023 -0.012946 0.000000 0.068101 0.000000
# 6 0.000000 0.000001 0.000000 -0.004528 0.000000 0.029036
#
#
# Mechanical properties :
#
#
# Convention : Reuss Voigt Hill
#
# Bulk Modulus (GPa) = 56.58927 61.02599 58.80763
# Shear Modulus (GPa) = 20.79902 23.83919 22.31910
#
# Velocity S-wave (km/s) = 3.36032 3.59753 3.48095
# Velocity P-wave (km/s) = 6.76593 7.09839 6.93416
#
# Compressibility (1/GPa) = 0.01767119
#
# Stress axis : x y z
#
# Youngs Moduli (GPa) = 65.18451 56.13943 51.15170
#
# Poissons Ratio (x) = 0.42594 0.25711
# Poissons Ratio (y) = 0.49456 0.25078
# Poissons Ratio (z) = 0.32764 0.27523
#
# Static dielectric constant tensor:
#      x y z
#    x 3.399670 0.000000 0.093420 
#    y 0.000000 3.270030 0.000000 
#    z 0.093420 0.000000 3.242780 
# 
# 
# High freq. dielectric constant tensor:
#      x y z
#    x 1.714350 0.000000 0.012610 
#    y 0.000000 1.722510 0.000000 
#    z 0.012610 0.000000 1.678530 
# 
# From -- ./inp_files/382535.got.cif
#   From: 2010.06.25/outbox.cif.g09.slc.cpg/sg12_192_cif.got.tgz:382535.got - 2010.06.28 00:19:55.
