data_PCOD8096873
_publ_section_title
;
Structure prediction by ZEFSAII (Michael W. Deem and Ramdas Pophale) SiO2 
 PCOD8096873
Probable space group: C 2/M
;
_chemical_formula_sum "Si O2"
_cell_formula_units_Z 48
_cell_length_a 14.328393
_cell_length_b 9.154169
_cell_length_c 28.920178
_cell_angle_alpha 90.000000
_cell_angle_beta 137.998896
_cell_angle_gamma 90.000000
_cell_volume 2538.268506
_symmetry_space_group_name_H-M "C 2/M"
_symmetry_group_IT_number 12
_symmetry_cell_setting 'monoclinic'
loop_
_space_group_symop_operation_xyz
x,y,z
-x,y,-z
-x,-y,-z
x,-y,z
1/2+x,1/2+y,z
1/2-x,1/2+y,-z
1/2-x,1/2-y,-z
1/2+x,1/2-y,z
loop_
_atom_site_type_symbol
_atom_site_label
_atom_site_fract_x
_atom_site_fract_y
_atom_site_fract_z
Si Si1 0.652720 0.172977 0.000935
Si Si2 0.839211 0.327215 0.892696
Si Si3 0.876283 0.670987 0.356744
Si Si4 0.367944 0.328031 0.261740
Si Si5 0.401885 0.335020 0.508255
Si Si6 0.811722 0.168283 0.625306
O O1 0.695724 0.227031 0.068274
O O2 0.669607 0.000000 0.002015
O O3 0.750000 0.250000 0.000000
O O4 0.493088 0.222887 0.933291
O O5 0.836179 0.500000 0.892627
O O6 0.724049 0.267335 0.814650
O O7 0.902029 0.500000 0.359704
O O8 0.817445 0.741831 0.288359
O O9 0.761987 0.705139 0.353521
O O10 0.024101 0.746302 0.423364
O O11 0.345587 0.500000 0.261562
O O12 0.527689 0.289684 0.309460
O O13 0.500000 0.329950 0.500000
O O14 0.375732 0.500000 0.515612
O O15 0.254701 0.261070 0.441095
O O16 0.790142 0.000000 0.604203
#
# Coordination Sequence:
#
# PCOD8096873 Si02
#       6
#     8   8   8   8   8   8
#     4   9  17  33  57  81 103 133 170 205 245 293
#     4   8  17  34  53  74 105 139 168 200 244 303
#     4  10  20  34  51  74 103 132 166 213 263 302
#     4  10  20  35  53  73 100 137 174 204 244 304
#     4   9  17  31  52  74  96 128 172 216 254 299
#     4   9  19  34  51  71  98 132 169 211 259 304
#
# _framework density 18.910529
#
# number of rings (size 3 to 8) (size 9 to 14) (size 15 to 20)
#    0.000    2.833    0.000    2.000    0.000    5.333 
#    0.000    5.000    0.000    0.000    0.000    0.000 
#    0.000    0.000    0.000    0.000    0.000    0.000 
#
# Total GULP energy -297595.540149 kJ/mol
# GULP energy per Si atom -12399.814173 kJ/mol
# Density = 1.886749 g / cm^3
# Si number density = 18.910529 Si / 1000 Ang^3
#
#
#
# Elastic Constant Matrix: (Units=GPa)
#
#
# Indices 1 2 3 4 5 6 
#
# 1 89.4433 28.0118 46.9767 0.0000 -3.3376 0.0000
# 2 28.0118 59.4234 36.8614 0.0000 -3.5592 0.0000
# 3 46.9767 36.8614 151.9755 0.0000 -8.1938 0.0000
# 4 0.0000 0.0000 0.0000 23.9670 0.0000 -3.9421
# 5 -3.3376 -3.5592 -8.1938 0.0000 24.7414 0.0000
# 6 0.0000 0.0000 0.0000 -3.9421 0.0000 28.8777
#
#
#
# Elastic Compliance Matrix: (Units=1/GPa)
#
#
# Indices 1 2 3 4 5 6 
#
# 1 0.014399 -0.004735 -0.003293 0.000000 0.000171 0.000000
# 2 -0.004735 0.021405 -0.003662 0.000000 0.001228 0.000000
# 3 -0.003293 -0.003662 0.008587 0.000000 0.001873 0.000000
# 4 0.000000 0.000000 0.000000 0.042682 0.000000 0.005827
# 5 0.000171 0.001228 0.001873 0.000000 0.041238 0.000000
# 6 0.000000 0.000000 0.000000 0.005827 0.000000 0.035424
#
#
# Mechanical properties :
#
#
# Convention : Reuss Voigt Hill
#
# Bulk Modulus (GPa) = 47.59243 58.28245 52.93744
# Shear Modulus (GPa) = 25.75722 28.11671 26.93697
#
# Velocity S-wave (km/s) = 3.69461 3.86012 3.77827
# Velocity P-wave (km/s) = 6.58954 7.12421 6.86208
#
# Compressibility (1/GPa) = 0.02101174
#
# Stress axis : x y z
#
# Youngs Moduli (GPa) = 69.44889 46.71701 116.45210
#
# Poissons Ratio (x) = 0.22118 0.38351
# Poissons Ratio (y) = 0.32881 0.42647
# Poissons Ratio (z) = 0.22872 0.17109
#
# Static dielectric constant tensor:
#      x y z
#    x 3.408400 0.000000 -0.081990 
#    y 0.000000 3.280120 0.000000 
#    z -0.081990 0.000000 3.851940 
# 
# 
# High freq. dielectric constant tensor:
#      x y z
#    x 1.736380 0.000000 -0.003750 
#    y 0.000000 1.715110 0.000000 
#    z -0.003750 0.000000 1.735740 
# 
# From -- ./inp_files/308602.got.cif
#   From: 2010.06.25/outbox.cif.g09.slc.cpg/sg12_155_cif.got.tgz:308602.got - 2010.06.28 00:19:55.
