data_PCOD8096404
_publ_section_title
;
Structure prediction by ZEFSAII (Michael W. Deem and Ramdas Pophale) SiO2 
 PCOD8096404
Probable space group: C 2/M
;
_chemical_formula_sum "Si O2"
_cell_formula_units_Z 48
_cell_length_a 23.673926
_cell_length_b 9.202030
_cell_length_c 18.388738
_cell_angle_alpha 90.000000
_cell_angle_beta 141.540555
_cell_angle_gamma 90.000000
_cell_volume 2491.544711
_symmetry_space_group_name_H-M "C 2/M"
_symmetry_group_IT_number 12
_symmetry_cell_setting 'monoclinic'
loop_
_space_group_symop_operation_xyz
x,y,z
-x,y,-z
-x,-y,-z
x,-y,z
1/2+x,1/2+y,z
1/2-x,1/2+y,-z
1/2-x,1/2-y,-z
1/2+x,1/2-y,z
loop_
_atom_site_type_symbol
_atom_site_label
_atom_site_fract_x
_atom_site_fract_y
_atom_site_fract_z
Si Si1 0.416657 0.663495 0.001146
Si Si2 0.914625 0.670609 0.777992
Si Si3 0.509712 0.830921 0.301631
Si Si4 0.158533 0.163989 0.914886
Si Si5 0.578427 0.828789 0.526998
Si Si6 0.218209 0.828214 0.261451
O O1 0.449827 0.500000 0.016668
O O2 0.343437 0.718213 0.868870
O O3 0.504642 0.766267 0.089965
O O4 0.367551 0.668792 0.027940
O O5 0.908504 0.500000 0.785549
O O6 0.930783 0.707898 0.709443
O O7 0.820725 0.747197 0.706446
O O8 0.417291 0.740342 0.210534
O O9 0.564252 0.785854 0.428561
O O10 0.483190 0.000000 0.274691
O O11 0.171315 0.000000 0.899761
O O12 0.250000 0.250000 0.000000
O O13 0.500000 0.759333 0.500000
O O14 0.678959 0.773452 0.650410
O O15 0.574362 0.000000 0.532826
O O16 0.216960 0.000000 0.274964
#
# Coordination Sequence:
#
# PCOD8096404 Si02
#       6
#     8   8   8   8   8   8
#     4   9  19  34  53  79 109 138 177 225 266 311
#     4  10  20  34  53  80 112 143 173 215 275 330
#     4   9  19  36  56  78 107 140 180 225 267 317
#     4  10  20  33  53  80 108 142 179 220 270 319
#     4   9  19  35  58  81 103 138 186 231 266 308
#     4  10  20  34  55  82 106 138 183 226 264 311
#
# _framework density 19.265156000000001
#
# number of rings (size 3 to 8) (size 9 to 14) (size 15 to 20)
#    0.000    2.500    0.000    1.500    2.333    4.667 
#    0.000    0.833    0.000    1.000    0.000    0.000 
#    0.000    0.000    0.000    0.000    0.000    0.000 
#
# Total GULP energy -297592.051199 kJ/mol
# GULP energy per Si atom -12399.668800 kJ/mol
# Density = 1.922131 g / cm^3
# Si number density = 19.265156 Si / 1000 Ang^3
#
#
#
# Elastic Constant Matrix: (Units=GPa)
#
#
# Indices 1 2 3 4 5 6 
#
# 1 97.1319 33.4591 76.2664 0.0000 19.7839 0.0000
# 2 33.4591 59.6389 35.3171 0.0000 8.7310 0.0000
# 3 76.2664 35.3171 121.9245 0.0000 7.1523 0.0000
# 4 0.0000 0.0000 0.0000 21.2113 0.0000 4.9588
# 5 19.7839 8.7310 7.1523 0.0000 34.1041 0.0000
# 6 0.0000 0.0000 0.0000 4.9588 0.0000 29.2777
#
#
#
# Elastic Compliance Matrix: (Units=1/GPa)
#
#
# Indices 1 2 3 4 5 6 
#
# 1 0.024378 -0.004228 -0.013423 0.000000 -0.010244 0.000000
# 2 -0.004228 0.021527 -0.003454 0.000000 -0.002334 0.000000
# 3 -0.013423 -0.003454 0.017303 0.000000 0.005042 0.000000
# 4 0.000000 0.000000 0.000000 0.049088 0.000000 -0.008314
# 5 -0.010244 -0.002334 0.005042 0.000000 0.034805 0.000000
# 6 0.000000 0.000000 0.000000 -0.008314 0.000000 0.035564
#
#
# Mechanical properties :
#
#
# Convention : Reuss Voigt Hill
#
# Bulk Modulus (GPa) = 47.62517 63.19787 55.41152
# Shear Modulus (GPa) = 21.56343 25.82881 23.69612
#
# Velocity S-wave (km/s) = 3.34922 3.66553 3.51094
# Velocity P-wave (km/s) = 6.30325 7.12673 6.72760
#
# Compressibility (1/GPa) = 0.02099730
#
# Stress axis : x y z
#
# Youngs Moduli (GPa) = 41.02057 46.45417 57.79328
#
# Poissons Ratio (x) = 0.19641 0.77578
# Poissons Ratio (y) = 0.17343 0.19961
# Poissons Ratio (z) = 0.55063 0.16045
#
# Static dielectric constant tensor:
#      x y z
#    x 3.495260 0.000000 0.119320 
#    y 0.000000 3.513040 0.000000 
#    z 0.119320 0.000000 3.630390 
# 
# 
# High freq. dielectric constant tensor:
#      x y z
#    x 1.759420 0.000000 0.002790 
#    y 0.000000 1.727540 0.000000 
#    z 0.002790 0.000000 1.747040 
# 
# From -- ./inp_files/327319.got.cif
#   From: 2010.06.25/outbox.cif.g09.slc.cpg/sg12_164_cif.got.tgz:327319.got - 2010.06.28 00:19:55.
