data_PCOD8096132
_publ_section_title
;
Structure prediction by ZEFSAII (Michael W. Deem and Ramdas Pophale) SiO2 
 PCOD8096132
Probable space group: C 2/M
;
_chemical_formula_sum "Si O2"
_cell_formula_units_Z 64
_cell_length_a 22.981733
_cell_length_b 9.087478
_cell_length_c 16.823457
_cell_angle_alpha 90.000000
_cell_angle_beta 105.731679
_cell_angle_gamma 90.000000
_cell_volume 3381.902409
_symmetry_space_group_name_H-M "C 2/M"
_symmetry_group_IT_number 12
_symmetry_cell_setting 'monoclinic'
loop_
_space_group_symop_operation_xyz
x,y,z
-x,y,-z
-x,-y,-z
x,-y,z
1/2+x,1/2+y,z
1/2-x,1/2+y,-z
1/2-x,1/2-y,-z
1/2+x,1/2-y,z
loop_
_atom_site_type_symbol
_atom_site_label
_atom_site_fract_x
_atom_site_fract_y
_atom_site_fract_z
Si Si1 0.432776 0.669922 0.380750
Si Si2 0.525208 0.171296 0.156092
Si Si3 0.343404 0.173889 0.231312
Si Si4 0.128793 0.329779 0.320537
Si Si5 0.400258 0.327422 0.111021
Si Si6 0.788711 0.171162 0.764918
Si Si7 0.109454 0.169872 0.074220
Si Si8 0.928197 0.169010 0.560840
O O1 0.423108 0.500000 0.352484
O O2 0.395462 0.776462 0.310482
O O3 0.411042 0.695178 0.462857
O O4 0.502629 0.715188 0.398158
O O5 0.570732 0.202702 0.244840
O O6 0.464871 0.257877 0.154985
O O7 0.553873 0.232607 0.085235
O O8 0.510827 0.000000 0.139931
O O9 0.350702 0.253245 0.149307
O O10 0.279055 0.223099 0.242496
O O11 0.347129 0.000000 0.219771
O O12 0.142988 0.500000 0.334122
O O13 0.187796 0.255990 0.303905
O O14 0.116940 0.265921 0.403400
O O15 0.403741 0.500000 0.129558
O O16 0.380022 0.292858 0.013816
O O17 0.829188 0.210020 0.856870
O O18 0.791806 0.000000 0.746210
O O19 0.091313 0.000000 0.079809
O O20 0.919105 0.000000 0.581166
#
# Coordination Sequence:
#
# PCOD8096132 Si02
#       8
#     8   8   8   8   8   8   8   8
#     4   9  19  36  57  81 109 140 171 206 252 307
#     4  10  20  33  51  79 112 139 167 212 266 311
#     4  11  23  37  54  77 104 136 175 217 263 309
#     4  10  20  33  53  81 107 135 174 215 257 306
#     4  11  22  34  52  77 104 138 177 215 259 313
#     4   9  20  39  57  72  99 139 178 218 261 305
#     4   9  19  36  55  75 101 137 179 217 257 308
#     4   9  18  34  57  83 109 138 171 205 250 309
#
# _framework density 18.924258999999999
#
# number of rings (size 3 to 8) (size 9 to 14) (size 15 to 20)
#    0.000    2.250    0.000    3.375    0.000    8.500 
#    0.000    1.875    0.000    0.000    0.000    0.000 
#    0.000    0.000    0.000    0.000    0.000    0.000 
#
# Total GULP energy -396934.488775 kJ/mol
# GULP energy per Si atom -12404.202774 kJ/mol
# Density = 1.888119 g / cm^3
# Si number density = 18.924259 Si / 1000 Ang^3
#
#
#
# Elastic Constant Matrix: (Units=GPa)
#
#
# Indices 1 2 3 4 5 6 
#
# 1 79.0693 36.4349 28.6126 0.0000 -26.3303 0.0000
# 2 36.4349 76.4610 34.7686 0.0000 -20.7484 0.0000
# 3 28.6126 34.7686 81.0785 0.0000 -28.4552 0.0000
# 4 0.0000 0.0000 0.0000 32.1710 0.0000 -6.6558
# 5 -26.3303 -20.7484 -28.4552 0.0000 30.3210 0.0000
# 6 0.0000 0.0000 0.0000 -6.6558 0.0000 30.5704
#
#
#
# Elastic Compliance Matrix: (Units=1/GPa)
#
#
# Indices 1 2 3 4 5 6 
#
# 1 0.019705 -0.005888 0.000242 0.000000 0.013309 0.000000
# 2 -0.005888 0.019013 -0.004926 0.000000 0.003274 0.000000
# 3 0.000242 -0.004926 0.019760 0.000000 0.015383 0.000000
# 4 0.000000 0.000000 0.000000 0.032550 0.000000 0.007087
# 5 0.013309 0.003274 0.015383 0.000000 0.061215 0.000000
# 6 0.000000 0.000000 0.000000 0.007087 0.000000 0.034254
#
#
# Mechanical properties :
#
#
# Convention : Reuss Voigt Hill
#
# Bulk Modulus (GPa) = 26.78602 48.47123 37.62863
# Shear Modulus (GPa) = 22.71848 27.73200 25.22524
#
# Velocity S-wave (km/s) = 3.46858 3.83223 3.65493
# Velocity P-wave (km/s) = 5.49786 6.72683 6.14315
#
# Compressibility (1/GPa) = 0.03733290
#
# Stress axis : x y z
#
# Youngs Moduli (GPa) = 50.74909 52.59590 50.60852
#
# Poissons Ratio (x) = 0.30969 -0.01226
# Poissons Ratio (y) = 0.29882 0.24931
# Poissons Ratio (z) = -0.01229 0.25910
#
# Static dielectric constant tensor:
#      x y z
#    x 3.406930 0.000000 -0.131430 
#    y 0.000000 3.430920 0.000000 
#    z -0.131430 0.000000 3.453540 
# 
# 
# High freq. dielectric constant tensor:
#      x y z
#    x 1.725050 0.000000 -0.012630 
#    y 0.000000 1.737650 0.000000 
#    z -0.012630 0.000000 1.737870 
# 
# From -- ./inp_files/281317.got.cif
#   From: 2010.06.25/outbox.cif.g09.slc.cpg/sg12_141_cif.got.tgz:281317.got - 2010.06.28 00:19:55.
