data_PCOD8096962
_publ_section_title
;
Structure prediction by ZEFSAII (Michael W. Deem and Ramdas Pophale) SiO2 
 PCOD8096962
Probable space group: C 2/M
;
_chemical_formula_sum "Si O2"
_cell_formula_units_Z 48
_cell_length_a 19.752230
_cell_length_b 9.270163
_cell_length_c 15.837045
_cell_angle_alpha 90.000000
_cell_angle_beta 108.356675
_cell_angle_gamma 90.000000
_cell_volume 2752.302903
_symmetry_space_group_name_H-M "C 2/M"
_symmetry_group_IT_number 12
_symmetry_cell_setting 'monoclinic'
loop_
_space_group_symop_operation_xyz
x,y,z
-x,y,-z
-x,-y,-z
x,-y,z
1/2+x,1/2+y,z
1/2-x,1/2+y,-z
1/2-x,1/2-y,-z
1/2+x,1/2-y,z
loop_
_atom_site_type_symbol
_atom_site_label
_atom_site_fract_x
_atom_site_fract_y
_atom_site_fract_z
Si Si1 0.014305 0.666842 0.754340
Si Si2 0.156617 0.668901 0.900034
Si Si3 0.970585 0.831899 0.577953
Si Si4 0.858470 0.667099 0.750164
Si Si5 0.687133 0.669816 0.427588
Si Si6 0.289739 0.831944 0.898273
O O1 0.021718 0.500000 0.733809
O O2 0.079023 0.719528 0.838605
O O3 0.015725 0.752432 0.667411
O O4 0.942527 0.698071 0.778087
O O5 0.167693 0.500000 0.891572
O O6 0.215300 0.748024 0.866237
O O7 0.164638 0.712709 0.001375
O O8 0.886575 0.796846 0.552376
O O9 0.000000 0.776040 0.500000
O O10 0.985362 0.000000 0.595227
O O11 0.841037 0.500000 0.723301
O O12 0.816159 0.766943 0.667996
O O13 0.835225 0.711753 0.834644
O O14 0.702953 0.500000 0.429423
O O15 0.750000 0.750000 0.500000
O O16 0.271587 0.000000 0.892005
#
# Coordination Sequence:
#
# PCOD8096962 Si02
#       6
#     8   8   8   8   8   8
#     4   9  18  32  50  72  97 124 157 199 241 281
#     4   9  18  32  49  72 100 127 159 199 241 283
#     4   9  19  35  52  70  94 125 160 196 235 283
#     4   9  18  33  51  71  96 127 163 199 237 283
#     4  10  20  34  52  73  98 127 159 198 241 285
#     4   9  18  32  50  71  97 130 163 196 236 284
#
# _framework density 17.43994
#
# number of rings (size 3 to 8) (size 9 to 14) (size 15 to 20)
#    0.000    2.833    0.000    0.500    0.000    4.333 
#    0.000    8.333    0.000    0.000    0.000    9.333 
#    0.000    0.000    0.000    0.000    0.000    0.000 
#
# Total GULP energy -297639.560072 kJ/mol
# GULP energy per Si atom -12401.648336 kJ/mol
# Density = 1.740025 g / cm^3
# Si number density = 17.439940 Si / 1000 Ang^3
#
#
#
# Elastic Constant Matrix: (Units=GPa)
#
#
# Indices 1 2 3 4 5 6 
#
# 1 110.3015 49.6064 95.7013 0.0000 0.2907 0.0000
# 2 49.6064 56.0601 58.3647 0.0000 3.8919 0.0000
# 3 95.7013 58.3647 138.4364 0.0000 0.6261 0.0000
# 4 0.0000 0.0000 0.0000 29.7831 0.0000 -0.1791
# 5 0.2907 3.8919 0.6261 0.0000 41.0264 0.0000
# 6 0.0000 0.0000 0.0000 -0.1791 0.0000 27.8561
#
#
#
# Elastic Compliance Matrix: (Units=1/GPa)
#
#
# Indices 1 2 3 4 5 6 
#
# 1 0.024165 -0.007196 -0.013675 0.000000 0.000720 0.000000
# 2 -0.007196 0.034264 -0.009457 0.000000 -0.003055 0.000000
# 3 -0.013675 -0.009457 0.020661 0.000000 0.000679 0.000000
# 4 0.000000 0.000000 0.000000 0.033577 0.000000 0.000216
# 5 0.000720 -0.003055 0.000679 0.000000 0.024649 0.000000
# 6 0.000000 0.000000 0.000000 0.000216 0.000000 0.035900
#
#
# Mechanical properties :
#
#
# Convention : Reuss Voigt Hill
#
# Bulk Modulus (GPa) = 54.24822 79.12697 66.68760
# Shear Modulus (GPa) = 20.83186 26.47483 23.65334
#
# Velocity S-wave (km/s) = 3.45989 3.90045 3.68676
# Velocity P-wave (km/s) = 6.86545 8.10890 7.51295
#
# Compressibility (1/GPa) = 0.01843378
#
# Stress axis : x y z
#
# Youngs Moduli (GPa) = 41.38159 29.18544 48.40074
#
# Poissons Ratio (x) = 0.21003 0.66187
# Poissons Ratio (y) = 0.29780 0.45772
# Poissons Ratio (z) = 0.56588 0.27600
#
# Static dielectric constant tensor:
#      x y z
#    x 3.320630 0.000000 0.008010 
#    y 0.000000 3.229150 0.000000 
#    z 0.008010 0.000000 3.365190 
# 
# 
# High freq. dielectric constant tensor:
#      x y z
#    x 1.673320 0.000000 0.000480 
#    y 0.000000 1.671520 0.000000 
#    z 0.000480 0.000000 1.676160 
# 
# From -- ./inp_files/229875.got.cif
#   From: 2010.06.25/outbox.cif.g09.slc.cpg/sg12_115_cif.got.tgz:229875.got - 2010.06.28 00:19:55.
