data_PCOD8096750
_publ_section_title
;
Structure prediction by ZEFSAII (Michael W. Deem and Ramdas Pophale) SiO2 
 PCOD8096750
Probable space group: C 2/M
;
_chemical_formula_sum "Si O2"
_cell_formula_units_Z 48
_cell_length_a 14.351061
_cell_length_b 8.982906
_cell_length_c 20.464564
_cell_angle_alpha 90.000000
_cell_angle_beta 70.541691
_cell_angle_gamma 90.000000
_cell_volume 2487.491985
_symmetry_space_group_name_H-M "C 2/M"
_symmetry_group_IT_number 12
_symmetry_cell_setting 'monoclinic'
loop_
_space_group_symop_operation_xyz
x,y,z
-x,y,-z
-x,-y,-z
x,-y,z
1/2+x,1/2+y,z
1/2-x,1/2+y,-z
1/2-x,1/2-y,-z
1/2+x,1/2-y,z
loop_
_atom_site_type_symbol
_atom_site_label
_atom_site_fract_x
_atom_site_fract_y
_atom_site_fract_z
Si Si1 0.855261 0.174868 0.483697
Si Si2 0.705566 0.674459 0.103940
Si Si3 0.609120 0.324751 0.991365
Si Si4 0.586855 0.676945 0.258786
Si Si5 0.903512 0.323215 0.348688
Si Si6 0.814604 0.826751 0.633709
O O1 0.750000 0.250000 0.500000
O O2 0.928604 0.253691 0.414835
O O3 0.884498 0.200711 0.553332
O O4 0.849815 0.000000 0.469441
O O5 0.725351 0.500000 0.099757
O O6 0.811880 0.753158 0.076397
O O7 0.651240 0.727578 0.182067
O O8 0.636683 0.720849 0.058956
O O9 0.613094 0.500000 0.979892
O O10 0.500000 0.263034 0.000000
O O11 0.571268 0.500000 0.263858
O O12 0.481050 0.757882 0.278465
O O13 0.638353 0.742959 0.312187
O O14 0.909906 0.500000 0.351253
O O15 0.795880 0.264052 0.351658
O O16 0.803153 0.000000 0.649599
#
# Coordination Sequence:
#
# PCOD8096750 Si02
#       6
#     8   8   8   8   8   8
#     4   9  16  30  51  72  95 128 169 211 254 296
#     4   9  19  34  52  76 103 130 165 204 238 286
#     4   9  18  34  55  77 103 133 161 195 244 293
#     4  10  20  35  52  72 100 133 167 203 245 294
#     4  10  20  34  50  72 100 131 168 208 253 299
#     4   8  17  33  51  69  95 131 166 203 252 302
#
# _framework density 19.296544999999998
#
# number of rings (size 3 to 8) (size 9 to 14) (size 15 to 20)
#    0.000    2.833    0.000    2.000    0.000    3.000 
#    0.000    8.333    0.000    0.000    0.000    0.000 
#    0.000    0.000    0.000    0.000    0.000    0.000 
#
# Total GULP energy -297486.225572 kJ/mol
# GULP energy per Si atom -12395.259399 kJ/mol
# Density = 1.925263 g / cm^3
# Si number density = 19.296545 Si / 1000 Ang^3
#
#
#
# Elastic Constant Matrix: (Units=GPa)
#
#
# Indices 1 2 3 4 5 6 
#
# 1 80.2073 19.4938 40.2915 0.0000 -13.7738 0.0000
# 2 19.4938 48.2144 33.8853 0.0000 -8.4160 0.0000
# 3 40.2915 33.8853 131.3073 0.0000 -19.5035 0.0000
# 4 0.0000 0.0000 0.0000 30.1315 0.0000 -9.5750
# 5 -13.7738 -8.4160 -19.5035 0.0000 28.7417 0.0000
# 6 0.0000 0.0000 0.0000 -9.5750 0.0000 24.0940
#
#
#
# Elastic Compliance Matrix: (Units=1/GPa)
#
#
# Indices 1 2 3 4 5 6 
#
# 1 0.015668 -0.003242 -0.003333 0.000000 0.004298 0.000000
# 2 -0.003242 0.026294 -0.005425 0.000000 0.002465 0.000000
# 3 -0.003333 -0.005425 0.010637 0.000000 0.004033 0.000000
# 4 0.000000 0.000000 0.000000 0.037985 0.000000 0.015095
# 5 0.004298 0.002465 0.004033 0.000000 0.040310 0.000000
# 6 0.000000 0.000000 0.000000 0.015095 0.000000 0.047503
#
#
# Mechanical properties :
#
#
# Convention : Reuss Voigt Hill
#
# Bulk Modulus (GPa) = 34.96478 49.67445 42.31962
# Shear Modulus (GPa) = 23.59274 27.66401 25.62837
#
# Velocity S-wave (km/s) = 3.50042 3.79043 3.64831
# Velocity P-wave (km/s) = 5.87336 6.70485 6.30283
#
# Compressibility (1/GPa) = 0.02860020
#
# Stress axis : x y z
#
# Youngs Moduli (GPa) = 63.82503 38.03113 94.00986
#
# Poissons Ratio (x) = 0.12331 0.31330
# Poissons Ratio (y) = 0.20695 0.50996
# Poissons Ratio (z) = 0.21270 0.20630
#
# Static dielectric constant tensor:
#      x y z
#    x 3.563870 0.000000 0.097890 
#    y 0.000000 3.304060 0.000000 
#    z 0.097890 0.000000 3.785340 
# 
# 
# High freq. dielectric constant tensor:
#      x y z
#    x 1.745130 0.000000 -0.005680 
#    y 0.000000 1.729990 0.000000 
#    z -0.005680 0.000000 1.754560 
# 
# From -- ./inp_files/308304.got.cif
#   From: 2010.06.25/outbox.cif.g09.slc.cpg/sg12_155_cif.got.tgz:308304.got - 2010.06.28 00:19:55.
