data_PCOD8096143
_publ_section_title
;
Structure prediction by ZEFSAII (Michael W. Deem and Ramdas Pophale) SiO2 
 PCOD8096143
Probable space group: C 2/M
;
_chemical_formula_sum "Si O2"
_cell_formula_units_Z 56
_cell_length_a 16.973319
_cell_length_b 19.862754
_cell_length_c 12.002078
_cell_angle_alpha 90.000000
_cell_angle_beta 49.897314
_cell_angle_gamma 90.000000
_cell_volume 3095.012083
_symmetry_space_group_name_H-M "C 2/M"
_symmetry_group_IT_number 12
_symmetry_cell_setting 'monoclinic'
loop_
_space_group_symop_operation_xyz
x,y,z
-x,y,-z
-x,-y,-z
x,-y,z
1/2+x,1/2+y,z
1/2-x,1/2+y,-z
1/2-x,1/2-y,-z
1/2+x,1/2-y,z
loop_
_atom_site_type_symbol
_atom_site_label
_atom_site_fract_x
_atom_site_fract_y
_atom_site_fract_z
Si Si1 0.699711 0.077632 0.960943
Si Si2 0.114010 0.218164 0.847548
Si Si3 0.345757 0.297722 0.430820
Si Si4 0.471189 0.925122 0.234657
Si Si5 0.502009 0.809298 0.372108
Si Si6 0.792431 0.636190 0.276090
Si Si7 0.733069 0.189019 0.097555
O O1 0.748966 0.110090 0.804983
O O2 0.732162 0.000000 0.942891
O O3 0.576043 0.087872 0.070204
O O4 0.745489 0.117294 0.025133
O O5 0.118436 0.177194 0.725334
O O6 0.145042 0.294621 0.794566
O O7 0.191368 0.186046 0.866038
O O8 0.000000 0.215212 0.000000
O O9 0.250000 0.250000 0.500000
O O10 0.438440 0.258637 0.406915
O O11 0.305370 0.356981 0.550230
O O12 0.454664 0.870871 0.346278
O O13 0.372902 0.919912 0.244034
O O14 0.474379 0.000000 0.283918
O O15 0.500000 0.832132 0.500000
O O16 0.619172 0.795800 0.239927
O O17 0.750000 0.250000 0.000000
#
# Coordination Sequence:
#
# PCOD8096143 Si02
#       7
#     8   8   8   8   8   8   8
#     4  10  21  36  55  84 120 151 184 234 292 344
#     4  11  20  35  57  83 114 143 184 239 288 338
#     4  10  20  33  51  80 112 150 183 226 279 322
#     4  10  20  33  52  80 117 160 190 218 281 356
#     4  11  21  34  52  80 120 150 182 237 282 332
#     4  11  19  32  56  82 117 151 184 229 278 341
#     4  11  22  34  58  86 113 146 192 232 282 342
#
# _framework density 18.093629
#
# number of rings (size 3 to 8) (size 9 to 14) (size 15 to 20)
#    0.000    1.429    4.286    4.286    0.000    1.429 
#    0.000    0.000    0.000    0.429    0.000   10.000 
#    0.000    0.000    0.000    0.000    0.000    0.000 
#
# Total GULP energy -347129.951656 kJ/mol
# GULP energy per Si atom -12397.498273 kJ/mol
# Density = 1.805245 g / cm^3
# Si number density = 18.093629 Si / 1000 Ang^3
#
#
#
# Elastic Constant Matrix: (Units=GPa)
#
#
# Indices 1 2 3 4 5 6 
#
# 1 87.7296 29.2942 40.5387 0.0000 5.2181 0.0000
# 2 29.2942 79.6782 46.5824 0.0000 2.9881 0.0000
# 3 40.5387 46.5824 132.0390 0.0000 13.5557 0.0000
# 4 0.0000 0.0000 0.0000 22.7004 0.0000 1.2518
# 5 5.2181 2.9881 13.5557 0.0000 28.9455 0.0000
# 6 0.0000 0.0000 0.0000 1.2518 0.0000 10.5313
#
#
#
# Elastic Compliance Matrix: (Units=1/GPa)
#
#
# Indices 1 2 3 4 5 6 
#
# 1 0.013957 -0.003330 -0.003033 0.000000 -0.000752 0.000000
# 2 -0.003330 0.016635 -0.004971 0.000000 0.001211 0.000000
# 3 -0.003033 -0.004971 0.010662 0.000000 -0.003933 0.000000
# 4 0.000000 0.000000 0.000000 0.044343 0.000000 -0.005271
# 5 -0.000752 0.001211 -0.003933 0.000000 0.036400 0.000000
# 6 0.000000 0.000000 0.000000 -0.005271 0.000000 0.095581
#
#
# Mechanical properties :
#
#
# Convention : Reuss Voigt Hill
#
# Bulk Modulus (GPa) = 53.80138 59.14193 56.47165
# Shear Modulus (GPa) = 20.28873 24.63753 22.46313
#
# Velocity S-wave (km/s) = 3.35224 3.69408 3.52731
# Velocity P-wave (km/s) = 6.69200 7.13811 6.91865
#
# Compressibility (1/GPa) = 0.01858688
#
# Stress axis : x y z
#
# Youngs Moduli (GPa) = 71.64949 60.11263 93.78905
#
# Poissons Ratio (x) = 0.20017 0.28447
# Poissons Ratio (y) = 0.23859 0.46621
# Poissons Ratio (z) = 0.21732 0.29881
#
# Static dielectric constant tensor:
#      x y z
#    x 3.423510 0.000000 0.110360 
#    y 0.000000 3.258860 0.000000 
#    z 0.110360 0.000000 3.993940 
# 
# 
# High freq. dielectric constant tensor:
#      x y z
#    x 1.696630 0.000000 0.012580 
#    y 0.000000 1.669100 0.000000 
#    z 0.012580 0.000000 1.713610 
# 
# From -- ./inp_files/158236.got.cif
#   From: 2010.06.25/outbox.cif.g09.slc.cpg/sg12_80_cif.got.tgz:158236.got - 2010.06.28 00:19:55.
