data_PCOD8096504
_publ_section_title
;
Structure prediction by ZEFSAII (Michael W. Deem and Ramdas Pophale) SiO2 
 PCOD8096504
Probable space group: C 2/M
;
_chemical_formula_sum "Si O2"
_cell_formula_units_Z 40
_cell_length_a 22.318666
_cell_length_b 10.160308
_cell_length_c 14.474489
_cell_angle_alpha 90.000000
_cell_angle_beta 149.867907
_cell_angle_gamma 90.000000
_cell_volume 1647.699305
_symmetry_space_group_name_H-M "C 2/M"
_symmetry_group_IT_number 12
_symmetry_cell_setting 'monoclinic'
loop_
_space_group_symop_operation_xyz
x,y,z
-x,y,-z
-x,-y,-z
x,-y,z
1/2+x,1/2+y,z
1/2-x,1/2+y,-z
1/2-x,1/2-y,-z
1/2+x,1/2-y,z
loop_
_atom_site_type_symbol
_atom_site_label
_atom_site_fract_x
_atom_site_fract_y
_atom_site_fract_z
Si Si1 0.138375 0.000000 0.201803
Si Si2 0.902227 0.500000 0.700730
Si Si3 0.022527 0.255200 0.286163
Si Si4 0.805949 0.771594 0.854966
Si Si5 0.335932 0.154604 0.169912
Si Si6 0.380010 0.000000 0.902620
Si Si7 0.662351 0.500000 0.453134
O O1 0.191249 0.870405 0.226397
O O2 0.170628 0.000000 0.352951
O O3 0.000000 0.000000 0.000000
O O4 0.880002 0.363596 0.617141
O O5 0.046440 0.500000 0.902449
O O6 0.809954 0.500000 0.669981
O O7 0.097845 0.125380 0.409361
O O8 0.967749 0.309474 0.309354
O O9 0.924285 0.216573 0.077283
O O10 0.686037 0.808142 0.752308
O O11 0.795984 0.628658 0.794214
O O12 0.307565 0.000000 0.115254
O O13 0.250000 0.250000 0.000000
O O14 0.500000 0.000000 0.000000
#
# Coordination Sequence:
#
# PCOD8096504 Si02
#       7
#     4   4   8   8   8   4   4
#     4  12  20  35  54  82 121 147 187 236 275 346
#     4  10  22  39  54  83 114 150 194 231 281 340
#     4  10  20  36  56  79 115 147 187 242 280 331
#     4  10  20  34  56  83 111 147 185 235 287 336
#     4  10  20  33  54  82 112 147 189 241 290 333
#     4  10  22  37  58  84 117 148 180 234 292 342
#     4  12  24  35  58  86 114 157 196 227 287 341
#
# _framework density 24.276274000000001
#
# number of rings (size 3 to 8) (size 9 to 14) (size 15 to 20)
#    0.000    1.600    4.000    1.200   11.200    0.000 
#    0.000    0.000    0.000    2.400    0.000    1.400 
#    0.000    0.000    0.000    0.000    0.000    0.000 
#
# Total GULP energy -247836.182157 kJ/mol
# GULP energy per Si atom -12391.809108 kJ/mol
# Density = 2.422102 g / cm^3
# Si number density = 24.276274 Si / 1000 Ang^3
#
#
#
# Elastic Constant Matrix: (Units=GPa)
#
#
# Indices 1 2 3 4 5 6 
#
# 1 133.4398 72.6349 27.6652 0.0000 36.9570 0.0000
# 2 72.6349 254.2288 34.3232 0.0000 37.6337 0.0000
# 3 27.6652 34.3232 68.9098 0.0000 9.1575 0.0000
# 4 0.0000 0.0000 0.0000 0.4897 0.0000 23.9312
# 5 36.9570 37.6337 9.1575 0.0000 44.3491 0.0000
# 6 0.0000 0.0000 0.0000 23.9312 0.0000 47.5513
#
#
#
# Elastic Compliance Matrix: (Units=1/GPa)
#
#
# Indices 1 2 3 4 5 6 
#
# 1 0.010940 -0.001722 -0.002588 0.000000 -0.007121 0.000000
# 2 -0.001722 0.004993 -0.001463 0.000000 -0.002500 0.000000
# 3 -0.002588 -0.001463 0.016275 0.000000 0.000038 0.000000
# 4 0.000000 0.000000 0.000000 -0.086548 0.000000 0.043557
# 5 -0.007121 -0.002500 0.000038 0.000000 0.030596 0.000000
# 6 0.000000 0.000000 0.000000 0.043557 0.000000 -0.000891
#
#
# Mechanical properties :
#
#
# Convention : Reuss Voigt Hill
#
# Bulk Modulus (GPa) = 48.40125 80.64723 64.52424
# Shear Modulus (GPa) = -806.25753 39.94168 -383.15792
#
# Velocity S-wave (km/s) = -18.24386 4.06063 -12.57676
# Velocity P-wave (km/s) = 20.58649 7.43489 13.57435
#
# Compressibility (1/GPa) = 0.02066063
#
# Stress axis : x y z
#
# Youngs Moduli (GPa) = 91.40628 200.27581 61.44534
#
# Poissons Ratio (x) = 0.34491 0.15902
# Poissons Ratio (y) = 0.15742 0.08992
# Poissons Ratio (z) = 0.23656 0.29309
#
# Static dielectric constant tensor:
#      x y z
#    x 3.158720 0.000000 3.691660 
#    y 0.000000 4.652110 0.000000 
#    z 3.691660 0.000000 -0.778440 
# 
# 
# High freq. dielectric constant tensor:
#      x y z
#    x 1.976010 0.000000 0.010510 
#    y 0.000000 1.982000 0.000000 
#    z 0.010510 0.000000 1.951070 
# 
# From -- ./inp_files/324454.got.cif
#   From: 2010.06.25/outbox.cif.g09.slc.cpg/sg12_163_cif.got.tgz:324454.got - 2010.06.28 00:19:55.
