data_PCOD8096247
_publ_section_title
;
Structure prediction by ZEFSAII (Michael W. Deem and Ramdas Pophale) SiO2 
 PCOD8096247
Probable space group: C 2/M
;
_chemical_formula_sum "Si O2"
_cell_formula_units_Z 48
_cell_length_a 22.995658
_cell_length_b 13.489338
_cell_length_c 13.226499
_cell_angle_alpha 90.000000
_cell_angle_beta 39.721755
_cell_angle_gamma 90.000000
_cell_volume 2621.941243
_symmetry_space_group_name_H-M "C 2/M"
_symmetry_group_IT_number 12
_symmetry_cell_setting 'monoclinic'
loop_
_space_group_symop_operation_xyz
x,y,z
-x,y,-z
-x,-y,-z
x,-y,z
1/2+x,1/2+y,z
1/2-x,1/2+y,-z
1/2-x,1/2-y,-z
1/2+x,1/2-y,z
loop_
_atom_site_type_symbol
_atom_site_label
_atom_site_fract_x
_atom_site_fract_y
_atom_site_fract_z
Si Si1 0.394271 0.390821 0.118870
Si Si2 0.248675 0.386097 0.603249
Si Si3 0.921164 0.115983 0.682256
Si Si4 0.878956 0.755369 0.322008
Si Si5 0.277425 0.112565 0.129888
Si Si6 0.081837 0.772066 0.105211
O O1 0.349088 0.500000 0.185708
O O2 0.351504 0.319064 0.259460
O O3 0.500000 0.399941 0.000000
O O4 0.375692 0.348995 0.031617
O O5 0.274114 0.500000 0.546399
O O6 0.171870 0.349521 0.626152
O O7 0.339403 0.318566 0.469270
O O8 0.209714 0.374467 0.767778
O O9 0.824605 0.143411 0.762775
O O10 0.933474 0.175738 0.768346
O O11 0.000000 0.149584 0.500000
O O12 0.929998 0.000000 0.694956
O O13 0.984967 0.733070 0.193638
O O14 0.296642 0.000000 0.070735
O O15 0.350031 0.179818 0.973558
#
# Coordination Sequence:
#
# PCOD8096247 Si02
#       6
#     8   8   8   8   8   8
#     4   9  17  29  47  74 106 137 171 213 260 311
#     4  10  20  35  54  78 111 146 181 220 262 317
#     4  10  21  37  58  82 105 137 179 223 273 322
#     4  10  20  33  52  78 109 145 181 217 267 319
#     4  10  21  36  55  80 109 142 181 222 266 317
#     4  11  20  34  54  80 109 140 177 223 272 317
#
# _framework density 18.307047000000001
#
# number of rings (size 3 to 8) (size 9 to 14) (size 15 to 20)
#    0.000    2.000    1.667    2.500    0.000    4.000 
#    0.000    1.667    0.000    0.500    0.000    0.000 
#    0.000    0.000    0.000    0.000    0.000    0.000 
#
# Total GULP energy -297611.789356 kJ/mol
# GULP energy per Si atom -12400.491223 kJ/mol
# Density = 1.826538 g / cm^3
# Si number density = 18.307047 Si / 1000 Ang^3
#
#
#
# Elastic Constant Matrix: (Units=GPa)
#
#
# Indices 1 2 3 4 5 6 
#
# 1 83.6006 40.2655 38.0358 0.0000 -7.0690 0.0000
# 2 40.2655 65.9565 35.0738 0.0000 -2.8302 0.0000
# 3 38.0358 35.0738 94.5089 0.0000 -0.9016 0.0000
# 4 0.0000 0.0000 0.0000 33.1244 0.0000 0.3778
# 5 -7.0690 -2.8302 -0.9016 0.0000 35.2408 0.0000
# 6 0.0000 0.0000 0.0000 0.3778 0.0000 21.8297
#
#
#
# Elastic Compliance Matrix: (Units=1/GPa)
#
#
# Indices 1 2 3 4 5 6 
#
# 1 0.018341 -0.008925 -0.004042 0.000000 0.002859 0.000000
# 2 -0.008925 0.023295 -0.005054 0.000000 -0.000049 0.000000
# 3 -0.004042 -0.005054 0.014075 0.000000 -0.000857 0.000000
# 4 0.000000 0.000000 0.000000 0.030195 0.000000 -0.000523
# 5 0.002859 -0.000049 -0.000857 0.000000 0.028924 0.000000
# 6 0.000000 0.000000 0.000000 -0.000523 0.000000 0.045818
#
#
# Mechanical properties :
#
#
# Convention : Reuss Voigt Hill
#
# Bulk Modulus (GPa) = 50.83871 52.31290 51.57581
# Shear Modulus (GPa) = 24.60063 26.75171 25.67617
#
# Velocity S-wave (km/s) = 3.66974 3.82682 3.74910
# Velocity P-wave (km/s) = 6.76655 6.93998 6.85382
#
# Compressibility (1/GPa) = 0.01967005
#
# Stress axis : x y z
#
# Youngs Moduli (GPa) = 54.52285 42.92693 71.04698
#
# Poissons Ratio (x) = 0.38311 0.28718
# Poissons Ratio (y) = 0.48660 0.35907
# Poissons Ratio (z) = 0.22038 0.21695
#
# Static dielectric constant tensor:
#      x y z
#    x 3.204600 0.000000 0.033070 
#    y 0.000000 3.413640 0.000000 
#    z 0.033070 0.000000 3.359300 
# 
# 
# High freq. dielectric constant tensor:
#      x y z
#    x 1.694990 0.000000 0.002360 
#    y 0.000000 1.704760 0.000000 
#    z 0.002360 0.000000 1.712860 
# 
# From -- ./inp_files/165459.got.cif
#   From: 2010.06.25/outbox.cif.g09.slc.cpg/sg12_83_cif.got.tgz:165459.got - 2010.06.28 00:19:55.
