data_PCOD8096118
_publ_section_title
;
Structure prediction by ZEFSAII (Michael W. Deem and Ramdas Pophale) SiO2 
 PCOD8096118
Probable space group: C 2/M
;
_chemical_formula_sum "Si O2"
_cell_formula_units_Z 64
_cell_length_a 18.528900
_cell_length_b 8.648419
_cell_length_c 34.541695
_cell_angle_alpha 90.000000
_cell_angle_beta 143.819078
_cell_angle_gamma 90.000000
_cell_volume 3267.608094
_symmetry_space_group_name_H-M "C 2/M"
_symmetry_group_IT_number 12
_symmetry_cell_setting 'monoclinic'
loop_
_space_group_symop_operation_xyz
x,y,z
-x,y,-z
-x,-y,-z
x,-y,z
1/2+x,1/2+y,z
1/2-x,1/2+y,-z
1/2-x,1/2-y,-z
1/2+x,1/2-y,z
loop_
_atom_site_type_symbol
_atom_site_label
_atom_site_fract_x
_atom_site_fract_y
_atom_site_fract_z
Si Si1 0.896982 0.181282 0.376559
Si Si2 0.172684 0.684195 0.001028
Si Si3 0.396755 0.178917 0.876229
Si Si4 0.687404 0.818819 0.736956
Si Si5 0.263621 0.322020 0.120979
Si Si6 0.251126 0.818276 0.383691
Si Si7 0.837068 0.681962 0.505272
Si Si8 0.470231 0.682815 0.265609
O O1 0.813815 0.233395 0.304709
O O2 0.830460 0.225144 0.387405
O O3 0.025585 0.265849 0.428390
O O4 0.919742 0.000000 0.385361
O O5 0.175218 0.500000 0.003158
O O6 0.034413 0.741514 0.935122
O O7 0.250000 0.750000 0.000000
O O8 0.229109 0.756056 0.065089
O O9 0.317139 0.280286 0.812457
O O10 0.350014 0.201714 0.899625
O O11 0.386140 0.000000 0.859156
O O12 0.573686 0.762771 0.713854
O O13 0.676239 0.000000 0.725132
O O14 0.288880 0.500000 0.123624
O O15 0.387202 0.253418 0.194018
O O16 0.292354 0.762370 0.443827
O O17 0.109269 0.774588 0.316760
O O18 0.273724 0.000000 0.387423
O O19 0.828962 0.500000 0.504794
O O20 0.750000 0.750000 0.500000
O O21 0.450700 0.500000 0.263001
#
# Coordination Sequence:
#
# PCOD8096118 Si02
#       8
#     8   8   8   8   8   8   8   8
#     4  12  25  40  59  84 117 154 192 235 284 338
#     4  10  20  33  51  78 111 146 183 227 280 335
#     4   9  18  35  57  78 104 143 191 235 276 329
#     4  11  22  37  59  85 113 145 187 237 287 341
#     4   8  15  31  56  80 103 139 186 227 265 322
#     4  10  22  39  59  86 119 153 188 231 283 336
#     4  11  23  40  63  89 119 154 194 237 281 332
#     4   9  18  36  61  86 113 146 186 231 282 340
#
# _framework density 19.586193000000002
#
# number of rings (size 3 to 8) (size 9 to 14) (size 15 to 20)
#    0.000    2.000    0.000    4.875    0.000    7.000 
#    0.000    3.750    0.000    3.750    0.000    0.000 
#    0.000    0.000    0.000    0.000    0.000    0.000 
#
# Total GULP energy -396854.582700 kJ/mol
# GULP energy per Si atom -12401.705709 kJ/mol
# Density = 1.954161 g / cm^3
# Si number density = 19.586193 Si / 1000 Ang^3
#
#
#
# Elastic Constant Matrix: (Units=GPa)
#
#
# Indices 1 2 3 4 5 6 
#
# 1 122.3761 25.8028 63.2570 0.0001 -11.3956 -0.0001
# 2 25.8028 28.2268 15.4862 0.0000 -5.7436 0.0000
# 3 63.2570 15.4862 108.7919 0.0001 -7.0579 -0.0001
# 4 0.0001 0.0000 0.0001 24.3512 0.0000 -0.9181
# 5 -11.3956 -5.7436 -7.0579 0.0000 30.2828 0.0000
# 6 -0.0001 0.0000 -0.0001 -0.9181 0.0000 35.8379
#
#
#
# Elastic Compliance Matrix: (Units=1/GPa)
#
#
# Indices 1 2 3 4 5 6 
#
# 1 0.013489 -0.008349 -0.006527 0.000000 0.001971 0.000000
# 2 -0.008349 0.044741 -0.001186 0.000000 0.005068 0.000000
# 3 -0.006527 -0.001186 0.013181 0.000000 0.000391 0.000000
# 4 0.000000 0.000000 0.000000 0.041105 0.000000 0.001053
# 5 0.001971 0.005068 0.000391 0.000000 0.034816 0.000000
# 6 0.000000 0.000000 0.000000 0.001053 0.000000 0.027930
#
#
# Mechanical properties :
#
#
# Convention : Reuss Voigt Hill
#
# Bulk Modulus (GPa) = 25.45273 52.05409 38.75341
# Shear Modulus (GPa) = 22.67757 28.41764 25.54760
#
# Velocity S-wave (km/s) = 3.40639 3.81320 3.61552
# Velocity P-wave (km/s) = 5.33805 6.78395 6.10396
#
# Compressibility (1/GPa) = 0.03928852
#
# Stress axis : x y z
#
# Youngs Moduli (GPa) = 74.13284 22.35094 75.86608
#
# Poissons Ratio (x) = 0.18660 0.49518
# Poissons Ratio (y) = 0.61892 0.08994
# Poissons Ratio (z) = 0.48387 0.02650
#
# Static dielectric constant tensor:
#      x y z
#    x 3.450000 0.000000 -0.029860 
#    y 0.000000 3.375990 0.000000 
#    z -0.029860 0.000000 3.874600 
# 
# 
# High freq. dielectric constant tensor:
#      x y z
#    x 1.764580 0.000000 -0.000570 
#    y 0.000000 1.743180 0.000000 
#    z -0.000570 0.000000 1.782110 
# 
# From -- ./inp_files/378447.got.cif
#   From: 2010.06.25/outbox.cif.g09.slc.cpg/sg12_190_cif.got.tgz:378447.got - 2010.06.28 00:19:55.
