data_PCOD8096523
_publ_section_title
;
Structure prediction by ZEFSAII (Michael W. Deem and Ramdas Pophale) SiO2 
 PCOD8096523
Probable space group: C 2/M
;
_chemical_formula_sum "Si O2"
_cell_formula_units_Z 56
_cell_length_a 28.514419
_cell_length_b 8.872266
_cell_length_c 17.624384
_cell_angle_alpha 90.000000
_cell_angle_beta 137.147015
_cell_angle_gamma 90.000000
_cell_volume 3032.482336
_symmetry_space_group_name_H-M "C 2/M"
_symmetry_group_IT_number 12
_symmetry_cell_setting 'monoclinic'
loop_
_space_group_symop_operation_xyz
x,y,z
-x,y,-z
-x,-y,-z
x,-y,z
1/2+x,1/2+y,z
1/2-x,1/2+y,-z
1/2-x,1/2-y,-z
1/2+x,1/2-y,z
loop_
_atom_site_type_symbol
_atom_site_label
_atom_site_fract_x
_atom_site_fract_y
_atom_site_fract_z
Si Si1 0.938587 0.323124 0.157962
Si Si2 0.917538 0.176295 0.671279
Si Si3 0.868817 0.323194 0.922212
Si Si4 0.680473 0.320724 0.885874
Si Si5 0.284316 0.322574 0.234577
Si Si6 0.847242 0.824258 0.744779
Si Si7 0.799045 0.178365 0.418023
O O1 0.930208 0.500000 0.161923
O O2 0.886039 0.238508 0.150234
O O3 0.014700 0.269598 0.268781
O O4 0.923527 0.281645 0.052269
O O5 0.895205 0.212048 0.730210
O O6 0.858604 0.235616 0.544370
O O7 0.932255 0.000000 0.676423
O O8 0.867756 0.500000 0.903462
O O9 0.794393 0.263499 0.862235
O O10 0.887407 0.239367 0.865966
O O11 0.684948 0.500000 0.899010
O O12 0.673799 0.267155 0.789608
O O13 0.750000 0.250000 0.000000
O O14 0.281036 0.500000 0.227994
O O15 0.318601 0.270708 0.354924
O O16 0.773477 0.748215 0.643423
O O17 0.834514 0.000000 0.739706
O O18 0.790229 0.000000 0.413499
#
# Coordination Sequence:
#
# PCOD8096523 Si02
#       7
#     8   8   8   8   8   8   8
#     4  11  23  38  55  78 109 145 186 225 268 326
#     4  10  22  38  54  77 110 147 182 222 271 322
#     4   9  18  35  54  76 107 142 182 219 264 327
#     4  11  20  34  57  84 112 140 177 222 271 323
#     4   8  15  31  55  80 104 134 177 220 256 313
#     4  10  20  33  54  84 111 136 178 229 275 317
#     4   9  18  36  59  79 106 144 184 220 261 320
#
# _framework density 18.466718
#
# number of rings (size 3 to 8) (size 9 to 14) (size 15 to 20)
#    0.000    2.286    1.429    2.571    0.000    3.429 
#    0.000    4.286    0.000    4.286    0.000    0.000 
#    0.000    0.000    0.000    0.000    0.000    0.000 
#
# Total GULP energy -347138.845863 kJ/mol
# GULP energy per Si atom -12397.815924 kJ/mol
# Density = 1.842469 g / cm^3
# Si number density = 18.466718 Si / 1000 Ang^3
#
#
#
# Elastic Constant Matrix: (Units=GPa)
#
#
# Indices 1 2 3 4 5 6 
#
# 1 100.7572 39.3902 33.0835 0.0000 -2.3788 0.0000
# 2 39.3902 56.1740 25.4826 0.0000 0.4425 0.0000
# 3 33.0835 25.4826 58.6764 0.0000 2.3147 0.0000
# 4 0.0000 0.0000 0.0000 28.9895 0.0000 1.4162
# 5 -2.3788 0.4425 2.3147 0.0000 25.8762 0.0000
# 6 0.0000 0.0000 0.0000 1.4162 0.0000 28.5235
#
#
#
# Elastic Compliance Matrix: (Units=1/GPa)
#
#
# Indices 1 2 3 4 5 6 
#
# 1 0.014753 -0.008160 -0.004851 0.000000 0.001930 0.000000
# 2 -0.008160 0.026689 -0.006967 0.000000 -0.000583 0.000000
# 3 -0.004851 -0.006967 0.022897 0.000000 -0.002375 0.000000
# 4 0.000000 0.000000 0.000000 0.034579 0.000000 -0.001717
# 5 0.001930 -0.000583 -0.002375 0.000000 0.039045 0.000000
# 6 0.000000 0.000000 0.000000 -0.001717 0.000000 0.035144
#
#
# Mechanical properties :
#
#
# Convention : Reuss Voigt Hill
#
# Bulk Modulus (GPa) = 41.01054 45.72447 43.36750
# Shear Modulus (GPa) = 22.60500 24.52128 23.56314
#
# Velocity S-wave (km/s) = 3.50250 3.64794 3.57596
# Velocity P-wave (km/s) = 6.21391 6.52361 6.37064
#
# Compressibility (1/GPa) = 0.02438398
#
# Stress axis : x y z
#
# Youngs Moduli (GPa) = 67.78213 37.46898 43.67412
#
# Poissons Ratio (x) = 0.30575 0.21185
# Poissons Ratio (y) = 0.55310 0.30427
# Poissons Ratio (z) = 0.32878 0.26104
#
# Static dielectric constant tensor:
#      x y z
#    x 3.702150 0.000000 -0.300300 
#    y 0.000000 3.277400 0.000000 
#    z -0.300300 0.000000 3.530200 
# 
# 
# High freq. dielectric constant tensor:
#      x y z
#    x 1.717520 0.000000 -0.016810 
#    y 0.000000 1.705520 0.000000 
#    z -0.016810 0.000000 1.712310 
# 
# From -- ./inp_files/288221.got.cif
#   From: 2010.06.25/outbox.cif.g09.slc.cpg/sg12_145_cif.got.tgz:288221.got - 2010.06.28 00:19:55.
