data_PCOD8096899
_publ_section_title
;
Structure prediction by ZEFSAII (Michael W. Deem and Ramdas Pophale) SiO2 
 PCOD8096899
Probable space group: C 2/M
;
_chemical_formula_sum "Si O2"
_cell_formula_units_Z 52
_cell_length_a 16.890189
_cell_length_b 11.124871
_cell_length_c 25.315374
_cell_angle_alpha 90.000000
_cell_angle_beta 144.501773
_cell_angle_gamma 90.000000
_cell_volume 2762.161299
_symmetry_space_group_name_H-M "C 2/M"
_symmetry_group_IT_number 12
_symmetry_cell_setting 'monoclinic'
loop_
_space_group_symop_operation_xyz
x,y,z
-x,y,-z
-x,-y,-z
x,-y,z
1/2+x,1/2+y,z
1/2-x,1/2+y,-z
1/2-x,1/2-y,-z
1/2+x,1/2-y,z
loop_
_atom_site_type_symbol
_atom_site_label
_atom_site_fract_x
_atom_site_fract_y
_atom_site_fract_z
Si Si1 0.082482 0.362520 0.991823
Si Si2 0.609682 0.634653 0.827890
Si Si3 0.000000 0.715843 0.500000
Si Si4 0.179356 0.132632 0.516988
Si Si5 0.546280 0.748446 0.350523
Si Si6 0.342242 0.867012 0.317548
Si Si7 0.469797 0.639178 0.863096
O O1 0.080648 0.500000 0.964369
O O2 0.235098 0.320789 0.088530
O O3 0.000000 0.373739 0.000000
O O4 0.020724 0.250187 0.926231
O O5 0.602674 0.500000 0.802717
O O6 0.513184 0.709128 0.737373
O O7 0.558229 0.646396 0.859009
O O8 0.103302 0.788004 0.518978
O O9 0.095009 0.637053 0.589588
O O10 0.342221 0.151185 0.603421
O O11 0.123857 0.147281 0.426935
O O12 0.150057 0.000000 0.520615
O O13 0.420079 0.786995 0.317802
O O14 0.185323 0.828750 0.235168
O O15 0.355993 0.000000 0.302896
O O16 0.482795 0.500000 0.893475
#
# Coordination Sequence:
#
# PCOD8096899 Si02
#       7
#     8   8   4   8   8   8   8
#     4  10  21  38  59  82 109 141 179 222 268 321
#     4  10  20  36  57  79 106 139 178 220 263 316
#     4  10  20  34  54  76 102 140 178 216 264 314
#     4  10  20  34  51  75 107 138 174 218 263 315
#     4  10  20  34  54  77 103 139 177 215 264 315
#     4  10  20  35  54  77 106 138 178 222 264 315
#     4  10  21  37  57  82 111 142 178 222 269 319
#
# _framework density 18.825837
#
# number of rings (size 3 to 8) (size 9 to 14) (size 15 to 20)
#    0.000    2.000    0.000    3.692    0.000    0.308 
#    0.000   13.077    0.000    0.000    0.000    0.000 
#    0.000    0.000    0.000    0.000    0.000    0.000 
#
# Total GULP energy -322130.332384 kJ/mol
# GULP energy per Si atom -12389.628169 kJ/mol
# Density = 1.878299 g / cm^3
# Si number density = 18.825837 Si / 1000 Ang^3
#
#
#
# Elastic Constant Matrix: (Units=GPa)
#
#
# Indices 1 2 3 4 5 6 
#
# 1 74.9409 16.9528 27.8933 0.0000 16.6776 0.0000
# 2 16.9528 98.2110 57.5158 0.0000 -2.0923 0.0000
# 3 27.8933 57.5158 117.5839 0.0002 11.4015 0.0000
# 4 0.0000 0.0000 0.0002 16.2730 0.0000 -6.0928
# 5 16.6776 -2.0923 11.4015 0.0000 36.5069 0.0000
# 6 0.0000 0.0000 0.0000 -6.0928 0.0000 13.0768
#
#
#
# Elastic Compliance Matrix: (Units=1/GPa)
#
#
# Indices 1 2 3 4 5 6 
#
# 1 0.016071 -0.001488 -0.002438 0.000000 -0.006666 0.000000
# 2 -0.001488 0.014754 -0.007231 0.000000 0.003784 0.000000
# 3 -0.002438 -0.007231 0.012944 0.000000 -0.003343 0.000000
# 4 0.000000 0.000000 0.000000 0.074437 0.000000 0.034682
# 5 -0.006666 0.003784 -0.003343 0.000000 0.031698 0.000000
# 6 0.000000 0.000000 0.000000 0.034682 0.000000 0.092631
#
#
# Mechanical properties :
#
#
# Convention : Reuss Voigt Hill
#
# Bulk Modulus (GPa) = 46.60873 55.05105 50.82989
# Shear Modulus (GPa) = 18.38223 25.72958 22.05590
#
# Velocity S-wave (km/s) = 3.12819 3.70092 3.42654
# Velocity P-wave (km/s) = 6.15297 6.89697 6.53557
#
# Compressibility (1/GPa) = 0.02145521
#
# Stress axis : x y z
#
# Youngs Moduli (GPa) = 62.22211 67.77676 77.25557
#
# Poissons Ratio (x) = 0.10088 0.18836
# Poissons Ratio (y) = 0.09261 0.55862
# Poissons Ratio (z) = 0.15170 0.49008
#
# Static dielectric constant tensor:
#      x y z
#    x 3.463120 0.000000 0.149050 
#    y 0.000000 3.583550 0.000000 
#    z 0.149050 0.000000 3.527190 
# 
# 
# High freq. dielectric constant tensor:
#      x y z
#    x 1.743790 0.000000 0.018700 
#    y 0.000000 1.727620 0.000000 
#    z 0.018700 0.000000 1.733430 
# 
# From -- ./inp_files/339667.got.cif
#   From: 2010.06.25/outbox.cif.g09.slc.cpg/sg12_170_cif.got.tgz:339667.got - 2010.06.28 00:19:55.
