data_PCOD8096455
_publ_section_title
;
Structure prediction by ZEFSAII (Michael W. Deem and Ramdas Pophale) SiO2 
 PCOD8096455
Probable space group: C 2/M
;
_chemical_formula_sum "Si O2"
_cell_formula_units_Z 32
_cell_length_a 14.281732
_cell_length_b 20.405811
_cell_length_c 15.103932
_cell_angle_alpha 90.000000
_cell_angle_beta 160.154293
_cell_angle_gamma 90.000000
_cell_volume 1494.340907
_symmetry_space_group_name_H-M "C 2/M"
_symmetry_group_IT_number 12
_symmetry_cell_setting 'monoclinic'
loop_
_space_group_symop_operation_xyz
x,y,z
-x,y,-z
-x,-y,-z
x,-y,z
1/2+x,1/2+y,z
1/2-x,1/2+y,-z
1/2-x,1/2-y,-z
1/2+x,1/2-y,z
loop_
_atom_site_type_symbol
_atom_site_label
_atom_site_fract_x
_atom_site_fract_y
_atom_site_fract_z
Si Si1 0.068118 0.427970 0.306330
Si Si2 0.409029 0.657955 0.176871
Si Si3 0.194371 0.227484 0.094131
Si Si4 0.315585 0.093389 0.258054
O O1 0.131868 0.500000 0.320117
O O2 0.348044 0.390692 0.580304
O O3 0.891361 0.444078 0.236369
O O4 0.879923 0.382183 0.076297
O O5 0.389074 0.714397 0.233324
O O6 0.464520 0.692236 0.130545
O O7 0.381505 0.170737 0.303650
O O8 0.000000 0.254682 0.000000
O O9 0.500000 0.064424 0.500000
O O10 0.000000 0.080005 0.000000
#
# Coordination Sequence:
#
# PCOD8096455 Si02
#       4
#     8   8   8   8
#     4  11  22  37  54  75 111 151 184 222 264 316
#     4  10  22  36  57  85 108 142 185 222 272 329
#     4   9  19  36  59  84 113 138 174 230 282 325
#     4  10  20  33  53  83 111 138 176 221 276 337
#
# _framework density 21.414124000000001
#
# number of rings (size 3 to 8) (size 9 to 14) (size 15 to 20)
#    0.000    2.000    0.000    5.250    0.000   14.000 
#    0.000    0.000    0.000    5.250    0.000    0.000 
#    0.000    0.000    0.000    0.000    0.000    0.000 
#
# Total GULP energy -198259.725050 kJ/mol
# GULP energy per Si atom -12391.232816 kJ/mol
# Density = 2.136538 g / cm^3
# Si number density = 21.414124 Si / 1000 Ang^3
#
#
#
# Elastic Constant Matrix: (Units=GPa)
#
#
# Indices 1 2 3 4 5 6 
#
# 1 75.8381 35.0143 10.2649 0.0012 6.4067 0.0012
# 2 35.0143 129.3360 39.0021 0.0001 13.7748 -0.0002
# 3 10.2649 39.0021 121.6633 -0.0002 14.1929 0.0000
# 4 0.0012 0.0001 -0.0002 14.4116 0.0010 9.9009
# 5 6.4067 13.7748 14.1929 0.0010 17.5100 0.0008
# 6 0.0012 -0.0002 0.0000 9.9009 0.0008 7.4428
#
#
#
# Elastic Compliance Matrix: (Units=1/GPa)
#
#
# Indices 1 2 3 4 5 6 
#
# 1 0.015180 -0.003908 0.000289 0.000006 -0.002714 -0.000010
# 2 -0.003908 0.009977 -0.002341 -0.000005 -0.004521 0.000007
# 3 0.000289 -0.002341 0.009656 0.000003 -0.006091 -0.000003
# 4 0.000006 -0.000005 0.000003 0.805963 0.000000 -1.072148
# 5 -0.002714 -0.004521 -0.006091 0.000000 0.066597 -0.000007
# 6 -0.000010 0.000007 -0.000003 -1.072148 -0.000007 1.560604
#
#
# Mechanical properties :
#
#
# Convention : Reuss Voigt Hill
#
# Bulk Modulus (GPa) = 43.68159 55.04444 49.36301
# Shear Modulus (GPa) = 2.01003 24.04329 13.02666
#
# Velocity S-wave (km/s) = 0.96989 3.35442 2.46909
# Velocity P-wave (km/s) = 4.65801 6.38462 5.58840
#
# Compressibility (1/GPa) = 0.02289294
#
# Stress axis : x y z
#
# Youngs Moduli (GPa) = 65.87459 100.22785 103.56113
#
# Poissons Ratio (x) = 0.39165 -0.02988
# Poissons Ratio (y) = 0.25741 0.24247
# Poissons Ratio (z) = -0.01901 0.23466
#
# Static dielectric constant tensor:
#      x y z
#    x 3.838090 -0.000010 -0.024250 
#    y -0.000010 4.001560 0.000000 
#    z -0.024250 0.000000 3.624630 
# 
# 
# High freq. dielectric constant tensor:
#      x y z
#    x 1.807140 0.000000 0.004490 
#    y 0.000000 1.854730 0.000000 
#    z 0.004490 0.000000 1.830230 
# 
# From -- ./inp_files/10490.got.cif
#   From: 2010.06.25/outbox.cif.g09.slc.cpg/sg12_6_cif.got.tgz:10490.got - 2010.06.28 00:19:55.
