data_PCOD8096641
_publ_section_title
;
Structure prediction by ZEFSAII (Michael W. Deem and Ramdas Pophale) SiO2 
 PCOD8096641
Probable space group: C 2/M
;
_chemical_formula_sum "Si O2"
_cell_formula_units_Z 48
_cell_length_a 14.808543
_cell_length_b 14.355463
_cell_length_c 12.955196
_cell_angle_alpha 90.000000
_cell_angle_beta 120.766681
_cell_angle_gamma 90.000000
_cell_volume 2366.447442
_symmetry_space_group_name_H-M "C 2/M"
_symmetry_group_IT_number 12
_symmetry_cell_setting 'monoclinic'
loop_
_space_group_symop_operation_xyz
x,y,z
-x,y,-z
-x,-y,-z
x,-y,z
1/2+x,1/2+y,z
1/2-x,1/2+y,-z
1/2-x,1/2-y,-z
1/2+x,1/2-y,z
loop_
_atom_site_type_symbol
_atom_site_label
_atom_site_fract_x
_atom_site_fract_y
_atom_site_fract_z
Si Si1 0.753081 0.611235 0.259918
Si Si2 0.936379 0.243870 0.859880
Si Si3 0.923777 0.898230 0.366976
Si Si4 0.611236 0.891134 0.462733
Si Si5 0.189844 0.399281 0.288007
Si Si6 0.069289 0.714458 0.738251
O O1 0.746347 0.500000 0.238734
O O2 0.634118 0.651390 0.202759
O O3 0.814780 0.639993 0.399977
O O4 0.817646 0.660391 0.202448
O O5 0.853514 0.328230 0.823421
O O6 0.017115 0.283736 0.820677
O O7 0.000000 0.224459 0.000000
O O8 0.812643 0.908252 0.354255
O O9 0.919006 0.824313 0.273175
O O10 0.000000 0.861296 0.500000
O O11 0.960163 0.000000 0.345246
O O12 0.670949 0.864373 0.393007
O O13 0.501205 0.835519 0.391890
O O14 0.583395 0.000000 0.455331
O O15 0.135938 0.500000 0.237624
#
# Coordination Sequence:
#
# PCOD8096641 Si02
#       6
#     8   8   8   8   8   8
#     4  11  23  41  64  93 126 161 200 248 309 370
#     4  11  26  43  62  85 120 163 215 259 300 348
#     4  10  20  33  56  92 128 155 189 240 308 379
#     4   9  19  35  61  93 123 153 191 243 305 374
#     4   9  19  38  61  88 120 155 198 247 302 364
#     4  11  22  38  65  89 123 157 203 249 309 365
#
# _framework density 20.283569
#
# number of rings (size 3 to 8) (size 9 to 14) (size 15 to 20)
#    0.000    1.833    1.667    2.000    2.333    5.333 
#    0.000    0.000    0.000    0.000    0.000    0.000 
#    0.000    0.000    0.000    0.000    0.000    0.000 
#
# Total GULP energy -297388.217496 kJ/mol
# GULP energy per Si atom -12391.175729 kJ/mol
# Density = 2.023740 g / cm^3
# Si number density = 20.283569 Si / 1000 Ang^3
#
#
#
# Elastic Constant Matrix: (Units=GPa)
#
#
# Indices 1 2 3 4 5 6 
#
# 1 65.5526 28.7649 33.8250 0.0000 4.8138 0.0000
# 2 28.7649 108.7602 36.4358 0.0000 1.5247 0.0000
# 3 33.8250 36.4358 87.6519 0.0000 7.5389 0.0000
# 4 0.0000 0.0000 0.0000 3.0110 0.0000 8.7439
# 5 4.8138 1.5247 7.5389 0.0000 16.8567 0.0000
# 6 0.0000 0.0000 0.0000 8.7439 0.0000 29.7875
#
#
#
# Elastic Compliance Matrix: (Units=1/GPa)
#
#
# Indices 1 2 3 4 5 6 
#
# 1 0.020039 -0.003194 -0.006176 0.000000 -0.002672 0.000000
# 2 -0.003194 0.011209 -0.003555 0.000000 0.001488 0.000000
# 3 -0.006176 -0.003555 0.015694 0.000000 -0.004934 0.000000
# 4 0.000000 0.000000 0.000000 2.250971 0.000000 -0.660757
# 5 -0.002672 0.001488 -0.004934 0.000000 0.062158 0.000000
# 6 0.000000 0.000000 0.000000 -0.660757 0.000000 0.227532
#
#
# Mechanical properties :
#
#
# Convention : Reuss Voigt Hill
#
# Bulk Modulus (GPa) = 47.40769 51.11288 49.26029
# Shear Modulus (GPa) = 1.90804 20.79365 11.35085
#
# Velocity S-wave (km/s) = 0.97094 3.20527 2.36817
# Velocity P-wave (km/s) = 4.96791 6.24117 5.64058
#
# Compressibility (1/GPa) = 0.02109362
#
# Stress axis : x y z
#
# Youngs Moduli (GPa) = 49.90226 89.21149 63.71771
#
# Poissons Ratio (x) = 0.28490 0.39351
# Poissons Ratio (y) = 0.15936 0.22653
# Poissons Ratio (z) = 0.30819 0.31716
#
# Static dielectric constant tensor:
#      x y z
#    x 4.036500 0.000000 0.014510 
#    y 0.000000 4.107970 0.000000 
#    z 0.014510 0.000000 3.342100 
# 
# 
# High freq. dielectric constant tensor:
#      x y z
#    x 1.802650 0.000000 0.006980 
#    y 0.000000 1.809220 0.000000 
#    z 0.006980 0.000000 1.745550 
# 
# From -- ./inp_files/143873.got.cif
#   From: 2010.06.25/outbox.cif.g09.slc.cpg/sg12_72_cif.got.tgz:143873.got - 2010.06.28 00:19:55.
