data_PCOD8096237
_publ_section_title
;
Structure prediction by ZEFSAII (Michael W. Deem and Ramdas Pophale) SiO2 
 PCOD8096237
Probable space group: C 2/M
;
_chemical_formula_sum "Si O2"
_cell_formula_units_Z 64
_cell_length_a 18.367317
_cell_length_b 8.929157
_cell_length_c 20.310789
_cell_angle_alpha 90.000000
_cell_angle_beta 90.850737
_cell_angle_gamma 90.000000
_cell_volume 3330.696797
_symmetry_space_group_name_H-M "C 2/M"
_symmetry_group_IT_number 12
_symmetry_cell_setting 'monoclinic'
loop_
_space_group_symop_operation_xyz
x,y,z
-x,y,-z
-x,-y,-z
x,-y,z
1/2+x,1/2+y,z
1/2-x,1/2+y,-z
1/2-x,1/2-y,-z
1/2+x,1/2-y,z
loop_
_atom_site_type_symbol
_atom_site_label
_atom_site_fract_x
_atom_site_fract_y
_atom_site_fract_z
Si Si1 0.678155 0.325827 0.737610
Si Si2 0.671329 0.176658 0.494860
Si Si3 0.674582 0.674759 0.111385
Si Si4 0.415581 0.327061 0.010821
Si Si5 0.916973 0.173273 0.619270
Si Si6 0.084775 0.173287 0.609135
Si Si7 0.672654 0.325497 0.256629
Si Si8 0.160063 0.324879 0.872710
O O1 0.688629 0.500000 0.751524
O O2 0.620645 0.294323 0.679610
O O3 0.755523 0.258285 0.716640
O O4 0.645842 0.250032 0.802209
O O5 0.750000 0.250000 0.500000
O O6 0.632643 0.224688 0.427202
O O7 0.621942 0.224640 0.555201
O O8 0.681476 0.000000 0.495474
O O9 0.658713 0.500000 0.109224
O O10 0.650678 0.735116 0.183476
O O11 0.758959 0.713369 0.100590
O O12 0.627284 0.746823 0.051912
O O13 0.393807 0.500000 0.020656
O O14 0.397140 0.238289 0.076400
O O15 0.500000 0.306759 0.000000
O O16 0.893726 0.202836 0.694540
O O17 0.000550 0.219557 0.612405
O O18 0.904739 0.000000 0.600034
O O19 0.093612 0.000000 0.588792
O O20 0.693637 0.500000 0.251836
O O21 0.148237 0.500000 0.864075
#
# Coordination Sequence:
#
# PCOD8096237 Si02
#       8
#     8   8   8   8   8   8   8   8
#     4  10  20  35  57  83 109 139 180 227 270 318
#     4  12  25  40  60  84 112 148 190 234 276 323
#     4   8  16  32  53  77 104 136 176 219 264 316
#     4  10  20  33  52  78 107 138 175 223 274 325
#     4  10  21  38  60  85 116 150 181 221 276 334
#     4  10  22  39  59  85 116 148 182 225 279 335
#     4   9  18  34  56  80 107 142 181 220 268 325
#     4  10  20  35  55  76 104 142 181 222 267 321
#
# _framework density 19.215198999999998
#
# number of rings (size 3 to 8) (size 9 to 14) (size 15 to 20)
#    0.000    2.125    0.000    4.125    0.000    6.750 
#    0.000    6.250    0.000    3.000    0.000    0.000 
#    0.000    0.000    0.000    0.000    0.000    0.000 
#
# Total GULP energy -396862.129304 kJ/mol
# GULP energy per Si atom -12401.941541 kJ/mol
# Density = 1.917146 g / cm^3
# Si number density = 19.215199 Si / 1000 Ang^3
#
#
#
# Elastic Constant Matrix: (Units=GPa)
#
#
# Indices 1 2 3 4 5 6 
#
# 1 87.2717 34.1831 47.8283 0.0000 -17.6729 0.0000
# 2 34.1831 74.3489 46.0812 0.0000 -14.6018 0.0000
# 3 47.8283 46.0812 108.6051 0.0000 -17.4923 0.0000
# 4 0.0000 0.0000 0.0000 23.9464 0.0000 -2.4725
# 5 -17.6729 -14.6018 -17.4923 0.0000 29.7041 0.0000
# 6 0.0000 0.0000 0.0000 -2.4725 0.0000 25.5576
#
#
#
# Elastic Compliance Matrix: (Units=1/GPa)
#
#
# Indices 1 2 3 4 5 6 
#
# 1 0.016631 -0.003531 -0.004985 0.000000 0.005224 0.000000
# 2 -0.003531 0.019661 -0.006152 0.000000 0.003941 0.000000
# 3 -0.004985 -0.006152 0.014416 0.000000 0.002499 0.000000
# 4 0.000000 0.000000 0.000000 0.042181 0.000000 0.004081
# 5 0.005224 0.003941 0.002499 0.000000 0.040182 0.000000
# 6 0.000000 0.000000 0.000000 0.004081 0.000000 0.039522
#
#
# Mechanical properties :
#
#
# Convention : Reuss Voigt Hill
#
# Bulk Modulus (GPa) = 46.79063 58.49008 52.64035
# Shear Modulus (GPa) = 23.91738 25.31716 24.61727
#
# Velocity S-wave (km/s) = 3.53187 3.63376 3.58318
# Velocity P-wave (km/s) = 6.40593 6.93622 6.67634
#
# Compressibility (1/GPa) = 0.02137180
#
# Stress axis : x y z
#
# Youngs Moduli (GPa) = 60.12829 50.86295 69.36868
#
# Poissons Ratio (x) = 0.17960 0.34577
# Poissons Ratio (y) = 0.21232 0.42677
# Poissons Ratio (z) = 0.29971 0.31292
#
# Static dielectric constant tensor:
#      x y z
#    x 3.510100 0.000000 0.015510 
#    y 0.000000 3.407790 0.000000 
#    z 0.015510 0.000000 3.763520 
# 
# 
# High freq. dielectric constant tensor:
#      x y z
#    x 1.746200 0.000000 -0.002540 
#    y 0.000000 1.732810 0.000000 
#    z -0.002540 0.000000 1.764100 
# 
# From -- ./inp_files/314102.got.cif
#   From: 2010.06.25/outbox.cif.g09.slc.cpg/sg12_158_cif.got.tgz:314102.got - 2010.06.28 00:19:55.
