data_PCOD8096796
_publ_section_title
;
Structure prediction by ZEFSAII (Michael W. Deem and Ramdas Pophale) SiO2 
 PCOD8096796
Probable space group: C 2/M
;
_chemical_formula_sum "Si O2"
_cell_formula_units_Z 64
_cell_length_a 26.168969
_cell_length_b 13.492959
_cell_length_c 15.213037
_cell_angle_alpha 90.000000
_cell_angle_beta 138.256275
_cell_angle_gamma 90.000000
_cell_volume 3576.461019
_symmetry_space_group_name_H-M "C 2/M"
_symmetry_group_IT_number 12
_symmetry_cell_setting 'monoclinic'
loop_
_space_group_symop_operation_xyz
x,y,z
-x,y,-z
-x,-y,-z
x,-y,z
1/2+x,1/2+y,z
1/2-x,1/2+y,-z
1/2-x,1/2-y,-z
1/2+x,1/2-y,z
loop_
_atom_site_type_symbol
_atom_site_label
_atom_site_fract_x
_atom_site_fract_y
_atom_site_fract_z
Si Si1 0.333650 0.196457 0.708769
Si Si2 0.153162 0.707783 0.078279
Si Si3 0.324056 0.116356 0.070044
Si Si4 0.511136 0.110220 0.681904
Si Si5 0.355358 0.883187 0.424899
Si Si6 0.263014 0.385192 0.872439
Si Si7 0.244679 0.885823 0.438400
Si Si8 0.508497 0.888277 0.143545
O O1 0.307813 0.185021 0.777587
O O2 0.279488 0.125810 0.580694
O O3 0.327062 0.311113 0.667341
O O4 0.421356 0.162658 0.816066
O O5 0.163660 0.824377 0.068026
O O6 0.197344 0.650854 0.055824
O O7 0.064551 0.680193 0.969044
O O8 0.405659 0.164855 0.208046
O O9 0.255712 0.141724 0.049950
O O10 0.338583 0.000000 0.083225
O O11 0.442658 0.162911 0.537186
O O12 0.474500 0.105972 0.731856
O O13 0.525250 0.000000 0.662275
O O14 0.312434 0.854344 0.280134
O O15 0.307063 0.848327 0.447455
O O16 0.365573 0.000000 0.446024
O O17 0.283256 0.500000 0.885708
O O18 0.218853 0.000000 0.390750
O O19 0.494895 0.000000 0.089555
#
# Coordination Sequence:
#
# PCOD8096796 Si02
#       8
#     8   8   8   8   8   8   8   8
#     4  11  21  32  53  78 100 136 172 200 254 308
#     4  11  21  33  50  74 101 133 174 212 250 300
#     4   9  19  33  49  73 102 131 166 213 258 301
#     4   8  14  27  48  72  98 125 155 196 249 298
#     4   9  15  28  50  69  94 130 162 203 251 298
#     4  10  20  34  51  70  98 137 175 211 257 301
#     4  10  20  34  51  74 104 134 167 209 251 301
#     4  10  20  34  51  74 105 134 161 203 255 306
#
# _framework density 17.894784999999999
#
# number of rings (size 3 to 8) (size 9 to 14) (size 15 to 20)
#    0.000    2.250    2.500    2.250    0.000    3.000 
#    0.000    3.125    0.000    1.500    0.000    0.000 
#    0.000    0.000    0.000   25.125    0.000    0.750 
#
# Total GULP energy -396477.378534 kJ/mol
# GULP energy per Si atom -12389.918079 kJ/mol
# Density = 1.785406 g / cm^3
# Si number density = 17.894785 Si / 1000 Ang^3
#
#
#
# Elastic Constant Matrix: (Units=GPa)
#
#
# Indices 1 2 3 4 5 6 
#
# 1 83.1431 40.1408 38.5004 0.0000 -9.7537 0.0000
# 2 40.1408 69.1264 36.0977 0.0000 4.6879 0.0000
# 3 38.5004 36.0977 79.8226 0.0000 -10.7393 0.0000
# 4 0.0000 0.0000 0.0000 20.5003 0.0000 2.5439
# 5 -9.7537 4.6879 -10.7393 0.0000 26.2093 0.0000
# 6 0.0000 0.0000 0.0000 2.5439 0.0000 25.4365
#
#
#
# Elastic Compliance Matrix: (Units=1/GPa)
#
#
# Indices 1 2 3 4 5 6 
#
# 1 0.019411 -0.009678 -0.004002 0.000000 0.007315 0.000000
# 2 -0.009678 0.025182 -0.008266 0.000000 -0.011493 0.000000
# 3 -0.004002 -0.008266 0.019256 0.000000 0.007880 0.000000
# 4 0.000000 0.000000 0.000000 0.049393 0.000000 -0.004940
# 5 0.007315 -0.011493 0.007880 0.000000 0.046161 0.000000
# 6 0.000000 0.000000 0.000000 -0.004940 0.000000 0.039808
#
#
# Mechanical properties :
#
#
# Convention : Reuss Voigt Hill
#
# Bulk Modulus (GPa) = 50.10654 51.28556 50.69605
# Shear Modulus (GPa) = 20.01953 22.25276 21.13614
#
# Velocity S-wave (km/s) = 3.34838 3.53020 3.44049
# Velocity P-wave (km/s) = 6.55822 6.73336 6.64637
#
# Compressibility (1/GPa) = 0.01995748
#
# Stress axis : x y z
#
# Youngs Moduli (GPa) = 51.51668 39.71024 51.93147
#
# Poissons Ratio (x) = 0.38433 0.20780
# Poissons Ratio (y) = 0.49860 0.42928
# Poissons Ratio (z) = 0.20614 0.32826
#
# Static dielectric constant tensor:
#      x y z
#    x 3.356520 0.000000 -0.139480 
#    y 0.000000 3.135570 0.000000 
#    z -0.139480 0.000000 3.423640 
# 
# 
# High freq. dielectric constant tensor:
#      x y z
#    x 1.690640 0.000000 -0.018960 
#    y 0.000000 1.655580 0.000000 
#    z -0.018960 0.000000 1.689370 
# 
# From -- ./inp_files/225732.got.cif
#   From: 2010.06.25/outbox.cif.g09.slc.cpg/sg12_113_cif.got.tgz:225732.got - 2010.06.28 00:19:55.
