data_PCOD8096220
_publ_section_title
;
Structure prediction by ZEFSAII (Michael W. Deem and Ramdas Pophale) SiO2 
 PCOD8096220
Probable space group: C 2/M
;
_chemical_formula_sum "Si O2"
_cell_formula_units_Z 40
_cell_length_a 19.092897
_cell_length_b 8.991697
_cell_length_c 26.549252
_cell_angle_alpha 90.000000
_cell_angle_beta 151.324969
_cell_angle_gamma 90.000000
_cell_volume 2187.073191
_symmetry_space_group_name_H-M "C 2/M"
_symmetry_group_IT_number 12
_symmetry_cell_setting 'monoclinic'
loop_
_space_group_symop_operation_xyz
x,y,z
-x,y,-z
-x,-y,-z
x,-y,z
1/2+x,1/2+y,z
1/2-x,1/2+y,-z
1/2-x,1/2-y,-z
1/2+x,1/2-y,z
loop_
_atom_site_type_symbol
_atom_site_label
_atom_site_fract_x
_atom_site_fract_y
_atom_site_fract_z
Si Si1 0.256128 0.827378 0.790379
Si Si2 0.658919 0.824669 0.826714
Si Si3 0.963522 0.827045 0.067030
Si Si4 0.440300 0.673737 0.761406
Si Si5 0.659718 0.327844 0.617908
O O1 0.163458 0.742330 0.773867
O O2 0.420503 0.765005 0.892376
O O3 0.174184 0.797174 0.686325
O O4 0.263705 0.000000 0.808802
O O5 0.519017 0.758861 0.766154
O O6 0.641664 0.000000 0.812165
O O7 0.803486 0.778323 0.948613
O O8 0.977332 0.787930 0.134573
O O9 0.994358 0.000000 0.076186
O O10 0.441961 0.500000 0.750759
O O11 0.274199 0.729468 0.659098
O O12 0.500000 0.277317 0.500000
O O13 0.689480 0.500000 0.624136
#
# Coordination Sequence:
#
# PCOD8096220 Si02
#       5
#     8   8   8   8   8
#     4  10  20  33  52  78 104 132 170 212 252 298
#     4  11  21  33  50  74 108 143 171 203 248 299
#     4   9  19  34  51  73 104 142 175 204 244 297
#     4  10  20  34  53  78 105 132 170 214 252 295
#     4   9  19  38  60  77  97 129 168 210 258 310
#
# _framework density 18.289283999999999
#
# number of rings (size 3 to 8) (size 9 to 14) (size 15 to 20)
#    0.000    2.200    0.000    3.000    0.000    6.000 
#    0.000    1.000    0.000    0.000    0.000    0.000 
#    0.000    0.000    0.000    0.000    0.000    0.000 
#
# Total GULP energy -248112.883116 kJ/mol
# GULP energy per Si atom -12405.644156 kJ/mol
# Density = 1.824766 g / cm^3
# Si number density = 18.289284 Si / 1000 Ang^3
#
#
#
# Elastic Constant Matrix: (Units=GPa)
#
#
# Indices 1 2 3 4 5 6 
#
# 1 142.4594 68.4335 49.7597 0.0000 20.2103 0.0000
# 2 68.4335 88.3049 44.1551 -0.0001 10.8710 0.0000
# 3 49.7597 44.1551 102.7770 0.0015 14.6270 0.0001
# 4 0.0000 -0.0001 0.0015 26.1329 -0.0002 4.8763
# 5 20.2103 10.8710 14.6270 -0.0002 14.6349 0.0000
# 6 0.0000 0.0000 0.0001 4.8763 0.0000 39.3589
#
#
#
# Elastic Compliance Matrix: (Units=1/GPa)
#
#
# Indices 1 2 3 4 5 6 
#
# 1 0.012781 -0.007983 -0.001271 0.000000 -0.010450 0.000000
# 2 -0.007983 0.019766 -0.004787 0.000000 0.001126 0.000000
# 3 -0.001271 -0.004787 0.013577 -0.000001 -0.008258 0.000000
# 4 0.000000 0.000000 -0.000001 0.039172 0.000001 -0.004853
# 5 -0.010450 0.001126 -0.008258 0.000001 0.090178 0.000000
# 6 0.000000 0.000000 0.000000 -0.004853 0.000000 0.026008
#
#
# Mechanical properties :
#
#
# Convention : Reuss Voigt Hill
#
# Bulk Modulus (GPa) = 55.42699 73.13755 64.28227
# Shear Modulus (GPa) = 21.22446 27.43820 24.33133
#
# Velocity S-wave (km/s) = 3.41029 3.87749 3.65137
# Velocity P-wave (km/s) = 6.77335 7.75388 7.28014
#
# Compressibility (1/GPa) = 0.01804175
#
# Stress axis : x y z
#
# Youngs Moduli (GPa) = 78.24382 50.59256 73.65260
#
# Poissons Ratio (x) = 0.40386 0.09362
# Poissons Ratio (y) = 0.62458 0.35260
# Poissons Ratio (z) = 0.09946 0.24220
#
# Static dielectric constant tensor:
#      x y z
#    x 3.367020 0.000000 -0.016910 
#    y 0.000000 3.400600 0.000000 
#    z -0.016910 0.000000 3.268700 
# 
# 
# High freq. dielectric constant tensor:
#      x y z
#    x 1.712850 0.000000 0.003210 
#    y 0.000000 1.717550 0.000000 
#    z 0.003210 0.000000 1.692850 
# 
# From -- ./inp_files/151700.got.cif
#   From: 2010.06.25/outbox.cif.g09.slc.cpg/sg12_76_cif.got.tgz:151700.got - 2010.06.28 00:19:55.
