data_PCOD8096208
_publ_section_title
;
Structure prediction by ZEFSAII (Michael W. Deem and Ramdas Pophale) SiO2 
 PCOD8096208
Probable space group: C 2/M
;
_chemical_formula_sum "Si O2"
_cell_formula_units_Z 48
_cell_length_a 14.005378
_cell_length_b 9.457164
_cell_length_c 20.766577
_cell_angle_alpha 90.000000
_cell_angle_beta 89.052263
_cell_angle_gamma 90.000000
_cell_volume 2750.180863
_symmetry_space_group_name_H-M "C 2/M"
_symmetry_group_IT_number 12
_symmetry_cell_setting 'monoclinic'
loop_
_space_group_symop_operation_xyz
x,y,z
-x,y,-z
-x,-y,-z
x,-y,z
1/2+x,1/2+y,z
1/2-x,1/2+y,-z
1/2-x,1/2-y,-z
1/2+x,1/2-y,z
loop_
_atom_site_type_symbol
_atom_site_label
_atom_site_fract_x
_atom_site_fract_y
_atom_site_fract_z
Si Si1 0.589991 0.337596 0.668090
Si Si2 0.739921 0.335717 0.098392
Si Si3 0.101625 0.663823 0.330751
Si Si4 0.607774 0.837116 0.012438
Si Si5 0.742049 0.662099 0.774834
Si Si6 0.752046 0.165711 0.434425
O O1 0.559585 0.500000 0.664434
O O2 0.495843 0.246622 0.671578
O O3 0.650714 0.309062 0.731424
O O4 0.651446 0.295730 0.604800
O O5 0.715228 0.500000 0.107314
O O6 0.831889 0.312305 0.052721
O O7 0.765038 0.268862 0.166275
O O8 0.647703 0.258988 0.069495
O O9 0.076837 0.500000 0.336327
O O10 0.161867 0.694246 0.265787
O O11 0.161488 0.711840 0.392542
O O12 0.612524 0.000000 0.034779
O O13 0.500000 0.789185 0.000000
O O14 0.742105 0.500000 0.799246
O O15 0.750000 0.250000 0.500000
O O16 0.748085 0.000000 0.449345
#
# Coordination Sequence:
#
# PCOD8096208 Si02
#       6
#     8   8   8   8   8   8
#     4   9  19  35  53  74 101 132 167 207 249 293
#     4  10  20  33  52  78 102 127 166 210 246 288
#     4   9  19  35  53  73  99 132 168 204 246 298
#     4   9  19  36  54  72 100 136 167 199 246 299
#     4   9  19  36  53  70 100 137 165 198 249 301
#     4   9  19  35  52  73 102 134 167 204 249 298
#
# _framework density 17.453396999999999
#
# number of rings (size 3 to 8) (size 9 to 14) (size 15 to 20)
#    0.000    2.833    0.000    2.500    0.000    5.667 
#    0.000   11.667    0.000    0.000    0.000    0.000 
#    0.000    0.000    0.000    0.000    0.000    0.000 
#
# Total GULP energy -297623.164490 kJ/mol
# GULP energy per Si atom -12400.965187 kJ/mol
# Density = 1.741367 g / cm^3
# Si number density = 17.453397 Si / 1000 Ang^3
#
#
#
# Elastic Constant Matrix: (Units=GPa)
#
#
# Indices 1 2 3 4 5 6 
#
# 1 129.0079 56.4662 37.0884 0.0000 1.9512 0.0000
# 2 56.4662 82.0031 58.9946 0.0000 2.0090 0.0000
# 3 37.0884 58.9946 105.8848 0.0000 4.1925 0.0000
# 4 0.0000 0.0000 0.0000 39.6320 0.0000 2.0476
# 5 1.9512 2.0090 4.1925 0.0000 11.1486 0.0000
# 6 0.0000 0.0000 0.0000 2.0476 0.0000 35.5765
#
#
#
# Elastic Compliance Matrix: (Units=1/GPa)
#
#
# Indices 1 2 3 4 5 6 
#
# 1 0.011126 -0.008112 0.000651 0.000000 -0.000730 0.000000
# 2 -0.008112 0.026271 -0.011841 0.000000 0.001138 0.000000
# 3 0.000651 -0.011841 0.015971 0.000000 -0.003986 0.000000
# 4 0.000000 0.000000 0.000000 0.025307 0.000000 -0.001457
# 5 -0.000730 0.001138 -0.003986 0.000000 0.091119 0.000000
# 6 0.000000 0.000000 0.000000 -0.001457 0.000000 0.028192
#
#
# Mechanical properties :
#
#
# Convention : Reuss Voigt Hill
#
# Bulk Modulus (GPa) = 67.72572 69.11044 68.41808
# Shear Modulus (GPa) = 20.70301 28.22786 24.46543
#
# Velocity S-wave (km/s) = 3.44784 4.02596 3.74807
# Velocity P-wave (km/s) = 7.39852 7.82907 7.61684
#
# Compressibility (1/GPa) = 0.01476544
#
# Stress axis : x y z
#
# Youngs Moduli (GPa) = 89.88183 38.06487 62.61316
#
# Poissons Ratio (x) = 0.30877 -0.04079
# Poissons Ratio (y) = 0.72910 0.74139
# Poissons Ratio (z) = -0.05855 0.45072
#
# Static dielectric constant tensor:
#      x y z
#    x 3.236340 0.000000 0.016970 
#    y 0.000000 3.198440 0.000000 
#    z 0.016970 0.000000 3.203010 
# 
# 
# High freq. dielectric constant tensor:
#      x y z
#    x 1.677370 0.000000 0.001790 
#    y 0.000000 1.674960 0.000000 
#    z 0.001790 0.000000 1.676150 
# 
# From -- ./inp_files/307991.got.cif
#   From: 2010.06.25/outbox.cif.g09.slc.cpg/sg12_154_cif.got.tgz:307991.got - 2010.06.28 00:19:55.
