data_PCOD8096462
_publ_section_title
;
Structure prediction by ZEFSAII (Michael W. Deem and Ramdas Pophale) SiO2 
 PCOD8096462
Probable space group: C 2/M
;
_chemical_formula_sum "Si O2"
_cell_formula_units_Z 64
_cell_length_a 17.860690
_cell_length_b 24.083145
_cell_length_c 14.634578
_cell_angle_alpha 90.000000
_cell_angle_beta 27.216418
_cell_angle_gamma 90.000000
_cell_volume 2879.008517
_symmetry_space_group_name_H-M "C 2/M"
_symmetry_group_IT_number 12
_symmetry_cell_setting 'monoclinic'
loop_
_space_group_symop_operation_xyz
x,y,z
-x,y,-z
-x,-y,-z
x,-y,z
1/2+x,1/2+y,z
1/2-x,1/2+y,-z
1/2-x,1/2-y,-z
1/2+x,1/2-y,z
loop_
_atom_site_type_symbol
_atom_site_label
_atom_site_fract_x
_atom_site_fract_y
_atom_site_fract_z
Si Si1 0.911462 0.065860 0.687206
Si Si2 0.038498 0.669265 0.250842
Si Si3 0.940499 0.437324 0.972887
Si Si4 0.843786 0.830235 0.027967
Si Si5 0.995960 0.935407 0.212205
Si Si6 0.847160 0.731161 0.612165
Si Si7 0.622308 0.060647 0.597897
Si Si8 0.383052 0.761411 0.279732
O O1 0.000000 0.089954 0.500000
O O2 0.992463 0.085554 0.694840
O O3 0.920994 0.000000 0.675817
O O4 0.724760 0.089488 0.890169
O O5 0.228465 0.681561 0.064865
O O6 0.920180 0.703088 0.444302
O O7 0.997705 0.605156 0.317614
O O8 0.993945 0.686101 0.193458
O O9 0.889045 0.500000 0.056047
O O10 0.091330 0.437371 0.739945
O O11 0.000000 0.405813 0.000000
O O12 0.737945 0.815861 0.232755
O O13 0.894408 0.895363 0.971242
O O14 0.003738 0.792747 0.849802
O O15 0.812052 0.926930 0.376413
O O16 0.051653 0.000000 0.141244
O O17 0.706407 0.772274 0.722370
O O18 0.000000 0.760917 0.500000
O O19 0.574946 0.000000 0.609843
O O20 0.250000 0.750000 0.500000
#
# Coordination Sequence:
#
# PCOD8096462 Si02
#       8
#     8   8   8   8   8   8   8   8
#     4   9  16  27  45  70 101 139 185 235 284 336
#     4  10  21  38  61  89 117 153 200 244 293 354
#     4   9  16  27  44  65  93 134 179 224 278 335
#     4  11  21  37  62  89 122 158 194 242 301 356
#     4  10  20  33  53  83 117 159 206 246 291 351
#     4   9  20  38  62  90 119 154 193 240 301 360
#     4  10  20  35  55  80 115 156 197 241 290 346
#     4  10  20  37  62  87 115 150 193 242 295 353
#
# _framework density 22.229875
#
# number of rings (size 3 to 8) (size 9 to 14) (size 15 to 20)
#    0.000    2.250    0.000    3.750    0.000    4.500 
#    0.000    1.875    0.000   27.000    0.000    0.000 
#    0.000    0.000    0.000    0.000    0.000    0.000 
#
# Total GULP energy -396423.375869 kJ/mol
# GULP energy per Si atom -12388.230496 kJ/mol
# Density = 2.217928 g / cm^3
# Si number density = 22.229875 Si / 1000 Ang^3
#
#
#
# Elastic Constant Matrix: (Units=GPa)
#
#
# Indices 1 2 3 4 5 6 
#
# 1 127.1181 30.0568 22.2608 -0.0055 -31.6628 0.0263
# 2 30.0568 62.2553 12.3961 -0.0051 -18.5201 0.0288
# 3 22.2608 12.3961 76.1542 0.0585 -20.8308 0.0099
# 4 -0.0055 -0.0051 0.0585 23.7579 -0.0049 -3.0275
# 5 -31.6628 -18.5201 -20.8308 -0.0049 28.6624 -0.0273
# 6 0.0263 0.0288 0.0099 -3.0275 -0.0273 21.9577
#
#
#
# Elastic Compliance Matrix: (Units=1/GPa)
#
#
# Indices 1 2 3 4 5 6 
#
# 1 0.011074 -0.002111 0.000099 0.000005 0.010941 0.000004
# 2 -0.002111 0.020295 0.000328 0.000004 0.011019 -0.000010
# 3 0.000099 0.000328 0.016396 -0.000037 0.012238 0.000002
# 4 0.000005 0.000004 -0.000037 0.042844 -0.000007 0.005907
# 5 0.010941 0.011019 0.012238 -0.000007 0.062989 0.000044
# 6 0.000004 -0.000010 0.000002 0.005907 0.000044 0.046357
#
#
# Mechanical properties :
#
#
# Convention : Reuss Voigt Hill
#
# Bulk Modulus (GPa) = 22.52412 43.88390 33.20401
# Shear Modulus (GPa) = 22.92287 28.26319 25.59303
#
# Velocity S-wave (km/s) = 3.21467 3.56955 3.39675
# Velocity P-wave (km/s) = 4.89216 6.06405 5.50935
#
# Compressibility (1/GPa) = 0.04439684
#
# Stress axis : x y z
#
# Youngs Moduli (GPa) = 90.30394 49.27291 60.98910
#
# Poissons Ratio (x) = 0.10404 -0.00606
# Poissons Ratio (y) = 0.19067 -0.01999
# Poissons Ratio (z) = -0.00898 -0.01615
#
# Static dielectric constant tensor:
#      x y z
#    x 4.482700 -0.000090 -0.285730 
#    y -0.000090 3.866130 0.000170 
#    z -0.285730 0.000170 4.046210 
# 
# 
# High freq. dielectric constant tensor:
#      x y z
#    x 1.874380 -0.000020 -0.021040 
#    y -0.000020 1.839480 0.000030 
#    z -0.021040 0.000030 1.876540 
# 
# From -- ./inp_files/228109.got.cif
#   From: 2010.06.25/outbox.cif.g09.slc.cpg/sg12_115_cif.got.tgz:228109.got - 2010.06.28 00:19:55.
