data_PCOD8096996
_publ_section_title
;
Structure prediction by ZEFSAII (Michael W. Deem and Ramdas Pophale) SiO2 
 PCOD8096996
Probable space group: C 2/M
;
_chemical_formula_sum "Si O2"
_cell_formula_units_Z 56
_cell_length_a 18.576438
_cell_length_b 8.935288
_cell_length_c 29.352446
_cell_angle_alpha 90.000000
_cell_angle_beta 142.323490
_cell_angle_gamma 90.000000
_cell_volume 2977.834051
_symmetry_space_group_name_H-M "C 2/M"
_symmetry_group_IT_number 12
_symmetry_cell_setting 'monoclinic'
loop_
_space_group_symop_operation_xyz
x,y,z
-x,y,-z
-x,-y,-z
x,-y,z
1/2+x,1/2+y,z
1/2-x,1/2+y,-z
1/2-x,1/2-y,-z
1/2+x,1/2-y,z
loop_
_atom_site_type_symbol
_atom_site_label
_atom_site_fract_x
_atom_site_fract_y
_atom_site_fract_z
Si Si1 0.459444 0.670558 0.432833
Si Si2 0.909778 0.677648 0.993088
Si Si3 0.763449 0.178892 0.269060
Si Si4 0.002570 0.677809 0.865596
Si Si5 0.126675 0.171396 0.432798
Si Si6 0.073664 0.327189 0.719675
Si Si7 0.662136 0.172518 0.863189
O O1 0.500000 0.753293 0.500000
O O2 0.429458 0.500000 0.429942
O O3 0.340671 0.738937 0.350739
O O4 0.565207 0.684345 0.450650
O O5 0.907349 0.500000 0.991778
O O6 0.780906 0.735415 0.917082
O O7 0.950333 0.739466 0.062619
O O8 0.000000 0.737705 0.000000
O O9 0.630391 0.235785 0.208845
O O10 0.815897 0.246798 0.248972
O O11 0.773263 0.000000 0.269481
O O12 0.001477 0.500000 0.864638
O O13 0.086390 0.738415 0.867393
O O14 0.250000 0.250000 0.500000
O O15 0.049865 0.252954 0.355857
O O16 0.143524 0.000000 0.426404
O O17 0.072606 0.500000 0.704516
O O18 0.084700 0.308181 0.779268
O O19 0.694871 0.000000 0.888257
#
# Coordination Sequence:
#
# PCOD8096996 Si02
#       7
#     8   8   8   8   8   8   8
#     4   8  15  28  49  76  99 125 166 208 245 291
#     4  10  20  34  54  77 100 131 170 211 257 308
#     4   9  17  32  54  74  97 132 170 210 253 300
#     4   9  18  33  52  75 102 132 170 212 254 304
#     4  10  20  34  54  78 104 135 170 210 255 301
#     4  10  20  34  52  74 102 135 171 209 249 300
#     4  10  21  35  52  76 104 135 170 209 253 300
#
# _framework density 18.805615
#
# number of rings (size 3 to 8) (size 9 to 14) (size 15 to 20)
#    0.000    2.571    0.000    3.000    0.000    3.714 
#    0.000    5.714    0.000   14.143    0.000    0.000 
#    0.000    0.000    0.000    0.000    0.000    0.000 
#
# Total GULP energy -347170.766883 kJ/mol
# GULP energy per Si atom -12398.955960 kJ/mol
# Density = 1.876281 g / cm^3
# Si number density = 18.805615 Si / 1000 Ang^3
#
#
#
# Elastic Constant Matrix: (Units=GPa)
#
#
# Indices 1 2 3 4 5 6 
#
# 1 120.3275 30.9446 70.7035 0.0000 2.5754 0.0000
# 2 30.9446 48.9149 36.3602 0.0000 3.1667 0.0001
# 3 70.7035 36.3602 129.6621 0.0000 3.4319 0.0000
# 4 0.0000 0.0000 0.0000 26.8703 0.0000 3.6205
# 5 2.5754 3.1667 3.4319 0.0000 42.7802 0.0000
# 6 0.0000 0.0001 0.0000 3.6205 0.0000 21.3375
#
#
#
# Elastic Compliance Matrix: (Units=1/GPa)
#
#
# Indices 1 2 3 4 5 6 
#
# 1 0.012726 -0.003653 -0.005914 0.000000 -0.000021 0.000000
# 2 -0.003653 0.026952 -0.005531 0.000000 -0.001331 0.000000
# 3 -0.005914 -0.005531 0.012495 0.000000 -0.000237 0.000000
# 4 0.000000 0.000000 0.000000 0.038087 0.000000 -0.006462
# 5 -0.000021 -0.001331 -0.000237 0.000000 0.023494 0.000000
# 6 0.000000 0.000000 0.000000 -0.006462 0.000000 0.047962
#
#
# Mechanical properties :
#
#
# Convention : Reuss Voigt Hill
#
# Bulk Modulus (GPa) = 45.50352 63.88010 54.69181
# Shear Modulus (GPa) = 25.09578 28.92404 27.00991
#
# Velocity S-wave (km/s) = 3.65702 3.92606 3.79392
# Velocity P-wave (km/s) = 6.48699 7.38879 6.95253
#
# Compressibility (1/GPa) = 0.02197632
#
# Stress axis : x y z
#
# Youngs Moduli (GPa) = 78.58115 37.10298 80.03453
#
# Poissons Ratio (x) = 0.13553 0.47335
# Poissons Ratio (y) = 0.28705 0.44266
# Poissons Ratio (z) = 0.46475 0.20521
#
# Static dielectric constant tensor:
#      x y z
#    x 3.579670 0.000000 -0.099860 
#    y 0.000000 3.197290 0.000000 
#    z -0.099860 0.000000 3.698780 
# 
# 
# High freq. dielectric constant tensor:
#      x y z
#    x 1.730410 0.000000 -0.001010 
#    y 0.000000 1.698380 0.000000 
#    z -0.001010 0.000000 1.747450 
# 
# From -- ./inp_files/363195.got.cif
#   From: 2010.06.25/outbox.cif.g09.slc.cpg/sg12_182_cif.got.tgz:363195.got - 2010.06.28 00:19:55.
