data_PCOD8096529
_publ_section_title
;
Structure prediction by ZEFSAII (Michael W. Deem and Ramdas Pophale) SiO2 
 PCOD8096529
Probable space group: C 2/M
;
_chemical_formula_sum "Si O2"
_cell_formula_units_Z 64
_cell_length_a 22.103341
_cell_length_b 9.355294
_cell_length_c 20.287822
_cell_angle_alpha 90.000000
_cell_angle_beta 57.776122
_cell_angle_gamma 90.000000
_cell_volume 3549.002245
_symmetry_space_group_name_H-M "C 2/M"
_symmetry_group_IT_number 12
_symmetry_cell_setting 'monoclinic'
loop_
_space_group_symop_operation_xyz
x,y,z
-x,y,-z
-x,-y,-z
x,-y,z
1/2+x,1/2+y,z
1/2-x,1/2+y,-z
1/2-x,1/2-y,-z
1/2+x,1/2-y,z
loop_
_atom_site_type_symbol
_atom_site_label
_atom_site_fract_x
_atom_site_fract_y
_atom_site_fract_z
Si Si1 0.290458 0.332063 0.300707
Si Si2 0.433001 0.841962 0.430212
Si Si3 0.655078 0.661182 0.418943
Si Si4 0.214817 0.166805 0.079971
Si Si5 0.055947 0.843318 0.205157
Si Si6 0.912146 0.246851 0.673636
Si Si7 0.233455 0.656994 0.193968
Si Si8 0.079579 0.334670 0.714747
O O1 0.290645 0.500000 0.317679
O O2 0.225379 0.258805 0.377504
O O3 0.283815 0.304555 0.226451
O O4 0.363503 0.259485 0.279895
O O5 0.398154 0.721252 0.495174
O O6 0.518826 0.838315 0.386980
O O7 0.408022 0.814603 0.370087
O O8 0.408541 0.000000 0.467510
O O9 0.676909 0.500000 0.425657
O O10 0.614634 0.654584 0.372621
O O11 0.129972 0.195449 0.125935
O O12 0.246797 0.225881 0.130013
O O13 0.233471 0.000000 0.064986
O O14 0.250000 0.250000 0.000000
O O15 0.068063 0.855303 0.276880
O O16 0.998743 0.722754 0.219289
O O17 0.029121 0.000000 0.197772
O O18 0.848537 0.351311 0.733528
O O19 0.252689 0.500000 0.154819
O O20 0.084915 0.500000 0.732750
#
# Coordination Sequence:
#
# PCOD8096529 Si02
#       8
#     8   8   8   8   8   8   8   8
#     4  10  21  37  56  74  96 131 172 214 258 303
#     4  10  21  34  48  69  98 132 170 212 262 314
#     4  11  22  33  48  71  99 131 169 215 264 311
#     4  10  20  33  54  84 116 145 167 196 240 290
#     4   9  18  33  53  77 104 134 168 204 245 296
#     4   9  18  31  51  74  99 130 168 210 256 307
#     4   9  18  33  54  79 104 132 168 207 249 300
#     4  10  21  36  54  74  97 130 172 216 257 299
#
# _framework density 18.033237
#
# number of rings (size 3 to 8) (size 9 to 14) (size 15 to 20)
#    0.000    2.250    0.000    2.625    0.000   13.000 
#    0.000    0.000    0.000    0.750    0.000    5.250 
#    0.000    0.000    0.000    0.000    0.000    0.000 
#
# Total GULP energy -396772.080541 kJ/mol
# GULP energy per Si atom -12399.127517 kJ/mol
# Density = 1.799219 g / cm^3
# Si number density = 18.033237 Si / 1000 Ang^3
#
#
#
# Elastic Constant Matrix: (Units=GPa)
#
#
# Indices 1 2 3 4 5 6 
#
# 1 104.0318 59.3812 38.9604 -0.0001 -5.0806 -0.0009
# 2 59.3812 147.9416 65.0148 0.0000 -2.3442 -0.0014
# 3 38.9604 65.0148 99.4388 -0.0001 -5.3843 -0.0001
# 4 -0.0001 0.0000 -0.0001 25.1844 0.0002 -1.2450
# 5 -5.0806 -2.3442 -5.3843 0.0002 13.2240 0.0000
# 6 -0.0009 -0.0014 -0.0001 -1.2450 0.0000 26.5795
#
#
#
# Elastic Compliance Matrix: (Units=1/GPa)
#
#
# Indices 1 2 3 4 5 6 
#
# 1 0.012988 -0.004215 -0.002151 0.000000 0.003367 0.000000
# 2 -0.004215 0.010862 -0.005556 0.000000 -0.001956 0.000000
# 3 -0.002151 -0.005556 0.014759 0.000000 0.004198 0.000000
# 4 0.000000 0.000000 0.000000 0.039799 0.000000 0.001864
# 5 0.003367 -0.001956 0.004198 0.000000 0.078276 0.000000
# 6 0.000000 0.000000 0.000000 0.001864 0.000000 0.037710
#
#
# Mechanical properties :
#
#
# Convention : Reuss Voigt Hill
#
# Bulk Modulus (GPa) = 67.72466 75.34723 71.53595
# Shear Modulus (GPa) = 22.40542 25.53463 23.97002
#
# Velocity S-wave (km/s) = 3.52867 3.76703 3.64979
# Velocity P-wave (km/s) = 7.36471 7.79704 7.58396
#
# Compressibility (1/GPa) = 0.01476567
#
# Stress axis : x y z
#
# Youngs Moduli (GPa) = 76.99362 92.06493 67.75397
#
# Poissons Ratio (x) = 0.38802 0.14573
# Poissons Ratio (y) = 0.32450 0.37646
# Poissons Ratio (z) = 0.16560 0.51154
#
# Static dielectric constant tensor:
#      x y z
#    x 3.293180 0.000000 0.003770 
#    y 0.000000 3.348590 0.000000 
#    z 0.003770 0.000000 3.152030 
# 
# 
# High freq. dielectric constant tensor:
#      x y z
#    x 1.688830 0.000000 -0.001480 
#    y 0.000000 1.710150 0.000000 
#    z -0.001480 0.000000 1.676820 
# 
# From -- ./inp_files/319776.got.cif
#   From: 2010.06.25/outbox.cif.g09.slc.cpg/sg12_160_cif.got.tgz:319776.got - 2010.06.28 00:19:55.
