data_PCOD8096199
_publ_section_title
;
Structure prediction by ZEFSAII (Michael W. Deem and Ramdas Pophale) SiO2 
 PCOD8096199
Probable space group: C 2/M
;
_chemical_formula_sum "Si O2"
_cell_formula_units_Z 56
_cell_length_a 14.799229
_cell_length_b 9.212985
_cell_length_c 24.023068
_cell_angle_alpha 90.000000
_cell_angle_beta 117.524104
_cell_angle_gamma 90.000000
_cell_volume 2904.702710
_symmetry_space_group_name_H-M "C 2/M"
_symmetry_group_IT_number 12
_symmetry_cell_setting 'monoclinic'
loop_
_space_group_symop_operation_xyz
x,y,z
-x,y,-z
-x,-y,-z
x,-y,z
1/2+x,1/2+y,z
1/2-x,1/2+y,-z
1/2-x,1/2-y,-z
1/2+x,1/2-y,z
loop_
_atom_site_type_symbol
_atom_site_label
_atom_site_fract_x
_atom_site_fract_y
_atom_site_fract_z
Si Si1 0.635489 0.165475 0.803112
Si Si2 0.343055 0.663154 0.813645
Si Si3 0.933664 0.172615 0.724144
Si Si4 0.815558 0.661644 0.062189
Si Si5 0.313968 0.830923 0.593532
Si Si6 0.111815 0.668037 0.508622
Si Si7 0.471369 0.163187 0.932506
O O1 0.720703 0.168531 0.779360
O O2 0.549606 0.275114 0.758537
O O3 0.687713 0.220960 0.875601
O O4 0.593731 0.000000 0.799067
O O5 0.384625 0.500000 0.831736
O O6 0.380213 0.727220 0.765629
O O7 0.381624 0.750553 0.877822
O O8 0.877847 0.248061 0.657616
O O9 0.928696 0.000000 0.715231
O O10 0.770781 0.500000 0.047242
O O11 0.933270 0.666485 0.080660
O O12 0.750000 0.750000 0.000000
O O13 0.200032 0.765120 0.561314
O O14 0.377390 0.808740 0.554549
O O15 0.304390 0.000000 0.605526
O O16 0.130835 0.500000 0.529867
O O17 0.000000 0.716467 0.500000
O O18 0.431763 0.000000 0.932124
O O19 0.500000 0.235538 0.000000
#
# Coordination Sequence:
#
# PCOD8096199 Si02
#       7
#     8   8   8   8   8   8   8
#     4  10  21  39  58  78 107 145 189 236 286 342
#     4  10  22  38  57  80 107 144 189 235 284 339
#     4  11  23  39  58  83 116 153 194 239 286 339
#     4  10  20  33  52  77 105 139 177 227 285 344
#     4  10  21  37  60  89 120 157 194 234 283 333
#     4   9  19  38  63  90 122 157 194 235 278 328
#     4  10  20  34  53  79 109 139 177 230 291 347
#
# _framework density 19.279081000000001
#
# number of rings (size 3 to 8) (size 9 to 14) (size 15 to 20)
#    0.000    2.000    1.429    1.714    0.000    4.571 
#    0.000    5.714    0.000    0.000    0.000    0.000 
#    0.000    0.000    0.000    0.000    0.000    0.000 
#
# Total GULP energy -347171.429042 kJ/mol
# GULP energy per Si atom -12398.979609 kJ/mol
# Density = 1.923520 g / cm^3
# Si number density = 19.279081 Si / 1000 Ang^3
#
#
#
# Elastic Constant Matrix: (Units=GPa)
#
#
# Indices 1 2 3 4 5 6 
#
# 1 111.6442 40.9598 46.1542 0.0000 5.6621 0.0000
# 2 40.9598 91.3719 69.9602 0.0000 11.0481 0.0000
# 3 46.1542 69.9602 134.4033 0.0000 11.2176 0.0000
# 4 0.0000 0.0000 0.0000 32.3976 0.0000 2.3337
# 5 5.6621 11.0481 11.2176 0.0000 23.5465 0.0000
# 6 0.0000 0.0000 0.0000 2.3337 0.0000 28.1442
#
#
#
# Elastic Compliance Matrix: (Units=1/GPa)
#
#
# Indices 1 2 3 4 5 6 
#
# 1 0.011041 -0.003393 -0.002017 0.000000 -0.000102 0.000000
# 2 -0.003393 0.019645 -0.008706 0.000000 -0.004254 0.000000
# 3 -0.002017 -0.008706 0.012792 0.000000 -0.001524 0.000000
# 4 0.000000 0.000000 0.000000 0.031052 0.000000 -0.002575
# 5 -0.000102 -0.004254 -0.001524 0.000000 0.045216 0.000000
# 6 0.000000 0.000000 0.000000 -0.002575 0.000000 0.035745
#
#
# Mechanical properties :
#
#
# Convention : Reuss Voigt Hill
#
# Bulk Modulus (GPa) = 65.58648 72.39641 68.99144
# Shear Modulus (GPa) = 26.48261 28.84066 27.66164
#
# Velocity S-wave (km/s) = 3.71029 3.87196 3.79199
# Velocity P-wave (km/s) = 7.24213 7.59096 7.41859
#
# Compressibility (1/GPa) = 0.01524705
#
# Stress axis : x y z
#
# Youngs Moduli (GPa) = 90.57405 50.90322 78.17621
#
# Poissons Ratio (x) = 0.17270 0.15767
# Poissons Ratio (y) = 0.30729 0.68057
# Poissons Ratio (z) = 0.18268 0.44315
#
# Static dielectric constant tensor:
#      x y z
#    x 3.608190 0.000000 -0.145650 
#    y 0.000000 3.558480 0.000000 
#    z -0.145650 0.000000 3.392560 
# 
# 
# High freq. dielectric constant tensor:
#      x y z
#    x 1.757700 0.000000 -0.006120 
#    y 0.000000 1.746280 0.000000 
#    z -0.006120 0.000000 1.746350 
# 
# From -- ./inp_files/339018.got.cif
#   From: 2010.06.25/outbox.cif.g09.slc.cpg/sg12_170_cif.got.tgz:339018.got - 2010.06.28 00:19:55.
