data_PCOD8096862
_publ_section_title
;
Structure prediction by ZEFSAII (Michael W. Deem and Ramdas Pophale) SiO2 
 PCOD8096862
Probable space group: C 2/M
;
_chemical_formula_sum "Si O2"
_cell_formula_units_Z 64
_cell_length_a 15.643361
_cell_length_b 9.415376
_cell_length_c 24.950661
_cell_angle_alpha 90.000000
_cell_angle_beta 72.137107
_cell_angle_gamma 90.000000
_cell_volume 3497.779407
_symmetry_space_group_name_H-M "C 2/M"
_symmetry_group_IT_number 12
_symmetry_cell_setting 'monoclinic'
loop_
_space_group_symop_operation_xyz
x,y,z
-x,y,-z
-x,-y,-z
x,-y,z
1/2+x,1/2+y,z
1/2-x,1/2+y,-z
1/2-x,1/2-y,-z
1/2+x,1/2-y,z
loop_
_atom_site_type_symbol
_atom_site_label
_atom_site_fract_x
_atom_site_fract_y
_atom_site_fract_z
Si Si1 0.307660 0.663799 0.181708
Si Si2 0.199036 0.165015 0.434337
Si Si3 0.134451 0.834958 0.565507
Si Si4 0.370945 0.668699 0.758293
Si Si5 0.436584 0.668176 0.629520
Si Si6 0.629213 0.334754 0.060951
Si Si7 0.297670 0.660903 0.062363
Si Si8 0.001797 0.168327 0.826123
O O1 0.283952 0.500000 0.199430
O O2 0.224623 0.761135 0.212697
O O3 0.337155 0.679808 0.113923
O O4 0.394813 0.719806 0.197845
O O5 0.148667 0.190630 0.499902
O O6 0.292217 0.250319 0.413949
O O7 0.134003 0.226473 0.400640
O O8 0.221391 0.000000 0.421083
O O9 0.036454 0.773091 0.598970
O O10 0.143504 0.000000 0.578982
O O11 0.358967 0.500000 0.763919
O O12 0.405556 0.718579 0.693856
O O13 0.443318 0.725779 0.787547
O O14 0.439912 0.500000 0.623831
O O15 0.640313 0.500000 0.070672
O O16 0.714371 0.263561 0.071954
O O17 0.541193 0.278300 0.109132
O O18 0.626299 0.302939 0.997487
O O19 0.263839 0.500000 0.059755
O O20 0.003484 0.000000 0.824393
#
# Coordination Sequence:
#
# PCOD8096862 Si02
#       8
#     8   8   8   8   8   8   8   8
#     4  10  20  34  51  73  99 127 161 204 252 293
#     4   9  17  31  51  76 105 132 161 201 245 288
#     4   9  17  31  52  77 103 132 164 199 242 291
#     4  10  20  36  53  70  95 130 171 207 240 285
#     4   9  18  32  52  73  96 132 172 203 236 289
#     4   9  16  29  49  71  95 125 158 193 240 295
#     4   9  17  28  47  73  98 122 153 198 246 292
#     4   9  18  32  51  71  94 127 163 199 241 292
#
# _framework density 18.297322000000001
#
# number of rings (size 3 to 8) (size 9 to 14) (size 15 to 20)
#    0.000    2.750    1.250    0.375    0.000    3.000 
#    0.000    6.875    0.000    3.000    0.000    4.375 
#    0.000    0.000    0.000    0.000    0.000    0.000 
#
# Total GULP energy -396648.629494 kJ/mol
# GULP energy per Si atom -12395.269672 kJ/mol
# Density = 1.825568 g / cm^3
# Si number density = 18.297322 Si / 1000 Ang^3
#
#
#
# Elastic Constant Matrix: (Units=GPa)
#
#
# Indices 1 2 3 4 5 6 
#
# 1 167.6511 37.6594 82.2246 0.0000 -5.2087 0.0000
# 2 37.6594 32.3205 29.0415 0.0000 -1.0318 0.0000
# 3 82.2246 29.0415 111.7749 0.0000 -2.7764 0.0000
# 4 0.0000 0.0000 0.0000 17.6741 0.0000 -3.0564
# 5 -5.2087 -1.0318 -2.7764 0.0000 13.8604 0.0000
# 6 0.0000 0.0000 0.0000 -3.0564 0.0000 26.7223
#
#
#
# Elastic Compliance Matrix: (Units=1/GPa)
#
#
# Indices 1 2 3 4 5 6 
#
# 1 0.010437 -0.006837 -0.005846 0.000000 0.002242 0.000000
# 2 -0.006837 0.044853 -0.006638 0.000000 -0.000560 0.000000
# 3 -0.005846 -0.006638 0.014979 0.000000 0.000310 0.000000
# 4 0.000000 0.000000 0.000000 0.057722 0.000000 0.006602
# 5 0.002242 -0.000560 0.000310 0.000000 0.073011 0.000000
# 6 0.000000 0.000000 0.000000 0.006602 0.000000 0.038177
#
#
# Mechanical properties :
#
#
# Convention : Reuss Voigt Hill
#
# Bulk Modulus (GPa) = 31.61778 67.73304 49.67541
# Shear Modulus (GPa) = 17.33912 22.50609 19.92260
#
# Velocity S-wave (km/s) = 3.08170 3.51097 3.30332
# Velocity P-wave (km/s) = 5.47540 7.31671 6.46198
#
# Compressibility (1/GPa) = 0.03162777
#
# Stress axis : x y z
#
# Youngs Moduli (GPa) = 95.80960 22.29483 66.75845
#
# Poissons Ratio (x) = 0.15243 0.39026
# Poissons Ratio (y) = 0.65506 0.44316
# Poissons Ratio (z) = 0.56009 0.14800
#
# Static dielectric constant tensor:
#      x y z
#    x 3.512570 0.000000 0.037200 
#    y 0.000000 3.097610 0.000000 
#    z 0.037200 0.000000 3.566120 
# 
# 
# High freq. dielectric constant tensor:
#      x y z
#    x 1.709940 0.000000 0.000020 
#    y 0.000000 1.673490 0.000000 
#    z 0.000020 0.000000 1.714590 
# 
# From -- ./inp_files/359734.got.cif
#   From: 2010.06.25/outbox.cif.g09.slc.cpg/sg12_180_cif.got.tgz:359734.got - 2010.06.28 00:19:55.
