data_PCOD8096866
_publ_section_title
;
Structure prediction by ZEFSAII (Michael W. Deem and Ramdas Pophale) SiO2 
 PCOD8096866
Probable space group: C 2/M
;
_chemical_formula_sum "Si O2"
_cell_formula_units_Z 64
_cell_length_a 14.104147
_cell_length_b 8.929086
_cell_length_c 28.132318
_cell_angle_alpha 90.000000
_cell_angle_beta 91.857921
_cell_angle_gamma 90.000000
_cell_volume 3541.041195
_symmetry_space_group_name_H-M "C 2/M"
_symmetry_group_IT_number 12
_symmetry_cell_setting 'monoclinic'
loop_
_space_group_symop_operation_xyz
x,y,z
-x,y,-z
-x,-y,-z
x,-y,z
1/2+x,1/2+y,z
1/2-x,1/2+y,-z
1/2-x,1/2-y,-z
1/2+x,1/2-y,z
loop_
_atom_site_type_symbol
_atom_site_label
_atom_site_fract_x
_atom_site_fract_y
_atom_site_fract_z
Si Si1 0.093806 0.178415 0.871076
Si Si2 0.752049 0.826049 0.696715
Si Si3 0.387127 0.175714 0.630714
Si Si4 0.764900 0.176483 0.449737
Si Si5 0.763796 0.322371 0.194569
Si Si6 0.891089 0.675215 0.872178
Si Si7 0.756040 0.171547 0.050088
Si Si8 0.401209 0.823648 0.382595
O O1 0.139495 0.257244 0.825907
O O2 0.153999 0.229518 0.918175
O O3 0.987960 0.234354 0.876165
O O4 0.097678 0.000000 0.864139
O O5 0.845156 0.744383 0.678294
O O6 0.733722 0.778063 0.750294
O O7 0.659610 0.780736 0.664857
O O8 0.773202 0.000000 0.692917
O O9 0.323878 0.222835 0.584578
O O10 0.492907 0.236814 0.624269
O O11 0.388459 0.000000 0.638129
O O12 0.750000 0.250000 0.500000
O O13 0.860961 0.239823 0.428137
O O14 0.773948 0.000000 0.455779
O O15 0.758176 0.500000 0.186099
O O16 0.672341 0.242832 0.170754
O O17 0.908773 0.500000 0.862346
O O18 0.839753 0.699654 0.921786
O O19 0.770822 0.000000 0.038704
O O20 0.750000 0.250000 0.000000
O O21 0.399527 0.000000 0.392953
#
# Coordination Sequence:
#
# PCOD8096866 Si02
#       8
#     8   8   8   8   8   8   8   8
#     4  10  21  37  55  79 108 140 177 219 265 314
#     4   9  19  34  53  77 104 132 167 208 254 303
#     4   9  19  34  53  75 101 134 171 208 252 303
#     4  10  20  34  51  74 101 132 169 209 253 302
#     4  10  20  35  54  79 109 141 175 215 261 314
#     4  10  21  37  55  78 106 140 179 219 262 311
#     4   9  20  36  54  77 106 138 175 216 262 313
#     4   9  18  35  54  73 100 133 166 206 251 300
#
# _framework density 18.073779999999999
#
# number of rings (size 3 to 8) (size 9 to 14) (size 15 to 20)
#    0.000    2.500    0.000    2.250    0.000    7.000 
#    0.000    6.250    0.000    0.000    0.000    0.000 
#    0.000    0.000    0.000    0.000    0.000    0.000 
#
# Total GULP energy -396856.065906 kJ/mol
# GULP energy per Si atom -12401.752060 kJ/mol
# Density = 1.803264 g / cm^3
# Si number density = 18.073780 Si / 1000 Ang^3
#
#
#
# Elastic Constant Matrix: (Units=GPa)
#
#
# Indices 1 2 3 4 5 6 
#
# 1 121.5412 26.8264 44.1050 0.0000 -8.3300 0.0000
# 2 26.8264 52.6576 43.4002 0.0000 -7.8504 0.0000
# 3 44.1050 43.4002 127.9222 0.0000 -17.5959 0.0000
# 4 0.0000 0.0000 0.0000 33.2196 0.0000 -4.3752
# 5 -8.3300 -7.8504 -17.5959 0.0000 16.7884 0.0000
# 6 0.0000 0.0000 0.0000 -4.3752 0.0000 33.6097
#
#
#
# Elastic Compliance Matrix: (Units=1/GPa)
#
#
# Indices 1 2 3 4 5 6 
#
# 1 0.009763 -0.002996 -0.002192 0.000000 0.001146 0.000000
# 2 -0.002996 0.027454 -0.007852 0.000000 0.003121 0.000000
# 3 -0.002192 -0.007852 0.012365 0.000000 0.008200 0.000000
# 4 0.000000 0.000000 0.000000 0.030628 0.000000 0.003987
# 5 0.001146 0.003121 0.008200 0.000000 0.070188 0.000000
# 6 0.000000 0.000000 0.000000 0.003987 0.000000 0.030272
#
#
# Mechanical properties :
#
#
# Convention : Reuss Voigt Hill
#
# Bulk Modulus (GPa) = 42.55050 58.97603 50.76326
# Shear Modulus (GPa) = 23.30093 29.24284 26.27188
#
# Velocity S-wave (km/s) = 3.59445 4.02676 3.81673
# Velocity P-wave (km/s) = 6.38910 7.37030 6.89717
#
# Compressibility (1/GPa) = 0.02350149
#
# Stress axis : x y z
#
# Youngs Moduli (GPa) = 102.42817 36.42458 80.87430
#
# Poissons Ratio (x) = 0.10914 0.17727
# Poissons Ratio (y) = 0.30691 0.63502
# Poissons Ratio (z) = 0.22451 0.28600
#
# Static dielectric constant tensor:
#      x y z
#    x 3.505690 0.000000 0.009440 
#    y 0.000000 3.360730 0.000000 
#    z 0.009440 0.000000 3.412690 
# 
# 
# High freq. dielectric constant tensor:
#      x y z
#    x 1.704770 0.000000 -0.003990 
#    y 0.000000 1.704990 0.000000 
#    z -0.003990 0.000000 1.700990 
# 
# From -- ./inp_files/359883.got.cif
#   From: 2010.06.25/outbox.cif.g09.slc.cpg/sg12_180_cif.got.tgz:359883.got - 2010.06.28 00:19:55.
