data_PCOD8096911
_publ_section_title
;
Structure prediction by ZEFSAII (Michael W. Deem and Ramdas Pophale) SiO2 
 PCOD8096911
Probable space group: C 2/M
;
_chemical_formula_sum "Si O2"
_cell_formula_units_Z 32
_cell_length_a 24.140488
_cell_length_b 10.529049
_cell_length_c 9.660160
_cell_angle_alpha 90.000000
_cell_angle_beta 46.245892
_cell_angle_gamma 90.000000
_cell_volume 1773.559539
_symmetry_space_group_name_H-M "C 2/M"
_symmetry_group_IT_number 12
_symmetry_cell_setting 'monoclinic'
loop_
_space_group_symop_operation_xyz
x,y,z
-x,y,-z
-x,-y,-z
x,-y,z
1/2+x,1/2+y,z
1/2-x,1/2+y,-z
1/2-x,1/2-y,-z
1/2+x,1/2-y,z
loop_
_atom_site_type_symbol
_atom_site_label
_atom_site_fract_x
_atom_site_fract_y
_atom_site_fract_z
Si Si1 0.808645 0.731858 0.091376
Si Si2 0.156762 0.858059 0.450575
Si Si3 0.586929 0.352004 0.864248
Si Si4 0.333712 0.859372 0.758301
O O1 0.749674 0.642089 0.279183
O O2 0.876076 0.778183 0.072633
O O3 0.758110 0.848015 0.114136
O O4 0.848476 0.656731 0.896304
O O5 0.133296 0.819762 0.645458
O O6 0.121925 0.751512 0.405310
O O7 0.125993 0.000000 0.467260
O O8 0.589677 0.500000 0.894537
O O9 0.500000 0.304152 0.000000
O O10 0.361776 0.000000 0.664838
#
# Coordination Sequence:
#
# PCOD8096911 Si02
#       4
#     8   8   8   8
#     4   9  18  30  54  76 105 130 168 213 259 297
#     4   9  18  32  54  81 104 131 172 217 258 302
#     4  10  20  34  51  76 108 139 173 213 257 306
#     4   9  18  31  55  81 102 131 172 218 258 300
#
# _framework density 18.042812000000001
#
# number of rings (size 3 to 8) (size 9 to 14) (size 15 to 20)
#    1.500    1.250    0.000    2.250    0.000    1.000 
#    0.000    2.500    0.000   12.750    0.000    0.000 
#    0.000    0.000    0.000    0.000    0.000    0.000 
#
# Total GULP energy -198218.169510 kJ/mol
# GULP energy per Si atom -12388.635594 kJ/mol
# Density = 1.800175 g / cm^3
# Si number density = 18.042812 Si / 1000 Ang^3
#
#
#
# Elastic Constant Matrix: (Units=GPa)
#
#
# Indices 1 2 3 4 5 6 
#
# 1 89.5166 41.4023 64.5795 0.0000 20.4948 0.0000
# 2 41.4023 117.0123 43.4299 0.0000 20.3014 0.0000
# 3 64.5795 43.4299 57.9619 0.0000 21.1989 0.0000
# 4 0.0000 0.0000 0.0000 21.7439 0.0000 4.5430
# 5 20.4948 20.3014 21.1989 0.0000 19.1027 0.0000
# 6 0.0000 0.0000 0.0000 4.5430 0.0000 21.5646
#
#
#
# Elastic Compliance Matrix: (Units=1/GPa)
#
#
# Indices 1 2 3 4 5 6 
#
# 1 0.061344 0.004277 -0.077120 0.000000 0.015222 0.000000
# 2 0.004277 0.012383 -0.012712 0.000000 -0.003642 0.000000
# 3 -0.077120 -0.012712 0.130443 0.000000 -0.048507 0.000000
# 4 0.000000 0.000000 0.000000 0.048107 0.000000 -0.010135
# 5 0.015222 -0.003642 -0.048507 0.000000 0.093718 0.000000
# 6 0.000000 0.000000 0.000000 -0.010135 0.000000 0.048507
#
#
# Mechanical properties :
#
#
# Convention : Reuss Voigt Hill
#
# Bulk Modulus (GPa) = 30.24704 62.59047 46.41876
# Shear Modulus (GPa) = 8.67106 20.15417 14.41262
#
# Velocity S-wave (km/s) = 2.19460 3.34581 2.82937
# Velocity P-wave (km/s) = 4.81893 7.04920 6.03794
#
# Compressibility (1/GPa) = 0.03306108
#
# Stress axis : x y z
#
# Youngs Moduli (GPa) = 16.30155 80.75854 7.66619
#
# Poissons Ratio (x) = -0.34543 0.59121
# Poissons Ratio (y) = -0.06973 0.09745
# Poissons Ratio (z) = 1.25717 1.02657
#
# Static dielectric constant tensor:
#      x y z
#    x 2.928000 0.000000 0.162590 
#    y 0.000000 3.158960 0.000000 
#    z 0.162590 0.000000 3.229760 
# 
# 
# High freq. dielectric constant tensor:
#      x y z
#    x 1.660910 0.000000 0.025660 
#    y 0.000000 1.689440 0.000000 
#    z 0.025660 0.000000 1.693510 
# 
# From -- ./inp_files/70524.got.cif
#   From: 2010.06.25/outbox.cif.g09.slc.cpg/sg12_36_cif.got.tgz:70524.got - 2010.06.28 00:19:55.
