data_PCOD8096851
_publ_section_title
;
Structure prediction by ZEFSAII (Michael W. Deem and Ramdas Pophale) SiO2 
 PCOD8096851
Probable space group: C 2/M
;
_chemical_formula_sum "Si O2"
_cell_formula_units_Z 56
_cell_length_a 18.931618
_cell_length_b 8.897295
_cell_length_c 26.589404
_cell_angle_alpha 90.000000
_cell_angle_beta 140.234592
_cell_angle_gamma 90.000000
_cell_volume 2864.796880
_symmetry_space_group_name_H-M "C 2/M"
_symmetry_group_IT_number 12
_symmetry_cell_setting 'monoclinic'
loop_
_space_group_symop_operation_xyz
x,y,z
-x,y,-z
-x,-y,-z
x,-y,z
1/2+x,1/2+y,z
1/2-x,1/2+y,-z
1/2-x,1/2-y,-z
1/2+x,1/2-y,z
loop_
_atom_site_type_symbol
_atom_site_label
_atom_site_fract_x
_atom_site_fract_y
_atom_site_fract_z
Si Si1 0.164451 0.823015 0.814464
Si Si2 0.546156 0.670316 0.473197
Si Si3 0.458592 0.821551 0.744858
Si Si4 0.782867 0.330779 0.569018
Si Si5 0.152552 0.828390 0.222291
Si Si6 0.610392 0.171893 0.682855
Si Si7 0.114483 0.823401 0.087236
O O1 0.122897 0.780758 0.736627
O O2 0.288013 0.759825 0.889776
O O3 0.080157 0.750803 0.808659
O O4 0.165365 0.000000 0.822735
O O5 0.500000 0.732794 0.500000
O O6 0.504482 0.500000 0.440313
O O7 0.677823 0.677152 0.548266
O O8 0.501931 0.780114 0.405712
O O9 0.385034 0.762011 0.656927
O O10 0.403006 0.777125 0.766988
O O11 0.467132 0.000000 0.747864
O O12 0.812446 0.500000 0.570198
O O13 0.750000 0.250000 0.500000
O O14 0.285305 0.810060 0.297358
O O15 0.112323 0.778164 0.144765
O O16 0.117927 0.000000 0.214241
O O17 0.600601 0.000000 0.696561
O O18 0.136356 0.000000 0.093731
O O19 0.000000 0.772496 0.000000
#
# Coordination Sequence:
#
# PCOD8096851 Si02
#       7
#     8   8   8   8   8   8   8
#     4  11  22  36  57  83 111 143 181 224 270 324
#     4  10  20  34  51  73 102 137 182 234 285 331
#     4  11  22  37  56  79 110 147 188 230 276 330
#     4  10  22  36  51  73 102 140 183 230 280 327
#     4   9  19  35  56  83 112 143 180 223 272 324
#     4  10  20  35  54  77 106 142 187 232 276 331
#     4   9  19  39  65  90 117 146 177 218 268 324
#
# _framework density 19.547633999999999
#
# number of rings (size 3 to 8) (size 9 to 14) (size 15 to 20)
#    0.000    2.000    0.000    4.714    0.000    8.571 
#    0.000    0.714    0.000    0.000    0.000    0.000 
#    0.000    0.000    0.000    0.000    0.000    0.000 
#
# Total GULP energy -347210.747110 kJ/mol
# GULP energy per Si atom -12400.383825 kJ/mol
# Density = 1.950314 g / cm^3
# Si number density = 19.547634 Si / 1000 Ang^3
#
#
#
# Elastic Constant Matrix: (Units=GPa)
#
#
# Indices 1 2 3 4 5 6 
#
# 1 91.9324 38.9599 23.4247 0.0000 13.7655 0.0000
# 2 38.9599 81.5545 33.3923 0.0000 9.7167 0.0000
# 3 23.4247 33.3923 101.2340 0.0000 16.3925 0.0000
# 4 0.0000 0.0000 0.0000 26.4830 0.0000 1.9757
# 5 13.7655 9.7167 16.3925 0.0000 25.2551 0.0000
# 6 0.0000 0.0000 0.0000 1.9757 0.0000 34.1044
#
#
#
# Elastic Compliance Matrix: (Units=1/GPa)
#
#
# Indices 1 2 3 4 5 6 
#
# 1 0.014332 -0.006030 -0.000490 0.000000 -0.005174 0.000000
# 2 -0.006030 0.016880 -0.004082 0.000000 -0.000558 0.000000
# 3 -0.000490 -0.004082 0.012337 0.000000 -0.006170 0.000000
# 4 0.000000 0.000000 0.000000 0.037924 0.000000 -0.002197
# 5 -0.005174 -0.000558 -0.006170 0.000000 0.046636 0.000000
# 6 0.000000 0.000000 0.000000 -0.002197 0.000000 0.029449
#
#
# Mechanical properties :
#
#
# Convention : Reuss Voigt Hill
#
# Bulk Modulus (GPa) = 44.75038 51.80830 48.27934
# Shear Modulus (GPa) = 26.85122 29.09811 27.97466
#
# Velocity S-wave (km/s) = 3.71027 3.86239 3.78710
# Velocity P-wave (km/s) = 6.42631 6.81556 6.62380
#
# Compressibility (1/GPa) = 0.02234618
#
# Stress axis : x y z
#
# Youngs Moduli (GPa) = 69.77151 59.24050 81.05640
#
# Poissons Ratio (x) = 0.35722 0.03968
# Poissons Ratio (y) = 0.42072 0.33090
# Poissons Ratio (z) = 0.03416 0.24184
#
# Static dielectric constant tensor:
#      x y z
#    x 3.616750 0.000000 0.224610 
#    y 0.000000 3.455230 0.000000 
#    z 0.224610 0.000000 3.572810 
# 
# 
# High freq. dielectric constant tensor:
#      x y z
#    x 1.767850 0.000000 0.015330 
#    y 0.000000 1.756240 0.000000 
#    z 0.015330 0.000000 1.746990 
# 
# From -- ./inp_files/342261.got.cif
#   From: 2010.06.25/outbox.cif.g09.slc.cpg/sg12_172_cif.got.tgz:342261.got - 2010.06.28 00:19:55.
