data_PCOD8096964
_publ_section_title
;
Structure prediction by ZEFSAII (Michael W. Deem and Ramdas Pophale) SiO2 
 PCOD8096964
Probable space group: C 2/M
;
_chemical_formula_sum "Si O2"
_cell_formula_units_Z 64
_cell_length_a 19.923492
_cell_length_b 9.198606
_cell_length_c 22.235288
_cell_angle_alpha 90.000000
_cell_angle_beta 116.601863
_cell_angle_gamma 90.000000
_cell_volume 3643.641191
_symmetry_space_group_name_H-M "C 2/M"
_symmetry_group_IT_number 12
_symmetry_cell_setting 'monoclinic'
loop_
_space_group_symop_operation_xyz
x,y,z
-x,y,-z
-x,-y,-z
x,-y,z
1/2+x,1/2+y,z
1/2-x,1/2+y,-z
1/2-x,1/2-y,-z
1/2+x,1/2-y,z
loop_
_atom_site_type_symbol
_atom_site_label
_atom_site_fract_x
_atom_site_fract_y
_atom_site_fract_z
Si Si1 0.078769 0.169789 0.557989
Si Si2 0.768602 0.171240 0.445827
Si Si3 0.960336 0.831984 0.799321
Si Si4 0.326677 0.171153 0.044775
Si Si5 0.594719 0.830275 0.801303
Si Si6 0.853202 0.331218 0.307137
Si Si7 0.962147 0.831403 0.047047
Si Si8 0.201534 0.830859 0.309889
O O1 0.145553 0.206939 0.538175
O O2 0.090902 0.247905 0.626197
O O3 0.000000 0.226360 0.500000
O O4 0.075598 0.000000 0.570332
O O5 0.750000 0.250000 0.500000
O O6 0.712200 0.233766 0.373261
O O7 0.755083 0.000000 0.447176
O O8 0.875325 0.783361 0.752851
O O9 0.014811 0.746731 0.776369
O O10 0.978845 0.797457 0.876170
O O11 0.971891 0.000000 0.789398
O O12 0.349569 0.210933 0.122115
O O13 0.388951 0.232293 0.024333
O O14 0.317914 0.000000 0.031328
O O15 0.250000 0.250000 0.000000
O O16 0.633137 0.776877 0.755192
O O17 0.578273 0.000000 0.794020
O O18 0.871753 0.500000 0.321444
O O19 0.766940 0.297511 0.288300
O O20 0.937657 0.000000 0.037561
O O21 0.000000 0.786774 0.000000
O O22 0.201434 0.000000 0.328847
#
# Coordination Sequence:
#
# PCOD8096964 Si02
#       8
#     8   8   8   8   8   8   8   8
#     4   9  19  35  52  71  97 128 161 198 240 285
#     4  10  20  34  52  73  98 127 160 199 243 290
#     4   9  18  32  51  74  99 130 166 203 243 291
#     4  10  20  34  52  74 103 136 170 210 254 301
#     4   9  19  34  51  73 101 131 162 203 251 293
#     4   9  18  33  52  73  97 126 162 201 241 287
#     4   9  18  33  53  76 102 133 170 211 254 301
#     4   9  18  33  51  71  97 128 163 201 240 286
#
# _framework density 17.564848000000001
#
# number of rings (size 3 to 8) (size 9 to 14) (size 15 to 20)
#    0.000    2.750    0.000    0.750    0.000    4.500 
#    0.000    7.500    0.000    3.000    0.000    0.000 
#    0.000    0.000    0.000    0.000    0.000    0.000 
#
# Total GULP energy -396862.737792 kJ/mol
# GULP energy per Si atom -12401.960556 kJ/mol
# Density = 1.752487 g / cm^3
# Si number density = 17.564848 Si / 1000 Ang^3
#
#
#
# Elastic Constant Matrix: (Units=GPa)
#
#
# Indices 1 2 3 4 5 6 
#
# 1 132.3884 59.3013 101.6340 0.0000 1.1555 0.0000
# 2 59.3013 62.6570 57.1122 0.0000 0.0520 0.0000
# 3 101.6340 57.1122 124.7042 0.0000 0.0228 0.0000
# 4 0.0000 0.0000 0.0000 29.2117 0.0000 1.0912
# 5 1.1555 0.0520 0.0228 0.0000 42.0210 0.0000
# 6 0.0000 0.0000 0.0000 1.0912 0.0000 31.4259
#
#
#
# Elastic Compliance Matrix: (Units=1/GPa)
#
#
# Indices 1 2 3 4 5 6 
#
# 1 0.022188 -0.007753 -0.014533 0.000000 -0.000593 0.000000
# 2 -0.007753 0.030106 -0.007469 0.000000 0.000180 0.000000
# 3 -0.014533 -0.007469 0.023284 0.000000 0.000396 0.000000
# 4 0.000000 0.000000 0.000000 0.034277 0.000000 -0.001190
# 5 -0.000593 0.000180 0.000396 0.000000 0.023813 0.000000
# 6 0.000000 0.000000 0.000000 -0.001190 0.000000 0.031862
#
#
# Mechanical properties :
#
#
# Convention : Reuss Voigt Hill
#
# Bulk Modulus (GPa) = 62.23489 83.98272 73.10881
# Shear Modulus (GPa) = 21.70180 27.31186 24.50683
#
# Velocity S-wave (km/s) = 3.51882 3.94752 3.73932
# Velocity P-wave (km/s) = 7.21234 8.28818 7.76891
#
# Compressibility (1/GPa) = 0.01606816
#
# Stress axis : x y z
#
# Youngs Moduli (GPa) = 45.06954 33.21632 42.94835
#
# Poissons Ratio (x) = 0.25752 0.62415
# Poissons Ratio (y) = 0.34941 0.32080
# Poissons Ratio (z) = 0.65497 0.24811
#
# Static dielectric constant tensor:
#      x y z
#    x 3.459520 0.000000 0.024540 
#    y 0.000000 3.264580 0.000000 
#    z 0.024540 0.000000 3.402010 
# 
# 
# High freq. dielectric constant tensor:
#      x y z
#    x 1.680760 0.000000 -0.000020 
#    y 0.000000 1.678590 0.000000 
#    z -0.000020 0.000000 1.680020 
# 
# From -- ./inp_files/320088.got.cif
#   From: 2010.06.25/outbox.cif.g09.slc.cpg/sg12_161_cif.got.tgz:320088.got - 2010.06.28 00:19:55.
