data_PCOD8096084
_publ_section_title
;
Structure prediction by ZEFSAII (Michael W. Deem and Ramdas Pophale) SiO2 
 PCOD8096084
Probable space group: C 2/M
;
_chemical_formula_sum "Si O2"
_cell_formula_units_Z 40
_cell_length_a 27.207539
_cell_length_b 8.775267
_cell_length_c 22.493433
_cell_angle_alpha 90.000000
_cell_angle_beta 24.239589
_cell_angle_gamma 90.000000
_cell_volume 2204.828207
_symmetry_space_group_name_H-M "C 2/M"
_symmetry_group_IT_number 12
_symmetry_cell_setting 'monoclinic'
loop_
_space_group_symop_operation_xyz
x,y,z
-x,y,-z
-x,-y,-z
x,-y,z
1/2+x,1/2+y,z
1/2-x,1/2+y,-z
1/2-x,1/2-y,-z
1/2+x,1/2-y,z
loop_
_atom_site_type_symbol
_atom_site_label
_atom_site_fract_x
_atom_site_fract_y
_atom_site_fract_z
Si Si1 0.722365 0.676642 0.943614
Si Si2 0.304669 0.678595 0.498603
Si Si3 0.058193 0.675564 0.219808
Si Si4 0.354369 0.319329 0.225365
Si Si5 0.376646 0.678809 0.069743
O O1 0.685700 0.500000 0.993127
O O2 0.858165 0.704496 0.814823
O O3 0.712353 0.725658 0.885491
O O4 0.631055 0.780754 0.080650
O O5 0.291594 0.500000 0.506991
O O6 0.250000 0.750000 0.500000
O O7 0.443021 0.720276 0.353355
O O8 0.236540 0.734337 0.631839
O O9 0.019092 0.500000 0.258207
O O10 0.337140 0.500000 0.252508
O O11 0.327117 0.262339 0.187789
O O12 0.488906 0.264274 0.092916
O O13 0.387375 0.500000 0.065135
#
# Coordination Sequence:
#
# PCOD8096084 Si02
#       5
#     8   8   8   8   8
#     4   9  17  32  54  78 105 138 175 212 251 298
#     4  12  24  37  53  74 102 134 168 210 261 310
#     4  10  20  33  51  77 106 137 174 213 254 301
#     4   9  17  32  54  79 105 132 167 208 252 304
#     4   8  15  30  54  79 102 133 169 206 250 301
#
# _framework density 18.142002999999999
#
# number of rings (size 3 to 8) (size 9 to 14) (size 15 to 20)
#    0.000    2.400    0.000    4.800    0.000    2.400 
#    0.000    4.000    0.000    6.000    0.000    0.000 
#    0.000    0.000    0.000    0.000    0.000    0.000 
#
# Total GULP energy -247954.296261 kJ/mol
# GULP energy per Si atom -12397.714813 kJ/mol
# Density = 1.810071 g / cm^3
# Si number density = 18.142003 Si / 1000 Ang^3
#
#
#
# Elastic Constant Matrix: (Units=GPa)
#
#
# Indices 1 2 3 4 5 6 
#
# 1 159.4510 42.0259 57.7309 0.0034 1.2008 -0.0002
# 2 42.0259 78.9541 38.3670 0.0089 0.7115 -0.0016
# 3 57.7309 38.3670 98.4826 0.0063 0.2258 -0.0014
# 4 0.0034 0.0089 0.0063 28.7984 -0.0016 0.3939
# 5 1.2008 0.7115 0.2258 -0.0016 21.6576 0.0001
# 6 -0.0002 -0.0016 -0.0014 0.3939 0.0001 22.3545
#
#
#
# Elastic Compliance Matrix: (Units=1/GPa)
#
#
# Indices 1 2 3 4 5 6 
#
# 1 0.008360 -0.002548 -0.003907 0.000001 -0.000339 0.000000
# 2 -0.002548 0.016404 -0.004896 -0.000004 -0.000347 0.000001
# 3 -0.003907 -0.004896 0.014352 -0.000001 0.000228 0.000001
# 4 0.000001 -0.000004 -0.000001 0.034732 0.000003 -0.000612
# 5 -0.000339 -0.000347 0.000228 0.000003 0.046201 0.000000
# 6 0.000000 0.000001 0.000001 -0.000612 0.000000 0.044744
#
#
# Mechanical properties :
#
#
# Convention : Reuss Voigt Hill
#
# Bulk Modulus (GPa) = 60.92889 68.12614 64.52752
# Shear Modulus (GPa) = 25.91091 27.81305 26.86198
#
# Velocity S-wave (km/s) = 3.78329 3.91970 3.85210
# Velocity P-wave (km/s) = 7.26235 7.62355 7.44514
#
# Compressibility (1/GPa) = 0.01641257
#
# Stress axis : x y z
#
# Youngs Moduli (GPa) = 119.61128 60.95928 69.67896
#
# Poissons Ratio (x) = 0.15534 0.27226
# Poissons Ratio (y) = 0.30481 0.34116
# Poissons Ratio (z) = 0.46736 0.29847
#
# Static dielectric constant tensor:
#      x y z
#    x 3.700960 0.000000 0.001670 
#    y 0.000000 3.200120 0.000000 
#    z 0.001670 0.000000 3.252580 
# 
# 
# High freq. dielectric constant tensor:
#      x y z
#    x 1.716880 0.000000 0.000370 
#    y 0.000000 1.686220 0.000000 
#    z 0.000370 0.000000 1.689470 
# 
# From -- ./inp_files/162649.got.cif
#   From: 2010.06.25/outbox.cif.g09.slc.cpg/sg12_82_cif.got.tgz:162649.got - 2010.06.28 00:19:55.
