data_PCOD8096168
_publ_section_title
;
Structure prediction by ZEFSAII (Michael W. Deem and Ramdas Pophale) SiO2 
 PCOD8096168
Probable space group: C 2/M
;
_chemical_formula_sum "Si O2"
_cell_formula_units_Z 64
_cell_length_a 27.863315
_cell_length_b 9.353866
_cell_length_c 14.145743
_cell_angle_alpha 90.000000
_cell_angle_beta 76.169625
_cell_angle_gamma 90.000000
_cell_volume 3579.912074
_symmetry_space_group_name_H-M "C 2/M"
_symmetry_group_IT_number 12
_symmetry_cell_setting 'monoclinic'
loop_
_space_group_symop_operation_xyz
x,y,z
-x,y,-z
-x,-y,-z
x,-y,z
1/2+x,1/2+y,z
1/2-x,1/2+y,-z
1/2-x,1/2-y,-z
1/2+x,1/2-y,z
loop_
_atom_site_type_symbol
_atom_site_label
_atom_site_fract_x
_atom_site_fract_y
_atom_site_fract_z
Si Si1 0.577808 0.163417 0.609562
Si Si2 0.316957 0.835191 0.795153
Si Si3 0.358531 0.662319 0.944226
Si Si4 0.123125 0.333877 0.784965
Si Si5 0.986527 0.839820 0.615658
Si Si6 0.943565 0.833443 0.044543
Si Si7 0.603549 0.836156 0.389179
Si Si8 0.705736 0.666483 0.845119
O O1 0.616185 0.185991 0.676167
O O2 0.529697 0.259723 0.652117
O O3 0.605034 0.207922 0.498978
O O4 0.559611 0.000000 0.612755
O O5 0.350150 0.760822 0.858468
O O6 0.342349 0.811894 0.681014
O O7 0.261532 0.773471 0.816258
O O8 0.314348 0.000000 0.825146
O O9 0.356782 0.500000 0.909748
O O10 0.411810 0.697817 0.965070
O O11 0.315565 0.691470 0.040518
O O12 0.125474 0.500000 0.812785
O O13 0.077180 0.261179 0.860237
O O14 0.174554 0.257574 0.784937
O O15 0.000000 0.840178 0.500000
O O16 0.934841 0.758628 0.652777
O O17 0.981308 0.000000 0.658694
O O18 0.938398 0.000000 0.075158
O O19 0.000000 0.789430 0.000000
O O20 0.586630 0.000000 0.386194
O O21 0.702599 0.500000 0.817584
#
# Coordination Sequence:
#
# PCOD8096168 Si02
#       8
#     8   8   8   8   8   8   8   8
#     4   9  18  33  51  71  99 134 167 198 240 293
#     4  10  20  33  52  75  97 127 166 205 245 292
#     4   9  18  32  51  74 100 130 161 197 245 296
#     4  10  20  33  52  76  98 127 169 209 242 284
#     4   9  17  29  47  71  96 124 162 203 238 278
#     4   9  19  36  54  74 104 137 163 193 242 297
#     4   9  18  33  50  70 101 135 163 198 245 292
#     4   9  19  36  53  71  97 128 163 202 249 301
#
# _framework density 17.877533
#
# number of rings (size 3 to 8) (size 9 to 14) (size 15 to 20)
#    0.000    2.750    0.000    1.875    0.000    6.750 
#    0.000    3.125    0.000    0.000    0.000    0.000 
#    0.000    0.000    0.000    0.000    0.000    0.000 
#
# Total GULP energy -396808.303329 kJ/mol
# GULP energy per Si atom -12400.259479 kJ/mol
# Density = 1.783684 g / cm^3
# Si number density = 17.877533 Si / 1000 Ang^3
#
#
#
# Elastic Constant Matrix: (Units=GPa)
#
#
# Indices 1 2 3 4 5 6 
#
# 1 130.6336 49.2988 59.3383 0.0000 -7.0773 0.0000
# 2 49.2988 78.8929 42.9833 0.0000 5.1036 0.0000
# 3 59.3383 42.9833 80.5223 0.0000 5.3771 0.0000
# 4 0.0000 0.0000 0.0000 22.7838 0.0000 3.9879
# 5 -7.0773 5.1036 5.3771 0.0000 24.4735 0.0000
# 6 0.0000 0.0000 0.0000 3.9879 0.0000 28.2394
#
#
#
# Elastic Compliance Matrix: (Units=1/GPa)
#
#
# Indices 1 2 3 4 5 6 
#
# 1 0.013225 -0.004424 -0.007816 0.000000 0.006464 0.000000
# 2 -0.004424 0.019420 -0.006851 0.000000 -0.003824 0.000000
# 3 -0.007816 -0.006851 0.022217 0.000000 -0.005713 0.000000
# 4 0.000000 0.000000 0.000000 0.045003 0.000000 -0.006355
# 5 0.006464 -0.003824 -0.005713 0.000000 0.044783 0.000000
# 6 0.000000 0.000000 0.000000 -0.006355 0.000000 0.036309
#
#
# Mechanical properties :
#
#
# Convention : Reuss Voigt Hill
#
# Bulk Modulus (GPa) = 59.95062 65.92107 62.93584
# Shear Modulus (GPa) = 22.25205 24.32789 23.28997
#
# Velocity S-wave (km/s) = 3.53185 3.69292 3.61328
# Velocity P-wave (km/s) = 7.08793 7.42545 7.25865
#
# Compressibility (1/GPa) = 0.01668040
#
# Stress axis : x y z
#
# Youngs Moduli (GPa) = 75.61468 51.49373 45.01019
#
# Poissons Ratio (x) = 0.22780 0.35179
# Poissons Ratio (y) = 0.33451 0.30837
# Poissons Ratio (z) = 0.59099 0.35279
#
# Static dielectric constant tensor:
#      x y z
#    x 3.336900 0.000000 -0.058760 
#    y 0.000000 3.376340 0.000000 
#    z -0.058760 0.000000 3.156540 
# 
# 
# High freq. dielectric constant tensor:
#      x y z
#    x 1.688680 0.000000 -0.000680 
#    y 0.000000 1.692750 0.000000 
#    z -0.000680 0.000000 1.677310 
# 
# From -- ./inp_files/248281.got.cif
#   From: 2010.06.25/outbox.cif.g09.slc.cpg/sg12_125_cif.got.tgz:248281.got - 2010.06.28 00:19:55.
