data_PCOD8096022
_publ_section_title
;
Structure prediction by ZEFSAII (Michael W. Deem and Ramdas Pophale) SiO2 
 PCOD8096022
Probable space group: C 2/M
;
_chemical_formula_sum "Si O2"
_cell_formula_units_Z 56
_cell_length_a 18.454244
_cell_length_b 9.629254
_cell_length_c 22.475404
_cell_angle_alpha 90.000000
_cell_angle_beta 52.206442
_cell_angle_gamma 90.000000
_cell_volume 3156.069652
_symmetry_space_group_name_H-M "C 2/M"
_symmetry_group_IT_number 12
_symmetry_cell_setting 'monoclinic'
loop_
_space_group_symop_operation_xyz
x,y,z
-x,y,-z
-x,-y,-z
x,-y,z
1/2+x,1/2+y,z
1/2-x,1/2+y,-z
1/2-x,1/2-y,-z
1/2+x,1/2-y,z
loop_
_atom_site_type_symbol
_atom_site_label
_atom_site_fract_x
_atom_site_fract_y
_atom_site_fract_z
Si Si1 0.757461 0.343988 0.939494
Si Si2 0.110211 0.663160 0.231772
Si Si3 0.558869 0.659881 0.649478
Si Si4 0.084453 0.160495 0.499260
Si Si5 0.757626 0.162999 0.374368
Si Si6 0.094435 0.841169 0.932053
Si Si7 0.727127 0.664795 0.768094
O O1 0.772199 0.500000 0.954490
O O2 0.841990 0.300489 0.854886
O O3 0.663448 0.329861 0.951625
O O4 0.750000 0.250000 0.000000
O O5 0.089455 0.500000 0.247844
O O6 0.176179 0.714590 0.252439
O O7 0.015764 0.745955 0.280759
O O8 0.536669 0.500000 0.675005
O O9 0.555803 0.689788 0.581124
O O10 0.658067 0.700361 0.625355
O O11 0.170297 0.255018 0.441041
O O12 0.000000 0.203823 0.500000
O O13 0.111631 0.000000 0.475906
O O14 0.781333 0.213011 0.295603
O O15 0.734473 0.000000 0.387265
O O16 0.141445 0.772872 0.849406
O O17 0.071096 0.000000 0.928049
O O18 0.000000 0.765030 0.000000
O O19 0.723922 0.500000 0.777029
#
# Coordination Sequence:
#
# PCOD8096022 Si02
#       7
#     8   8   8   8   8   8   8
#     4   9  18  31  48  72  99 127 161 199 239 286
#     4   9  18  33  51  70  95 129 165 197 235 289
#     4  10  21  34  49  74 102 125 157 202 245 284
#     4  10  21  36  52  71  99 133 164 194 234 290
#     4  10  20  33  51  75  99 123 158 205 247 282
#     4   8  14  26  46  70  94 123 159 197 238 282
#     4   8  15  29  47  68  94 122 158 202 239 278
#
# _framework density 17.743587999999999
#
# number of rings (size 3 to 8) (size 9 to 14) (size 15 to 20)
#    0.000    2.857    0.000    3.000    0.000    3.143 
#    0.000    2.857    0.000    1.286    0.000    0.000 
#    0.000    0.000    0.000    0.000    0.000    0.000 
#
# Total GULP energy -347120.340978 kJ/mol
# GULP energy per Si atom -12397.155035 kJ/mol
# Density = 1.770320 g / cm^3
# Si number density = 17.743588 Si / 1000 Ang^3
#
#
#
# Elastic Constant Matrix: (Units=GPa)
#
#
# Indices 1 2 3 4 5 6 
#
# 1 105.4707 47.0692 70.6375 0.0000 -4.3423 0.0001
# 2 47.0692 52.1679 59.7921 0.0000 -6.8907 0.0002
# 3 70.6375 59.7921 123.4508 0.0000 -14.9399 0.0000
# 4 0.0000 0.0000 0.0000 29.5948 0.0000 -2.3814
# 5 -4.3423 -6.8907 -14.9399 0.0000 37.5042 0.0000
# 6 0.0001 0.0002 0.0000 -2.3814 0.0000 17.9776
#
#
#
# Elastic Compliance Matrix: (Units=1/GPa)
#
#
# Indices 1 2 3 4 5 6 
#
# 1 0.017398 -0.009609 -0.005538 0.000000 -0.001957 0.000000
# 2 -0.009609 0.048401 -0.017864 0.000000 0.000664 0.000000
# 3 -0.005538 -0.017864 0.020432 0.000000 0.004216 0.000000
# 4 0.000000 0.000000 0.000000 0.034154 0.000000 0.004524
# 5 -0.001957 0.000664 0.004216 0.000000 0.028238 0.000000
# 6 0.000000 0.000000 0.000000 0.004524 0.000000 0.056224
#
#
# Mechanical properties :
#
#
# Convention : Reuss Voigt Hill
#
# Bulk Modulus (GPa) = 49.48283 70.67634 60.07958
# Shear Modulus (GPa) = 18.01124 23.92136 20.96630
#
# Velocity S-wave (km/s) = 3.18950 3.67573 3.44121
# Velocity P-wave (km/s) = 6.44299 7.61138 7.05143
#
# Compressibility (1/GPa) = 0.02020903
#
# Stress axis : x y z
#
# Youngs Moduli (GPa) = 57.47872 20.66069 48.94382
#
# Poissons Ratio (x) = 0.19852 0.27104
# Poissons Ratio (y) = 0.55230 0.87434
# Poissons Ratio (z) = 0.31831 0.36909
#
# Static dielectric constant tensor:
#      x y z
#    x 3.705090 0.000000 0.065320 
#    y 0.000000 2.975950 0.000000 
#    z 0.065320 0.000000 3.505200 
# 
# 
# High freq. dielectric constant tensor:
#      x y z
#    x 1.689670 0.000000 0.000870 
#    y 0.000000 1.650520 0.000000 
#    z 0.000870 0.000000 1.699920 
# 
# From -- ./inp_files/342330.got.cif
#   From: 2010.06.25/outbox.cif.g09.slc.cpg/sg12_172_cif.got.tgz:342330.got - 2010.06.28 00:19:55.
