data_PCOD8096049
_publ_section_title
;
Structure prediction by ZEFSAII (Michael W. Deem and Ramdas Pophale) SiO2 
 PCOD8096049
Probable space group: C 2/M
;
_chemical_formula_sum "Si O2"
_cell_formula_units_Z 64
_cell_length_a 14.510080
_cell_length_b 9.790844
_cell_length_c 25.582058
_cell_angle_alpha 90.000000
_cell_angle_beta 103.676623
_cell_angle_gamma 90.000000
_cell_volume 3531.289612
_symmetry_space_group_name_H-M "C 2/M"
_symmetry_group_IT_number 12
_symmetry_cell_setting 'monoclinic'
loop_
_space_group_symop_operation_xyz
x,y,z
-x,y,-z
-x,-y,-z
x,-y,z
1/2+x,1/2+y,z
1/2-x,1/2+y,-z
1/2-x,1/2-y,-z
1/2+x,1/2-y,z
loop_
_atom_site_type_symbol
_atom_site_label
_atom_site_fract_x
_atom_site_fract_y
_atom_site_fract_z
Si Si1 0.692116 0.157349 0.250852
Si Si2 0.328407 0.155862 0.870632
Si Si3 0.657381 0.159326 0.500502
Si Si4 0.797681 0.156168 0.049097
Si Si5 0.522441 0.655237 0.234786
Si Si6 0.895989 0.155984 0.315127
Si Si7 0.001677 0.157128 0.113297
Si Si8 0.965142 0.658512 0.415963
O O1 0.708996 0.193023 0.192148
O O2 0.609073 0.248916 0.263519
O O3 0.785233 0.191718 0.296710
O O4 0.663239 0.000000 0.253543
O O5 0.243771 0.184217 0.899120
O O6 0.415796 0.250319 0.899351
O O7 0.363502 0.000000 0.877863
O O8 0.750000 0.250000 0.500000
O O9 0.571982 0.191568 0.449016
O O10 0.615194 0.195053 0.551926
O O11 0.686464 0.000000 0.501165
O O12 0.908473 0.190836 0.067518
O O13 0.780887 0.000000 0.030058
O O14 0.750000 0.250000 0.000000
O O15 0.559225 0.500000 0.241978
O O16 0.437000 0.680101 0.262964
O O17 0.484649 0.692180 0.172026
O O18 0.947734 0.252991 0.362608
O O19 0.911490 0.000000 0.335266
O O20 0.031258 0.000000 0.110516
O O21 0.957198 0.500000 0.400379
#
# Coordination Sequence:
#
# PCOD8096049 Si02
#       8
#     8   8   8   8   8   8   8   8
#     4   9  18  33  52  74 100 131 167 203 242 292
#     4   9  18  34  54  73  96 129 166 203 244 292
#     4   9  19  37  58  76  98 133 173 211 250 292
#     4  10  21  35  51  72  98 128 162 202 250 299
#     4   9  18  33  52  74 100 131 167 203 242 292
#     4  10  20  33  51  76 106 136 165 202 246 293
#     4   9  18  34  54  73  96 129 166 203 244 292
#     4   9  20  37  53  74 105 136 167 205 251 297
#
# _framework density 18.12369
#
# number of rings (size 3 to 8) (size 9 to 14) (size 15 to 20)
#    0.000    2.750    0.000    1.500    0.000    7.500 
#    0.000    8.750    0.000    7.500    0.000    0.000 
#    0.000    0.000    0.000    0.000    0.000    0.000 
#
# Total GULP energy -396789.254222 kJ/mol
# GULP energy per Si atom -12399.664194 kJ/mol
# Density = 1.808244 g / cm^3
# Si number density = 18.123690 Si / 1000 Ang^3
#
#
#
# Elastic Constant Matrix: (Units=GPa)
#
#
# Indices 1 2 3 4 5 6 
#
# 1 85.4036 47.2643 14.7251 0.0000 13.6142 0.0000
# 2 47.2643 70.8894 31.2523 0.0000 13.8213 0.0000
# 3 14.7251 31.2523 50.9918 0.0000 16.9617 0.0000
# 4 0.0000 0.0000 0.0000 33.8777 0.0000 1.3839
# 5 13.6142 13.8213 16.9617 0.0000 20.8564 0.0000
# 6 0.0000 0.0000 0.0000 1.3839 0.0000 36.2125
#
#
#
# Elastic Compliance Matrix: (Units=1/GPa)
#
#
# Indices 1 2 3 4 5 6 
#
# 1 0.019867 -0.014141 0.005657 0.000000 -0.008197 0.000000
# 2 -0.014141 0.029688 -0.014583 0.000000 0.001417 0.000000
# 3 0.005657 -0.014583 0.034173 0.000000 -0.021820 0.000000
# 4 0.000000 0.000000 0.000000 0.029564 0.000000 -0.001130
# 5 -0.008197 0.001417 -0.021820 0.000000 0.070104 0.000000
# 6 0.000000 0.000000 0.000000 -0.001130 0.000000 0.027658
#
#
# Mechanical properties :
#
#
# Convention : Reuss Voigt Hill
#
# Bulk Modulus (GPa) = 26.60085 43.75204 35.17644
# Shear Modulus (GPa) = 18.53771 25.79218 22.16495
#
# Velocity S-wave (km/s) = 3.20166 3.77652 3.50091
# Velocity P-wave (km/s) = 5.32699 6.57338 5.98273
#
# Compressibility (1/GPa) = 0.03759279
#
# Stress axis : x y z
#
# Youngs Moduli (GPa) = 50.33552 33.68381 29.26247
#
# Poissons Ratio (x) = 0.47634 -0.16553
# Poissons Ratio (y) = 0.71182 0.42673
# Poissons Ratio (z) = -0.28474 0.49121
#
# Static dielectric constant tensor:
#      x y z
#    x 3.353900 0.000000 0.039070 
#    y 0.000000 3.354070 0.000000 
#    z 0.039070 0.000000 3.249810 
# 
# 
# High freq. dielectric constant tensor:
#      x y z
#    x 1.703180 0.000000 0.001850 
#    y 0.000000 1.700290 0.000000 
#    z 0.001850 0.000000 1.695360 
# 
# From -- ./inp_files/359763.got.cif
#   From: 2010.06.25/outbox.cif.g09.slc.cpg/sg12_180_cif.got.tgz:359763.got - 2010.06.28 00:19:55.
