data_PCOD8096970
_publ_section_title
;
Structure prediction by ZEFSAII (Michael W. Deem and Ramdas Pophale) SiO2 
 PCOD8096970
Probable space group: C 2/M
;
_chemical_formula_sum "Si O2"
_cell_formula_units_Z 48
_cell_length_a 18.322953
_cell_length_b 9.031405
_cell_length_c 17.944321
_cell_angle_alpha 90.000000
_cell_angle_beta 58.296938
_cell_angle_gamma 90.000000
_cell_volume 2526.368117
_symmetry_space_group_name_H-M "C 2/M"
_symmetry_group_IT_number 12
_symmetry_cell_setting 'monoclinic'
loop_
_space_group_symop_operation_xyz
x,y,z
-x,y,-z
-x,-y,-z
x,-y,z
1/2+x,1/2+y,z
1/2-x,1/2+y,-z
1/2-x,1/2-y,-z
1/2+x,1/2-y,z
loop_
_atom_site_type_symbol
_atom_site_label
_atom_site_fract_x
_atom_site_fract_y
_atom_site_fract_z
Si Si1 0.186404 0.174309 0.847480
Si Si2 0.041930 0.170316 0.657820
Si Si3 0.438700 0.174619 0.200272
Si Si4 0.847525 0.829621 0.709150
Si Si5 0.077232 0.663293 0.016358
Si Si6 0.089234 0.174769 0.476475
O O1 0.135171 0.246370 0.806999
O O2 0.284915 0.225247 0.789974
O O3 0.179372 0.000000 0.845638
O O4 0.149318 0.224149 0.948031
O O5 0.067448 0.275521 0.711561
O O6 0.105405 0.217367 0.554612
O O7 0.943598 0.194581 0.686869
O O8 0.057053 0.000000 0.672896
O O9 0.533746 0.216680 0.117352
O O10 0.423083 0.000000 0.202208
O O11 0.840569 0.782183 0.624375
O O12 0.819215 0.000000 0.734446
O O13 0.118846 0.500000 0.002980
O O14 0.000000 0.654936 0.000000
O O15 0.000000 0.250621 0.500000
O O16 0.076761 0.000000 0.479812
#
# Coordination Sequence:
#
# PCOD8096970 Si02
#       6
#     8   8   8   8   8   8
#     4  11  21  32  50  75 100 126 163 206 242 284
#     4   9  17  31  53  78 100 125 162 204 242 285
#     4  10  20  34  52  73  99 130 162 198 244 295
#     4   9  17  32  53  74 100 132 162 196 243 293
#     4   8  16  32  51  69  92 126 164 198 239 293
#     4   7  12  26  49  73  95 125 163 197 234 286
#
# _framework density 18.999606
#
# number of rings (size 3 to 8) (size 9 to 14) (size 15 to 20)
#    0.000    3.000    0.000    5.000    0.000    4.333 
#    0.000    2.500    0.000    3.000    0.000    0.000 
#    0.000    0.000    0.000    0.000    0.000    0.000 
#
# Total GULP energy -297321.267642 kJ/mol
# GULP energy per Si atom -12388.386152 kJ/mol
# Density = 1.895636 g / cm^3
# Si number density = 18.999606 Si / 1000 Ang^3
#
#
#
# Elastic Constant Matrix: (Units=GPa)
#
#
# Indices 1 2 3 4 5 6 
#
# 1 16.2683 8.6512 -9.5633 0.0000 -0.2141 -0.0001
# 2 8.6512 71.3101 2.0768 0.0000 -3.5498 -0.0003
# 3 -9.5633 2.0768 20.7957 0.0000 1.8036 0.0001
# 4 0.0000 0.0000 0.0000 25.7538 0.0000 2.9609
# 5 -0.2141 -3.5498 1.8036 0.0000 23.7733 0.0000
# 6 -0.0001 -0.0003 0.0001 2.9609 0.0000 21.3103
#
#
#
# Elastic Compliance Matrix: (Units=1/GPa)
#
#
# Indices 1 2 3 4 5 6 
#
# 1 0.095066 -0.013082 0.045418 0.000000 -0.004543 0.000000
# 2 -0.013082 0.015982 -0.007861 0.000000 0.002865 0.000000
# 3 0.045418 -0.007861 0.070287 0.000000 -0.006097 0.000000
# 4 0.000000 0.000000 0.000000 0.039460 0.000000 -0.005483
# 5 -0.004543 0.002865 -0.006097 0.000000 0.042913 0.000000
# 6 0.000000 0.000000 0.000000 -0.005483 0.000000 0.047687
#
#
# Mechanical properties :
#
#
# Convention : Reuss Voigt Hill
#
# Bulk Modulus (GPa) = 4.34242 12.30040 8.32141
# Shear Modulus (GPa) = 14.74029 21.31476 18.02753
#
# Velocity S-wave (km/s) = 2.78838 3.35304 3.08366
# Velocity P-wave (km/s) = 3.55770 4.63450 4.13133
#
# Compressibility (1/GPa) = 0.23028615
#
# Stress axis : x y z
#
# Youngs Moduli (GPa) = 10.51904 62.57073 14.22732
#
# Poissons Ratio (x) = 0.81856 -0.64618
# Poissons Ratio (y) = 0.13761 0.11184
# Poissons Ratio (z) = -0.47776 0.49185
#
# Static dielectric constant tensor:
#      x y z
#    x 2.978590 0.000000 0.056420 
#    y 0.000000 3.217810 0.000000 
#    z 0.056420 0.000000 4.120360 
# 
# 
# High freq. dielectric constant tensor:
#      x y z
#    x 1.690140 0.000000 0.001470 
#    y 0.000000 1.715270 0.000000 
#    z 0.001470 0.000000 1.760320 
# 
# From -- ./inp_files/274001.got.cif
#   From: 2010.06.25/outbox.cif.g09.slc.cpg/sg12_138_cif.got.tgz:274001.got - 2010.06.28 00:19:55.
