data_PCOD8096748
_publ_section_title
;
Structure prediction by ZEFSAII (Michael W. Deem and Ramdas Pophale) SiO2 
 PCOD8096748
Probable space group: C 2/M
;
_chemical_formula_sum "Si O2"
_cell_formula_units_Z 56
_cell_length_a 23.491357
_cell_length_b 8.777442
_cell_length_c 14.420724
_cell_angle_alpha 90.000000
_cell_angle_beta 91.483491
_cell_angle_gamma 90.000000
_cell_volume 2972.470476
_symmetry_space_group_name_H-M "C 2/M"
_symmetry_group_IT_number 12
_symmetry_cell_setting 'monoclinic'
loop_
_space_group_symop_operation_xyz
x,y,z
-x,y,-z
-x,-y,-z
x,-y,z
1/2+x,1/2+y,z
1/2-x,1/2+y,-z
1/2-x,1/2-y,-z
1/2+x,1/2-y,z
loop_
_atom_site_type_symbol
_atom_site_label
_atom_site_fract_x
_atom_site_fract_y
_atom_site_fract_z
Si Si1 0.545119 0.678703 0.775838
Si Si2 0.657530 0.180985 0.029479
Si Si3 0.781816 0.180369 0.791635
Si Si4 0.875130 0.328846 0.685527
Si Si5 0.549590 0.168574 0.128221
Si Si6 0.330878 0.681097 0.166943
Si Si7 0.475388 0.319468 0.596865
O O1 0.548216 0.500000 0.773414
O O2 0.505147 0.724276 0.861325
O O3 0.608597 0.743003 0.792341
O O4 0.518375 0.741088 0.678609
O O5 0.696479 0.237559 0.114890
O O6 0.590816 0.221392 0.046178
O O7 0.666004 0.000000 0.018599
O O8 0.677015 0.269863 0.939650
O O9 0.818074 0.232017 0.703128
O O10 0.717051 0.235847 0.773292
O O11 0.785748 0.000000 0.803294
O O12 0.858310 0.500000 0.655092
O O13 0.912028 0.329377 0.779342
O O14 0.912514 0.251726 0.606044
O O15 0.525858 0.000000 0.107953
O O16 0.324941 0.500000 0.175293
O O17 0.500000 0.264265 0.500000
O O18 0.469042 0.500000 0.601667
#
# Coordination Sequence:
#
# PCOD8096748 Si02
#       7
#     8   8   8   8   8   8   8
#     4   9  19  33  49  71 100 132 163 198 246 299
#     4  10  20  34  50  71  97 129 171 213 251 287
#     4  11  21  34  52  72  96 130 171 211 248 286
#     4   9  17  31  51  76 103 130 161 199 245 293
#     4   8  16  30  48  68  94 127 161 201 244 289
#     4  11  22  34  47  67  98 135 171 207 247 290
#     4   9  17  32  56  83 106 128 158 198 244 296
#
# _framework density 18.839549000000002
#
# number of rings (size 3 to 8) (size 9 to 14) (size 15 to 20)
#    0.000    2.429    0.000    3.857    0.000    6.000 
#    0.000    2.857    0.000    0.857    0.000    0.000 
#    0.000    0.000    0.000    0.000    0.000    0.000 
#
# Total GULP energy -347129.501999 kJ/mol
# GULP energy per Si atom -12397.482214 kJ/mol
# Density = 1.879667 g / cm^3
# Si number density = 18.839549 Si / 1000 Ang^3
#
#
#
# Elastic Constant Matrix: (Units=GPa)
#
#
# Indices 1 2 3 4 5 6 
#
# 1 137.8286 33.3294 32.8009 0.0000 -27.0102 0.0000
# 2 33.3294 55.7181 17.8274 0.0000 -10.2592 0.0000
# 3 32.8009 17.8274 40.1433 0.0000 -24.7885 0.0000
# 4 0.0000 0.0000 0.0000 17.3750 0.0000 -9.2053
# 5 -27.0102 -10.2592 -24.7885 0.0000 30.4621 0.0000
# 6 0.0000 0.0000 0.0000 -9.2053 0.0000 33.7711
#
#
#
# Elastic Compliance Matrix: (Units=1/GPa)
#
#
# Indices 1 2 3 4 5 6 
#
# 1 0.009962 -0.003983 -0.003507 0.000000 0.004638 0.000000
# 2 -0.003983 0.022529 -0.008535 0.000000 -0.002889 0.000000
# 3 -0.003507 -0.008535 0.056022 0.000000 0.039603 0.000000
# 4 0.000000 0.000000 0.000000 0.067268 0.000000 0.018336
# 5 0.004638 -0.002889 0.039603 0.000000 0.068194 0.000000
# 6 0.000000 0.000000 0.000000 0.018336 0.000000 0.034609
#
#
# Mechanical properties :
#
#
# Convention : Reuss Voigt Hill
#
# Bulk Modulus (GPa) = 17.71081 44.62283 31.16682
# Shear Modulus (GPa) = 16.15747 26.30382 21.23064
#
# Velocity S-wave (km/s) = 2.93172 3.74063 3.36060
# Velocity P-wave (km/s) = 4.56960 6.51104 5.62471
#
# Compressibility (1/GPa) = 0.05646268
#
# Stress axis : x y z
#
# Youngs Moduli (GPa) = 100.38066 44.38778 17.85023
#
# Poissons Ratio (x) = 0.17680 0.06261
# Poissons Ratio (y) = 0.39981 0.15234
# Poissons Ratio (z) = 0.35207 0.37883
#
# Static dielectric constant tensor:
#      x y z
#    x 3.835250 0.000000 -0.239030 
#    y 0.000000 3.438180 0.000000 
#    z -0.239030 0.000000 3.272300 
# 
# 
# High freq. dielectric constant tensor:
#      x y z
#    x 1.740650 0.000000 -0.025340 
#    y 0.000000 1.732290 0.000000 
#    z -0.025340 0.000000 1.690240 
# 
# From -- ./inp_files/230955.got.cif
#   From: 2010.06.25/outbox.cif.g09.slc.cpg/sg12_116_cif.got.tgz:230955.got - 2010.06.28 00:19:55.
