data_PCOD8096122
_publ_section_title
;
Structure prediction by ZEFSAII (Michael W. Deem and Ramdas Pophale) SiO2 
 PCOD8096122
Probable space group: C 2/M
;
_chemical_formula_sum "Si O2"
_cell_formula_units_Z 56
_cell_length_a 20.208683
_cell_length_b 24.933623
_cell_length_c 5.977789
_cell_angle_alpha 90.000000
_cell_angle_beta 56.913747
_cell_angle_gamma 90.000000
_cell_volume 2523.655733
_symmetry_space_group_name_H-M "C 2/M"
_symmetry_group_IT_number 12
_symmetry_cell_setting 'monoclinic'
loop_
_space_group_symop_operation_xyz
x,y,z
-x,y,-z
-x,-y,-z
x,-y,z
1/2+x,1/2+y,z
1/2-x,1/2+y,-z
1/2-x,1/2-y,-z
1/2+x,1/2-y,z
loop_
_atom_site_type_symbol
_atom_site_label
_atom_site_fract_x
_atom_site_fract_y
_atom_site_fract_z
Si Si1 0.500000 0.142349 0.500000
Si Si2 0.146228 0.383249 0.973569
Si Si3 0.744958 0.440988 0.542613
Si Si4 0.239789 0.337029 0.178626
Si Si5 0.418989 0.595797 0.275047
Si Si6 0.101500 0.197989 0.957384
Si Si7 0.096838 0.695253 0.696214
Si Si8 0.500000 0.356137 0.500000
O O1 0.526291 0.181963 0.653284
O O2 0.425618 0.104674 0.716144
O O3 0.194624 0.432919 0.779013
O O4 0.103753 0.354459 0.848248
O O5 0.211658 0.346039 0.975982
O O6 0.763734 0.500000 0.608579
O O7 0.755297 0.395612 0.712324
O O8 0.653986 0.444279 0.623437
O O9 0.319953 0.302518 0.034564
O O10 0.178368 0.297678 0.413933
O O11 0.387670 0.652965 0.248358
O O12 0.435021 0.603860 0.511044
O O13 0.500000 0.576596 0.000000
O O14 0.079744 0.252802 0.876337
O O15 0.029314 0.182514 0.249910
#
# Coordination Sequence:
#
# PCOD8096122 Si02
#       8
#     4   8   8   8   8   8   8   4
#     4  10  22  39  57  82 118 152 187 234 284 331
#     4  10  21  37  58  84 114 149 190 237 284 335
#     4  10  21  39  61  83 109 145 191 239 291 348
#     4   9  20  38  57  82 116 149 185 238 290 331
#     4   9  20  36  54  81 117 153 189 232 280 332
#     4  10  20  34  54  83 118 155 193 227 270 332
#     4  10  21  35  58  86 114 152 193 230 276 335
#     4  10  20  33  51  78 118 156 187 228 274 321
#
# _framework density 22.19003
#
# number of rings (size 3 to 8) (size 9 to 14) (size 15 to 20)
#    0.000    2.286    0.000    1.714    0.000    8.286 
#    0.000    0.714    0.000   11.143    0.000    3.000 
#    0.000    0.000    0.000    0.000    0.000    0.000 
#
# Total GULP energy -346935.824751 kJ/mol
# GULP energy per Si atom -12390.565170 kJ/mol
# Density = 2.213952 g / cm^3
# Si number density = 22.190030 Si / 1000 Ang^3
#
#
#
# Elastic Constant Matrix: (Units=GPa)
#
#
# Indices 1 2 3 4 5 6 
#
# 1 139.5027 19.6160 31.8405 0.0000 4.6721 0.0000
# 2 19.6160 73.0221 29.8695 0.0000 -1.1648 0.0000
# 3 31.8405 29.8695 58.9901 0.0000 2.0811 0.0000
# 4 0.0000 0.0000 0.0000 17.5161 0.0000 3.6414
# 5 4.6721 -1.1648 2.0811 0.0000 47.3691 0.0000
# 6 0.0000 0.0000 0.0000 3.6414 0.0000 5.3753
#
#
#
# Elastic Compliance Matrix: (Units=1/GPa)
#
#
# Indices 1 2 3 4 5 6 
#
# 1 0.008209 -0.000520 -0.004145 0.000000 -0.000640 0.000000
# 2 -0.000520 0.017336 -0.008527 0.000000 0.000852 0.000000
# 3 -0.004145 -0.008527 0.023537 0.000000 -0.000835 0.000000
# 4 0.000000 0.000000 0.000000 0.066448 0.000000 -0.045014
# 5 -0.000640 0.000852 -0.000835 0.000000 0.021232 0.000000
# 6 0.000000 0.000000 0.000000 -0.045014 0.000000 0.216528
#
#
# Mechanical properties :
#
#
# Convention : Reuss Voigt Hill
#
# Bulk Modulus (GPa) = 44.05917 48.24075 46.14996
# Shear Modulus (GPa) = 12.91190 26.73137 19.82163
#
# Velocity S-wave (km/s) = 2.41483 3.47458 2.99200
# Velocity P-wave (km/s) = 5.26058 6.15500 5.72528
#
# Compressibility (1/GPa) = 0.02269675
#
# Stress axis : x y z
#
# Youngs Moduli (GPa) = 121.81841 57.68399 42.48705
#
# Poissons Ratio (x) = 0.02999 0.17611
# Poissons Ratio (y) = 0.06333 0.36230
# Poissons Ratio (z) = 0.50494 0.49189
#
# Static dielectric constant tensor:
#      x y z
#    x 4.526290 0.000000 -0.111220 
#    y 0.000000 3.473920 0.000000 
#    z -0.111220 0.000000 4.164040 
# 
# 
# High freq. dielectric constant tensor:
#      x y z
#    x 1.900040 0.000000 -0.004260 
#    y 0.000000 1.819350 0.000000 
#    z -0.004260 0.000000 1.878640 
# 
# From -- ./inp_files/22298.got.cif
#   From: 2010.06.25/outbox.cif.g09.slc.cpg/sg12_12_cif.got.tgz:22298.got - 2010.06.28 00:19:55.
