data_PCOD8096882
_publ_section_title
;
Structure prediction by ZEFSAII (Michael W. Deem and Ramdas Pophale) SiO2 
 PCOD8096882
Probable space group: C 2/M
;
_chemical_formula_sum "Si O2"
_cell_formula_units_Z 64
_cell_length_a 14.448643
_cell_length_b 9.266609
_cell_length_c 27.218083
_cell_angle_alpha 90.000000
_cell_angle_beta 106.011850
_cell_angle_gamma 90.000000
_cell_volume 3502.848097
_symmetry_space_group_name_H-M "C 2/M"
_symmetry_group_IT_number 12
_symmetry_cell_setting 'monoclinic'
loop_
_space_group_symop_operation_xyz
x,y,z
-x,y,-z
-x,-y,-z
x,-y,z
1/2+x,1/2+y,z
1/2-x,1/2+y,-z
1/2-x,1/2-y,-z
1/2+x,1/2-y,z
loop_
_atom_site_type_symbol
_atom_site_label
_atom_site_fract_x
_atom_site_fract_y
_atom_site_fract_z
Si Si1 0.970409 0.835158 0.231901
Si Si2 0.831417 0.832293 0.691507
Si Si3 0.296655 0.332102 0.575223
Si Si4 0.260024 0.670236 0.234538
Si Si5 0.580189 0.164905 0.865142
Si Si6 0.793029 0.170236 0.867558
Si Si7 0.601816 0.168901 0.493228
Si Si8 0.960982 0.332852 0.941299
O O1 0.871915 0.790631 0.244151
O O2 0.985394 0.749861 0.183396
O O3 0.056413 0.801693 0.281879
O O4 0.967998 0.000000 0.215540
O O5 0.809370 0.783647 0.633066
O O6 0.767032 0.732531 0.716645
O O7 0.805236 0.000000 0.696442
O O8 0.318699 0.500000 0.571367
O O9 0.375308 0.247754 0.554519
O O10 0.187153 0.294424 0.543984
O O11 0.239378 0.500000 0.229026
O O12 0.197323 0.749726 0.183434
O O13 0.691337 0.209919 0.877355
O O14 0.546082 0.198290 0.915137
O O15 0.566003 0.000000 0.848848
O O16 0.871296 0.231204 0.916455
O O17 0.807284 0.000000 0.861678
O O18 0.500000 0.225006 0.500000
O O19 0.595594 0.000000 0.481060
O O20 0.928455 0.500000 0.935192
O O21 0.000000 0.288122 0.000000
#
# Coordination Sequence:
#
# PCOD8096882 Si02
#       8
#     8   8   8   8   8   8   8   8
#     4   9  19  34  51  72  99 131 165 201 244 297
#     4  10  20  34  51  74 106 137 165 205 254 299
#     4   9  19  34  51  74 103 134 169 209 254 302
#     4  10  20  34  52  75 101 131 167 203 245 298
#     4   9  19  35  53  73  99 131 166 204 247 297
#     4  10  20  35  54  75 100 131 168 208 248 295
#     4   9  18  34  54  74  99 133 173 215 256 300
#     4  10  21  36  53  75 103 133 166 207 255 303
#
# _framework density 18.270847
#
# number of rings (size 3 to 8) (size 9 to 14) (size 15 to 20)
#    0.000    2.500    0.000    1.500    0.000    6.500 
#    0.000    0.000    0.000    0.000    0.000    0.000 
#    0.000    0.000    0.000    0.000    0.000    0.000 
#
# Total GULP energy -396894.834853 kJ/mol
# GULP energy per Si atom -12402.963589 kJ/mol
# Density = 1.822926 g / cm^3
# Si number density = 18.270847 Si / 1000 Ang^3
#
#
#
# Elastic Constant Matrix: (Units=GPa)
#
#
# Indices 1 2 3 4 5 6 
#
# 1 105.8298 48.7289 67.0554 0.0000 -7.3348 0.0000
# 2 48.7289 69.5555 60.8398 0.0000 -5.3901 0.0000
# 3 67.0554 60.8398 157.7127 0.0000 -9.7762 0.0000
# 4 0.0000 0.0000 0.0000 31.3713 0.0000 -4.5588
# 5 -7.3348 -5.3901 -9.7762 0.0000 19.8731 0.0000
# 6 0.0000 0.0000 0.0000 -4.5588 0.0000 14.5126
#
#
#
# Elastic Compliance Matrix: (Units=1/GPa)
#
#
# Indices 1 2 3 4 5 6 
#
# 1 0.015224 -0.007486 -0.003468 0.000000 0.001882 0.000000
# 2 -0.007486 0.025444 -0.006577 0.000000 0.000903 0.000000
# 3 -0.003468 -0.006577 0.010482 0.000000 0.002093 0.000000
# 4 0.000000 0.000000 0.000000 0.033401 0.000000 0.010492
# 5 0.001882 0.000903 0.002093 0.000000 0.052288 0.000000
# 6 0.000000 0.000000 0.000000 0.010492 0.000000 0.072202
#
#
# Mechanical properties :
#
#
# Convention : Reuss Voigt Hill
#
# Bulk Modulus (GPa) = 62.15716 76.26067 69.20891
# Shear Modulus (GPa) = 20.04282 23.58297 21.81290
#
# Velocity S-wave (km/s) = 3.31567 3.59659 3.45898
# Velocity P-wave (km/s) = 6.98226 7.68615 7.34264
#
# Compressibility (1/GPa) = 0.01608825
#
# Stress axis : x y z
#
# Youngs Moduli (GPa) = 65.68526 39.30209 95.40148
#
# Poissons Ratio (x) = 0.29421 0.33089
# Poissons Ratio (y) = 0.49172 0.62741
# Poissons Ratio (z) = 0.22782 0.25847
#
# Static dielectric constant tensor:
#      x y z
#    x 3.500860 0.000000 0.008560 
#    y 0.000000 3.348220 0.000000 
#    z 0.008560 0.000000 3.369820 
# 
# 
# High freq. dielectric constant tensor:
#      x y z
#    x 1.714470 0.000000 -0.000250 
#    y 0.000000 1.707230 0.000000 
#    z -0.000250 0.000000 1.703740 
# 
# From -- ./inp_files/359902.got.cif
#   From: 2010.06.25/outbox.cif.g09.slc.cpg/sg12_180_cif.got.tgz:359902.got - 2010.06.28 00:19:55.
