data_PCOD8096507
_publ_section_title
;
Structure prediction by ZEFSAII (Michael W. Deem and Ramdas Pophale) SiO2 
 PCOD8096507
Probable space group: C 2/M
;
_chemical_formula_sum "Si O2"
_cell_formula_units_Z 56
_cell_length_a 23.733389
_cell_length_b 9.395018
_cell_length_c 14.221594
_cell_angle_alpha 90.000000
_cell_angle_beta 71.572848
_cell_angle_gamma 90.000000
_cell_volume 3008.476338
_symmetry_space_group_name_H-M "C 2/M"
_symmetry_group_IT_number 12
_symmetry_cell_setting 'monoclinic'
loop_
_space_group_symop_operation_xyz
x,y,z
-x,y,-z
-x,-y,-z
x,-y,z
1/2+x,1/2+y,z
1/2-x,1/2+y,-z
1/2-x,1/2-y,-z
1/2+x,1/2-y,z
loop_
_atom_site_type_symbol
_atom_site_label
_atom_site_fract_x
_atom_site_fract_y
_atom_site_fract_z
Si Si1 0.794367 0.836842 0.850872
Si Si2 0.689216 0.165059 0.524174
Si Si3 0.347996 0.163551 0.666553
Si Si4 0.665256 0.163127 0.000709
Si Si5 0.982245 0.667951 0.609775
Si Si6 0.078806 0.330374 0.703457
Si Si7 0.560696 0.169400 0.922852
O O1 0.802282 0.764272 0.745454
O O2 0.725787 0.820976 0.911845
O O3 0.814425 0.000000 0.835858
O O4 0.835113 0.757048 0.905461
O O5 0.750000 0.250000 0.500000
O O6 0.658046 0.192054 0.440738
O O7 0.642371 0.218542 0.627698
O O8 0.704497 0.000000 0.530545
O O9 0.413910 0.204576 0.666756
O O10 0.333268 0.000000 0.698048
O O11 0.613895 0.222473 0.960727
O O12 0.653815 0.000000 0.036778
O O13 0.992172 0.500000 0.599254
O O14 0.000000 0.735628 0.500000
O O15 0.024630 0.731078 0.668937
O O16 0.076282 0.500000 0.705306
O O17 0.070690 0.268515 0.812821
O O18 0.559658 0.000000 0.918348
O O19 0.500000 0.228471 0.000000
#
# Coordination Sequence:
#
# PCOD8096507 Si02
#       7
#     8   8   8   8   8   8   8
#     4  10  21  35  54  79 107 141 174 213 268 323
#     4  10  21  35  53  79 112 146 180 216 260 318
#     4  10  20  33  54  83 107 134 177 223 266 315
#     4   9  19  36  55  77 104 136 178 224 266 312
#     4   9  15  28  50  77 104 131 171 223 269 302
#     4   9  17  30  50  77 108 139 173 220 270 312
#     4   9  18  30  49  80 108 132 172 224 273 312
#
# _framework density 18.614073000000001
#
# number of rings (size 3 to 8) (size 9 to 14) (size 15 to 20)
#    0.000    2.571    1.429    0.429    4.000    1.143 
#    0.000    0.000    0.000    1.714    0.000    0.000 
#    0.000    0.000    0.000    0.000    0.000    0.000 
#
# Total GULP energy -347190.699659 kJ/mol
# GULP energy per Si atom -12399.667845 kJ/mol
# Density = 1.857171 g / cm^3
# Si number density = 18.614073 Si / 1000 Ang^3
#
#
#
# Elastic Constant Matrix: (Units=GPa)
#
#
# Indices 1 2 3 4 5 6 
#
# 1 135.0986 31.9854 53.7469 0.0000 9.7068 0.0000
# 2 31.9854 50.1851 39.9974 0.0000 -2.3875 0.0000
# 3 53.7469 39.9974 135.4669 0.0000 -1.3114 0.0000
# 4 0.0000 0.0000 0.0000 21.3766 0.0000 -1.3725
# 5 9.7068 -2.3875 -1.3114 0.0000 22.9605 0.0000
# 6 0.0000 0.0000 0.0000 -1.3725 0.0000 17.3675
#
#
#
# Elastic Compliance Matrix: (Units=1/GPa)
#
#
# Indices 1 2 3 4 5 6 
#
# 1 0.009838 -0.004380 -0.002656 0.000000 -0.004766 0.000000
# 2 -0.004380 0.028127 -0.006524 0.000000 0.004404 0.000000
# 3 -0.002656 -0.006524 0.010372 0.000000 0.001037 0.000000
# 4 0.000000 0.000000 0.000000 0.047019 0.000000 0.003716
# 5 -0.004766 0.004404 0.001037 0.000000 0.046085 0.000000
# 6 0.000000 0.000000 0.000000 0.003716 0.000000 0.057873
#
#
# Mechanical properties :
#
#
# Convention : Reuss Voigt Hill
#
# Bulk Modulus (GPa) = 47.13356 63.57889 55.35622
# Shear Modulus (GPa) = 21.41260 25.34231 23.37746
#
# Velocity S-wave (km/s) = 3.39535 3.69380 3.54772
# Velocity P-wave (km/s) = 6.38339 7.24035 6.82533
#
# Compressibility (1/GPa) = 0.02121631
#
# Stress axis : x y z
#
# Youngs Moduli (GPa) = 101.64428 35.55273 96.41232
#
# Poissons Ratio (x) = 0.15573 0.25609
# Poissons Ratio (y) = 0.44522 0.62902
# Poissons Ratio (z) = 0.26999 0.23196
#
# Static dielectric constant tensor:
#      x y z
#    x 3.540260 0.000000 0.065710 
#    y 0.000000 2.980210 0.000000 
#    z 0.065710 0.000000 3.572870 
# 
# 
# High freq. dielectric constant tensor:
#      x y z
#    x 1.731200 0.000000 0.000910 
#    y 0.000000 1.664220 0.000000 
#    z 0.000910 0.000000 1.734920 
# 
# From -- ./inp_files/237334.got.cif
#   From: 2010.06.25/outbox.cif.g09.slc.cpg/sg12_119_cif.got.tgz:237334.got - 2010.06.28 00:19:55.
