data_PCOD8096421
_publ_section_title
;
Structure prediction by ZEFSAII (Michael W. Deem and Ramdas Pophale) SiO2 
 PCOD8096421
Probable space group: C 2/M
;
_chemical_formula_sum "Si O2"
_cell_formula_units_Z 48
_cell_length_a 23.134810
_cell_length_b 13.730716
_cell_length_c 15.670775
_cell_angle_alpha 90.000000
_cell_angle_beta 32.140079
_cell_angle_gamma 90.000000
_cell_volume 2648.219007
_symmetry_space_group_name_H-M "C 2/M"
_symmetry_group_IT_number 12
_symmetry_cell_setting 'monoclinic'
loop_
_space_group_symop_operation_xyz
x,y,z
-x,y,-z
-x,-y,-z
x,-y,z
1/2+x,1/2+y,z
1/2-x,1/2+y,-z
1/2-x,1/2-y,-z
1/2+x,1/2-y,z
loop_
_atom_site_type_symbol
_atom_site_label
_atom_site_fract_x
_atom_site_fract_y
_atom_site_fract_z
Si Si1 0.280562 0.888031 0.606955
Si Si2 0.064058 0.787230 0.832607
Si Si3 0.808823 0.389612 0.763283
Si Si4 0.478073 0.888834 0.231484
Si Si5 0.873710 0.721354 0.834799
Si Si6 0.068918 0.891564 0.138157
O O1 0.189630 0.812737 0.689588
O O2 0.318205 0.855560 0.654156
O O3 0.382579 0.876419 0.418690
O O4 0.237346 0.000000 0.662856
O O5 0.048660 0.677379 0.817229
O O6 0.021041 0.865776 0.818972
O O7 0.000000 0.798958 0.000000
O O8 0.849586 0.500000 0.723101
O O9 0.889111 0.323319 0.721000
O O10 0.685219 0.379018 0.948306
O O11 0.590042 0.856307 0.137713
O O12 0.489870 0.000000 0.185322
O O13 0.942975 0.820062 0.764921
O O14 0.750000 0.750000 0.000000
O O15 0.048976 0.000000 0.196866
#
# Coordination Sequence:
#
# PCOD8096421 Si02
#       6
#     8   8   8   8   8   8
#     4  10  20  33  53  81 111 139 172 220 271 314
#     4  11  20  33  55  77 106 142 183 220 256 309
#     4   9  16  28  49  75 102 130 167 212 260 310
#     4  10  22  37  52  77 110 142 175 216 270 319
#     4   9  18  32  51  73 102 135 170 212 263 317
#     4   9  17  29  48  76 102 128 170 221 261 298
#
# _framework density 18.125389999999999
#
# number of rings (size 3 to 8) (size 9 to 14) (size 15 to 20)
#    0.000    2.333    1.667    1.500    0.000    2.333 
#    0.000    2.500    0.000    0.000    0.000    4.667 
#    0.000    0.000    0.000    0.000    0.000    0.000 
#
# Total GULP energy -297511.970316 kJ/mol
# GULP energy per Si atom -12396.332096 kJ/mol
# Density = 1.808414 g / cm^3
# Si number density = 18.125390 Si / 1000 Ang^3
#
#
#
# Elastic Constant Matrix: (Units=GPa)
#
#
# Indices 1 2 3 4 5 6 
#
# 1 124.8275 60.0563 23.5488 0.0000 1.2739 0.0000
# 2 60.0563 115.4545 15.1955 0.0000 -4.1689 0.0000
# 3 23.5488 15.1955 33.8366 0.0000 -7.6164 0.0000
# 4 0.0000 0.0000 0.0000 10.4835 0.0000 -6.6723
# 5 1.2739 -4.1689 -7.6164 0.0000 16.3314 0.0000
# 6 0.0000 0.0000 0.0000 -6.6723 0.0000 22.8627
#
#
#
# Elastic Compliance Matrix: (Units=1/GPa)
#
#
# Indices 1 2 3 4 5 6 
#
# 1 0.012103 -0.005552 -0.007219 0.000000 -0.005728 0.000000
# 2 -0.005552 0.011756 -0.000718 0.000000 0.003099 0.000000
# 3 -0.007219 -0.000718 0.039089 0.000000 0.018610 0.000000
# 4 0.000000 0.000000 0.000000 0.117147 0.000000 0.034189
# 5 -0.005728 0.003099 0.018610 0.000000 0.071148 0.000000
# 6 0.000000 0.000000 0.000000 0.034189 0.000000 0.053717
#
#
# Mechanical properties :
#
#
# Convention : Reuss Voigt Hill
#
# Bulk Modulus (GPa) = 27.80084 52.41329 40.10707
# Shear Modulus (GPa) = 14.53793 21.62339 18.08066
#
# Velocity S-wave (km/s) = 2.83517 3.45771 3.16180
# Velocity P-wave (km/s) = 5.10773 6.70230 5.95860
#
# Compressibility (1/GPa) = 0.03597013
#
# Stress axis : x y z
#
# Youngs Moduli (GPa) = 82.62721 85.06384 25.58268
#
# Poissons Ratio (x) = 0.47229 0.18468
# Poissons Ratio (y) = 0.45876 0.01836
# Poissons Ratio (z) = 0.59647 0.06105
#
# Static dielectric constant tensor:
#      x y z
#    x 3.185440 0.000000 -0.580190 
#    y 0.000000 3.632540 0.000000 
#    z -0.580190 0.000000 2.297710 
# 
# 
# High freq. dielectric constant tensor:
#      x y z
#    x 1.716710 0.000000 -0.008980 
#    y 0.000000 1.702760 0.000000 
#    z -0.008980 0.000000 1.670080 
# 
# From -- ./inp_files/143174.got.cif
#   From: 2010.06.25/outbox.cif.g09.slc.cpg/sg12_72_cif.got.tgz:143174.got - 2010.06.28 00:19:55.
