data_PCOD8096357
_publ_section_title
;
Structure prediction by ZEFSAII (Michael W. Deem and Ramdas Pophale) SiO2 
 PCOD8096357
Probable space group: C 2/M
;
_chemical_formula_sum "Si O2"
_cell_formula_units_Z 56
_cell_length_a 19.139872
_cell_length_b 8.860120
_cell_length_c 28.411119
_cell_angle_alpha 90.000000
_cell_angle_beta 140.307066
_cell_angle_gamma 90.000000
_cell_volume 3077.127410
_symmetry_space_group_name_H-M "C 2/M"
_symmetry_group_IT_number 12
_symmetry_cell_setting 'monoclinic'
loop_
_space_group_symop_operation_xyz
x,y,z
-x,y,-z
-x,-y,-z
x,-y,z
1/2+x,1/2+y,z
1/2-x,1/2+y,-z
1/2-x,1/2-y,-z
1/2+x,1/2-y,z
loop_
_atom_site_type_symbol
_atom_site_label
_atom_site_fract_x
_atom_site_fract_y
_atom_site_fract_z
Si Si1 0.816815 0.675365 0.700821
Si Si2 0.815464 0.175055 0.603687
Si Si3 0.563608 0.325483 0.579935
Si Si4 0.905238 0.325388 0.562373
Si Si5 0.499267 0.321405 0.148085
Si Si6 0.208986 0.322033 0.931039
Si Si7 0.565868 0.677463 0.989428
O O1 0.843276 0.500000 0.720105
O O2 0.851695 0.728801 0.667294
O O3 0.690100 0.712689 0.641259
O O4 0.881658 0.767104 0.774203
O O5 0.895222 0.223082 0.603172
O O6 0.691184 0.213136 0.524478
O O7 0.831111 0.000000 0.623391
O O8 0.500000 0.279552 0.500000
O O9 0.542202 0.500000 0.581138
O O10 0.519757 0.219361 0.598657
O O11 0.902782 0.500000 0.575666
O O12 0.489178 0.500000 0.145590
O O13 0.410342 0.251525 0.139183
O O14 0.481139 0.262651 0.085013
O O15 0.195569 0.500000 0.929912
O O16 0.250000 0.250000 0.000000
O O17 0.302700 0.285939 0.940018
O O18 0.547005 0.500000 0.980891
O O19 0.500000 0.750059 0.000000
#
# Coordination Sequence:
#
# PCOD8096357 Si02
#       7
#     8   8   8   8   8   8   8
#     4  11  22  36  55  77 106 142 182 227 279 334
#     4  10  20  34  53  76 103 134 172 221 272 323
#     4  10  20  35  54  76 104 141 183 229 279 330
#     4  10  20  33  53  78 103 132 173 223 271 325
#     4  10  20  34  53  77 107 141 178 222 269 321
#     4   9  16  29  52  78 105 137 173 213 255 309
#     4   8  15  30  54  82 107 135 173 214 256 304
#
# _framework density 18.198792000000001
#
# number of rings (size 3 to 8) (size 9 to 14) (size 15 to 20)
#    0.000    2.286    1.429    3.000    0.000    2.571 
#    0.000    1.429    0.000   20.571    0.000    0.000 
#    0.000    0.000    0.000    0.000    0.000    0.000 
#
# Total GULP energy -347098.735467 kJ/mol
# GULP energy per Si atom -12396.383410 kJ/mol
# Density = 1.815737 g / cm^3
# Si number density = 18.198792 Si / 1000 Ang^3
#
#
#
# Elastic Constant Matrix: (Units=GPa)
#
#
# Indices 1 2 3 4 5 6 
#
# 1 124.4072 39.7273 47.9716 0.0000 7.4402 -0.0001
# 2 39.7273 60.8366 30.1855 0.0000 5.4324 -0.0003
# 3 47.9716 30.1855 88.3516 0.0000 7.0039 0.0000
# 4 0.0000 0.0000 0.0000 29.3075 0.0000 2.7570
# 5 7.4402 5.4324 7.0039 0.0000 21.0152 0.0000
# 6 -0.0001 -0.0003 0.0000 2.7570 0.0000 28.8178
#
#
#
# Elastic Compliance Matrix: (Units=1/GPa)
#
#
# Indices 1 2 3 4 5 6 
#
# 1 0.011450 -0.005213 -0.004336 0.000000 -0.001261 0.000000
# 2 -0.005213 0.022345 -0.004614 0.000000 -0.002393 0.000000
# 3 -0.004336 -0.004614 0.015441 0.000000 -0.002418 0.000000
# 4 0.000000 0.000000 0.000000 0.034431 0.000000 -0.003294
# 5 -0.001261 -0.002393 -0.002418 0.000000 0.049455 0.000000
# 6 0.000000 0.000000 0.000000 -0.003294 0.000000 0.035016
#
#
# Mechanical properties :
#
#
# Convention : Reuss Voigt Hill
#
# Bulk Modulus (GPa) = 47.82491 56.59603 52.21047
# Shear Modulus (GPa) = 24.57803 26.20886 25.39345
#
# Velocity S-wave (km/s) = 3.67894 3.79904 3.73947
# Velocity P-wave (km/s) = 6.66201 7.09999 6.88449
#
# Compressibility (1/GPa) = 0.02090960
#
# Stress axis : x y z
#
# Youngs Moduli (GPa) = 87.33438 44.75332 64.76382
#
# Poissons Ratio (x) = 0.23331 0.28081
# Poissons Ratio (y) = 0.45529 0.29881
# Poissons Ratio (z) = 0.37868 0.20649
#
# Static dielectric constant tensor:
#      x y z
#    x 3.628540 0.000000 0.169570 
#    y 0.000000 3.309370 0.000000 
#    z 0.169570 0.000000 3.269530 
# 
# 
# High freq. dielectric constant tensor:
#      x y z
#    x 1.707220 0.000000 0.011480 
#    y 0.000000 1.703130 0.000000 
#    z 0.011480 0.000000 1.681100 
# 
# From -- ./inp_files/342519.got.cif
#   From: 2010.06.25/outbox.cif.g09.slc.cpg/sg12_172_cif.got.tgz:342519.got - 2010.06.28 00:19:55.
