data_PCOD8096590
_publ_section_title
;
Structure prediction by ZEFSAII (Michael W. Deem and Ramdas Pophale) SiO2 
 PCOD8096590
Probable space group: C 2/M
;
_chemical_formula_sum "Si O2"
_cell_formula_units_Z 48
_cell_length_a 24.582817
_cell_length_b 8.877953
_cell_length_c 19.084682
_cell_angle_alpha 90.000000
_cell_angle_beta 33.631022
_cell_angle_gamma 90.000000
_cell_volume 2306.830319
_symmetry_space_group_name_H-M "C 2/M"
_symmetry_group_IT_number 12
_symmetry_cell_setting 'monoclinic'
loop_
_space_group_symop_operation_xyz
x,y,z
-x,y,-z
-x,-y,-z
x,-y,z
1/2+x,1/2+y,z
1/2-x,1/2+y,-z
1/2-x,1/2-y,-z
1/2+x,1/2-y,z
loop_
_atom_site_type_symbol
_atom_site_label
_atom_site_fract_x
_atom_site_fract_y
_atom_site_fract_z
Si Si1 0.585935 0.175076 0.003631
Si Si2 0.870475 0.325413 0.202498
Si Si3 0.025159 0.322788 0.309309
Si Si4 0.342814 0.322068 0.938655
Si Si5 0.394362 0.667686 0.647434
Si Si6 0.320977 0.176170 0.594892
O O1 0.470024 0.211918 0.137877
O O2 0.652029 0.272110 0.985830
O O3 0.605246 0.000000 0.997727
O O4 0.616038 0.218809 0.893026
O O5 0.843728 0.500000 0.238918
O O6 0.781026 0.227996 0.331657
O O7 0.036524 0.500000 0.285972
O O8 0.056727 0.236632 0.205227
O O9 0.100221 0.271626 0.289818
O O10 0.913177 0.276562 0.447586
O O11 0.334720 0.500000 0.942127
O O12 0.250000 0.250000 0.000000
O O13 0.500000 0.657092 0.500000
O O14 0.356153 0.500000 0.708370
O O15 0.321598 0.741245 0.669423
O O16 0.324287 0.000000 0.605102
#
# Coordination Sequence:
#
# PCOD8096590 Si02
#       6
#     8   8   8   8   8   8
#     4   9  20  41  63  87 118 154 196 243 290 344
#     4   9  19  37  64  90 117 153 194 241 293 346
#     4  10  21  38  56  80 116 155 195 242 292 345
#     4  12  26  42  62  86 116 157 197 241 292 351
#     4   9  17  30  50  77 111 150 190 233 283 340
#     4  10  20  33  55  86 119 152 191 242 295 343
#
# _framework density 20.807770999999999
#
# number of rings (size 3 to 8) (size 9 to 14) (size 15 to 20)
#    0.000    2.167    0.000    4.000    2.333    5.333 
#    0.000    2.500    0.000    0.000    0.000    0.000 
#    0.000    0.000    0.000    0.000    0.000    0.000 
#
# Total GULP energy -297602.221288 kJ/mol
# GULP energy per Si atom -12400.092554 kJ/mol
# Density = 2.076041 g / cm^3
# Si number density = 20.807771 Si / 1000 Ang^3
#
#
#
# Elastic Constant Matrix: (Units=GPa)
#
#
# Indices 1 2 3 4 5 6 
#
# 1 85.6068 37.5569 24.3692 0.0007 -9.9724 -0.0002
# 2 37.5569 108.5482 32.5140 0.0050 -5.6178 -0.0058
# 3 24.3692 32.5140 69.6249 0.0011 -18.7461 -0.0018
# 4 0.0007 0.0050 0.0011 31.4555 -0.0006 0.0428
# 5 -9.9724 -5.6178 -18.7461 -0.0006 32.2373 0.0009
# 6 -0.0002 -0.0058 -0.0018 0.0428 0.0009 34.5436
#
#
#
# Elastic Compliance Matrix: (Units=1/GPa)
#
#
# Indices 1 2 3 4 5 6 
#
# 1 0.014480 -0.004137 -0.002519 0.000000 0.002294 -0.000001
# 2 -0.004137 0.011934 -0.004636 -0.000002 -0.001896 0.000002
# 3 -0.002519 -0.004636 0.020134 0.000000 0.010121 0.000000
# 4 0.000000 -0.000002 0.000000 0.031791 0.000001 -0.000039
# 5 0.002294 -0.001896 0.010121 0.000001 0.037285 -0.000001
# 6 -0.000001 0.000002 0.000000 -0.000039 -0.000001 0.028949
#
#
# Mechanical properties :
#
#
# Convention : Reuss Voigt Hill
#
# Bulk Modulus (GPa) = 41.72542 50.29556 46.01049
# Shear Modulus (GPa) = 28.54784 30.93662 29.74223
#
# Velocity S-wave (km/s) = 3.70804 3.86006 3.78482
# Velocity P-wave (km/s) = 6.19912 6.64009 6.42339
#
# Compressibility (1/GPa) = 0.02396621
#
# Stress axis : x y z
#
# Youngs Moduli (GPa) = 69.05851 83.79226 49.66711
#
# Poissons Ratio (x) = 0.34665 0.12510
# Poissons Ratio (y) = 0.28569 0.23024
# Poissons Ratio (z) = 0.17394 0.38843
#
# Static dielectric constant tensor:
#      x y z
#    x 3.665460 0.000000 -0.112540 
#    y 0.000000 3.704980 0.000000 
#    z -0.112540 0.000000 3.894960 
# 
# 
# High freq. dielectric constant tensor:
#      x y z
#    x 1.795160 0.000000 -0.015340 
#    y 0.000000 1.811550 0.000000 
#    z -0.015340 0.000000 1.819030 
# 
# From -- ./inp_files/327178.got.cif
#   From: 2010.06.25/outbox.cif.g09.slc.cpg/sg12_164_cif.got.tgz:327178.got - 2010.06.28 00:19:55.
