data_PCOD8096005
_publ_section_title
;
Structure prediction by ZEFSAII (Michael W. Deem and Ramdas Pophale) SiO2 
 PCOD8096005
Probable space group: C 2/M
;
_chemical_formula_sum "Si O2"
_cell_formula_units_Z 48
_cell_length_a 18.277404
_cell_length_b 8.902526
_cell_length_c 20.742385
_cell_angle_alpha 90.000000
_cell_angle_beta 48.260775
_cell_angle_gamma 90.000000
_cell_volume 2518.439737
_symmetry_space_group_name_H-M "C 2/M"
_symmetry_group_IT_number 12
_symmetry_cell_setting 'monoclinic'
loop_
_space_group_symop_operation_xyz
x,y,z
-x,y,-z
-x,-y,-z
x,-y,z
1/2+x,1/2+y,z
1/2-x,1/2+y,-z
1/2-x,1/2-y,-z
1/2+x,1/2-y,z
loop_
_atom_site_type_symbol
_atom_site_label
_atom_site_fract_x
_atom_site_fract_y
_atom_site_fract_z
Si Si1 0.736258 0.822087 0.577089
Si Si2 0.476562 0.178665 0.255630
Si Si3 0.509371 0.178024 0.094791
Si Si4 0.888029 0.324827 0.582863
Si Si5 0.342070 0.177623 0.098056
Si Si6 0.357307 0.177852 0.746764
O O1 0.750000 0.750000 0.500000
O O2 0.632719 0.764482 0.665653
O O3 0.821701 0.771384 0.574400
O O4 0.738278 0.000000 0.568716
O O5 0.510123 0.244662 0.166545
O O6 0.549694 0.239744 0.267650
O O7 0.479007 0.000000 0.252466
O O8 0.411883 0.234117 0.115117
O O9 0.505035 0.000000 0.098426
O O10 0.607352 0.227272 0.999101
O O11 0.862836 0.500000 0.589195
O O12 0.867592 0.267620 0.667258
O O13 0.000000 0.292501 0.500000
O O14 0.239117 0.259071 0.163323
O O15 0.325598 0.000000 0.110823
O O16 0.354058 0.000000 0.751703
#
# Coordination Sequence:
#
# PCOD8096005 Si02
#       6
#     8   8   8   8   8   8
#     4  11  22  37  59  83 107 137 175 218 263 315
#     4   9  18  33  52  74 102 139 177 210 255 316
#     4   8  15  30  52  74  98 133 176 215 253 306
#     4  10  21  38  57  77 106 142 178 218 265 315
#     4   9  17  31  52  76 101 132 172 218 262 304
#     4  10  20  33  51  75 104 137 171 211 261 313
#
# _framework density 19.059418999999998
#
# number of rings (size 3 to 8) (size 9 to 14) (size 15 to 20)
#    0.000    2.500    0.000    3.500    0.000    5.667 
#    0.000    5.000    0.000    3.000    0.000    0.000 
#    0.000    0.000    0.000    0.000    0.000    0.000 
#
# Total GULP energy -297586.327424 kJ/mol
# GULP energy per Si atom -12399.430309 kJ/mol
# Density = 1.901604 g / cm^3
# Si number density = 19.059419 Si / 1000 Ang^3
#
#
#
# Elastic Constant Matrix: (Units=GPa)
#
#
# Indices 1 2 3 4 5 6 
#
# 1 144.8059 34.7322 84.7355 0.0000 9.2477 0.0000
# 2 34.7322 28.5672 30.4916 0.0000 2.4054 -0.0001
# 3 84.7355 30.4916 161.2140 0.0000 9.8110 0.0000
# 4 0.0000 0.0000 0.0000 28.8740 0.0000 -5.6142
# 5 9.2477 2.4054 9.8110 0.0000 40.9180 0.0000
# 6 0.0000 -0.0001 0.0000 -5.6142 0.0000 23.5033
#
#
#
# Elastic Compliance Matrix: (Units=1/GPa)
#
#
# Indices 1 2 3 4 5 6 
#
# 1 0.011821 -0.009673 -0.004319 0.000000 -0.001068 0.000000
# 2 -0.009673 0.051788 -0.004728 0.000000 0.000275 0.000000
# 3 -0.004319 -0.004728 0.009428 0.000000 -0.001007 0.000000
# 4 0.000000 0.000000 0.000000 0.036320 0.000000 0.008676
# 5 -0.001068 0.000275 -0.001007 0.000000 0.024906 0.000000
# 6 0.000000 0.000000 0.000000 0.008676 0.000000 0.044620
#
#
# Mechanical properties :
#
#
# Convention : Reuss Voigt Hill
#
# Bulk Modulus (GPa) = 28.09040 70.50062 49.29551
# Shear Modulus (GPa) = 21.91169 30.96760 26.43964
#
# Velocity S-wave (km/s) = 3.39433 4.03524 3.72858
# Velocity P-wave (km/s) = 5.48929 7.66689 6.66759
#
# Compressibility (1/GPa) = 0.03559935
#
# Stress axis : x y z
#
# Youngs Moduli (GPa) = 84.59323 19.30934 106.06159
#
# Poissons Ratio (x) = 0.18677 0.45807
# Poissons Ratio (y) = 0.81824 0.50144
# Poissons Ratio (z) = 0.36535 0.09129
#
# Static dielectric constant tensor:
#      x y z
#    x 3.729080 0.000000 0.194570 
#    y 0.000000 3.077020 0.000000 
#    z 0.194570 0.000000 3.854690 
# 
# 
# High freq. dielectric constant tensor:
#      x y z
#    x 1.749650 0.000000 0.002830 
#    y 0.000000 1.700030 0.000000 
#    z 0.002830 0.000000 1.760670 
# 
# From -- ./inp_files/319572.got.cif
#   From: 2010.06.25/outbox.cif.g09.slc.cpg/sg12_160_cif.got.tgz:319572.got - 2010.06.28 00:19:55.
