data_PCOD8096147
_publ_section_title
;
Structure prediction by ZEFSAII (Michael W. Deem and Ramdas Pophale) SiO2 
 PCOD8096147
Probable space group: C 2/M
;
_chemical_formula_sum "Si O2"
_cell_formula_units_Z 64
_cell_length_a 24.682324
_cell_length_b 8.980071
_cell_length_c 29.195173
_cell_angle_alpha 90.000000
_cell_angle_beta 149.731343
_cell_angle_gamma 90.000000
_cell_volume 3261.782545
_symmetry_space_group_name_H-M "C 2/M"
_symmetry_group_IT_number 12
_symmetry_cell_setting 'monoclinic'
loop_
_space_group_symop_operation_xyz
x,y,z
-x,y,-z
-x,-y,-z
x,-y,z
1/2+x,1/2+y,z
1/2-x,1/2+y,-z
1/2-x,1/2-y,-z
1/2+x,1/2-y,z
loop_
_atom_site_type_symbol
_atom_site_label
_atom_site_fract_x
_atom_site_fract_y
_atom_site_fract_z
Si Si1 0.611904 0.828307 0.210810
Si Si2 0.486781 0.832769 0.439226
Si Si3 0.514710 0.672276 0.700623
Si Si4 0.449819 0.824448 0.012265
Si Si5 0.260576 0.823897 0.158775
Si Si6 0.284734 0.328205 0.266575
Si Si7 0.377519 0.671448 0.685383
Si Si8 0.346229 0.168730 0.513524
O O1 0.527572 0.777281 0.110584
O O2 0.729906 0.796757 0.275608
O O3 0.597499 0.743429 0.247655
O O4 0.596255 0.000000 0.211161
O O5 0.500000 0.775835 0.500000
O O6 0.409286 0.715884 0.357898
O O7 0.600676 0.829673 0.497809
O O8 0.436837 0.000000 0.401210
O O9 0.534010 0.500000 0.702480
O O10 0.624291 0.761091 0.772754
O O11 0.482005 0.692968 0.729888
O O12 0.415026 0.730632 0.597878
O O13 0.428370 0.000000 0.996100
O O14 0.500000 0.774426 0.000000
O O15 0.338224 0.740224 0.942944
O O16 0.230128 0.771619 0.187743
O O17 0.266299 0.000000 0.159200
O O18 0.270544 0.500000 0.242094
O O19 0.351486 0.500000 0.675823
O O20 0.272909 0.736881 0.581919
O O21 0.342154 0.000000 0.530196
#
# Coordination Sequence:
#
# PCOD8096147 Si02
#       8
#     8   8   8   8   8   8   8   8
#     4  10  22  39  62  90 120 158 196 240 298 355
#     4  10  20  33  51  80 120 161 196 237 296 354
#     4  11  23  40  62  87 118 161 206 250 299 349
#     4  10  20  40  65  90 124 157 191 239 297 360
#     4  12  24  38  60  91 120 152 197 247 298 351
#     4  11  21  36  57  84 119 157 196 239 294 356
#     4  10  23  41  61  87 121 160 201 248 301 353
#     4  10  20  36  58  86 119 157 201 248 298 348
#
# _framework density 19.621174
#
# number of rings (size 3 to 8) (size 9 to 14) (size 15 to 20)
#    0.000    1.500    2.500    3.000    0.000    4.500 
#    0.000    0.625    0.000    0.000    0.000    0.000 
#    0.000    0.000    0.000    0.000    0.000    0.000 
#
# Total GULP energy -396763.287189 kJ/mol
# GULP energy per Si atom -12398.852725 kJ/mol
# Density = 1.957652 g / cm^3
# Si number density = 19.621174 Si / 1000 Ang^3
#
#
#
# Elastic Constant Matrix: (Units=GPa)
#
#
# Indices 1 2 3 4 5 6 
#
# 1 93.6729 40.7900 39.5561 0.0000 -0.2158 0.0000
# 2 40.7900 92.8935 50.2592 0.0001 3.3383 0.0001
# 3 39.5561 50.2592 108.7311 0.0000 6.0989 0.0001
# 4 0.0000 0.0001 0.0000 33.1967 0.0000 -3.0819
# 5 -0.2158 3.3383 6.0989 0.0000 20.8423 0.0000
# 6 0.0000 0.0001 0.0001 -3.0819 0.0000 29.7025
#
#
#
# Elastic Compliance Matrix: (Units=1/GPa)
#
#
# Indices 1 2 3 4 5 6 
#
# 1 0.013951 -0.004520 -0.003085 0.000000 0.001771 0.000000
# 2 -0.004520 0.015822 -0.005617 0.000000 -0.000938 0.000000
# 3 -0.003085 -0.005617 0.013082 0.000000 -0.002960 0.000000
# 4 0.000000 0.000000 0.000000 0.030416 0.000000 0.003156
# 5 0.001771 -0.000938 -0.002960 0.000000 0.049014 0.000000
# 6 0.000000 0.000000 0.000000 0.003156 0.000000 0.033995
#
#
# Mechanical properties :
#
#
# Convention : Reuss Voigt Hill
#
# Bulk Modulus (GPa) = 60.93609 61.83423 61.38516
# Shear Modulus (GPa) = 26.56830 27.72777 27.14803
#
# Velocity S-wave (km/s) = 3.68375 3.76327 3.72372
# Velocity P-wave (km/s) = 7.01549 7.10390 7.05983
#
# Compressibility (1/GPa) = 0.01641064
#
# Stress axis : x y z
#
# Youngs Moduli (GPa) = 71.68108 63.20156 76.44322
#
# Poissons Ratio (x) = 0.28569 0.23584
# Poissons Ratio (y) = 0.32402 0.42935
# Poissons Ratio (z) = 0.22115 0.35498
#
# Static dielectric constant tensor:
#      x y z
#    x 3.597680 0.000000 0.086100 
#    y 0.000000 3.499000 0.000000 
#    z 0.086100 0.000000 3.711170 
# 
# 
# High freq. dielectric constant tensor:
#      x y z
#    x 1.763850 0.000000 0.007250 
#    y 0.000000 1.758610 0.000000 
#    z 0.007250 0.000000 1.762960 
# 
# From -- ./inp_files/382305.got.cif
#   From: 2010.06.25/outbox.cif.g09.slc.cpg/sg12_192_cif.got.tgz:382305.got - 2010.06.28 00:19:55.
