data_PCOD8096101
_publ_section_title
;
Structure prediction by ZEFSAII (Michael W. Deem and Ramdas Pophale) SiO2 
 PCOD8096101
Probable space group: C 2/M
;
_chemical_formula_sum "Si O2"
_cell_formula_units_Z 56
_cell_length_a 14.093967
_cell_length_b 11.279793
_cell_length_c 26.716405
_cell_angle_alpha 90.000000
_cell_angle_beta 41.172502
_cell_angle_gamma 90.000000
_cell_volume 2796.114221
_symmetry_space_group_name_H-M "C 2/M"
_symmetry_group_IT_number 12
_symmetry_cell_setting 'monoclinic'
loop_
_space_group_symop_operation_xyz
x,y,z
-x,y,-z
-x,-y,-z
x,-y,z
1/2+x,1/2+y,z
1/2-x,1/2+y,-z
1/2-x,1/2-y,-z
1/2+x,1/2-y,z
loop_
_atom_site_type_symbol
_atom_site_label
_atom_site_fract_x
_atom_site_fract_y
_atom_site_fract_z
Si Si1 0.945183 0.741696 0.808900
Si Si2 0.696582 0.131271 0.655652
Si Si3 0.856819 0.868328 0.080292
Si Si4 0.887948 0.292219 0.415652
Si Si5 0.157991 0.629605 0.360433
Si Si6 0.841530 0.191192 0.197350
Si Si7 0.597947 0.365657 0.272426
O O1 0.782420 0.702409 0.882436
O O2 0.951726 0.847078 0.765260
O O3 0.047360 0.637908 0.746133
O O4 0.003573 0.783515 0.839305
O O5 0.662507 0.126295 0.610348
O O6 0.793158 0.249633 0.629548
O O7 0.766080 0.000000 0.640838
O O8 0.868200 0.878548 0.135704
O O9 0.843981 0.000000 0.063136
O O10 0.000000 0.806938 0.000000
O O11 0.750000 0.250000 0.500000
O O12 0.988724 0.362516 0.414789
O O13 0.978446 0.182565 0.357911
O O14 0.180754 0.500000 0.379389
O O15 0.245376 0.616384 0.274001
O O16 0.755155 0.310924 0.219255
O O17 0.616254 0.500000 0.278235
#
# Coordination Sequence:
#
# PCOD8096101 Si02
#       7
#     8   8   8   8   8   8   8
#     4   9  19  34  55  77 104 141 178 222 271 324
#     4  10  21  38  59  83 110 143 187 234 278 326
#     4  10  20  33  51  78 108 136 172 218 267 325
#     4  10  22  37  54  80 112 150 184 220 278 339
#     4  10  21  38  59  83 110 143 187 234 278 326
#     4   9  19  34  55  77 104 141 178 222 271 324
#     4   9  19  34  53  79 105 134 181 233 269 314
#
# _framework density 20.027792999999999
#
# number of rings (size 3 to 8) (size 9 to 14) (size 15 to 20)
#    0.000    2.429    0.000    2.143    0.000   13.714 
#    0.000    1.429    0.000    6.857    0.000    0.000 
#    0.000    0.000    0.000    0.000    0.000    0.000 
#
# Total GULP energy -346907.628785 kJ/mol
# GULP energy per Si atom -12389.558171 kJ/mol
# Density = 1.998221 g / cm^3
# Si number density = 20.027793 Si / 1000 Ang^3
#
#
#
# Elastic Constant Matrix: (Units=GPa)
#
#
# Indices 1 2 3 4 5 6 
#
# 1 115.3542 32.0413 27.0303 0.0000 -19.1778 0.0000
# 2 32.0413 145.2111 13.8670 0.0000 -10.4530 0.0000
# 3 27.0303 13.8670 84.8642 0.0000 -26.3962 0.0000
# 4 0.0000 0.0000 0.0000 5.8388 0.0000 -2.7747
# 5 -19.1778 -10.4530 -26.3962 0.0000 22.9100 0.0000
# 6 0.0000 0.0000 0.0000 -2.7747 0.0000 19.9174
#
#
#
# Elastic Compliance Matrix: (Units=1/GPa)
#
#
# Indices 1 2 3 4 5 6 
#
# 1 0.010521 -0.001733 -0.000895 0.000000 0.006985 0.000000
# 2 -0.001733 0.007409 -0.000091 0.000000 0.001825 0.000000
# 3 -0.000895 -0.000091 0.018449 0.000000 0.020466 0.000000
# 4 0.000000 0.000000 0.000000 0.183410 0.000000 0.025551
# 5 0.006985 0.001825 0.020466 0.000000 0.073909 0.000000
# 6 0.000000 0.000000 0.000000 0.025551 0.000000 0.053767
#
#
# Mechanical properties :
#
#
# Convention : Reuss Voigt Hill
#
# Bulk Modulus (GPa) = 32.32027 54.58962 43.45494
# Shear Modulus (GPa) = 13.76584 27.89930 20.83257
#
# Velocity S-wave (km/s) = 2.62455 3.73638 3.22869
# Velocity P-wave (km/s) = 5.03559 6.77718 5.97023
#
# Compressibility (1/GPa) = 0.03094034
#
# Stress axis : x y z
#
# Youngs Moduli (GPa) = 95.04376 134.97055 54.20283
#
# Poissons Ratio (x) = 0.23394 0.04853
# Poissons Ratio (y) = 0.16474 0.00493
# Poissons Ratio (z) = 0.08510 0.01229
#
# Static dielectric constant tensor:
#      x y z
#    x 3.845860 0.000000 -0.016100 
#    y 0.000000 3.462860 0.000000 
#    z -0.016100 0.000000 3.461840 
# 
# 
# High freq. dielectric constant tensor:
#      x y z
#    x 1.788270 0.000000 -0.005010 
#    y 0.000000 1.771070 0.000000 
#    z -0.005010 0.000000 1.757310 
# 
# From -- ./inp_files/360772.got.cif
#   From: 2010.06.25/outbox.cif.g09.slc.cpg/sg12_181_cif.got.tgz:360772.got - 2010.06.28 00:19:55.
