data_PCOD8096344
_publ_section_title
;
Structure prediction by ZEFSAII (Michael W. Deem and Ramdas Pophale) SiO2 
 PCOD8096344
Probable space group: C 2/M
;
_chemical_formula_sum "Si O2"
_cell_formula_units_Z 56
_cell_length_a 24.889975
_cell_length_b 9.374913
_cell_length_c 16.346160
_cell_angle_alpha 90.000000
_cell_angle_beta 55.258524
_cell_angle_gamma 90.000000
_cell_volume 3134.277956
_symmetry_space_group_name_H-M "C 2/M"
_symmetry_group_IT_number 12
_symmetry_cell_setting 'monoclinic'
loop_
_space_group_symop_operation_xyz
x,y,z
-x,y,-z
-x,-y,-z
x,-y,z
1/2+x,1/2+y,z
1/2-x,1/2+y,-z
1/2-x,1/2-y,-z
1/2+x,1/2-y,z
loop_
_atom_site_type_symbol
_atom_site_label
_atom_site_fract_x
_atom_site_fract_y
_atom_site_fract_z
Si Si1 0.612227 0.335191 0.204573
Si Si2 0.269236 0.335118 0.791566
Si Si3 0.027230 0.837354 0.061898
Si Si4 0.846944 0.664635 0.420576
Si Si5 0.171286 0.839656 0.983073
Si Si6 0.994305 0.332133 0.249300
Si Si7 0.760230 0.166933 0.615649
O O1 0.590611 0.500000 0.212090
O O2 0.654661 0.312233 0.249740
O O3 0.656439 0.289263 0.088523
O O4 0.547139 0.238782 0.264790
O O5 0.250137 0.500000 0.811518
O O6 0.256965 0.273866 0.711279
O O7 0.224806 0.260017 0.896840
O O8 0.105200 0.828603 0.988090
O O9 0.999173 0.734974 0.155586
O O10 0.004617 0.000000 0.099280
O O11 0.000000 0.780413 0.000000
O O12 0.836128 0.500000 0.452133
O O13 0.820010 0.756903 0.518573
O O14 0.808115 0.701662 0.370376
O O15 0.922636 0.702122 0.345308
O O16 0.199007 0.000000 0.958770
O O17 0.007589 0.500000 0.232098
O O18 0.776090 0.000000 0.602467
#
# Coordination Sequence:
#
# PCOD8096344 Si02
#       7
#     8   8   8   8   8   8   8
#     4   9  19  36  52  72 104 139 174 209 248 304
#     4  10  20  33  53  77 102 133 171 216 259 297
#     4   9  19  34  49  72 107 140 172 207 244 301
#     4   9  19  36  54  75 104 131 163 209 259 309
#     4   9  18  31  48  72 103 138 172 205 245 298
#     4  10  20  33  53  77 101 134 171 210 257 301
#     4   9  19  35  54  77 101 128 167 211 255 307
#
# _framework density 17.866954
#
# number of rings (size 3 to 8) (size 9 to 14) (size 15 to 20)
#    0.000    2.714    0.000    1.714    2.000    4.857 
#    0.000    0.714    0.000    4.286    0.000    0.000 
#    0.000    0.000    0.000    0.000    0.000    0.000 
#
# Total GULP energy -347203.431934 kJ/mol
# GULP energy per Si atom -12400.122569 kJ/mol
# Density = 1.782629 g / cm^3
# Si number density = 17.866954 Si / 1000 Ang^3
#
#
#
# Elastic Constant Matrix: (Units=GPa)
#
#
# Indices 1 2 3 4 5 6 
#
# 1 90.3293 40.5849 50.9152 0.0000 -0.9994 0.0000
# 2 40.5849 65.7996 40.4590 0.0001 -12.7802 0.0000
# 3 50.9152 40.4590 68.5301 0.0000 -6.5238 0.0000
# 4 0.0000 0.0001 0.0000 28.9194 0.0000 -5.2582
# 5 -0.9994 -12.7802 -6.5238 0.0000 29.2373 0.0000
# 6 0.0000 0.0000 0.0000 -5.2582 0.0000 27.5850
#
#
#
# Elastic Compliance Matrix: (Units=1/GPa)
#
#
# Indices 1 2 3 4 5 6 
#
# 1 0.020631 -0.006183 -0.012126 0.000000 -0.004703 0.000000
# 2 -0.006183 0.027410 -0.010696 0.000000 0.009384 0.000000
# 3 -0.012126 -0.010696 0.030070 0.000000 0.001620 0.000000
# 4 0.000000 0.000000 0.000000 0.035820 0.000000 0.006828
# 5 -0.004703 0.009384 0.001620 0.000000 0.038505 0.000000
# 6 0.000000 0.000000 0.000000 0.006828 0.000000 0.037553
#
#
# Mechanical properties :
#
#
# Convention : Reuss Voigt Hill
#
# Bulk Modulus (GPa) = 49.74392 54.28634 52.01513
# Shear Modulus (GPa) = 19.63091 23.32833 21.47962
#
# Velocity S-wave (km/s) = 3.31830 3.61732 3.47103
# Velocity P-wave (km/s) = 6.52558 6.92072 6.72605
#
# Compressibility (1/GPa) = 0.02010296
#
# Stress axis : x y z
#
# Youngs Moduli (GPa) = 48.46980 36.48244 33.25586
#
# Poissons Ratio (x) = 0.22557 0.40325
# Poissons Ratio (y) = 0.29968 0.35569
# Poissons Ratio (z) = 0.58773 0.39020
#
# Static dielectric constant tensor:
#      x y z
#    x 3.470330 0.000000 0.139180 
#    y 0.000000 3.264920 0.000000 
#    z 0.139180 0.000000 3.121530 
# 
# 
# High freq. dielectric constant tensor:
#      x y z
#    x 1.700370 0.000000 0.006280 
#    y 0.000000 1.689120 0.000000 
#    z 0.006280 0.000000 1.671280 
# 
# From -- ./inp_files/237300.got.cif
#   From: 2010.06.25/outbox.cif.g09.slc.cpg/sg12_119_cif.got.tgz:237300.got - 2010.06.28 00:19:55.
