data_PCOD8096342
_publ_section_title
;
Structure prediction by ZEFSAII (Michael W. Deem and Ramdas Pophale) SiO2 
 PCOD8096342
Probable space group: C 2/M
;
_chemical_formula_sum "Si O2"
_cell_formula_units_Z 64
_cell_length_a 11.626815
_cell_length_b 29.674308
_cell_length_c 10.987679
_cell_angle_alpha 90.000000
_cell_angle_beta 76.870198
_cell_angle_gamma 90.000000
_cell_volume 3691.840561
_symmetry_space_group_name_H-M "C 2/M"
_symmetry_group_IT_number 12
_symmetry_cell_setting 'monoclinic'
loop_
_space_group_symop_operation_xyz
x,y,z
-x,y,-z
-x,-y,-z
x,-y,z
1/2+x,1/2+y,z
1/2-x,1/2+y,-z
1/2-x,1/2-y,-z
1/2+x,1/2-y,z
loop_
_atom_site_type_symbol
_atom_site_label
_atom_site_fract_x
_atom_site_fract_y
_atom_site_fract_z
Si Si1 0.671886 0.320274 0.471245
Si Si2 0.073249 0.858461 0.736760
Si Si3 0.616283 0.450171 0.825124
Si Si4 0.376271 0.777341 0.571973
Si Si5 0.137783 0.300516 0.942691
Si Si6 0.769147 0.792057 0.161170
Si Si7 0.661790 0.450850 0.081047
Si Si8 0.195043 0.867618 0.223193
O O1 0.590528 0.339757 0.597419
O O2 0.610184 0.276903 0.426067
O O3 0.791842 0.299266 0.492779
O O4 0.691616 0.360937 0.370208
O O5 0.131686 0.908767 0.726707
O O6 0.135447 0.829336 0.825963
O O7 0.933849 0.855082 0.800899
O O8 0.658856 0.500000 0.766449
O O9 0.477935 0.452995 0.878879
O O10 0.687118 0.438006 0.933136
O O11 0.500000 0.798281 0.500000
O O12 0.336523 0.791475 0.715882
O O13 0.157712 0.254258 0.864878
O O14 0.193845 0.338850 0.846522
O O15 0.209520 0.303226 0.049357
O O16 0.000000 0.308912 0.000000
O O17 0.715961 0.500000 0.096677
O O18 0.719761 0.418074 0.168319
#
# Coordination Sequence:
#
# PCOD8096342 Si02
#       8
#     8   8   8   8   8   8   8   8
#     4  10  21  32  48  76 100 134 177 212 251 300
#     4  10  20  33  53  76 105 134 174 212 250 312
#     4   8  14  28  49  75 103 132 166 206 253 309
#     4  10  20  35  55  67  96 141 181 214 243 293
#     4  11  25  35  49  72 106 136 171 216 255 302
#     4  10  23  36  50  74 100 137 175 211 256 297
#     4   8  15  28  50  76 101 131 167 207 256 312
#     4  11  20  34  53  75 105 140 168 209 266 303
#
# _framework density 17.335526000000002
#
# number of rings (size 3 to 8) (size 9 to 14) (size 15 to 20)
#    0.000    2.250    1.250    2.625    5.250    1.000 
#    0.000    0.625    0.000    3.375    0.000    0.000 
#    0.000    3.000    0.000    0.000    0.000    0.000 
#
# Total GULP energy -396445.396431 kJ/mol
# GULP energy per Si atom -12388.918638 kJ/mol
# Density = 1.729607 g / cm^3
# Si number density = 17.335526 Si / 1000 Ang^3
#
#
#
# Elastic Constant Matrix: (Units=GPa)
#
#
# Indices 1 2 3 4 5 6 
#
# 1 41.8817 12.7217 22.7577 0.0000 -19.3633 0.0000
# 2 12.7217 83.8135 24.1251 0.0000 2.6790 0.0000
# 3 22.7577 24.1251 52.9010 0.0000 -4.0473 0.0000
# 4 0.0000 0.0000 0.0000 21.6932 0.0000 4.2827
# 5 -19.3633 2.6790 -4.0473 0.0000 26.0669 0.0000
# 6 0.0000 0.0000 0.0000 4.2827 0.0000 11.5475
#
#
#
# Elastic Compliance Matrix: (Units=1/GPa)
#
#
# Indices 1 2 3 4 5 6 
#
# 1 0.050958 -0.003848 -0.017448 0.000000 0.035539 0.000000
# 2 -0.003848 0.014176 -0.005201 0.000000 -0.005123 0.000000
# 3 -0.017448 -0.005201 0.028165 0.000000 -0.008053 0.000000
# 4 0.000000 0.000000 0.000000 0.049739 0.000000 -0.018447
# 5 0.035539 -0.005123 -0.008053 0.000000 0.064039 0.000000
# 6 0.000000 0.000000 0.000000 -0.018447 0.000000 0.093440
#
#
# Mechanical properties :
#
#
# Convention : Reuss Voigt Hill
#
# Bulk Modulus (GPa) = 24.81137 33.08947 28.95042
# Shear Modulus (GPa) = 13.62597 19.79430 16.71013
#
# Velocity S-wave (km/s) = 2.80664 3.38277 3.10808
# Velocity P-wave (km/s) = 4.98462 5.86401 5.44211
#
# Compressibility (1/GPa) = 0.04030410
#
# Stress axis : x y z
#
# Youngs Moduli (GPa) = 19.62418 70.54006 35.50509
#
# Poissons Ratio (x) = 0.27147 0.61948
# Poissons Ratio (y) = 0.07552 0.18468
# Poissons Ratio (z) = 0.34239 0.36691
#
# Static dielectric constant tensor:
#      x y z
#    x 3.057240 0.000000 0.078690 
#    y 0.000000 3.598770 0.000000 
#    z 0.078690 0.000000 3.237810 
# 
# 
# High freq. dielectric constant tensor:
#      x y z
#    x 1.645700 0.000000 0.009730 
#    y 0.000000 1.661840 0.000000 
#    z 0.009730 0.000000 1.665660 
# 
# From -- ./inp_files/137422.got.cif
#   From: 2010.06.25/outbox.cif.g09.slc.cpg/sg12_69_cif.got.tgz:137422.got - 2010.06.28 00:19:55.
