data_PCOD8096673
_publ_section_title
;
Structure prediction by ZEFSAII (Michael W. Deem and Ramdas Pophale) SiO2 
 PCOD8096673
Probable space group: C 2/M
;
_chemical_formula_sum "Si O2"
_cell_formula_units_Z 64
_cell_length_a 15.269915
_cell_length_b 24.895723
_cell_length_c 14.458592
_cell_angle_alpha 90.000000
_cell_angle_beta 141.437295
_cell_angle_gamma 90.000000
_cell_volume 3426.366305
_symmetry_space_group_name_H-M "C 2/M"
_symmetry_group_IT_number 12
_symmetry_cell_setting 'monoclinic'
loop_
_space_group_symop_operation_xyz
x,y,z
-x,y,-z
-x,-y,-z
x,-y,z
1/2+x,1/2+y,z
1/2-x,1/2+y,-z
1/2-x,1/2-y,-z
1/2+x,1/2-y,z
loop_
_atom_site_type_symbol
_atom_site_label
_atom_site_fract_x
_atom_site_fract_y
_atom_site_fract_z
Si Si1 0.503255 0.164946 0.603053
Si Si2 0.049919 0.366361 0.834930
Si Si3 0.954277 0.755877 0.129018
Si Si4 0.558388 0.619841 0.450843
Si Si5 0.735278 0.621729 0.835250
Si Si6 0.699326 0.259101 0.809366
Si Si7 0.180693 0.437656 0.268710
Si Si8 0.297478 0.694761 0.579610
O O1 0.500000 0.136235 0.500000
O O2 0.579693 0.132112 0.748595
O O3 0.592075 0.220901 0.664129
O O4 0.339990 0.166810 0.494863
O O5 0.999673 0.306782 0.824203
O O6 0.931545 0.409568 0.758205
O O7 0.193633 0.380742 0.005728
O O8 0.865670 0.772949 0.145039
O O9 0.093124 0.793589 0.245144
O O10 0.856283 0.766095 0.957301
O O11 0.500000 0.644683 0.500000
O O12 0.421152 0.596635 0.284064
O O13 0.664605 0.571349 0.560716
O O14 0.633176 0.663347 0.448265
O O15 0.720763 0.682487 0.780586
O O16 0.830062 0.587788 0.842473
O O17 0.145890 0.500000 0.234470
O O18 0.250000 0.750000 0.500000
#
# Coordination Sequence:
#
# PCOD8096673 Si02
#       8
#     8   8   8   8   8   8   8   8
#     4  11  23  35  53  79 114 153 199 243 282 334
#     4  10  20  38  53  78 112 152 188 241 287 332
#     4   9  17  30  53  76 108 148 194 229 279 340
#     4  10  21  35  54  82 111 149 186 228 286 354
#     4  10  20  33  58  79 114 150 188 225 290 354
#     4   9  17  32  49  77 112 150 185 235 280 331
#     4  11  23  39  58  86 118 148 190 243 293 351
#     4  12  18  32  52  79 108 151 194 234 278 347
#
# _framework density 18.678681000000001
#
# number of rings (size 3 to 8) (size 9 to 14) (size 15 to 20)
#    0.000    1.750    5.000    1.125    0.000    8.250 
#    0.000    1.875    0.000    0.375    0.000    0.000 
#    0.000    1.000    0.000    0.000    0.000    0.000 
#
# Total GULP energy -396433.616634 kJ/mol
# GULP energy per Si atom -12388.550520 kJ/mol
# Density = 1.863617 g / cm^3
# Si number density = 18.678681 Si / 1000 Ang^3
#
#
#
# Elastic Constant Matrix: (Units=GPa)
#
#
# Indices 1 2 3 4 5 6 
#
# 1 87.5782 39.2833 42.4950 0.0000 -5.0077 0.0000
# 2 39.2833 78.7913 23.4044 0.0000 -3.6653 0.0000
# 3 42.4950 23.4044 144.2658 0.0000 -2.4366 0.0000
# 4 0.0000 0.0000 0.0000 16.7370 0.0000 -0.0032
# 5 -5.0077 -3.6653 -2.4366 0.0000 27.4527 0.0000
# 6 0.0000 0.0000 0.0000 -0.0032 0.0000 17.9550
#
#
#
# Elastic Compliance Matrix: (Units=1/GPa)
#
#
# Indices 1 2 3 4 5 6 
#
# 1 0.016456 -0.007031 -0.003677 0.000000 0.001737 0.000000
# 2 -0.007031 0.016408 -0.000576 0.000000 0.000857 0.000000
# 3 -0.003677 -0.000576 0.008108 0.000000 -0.000028 0.000000
# 4 0.000000 0.000000 0.000000 0.059748 0.000000 0.000011
# 5 0.001737 0.000857 -0.000028 0.000000 0.036855 0.000000
# 6 0.000000 0.000000 0.000000 0.000011 0.000000 0.055695
#
#
# Mechanical properties :
#
#
# Convention : Reuss Voigt Hill
#
# Bulk Modulus (GPa) = 54.34092 57.88897 56.11495
# Shear Modulus (GPa) = 22.52515 26.12576 24.32546
#
# Velocity S-wave (km/s) = 3.47642 3.74397 3.61267
# Velocity P-wave (km/s) = 6.72827 7.05330 6.89270
#
# Compressibility (1/GPa) = 0.01840234
#
# Stress axis : x y z
#
# Youngs Moduli (GPa) = 60.76855 60.94406 123.33746
#
# Poissons Ratio (x) = 0.42852 0.45354
# Poissons Ratio (y) = 0.42729 0.07108
# Poissons Ratio (z) = 0.22346 0.03512
#
# Static dielectric constant tensor:
#      x y z
#    x 3.773440 0.000000 0.668040 
#    y 0.000000 2.983580 0.000000 
#    z 0.668040 0.000000 4.713490 
# 
# 
# High freq. dielectric constant tensor:
#      x y z
#    x 1.702540 0.000000 0.014660 
#    y 0.000000 1.661810 0.000000 
#    z 0.014660 0.000000 1.758070 
# 
# From -- ./inp_files/218520.got.cif
#   From: 2010.06.25/outbox.cif.g09.slc.cpg/sg12_110_cif.got.tgz:218520.got - 2010.06.28 00:19:55.
