data_PCOD8096016
_publ_section_title
;
Structure prediction by ZEFSAII (Michael W. Deem and Ramdas Pophale) SiO2 
 PCOD8096016
Probable space group: C 2/M
;
_chemical_formula_sum "Si O2"
_cell_formula_units_Z 64
_cell_length_a 14.628492
_cell_length_b 8.737523
_cell_length_c 26.591840
_cell_angle_alpha 90.000000
_cell_angle_beta 76.277483
_cell_angle_gamma 90.000000
_cell_volume 3301.865667
_symmetry_space_group_name_H-M "C 2/M"
_symmetry_group_IT_number 12
_symmetry_cell_setting 'monoclinic'
loop_
_space_group_symop_operation_xyz
x,y,z
-x,y,-z
-x,-y,-z
x,-y,z
1/2+x,1/2+y,z
1/2-x,1/2+y,-z
1/2-x,1/2-y,-z
1/2+x,1/2-y,z
loop_
_atom_site_type_symbol
_atom_site_label
_atom_site_fract_x
_atom_site_fract_y
_atom_site_fract_z
Si Si1 0.577517 0.678897 0.128610
Si Si2 0.637021 0.820142 0.692178
Si Si3 0.461109 0.674330 0.754814
Si Si4 0.726450 0.679486 0.883518
Si Si5 0.780446 0.681218 0.422293
Si Si6 0.393643 0.180884 0.505166
Si Si7 0.254158 0.178029 0.225146
Si Si8 0.455707 0.822506 0.059513
O O1 0.604284 0.500000 0.125294
O O2 0.530033 0.723432 0.187921
O O3 0.671699 0.776483 0.108651
O O4 0.506245 0.717695 0.093968
O O5 0.527724 0.777276 0.711408
O O6 0.680326 0.751538 0.635339
O O7 0.692039 0.755265 0.733497
O O8 0.648069 0.000000 0.688712
O O9 0.492516 0.500000 0.743615
O O10 0.355666 0.701390 0.749611
O O11 0.709765 0.500000 0.891655
O O12 0.712978 0.726058 0.827222
O O13 0.652546 0.771090 0.927634
O O14 0.770617 0.500000 0.422559
O O15 0.676603 0.749803 0.444138
O O16 0.854835 0.732006 0.455569
O O17 0.500000 0.243633 0.500000
O O18 0.392650 0.000000 0.511449
O O19 0.277066 0.000000 0.211690
O O20 0.465440 0.000000 0.072851
O O21 0.500000 0.787578 0.000000
#
# Coordination Sequence:
#
# PCOD8096016 Si02
#       8
#     8   8   8   8   8   8   8   8
#     4  10  21  39  61  83 110 144 183 226 270 321
#     4  10  20  33  51  75 106 140 170 212 263 309
#     4   9  19  34  52  76 104 135 171 210 254 309
#     4  11  22  37  59  84 110 143 182 223 270 324
#     4   9  19  34  50  74 104 133 173 216 258 313
#     4   9  18  34  54  73  98 134 173 216 265 312
#     4   9  19  36  54  74 105 142 176 212 261 317
#     4  11  24  40  58  82 111 143 181 226 276 327
#
# _framework density 19.382981000000001
#
# number of rings (size 3 to 8) (size 9 to 14) (size 15 to 20)
#    0.000    2.250    0.000    3.375    0.000    8.250 
#    0.000    0.000    0.000    0.000    0.000    0.000 
#    0.000    0.000    0.000    0.000    0.000    0.000 
#
# Total GULP energy -396879.000282 kJ/mol
# GULP energy per Si atom -12402.468759 kJ/mol
# Density = 1.933886 g / cm^3
# Si number density = 19.382981 Si / 1000 Ang^3
#
#
#
# Elastic Constant Matrix: (Units=GPa)
#
#
# Indices 1 2 3 4 5 6 
#
# 1 92.1373 15.4407 39.9921 0.0000 -20.7302 0.0000
# 2 15.4407 33.5712 24.6551 0.0000 -6.1884 0.0000
# 3 39.9921 24.6551 90.9708 0.0000 -29.3243 0.0000
# 4 0.0000 0.0000 0.0000 25.9695 0.0000 -6.9760
# 5 -20.7302 -6.1884 -29.3243 0.0000 26.5018 0.0000
# 6 0.0000 0.0000 0.0000 -6.9760 0.0000 31.3676
#
#
#
# Elastic Compliance Matrix: (Units=1/GPa)
#
#
# Indices 1 2 3 4 5 6 
#
# 1 0.014315 -0.002900 -0.003289 0.000000 0.006881 0.000000
# 2 -0.002900 0.038030 -0.010727 0.000000 -0.005257 0.000000
# 3 -0.003289 -0.010727 0.021310 0.000000 0.018502 0.000000
# 4 0.000000 0.000000 0.000000 0.040953 0.000000 0.009108
# 5 0.006881 -0.005257 0.018502 0.000000 0.062360 0.000000
# 6 0.000000 0.000000 0.000000 0.009108 0.000000 0.033906
#
#
# Mechanical properties :
#
#
# Convention : Reuss Voigt Hill
#
# Bulk Modulus (GPa) = 25.11119 41.87280 33.49199
# Shear Modulus (GPa) = 19.38131 25.87386 22.62759
#
# Velocity S-wave (km/s) = 3.16557 3.65756 3.42042
# Velocity P-wave (km/s) = 5.13269 6.28385 5.73721
#
# Compressibility (1/GPa) = 0.03982289
#
# Stress axis : x y z
#
# Youngs Moduli (GPa) = 69.85587 26.29501 46.92708
#
# Poissons Ratio (x) = 0.07626 0.15435
# Poissons Ratio (y) = 0.20259 0.50338
# Poissons Ratio (z) = 0.22976 0.28206
#
# Static dielectric constant tensor:
#      x y z
#    x 3.595810 0.000000 -0.017410 
#    y 0.000000 3.364730 0.000000 
#    z -0.017410 0.000000 3.626440 
# 
# 
# High freq. dielectric constant tensor:
#      x y z
#    x 1.761090 0.000000 -0.007090 
#    y 0.000000 1.745790 0.000000 
#    z -0.007090 0.000000 1.750790 
# 
# From -- ./inp_files/359777.got.cif
#   From: 2010.06.25/outbox.cif.g09.slc.cpg/sg12_180_cif.got.tgz:359777.got - 2010.06.28 00:19:55.
