data_PCOD8096372
_publ_section_title
;
Structure prediction by ZEFSAII (Michael W. Deem and Ramdas Pophale) SiO2 
 PCOD8096372
Probable space group: C 2/M
;
_chemical_formula_sum "Si O2"
_cell_formula_units_Z 48
_cell_length_a 21.635589
_cell_length_b 21.459778
_cell_length_c 18.067955
_cell_angle_alpha 90.000000
_cell_angle_beta 159.910614
_cell_angle_gamma 90.000000
_cell_volume 2881.453644
_symmetry_space_group_name_H-M "C 2/M"
_symmetry_group_IT_number 12
_symmetry_cell_setting 'monoclinic'
loop_
_space_group_symop_operation_xyz
x,y,z
-x,y,-z
-x,-y,-z
x,-y,z
1/2+x,1/2+y,z
1/2-x,1/2+y,-z
1/2-x,1/2-y,-z
1/2+x,1/2-y,z
loop_
_atom_site_type_symbol
_atom_site_label
_atom_site_fract_x
_atom_site_fract_y
_atom_site_fract_z
Si Si1 0.273860 0.000000 0.831410
Si Si2 0.727554 0.248534 0.147238
Si Si3 0.348194 0.298628 0.663617
Si Si4 0.454540 0.128373 0.033355
Si Si5 0.936758 0.000000 0.554530
Si Si6 0.158345 0.130251 0.480914
Si Si7 0.097569 0.744513 0.498386
O O1 0.207027 0.000000 0.672354
O O2 0.129381 0.000000 0.733510
O O3 0.397271 0.058601 0.980547
O O4 0.788421 0.261734 0.298880
O O5 0.886770 0.272673 0.272326
O O6 0.536973 0.279160 0.912792
O O7 0.701505 0.173837 0.111916
O O8 0.250000 0.250000 0.500000
O O9 0.393602 0.358934 0.664120
O O10 0.197079 0.306109 0.557682
O O11 0.627870 0.135799 0.278631
O O12 0.500000 0.145434 0.000000
O O13 0.914720 0.062496 0.578040
O O14 0.089503 0.184742 0.458138
#
# Coordination Sequence:
#
# PCOD8096372 Si02
#       7
#     4   8   8   8   4   8   8
#     4  11  22  31  50  73  98 138 184 212 237 281
#     4  11  19  33  54  74 103 133 175 211 253 300
#     4  10  20  34  48  74 104 138 164 209 257 307
#     4  12  18  31  49  72 101 140 177 210 241 292
#     4  11  21  36  47  72 102 135 181 211 240 298
#     4  11  21  33  50  71 105 137 169 207 255 297
#     4  10  20  33  53  78  98 135 172 213 252 301
#
# _framework density 16.658258
#
# number of rings (size 3 to 8) (size 9 to 14) (size 15 to 20)
#    0.000    1.167    6.667    2.250    0.000    5.333 
#    3.000    0.000    0.000    0.000    0.000    2.333 
#    0.000    2.667    0.000    0.000    0.000    0.000 
#
# Total GULP energy -297332.553644 kJ/mol
# GULP energy per Si atom -12388.856402 kJ/mol
# Density = 1.662034 g / cm^3
# Si number density = 16.658258 Si / 1000 Ang^3
#
#
#
# Elastic Constant Matrix: (Units=GPa)
#
#
# Indices 1 2 3 4 5 6 
#
# 1 115.5013 46.3630 48.7651 -0.0002 13.9036 0.0002
# 2 46.3630 51.6287 14.7486 -0.0001 -0.7278 0.0004
# 3 48.7651 14.7486 86.0735 0.0004 12.7048 -0.0051
# 4 -0.0002 -0.0001 0.0004 20.4443 -0.0004 -9.8622
# 5 13.9036 -0.7278 12.7048 -0.0004 26.4727 -0.0018
# 6 0.0002 0.0004 -0.0051 -9.8622 -0.0018 87.3884
#
#
#
# Elastic Compliance Matrix: (Units=1/GPa)
#
#
# Indices 1 2 3 4 5 6 
#
# 1 0.018125 -0.014423 -0.006817 0.000000 -0.006645 -0.000001
# 2 -0.014423 0.031986 0.001553 0.000000 0.007709 0.000000
# 3 -0.006817 0.001553 0.015798 0.000000 -0.003959 0.000001
# 4 0.000000 0.000000 0.000000 0.051730 0.000001 0.005838
# 5 -0.006645 0.007709 -0.003959 0.000001 0.043376 0.000001
# 6 -0.000001 0.000000 0.000001 0.005838 0.000001 0.012102
#
#
# Mechanical properties :
#
#
# Convention : Reuss Voigt Hill
#
# Bulk Modulus (GPa) = 37.68527 52.55078 45.11802
# Shear Modulus (GPa) = 22.58992 36.41619 29.50306
#
# Velocity S-wave (km/s) = 3.68649 4.68062 4.21298
# Velocity P-wave (km/s) = 6.38686 7.79909 7.12804
#
# Compressibility (1/GPa) = 0.02653557
#
# Stress axis : x y z
#
# Youngs Moduli (GPa) = 55.17134 31.26341 63.29769
#
# Poissons Ratio (x) = 0.45091 0.43149
# Poissons Ratio (y) = 0.79574 -0.09828
# Poissons Ratio (z) = 0.37609 -0.04854
#
# Static dielectric constant tensor:
#      x y z
#    x 3.526850 0.000000 0.048560 
#    y 0.000000 3.091940 0.000000 
#    z 0.048560 0.000000 3.265860 
# 
# 
# High freq. dielectric constant tensor:
#      x y z
#    x 1.644280 0.000000 0.012460 
#    y 0.000000 1.602430 0.000000 
#    z 0.012460 0.000000 1.652320 
# 
# From -- ./inp_files/285874.got.cif
#   From: 2010.06.25/outbox.cif.g09.slc.cpg/sg12_143_cif.got.tgz:285874.got - 2010.06.28 00:19:55.
