data_PCOD8096636
_publ_section_title
;
Structure prediction by ZEFSAII (Michael W. Deem and Ramdas Pophale) SiO2 
 PCOD8096636
Probable space group: C 2/M
;
_chemical_formula_sum "Si O2"
_cell_formula_units_Z 56
_cell_length_a 28.282231
_cell_length_b 14.222320
_cell_length_c 10.123249
_cell_angle_alpha 90.000000
_cell_angle_beta 135.591575
_cell_angle_gamma 90.000000
_cell_volume 2849.432360
_symmetry_space_group_name_H-M "C 2/M"
_symmetry_group_IT_number 12
_symmetry_cell_setting 'monoclinic'
loop_
_space_group_symop_operation_xyz
x,y,z
-x,y,-z
-x,-y,-z
x,-y,z
1/2+x,1/2+y,z
1/2-x,1/2+y,-z
1/2-x,1/2-y,-z
1/2+x,1/2-y,z
loop_
_atom_site_type_symbol
_atom_site_label
_atom_site_fract_x
_atom_site_fract_y
_atom_site_fract_z
Si Si1 0.275097 0.735654 0.698686
Si Si2 0.556117 0.393247 0.292558
Si Si3 0.849044 0.605740 0.970134
Si Si4 0.575338 0.894292 0.141554
Si Si5 0.925656 0.611414 0.376339
Si Si6 0.594670 0.605675 0.065927
Si Si7 0.867571 0.288920 0.507612
O O1 0.250000 0.750000 0.500000
O O2 0.286977 0.836595 0.788357
O O3 0.342465 0.672382 0.847676
O O4 0.213183 0.699015 0.664740
O O5 0.567117 0.500000 0.370396
O O6 0.581099 0.391005 0.193128
O O7 0.602585 0.316079 0.460460
O O8 0.476300 0.365767 0.146653
O O9 0.822888 0.500000 0.938717
O O10 0.908100 0.610497 0.979496
O O11 0.876737 0.649066 0.162436
O O12 0.617710 0.821464 0.312731
O O13 0.584667 0.000000 0.215958
O O14 0.500000 0.857901 0.000000
O O15 0.928218 0.500000 0.374135
O O16 0.899836 0.641114 0.467450
O O17 0.000000 0.653494 0.500000
O O18 0.614992 0.500000 0.063984
#
# Coordination Sequence:
#
# PCOD8096636 Si02
#       7
#     8   8   8   8   8   8   8
#     4  12  23  36  56  96 126 156 203 254 315 366
#     4   9  19  35  57  84 115 161 208 247 296 354
#     4  10  22  40  59  82 125 168 197 241 308 374
#     4  10  20  33  56  91 121 151 197 255 311 361
#     4  10  23  43  64  90 121 161 204 248 312 378
#     4   9  19  35  55  82 122 161 197 249 305 358
#     4  12  23  35  63  92 122 157 203 260 306 368
#
# _framework density 19.653037999999999
#
# number of rings (size 3 to 8) (size 9 to 14) (size 15 to 20)
#    0.000    1.714    2.857    2.143    6.000    5.143 
#    0.000    0.000    0.000    1.286    0.000    0.000 
#    0.000    0.000    0.000    0.000    0.000    0.000 
#
# Total GULP energy -347026.842037 kJ/mol
# GULP energy per Si atom -12393.815787 kJ/mol
# Density = 1.960831 g / cm^3
# Si number density = 19.653038 Si / 1000 Ang^3
#
#
#
# Elastic Constant Matrix: (Units=GPa)
#
#
# Indices 1 2 3 4 5 6 
#
# 1 96.3815 20.7193 22.3644 0.0000 28.0603 0.0000
# 2 20.7193 71.2906 32.8631 0.0000 16.6618 0.0000
# 3 22.3644 32.8631 70.1385 0.0000 8.1598 0.0000
# 4 0.0000 0.0000 0.0000 31.7441 0.0000 3.3913
# 5 28.0603 16.6618 8.1598 0.0000 36.4890 0.0000
# 6 0.0000 0.0000 0.0000 3.3913 0.0000 16.8160
#
#
#
# Elastic Compliance Matrix: (Units=1/GPa)
#
#
# Indices 1 2 3 4 5 6 
#
# 1 0.014086 -0.000287 -0.003195 0.000000 -0.009987 0.000000
# 2 -0.000287 0.019516 -0.008256 0.000000 -0.006845 0.000000
# 3 -0.003195 -0.008256 0.018912 0.000000 0.001998 0.000000
# 4 0.000000 0.000000 0.000000 0.032196 0.000000 -0.006493
# 5 -0.009987 -0.006845 0.001998 0.000000 0.037764 0.000000
# 6 0.000000 0.000000 0.000000 -0.006493 0.000000 0.060776
#
#
# Mechanical properties :
#
#
# Convention : Reuss Voigt Hill
#
# Bulk Modulus (GPa) = 34.43818 43.30046 38.86932
# Shear Modulus (GPa) = 23.10460 27.80075 25.45268
#
# Velocity S-wave (km/s) = 3.43246 3.76517 3.60266
# Velocity P-wave (km/s) = 5.76803 6.40174 6.09313
#
# Compressibility (1/GPa) = 0.02903754
#
# Stress axis : x y z
#
# Youngs Moduli (GPa) = 70.99226 51.23948 52.87524
#
# Poissons Ratio (x) = 0.01470 0.16895
# Poissons Ratio (y) = 0.02037 0.43656
# Poissons Ratio (z) = 0.22684 0.42306
#
# Static dielectric constant tensor:
#      x y z
#    x 3.551930 0.000000 0.249440 
#    y 0.000000 3.849540 0.000000 
#    z 0.249440 0.000000 3.527400 
# 
# 
# High freq. dielectric constant tensor:
#      x y z
#    x 1.757050 0.000000 0.018950 
#    y 0.000000 1.770980 0.000000 
#    z 0.018950 0.000000 1.742530 
# 
# From -- ./inp_files/96990.got.cif
#   From: 2010.06.25/outbox.cif.g09.slc.cpg/sg12_49_cif.got.tgz:96990.got - 2010.06.28 00:19:55.
