data_PCOD8096999
_publ_section_title
;
Structure prediction by ZEFSAII (Michael W. Deem and Ramdas Pophale) SiO2 
 PCOD8096999
Probable space group: C 2/M
;
_chemical_formula_sum "Si O2"
_cell_formula_units_Z 64
_cell_length_a 29.784366
_cell_length_b 8.554777
_cell_length_c 14.952316
_cell_angle_alpha 90.000000
_cell_angle_beta 79.024322
_cell_angle_gamma 90.000000
_cell_volume 3740.140279
_symmetry_space_group_name_H-M "C 2/M"
_symmetry_group_IT_number 12
_symmetry_cell_setting 'monoclinic'
loop_
_space_group_symop_operation_xyz
x,y,z
-x,y,-z
-x,-y,-z
x,-y,z
1/2+x,1/2+y,z
1/2-x,1/2+y,-z
1/2-x,1/2-y,-z
1/2+x,1/2-y,z
loop_
_atom_site_type_symbol
_atom_site_label
_atom_site_fract_x
_atom_site_fract_y
_atom_site_fract_z
Si Si1 0.216584 0.818474 0.200190
Si Si2 0.624438 0.183021 0.746547
Si Si3 0.685156 0.682334 0.575371
Si Si4 0.686881 0.318777 0.873514
Si Si5 0.552608 0.817583 0.064779
Si Si6 0.855287 0.818398 0.921518
Si Si7 0.457459 0.684100 0.124525
Si Si8 0.783637 0.681403 0.613426
O O1 0.259718 0.714200 0.157012
O O2 0.175024 0.770986 0.151699
O O3 0.201032 0.781730 0.306948
O O4 0.229199 0.000000 0.184431
O O5 0.642149 0.263132 0.649413
O O6 0.658258 0.215187 0.815820
O O7 0.574394 0.253703 0.783897
O O8 0.620655 0.000000 0.731943
O O9 0.682359 0.500000 0.555795
O O10 0.731124 0.724527 0.612001
O O11 0.684241 0.773278 0.481817
O O12 0.677293 0.500000 0.855254
O O13 0.672492 0.273591 0.978953
O O14 0.597993 0.779362 0.103358
O O15 0.509727 0.728994 0.125739
O O16 0.542058 0.000000 0.070199
O O17 0.559779 0.761987 0.960577
O O18 0.868160 0.000000 0.916353
O O19 0.452317 0.500000 0.116107
O O20 0.789479 0.500000 0.633169
#
# Coordination Sequence:
#
# PCOD8096999 Si02
#       8
#     8   8   8   8   8   8   8   8
#     4  11  22  35  52  74 103 141 182 220 257 305
#     4  12  22  33  52  79 107 137 174 213 257 311
#     4  10  20  34  53  75 103 136 170 212 263 315
#     4  11  21  34  50  71 104 143 181 217 255 303
#     4  11  21  34  53  77 102 133 175 219 261 306
#     4  10  22  37  52  72 103 143 182 217 259 307
#     4  11  21  35  54  74 104 138 170 212 263 313
#     4  10  20  34  52  74 102 135 173 218 261 308
#
# _framework density 17.111656
#
# number of rings (size 3 to 8) (size 9 to 14) (size 15 to 20)
#    0.000    1.250    2.500    6.000    0.000    2.500 
#    0.000    0.000    0.000    0.000    0.000    0.875 
#    0.000    7.000    0.000    0.000    0.000    0.000 
#
# Total GULP energy -396998.759589 kJ/mol
# GULP energy per Si atom -12406.211237 kJ/mol
# Density = 1.707271 g / cm^3
# Si number density = 17.111656 Si / 1000 Ang^3
#
#
#
# Elastic Constant Matrix: (Units=GPa)
#
#
# Indices 1 2 3 4 5 6 
#
# 1 78.7207 15.2246 46.2607 0.0000 -9.7385 0.0000
# 2 15.2246 43.1354 10.2321 0.0000 0.8735 0.0000
# 3 46.2607 10.2321 93.9123 0.0000 -11.7902 0.0000
# 4 0.0000 0.0000 0.0000 27.1390 0.0000 -3.9669
# 5 -9.7385 0.8735 -11.7902 0.0000 26.8554 0.0000
# 6 0.0000 0.0000 0.0000 -3.9669 0.0000 27.2326
#
#
#
# Elastic Compliance Matrix: (Units=1/GPa)
#
#
# Indices 1 2 3 4 5 6 
#
# 1 0.018983 -0.004773 -0.008411 0.000000 0.003346 0.000000
# 2 -0.004773 0.025102 -0.000745 0.000000 -0.002874 0.000000
# 3 -0.008411 -0.000745 0.015338 0.000000 0.003708 0.000000
# 4 0.000000 0.000000 0.000000 0.037649 0.000000 0.005484
# 5 0.003346 -0.002874 0.003708 0.000000 0.040171 0.000000
# 6 0.000000 0.000000 0.000000 0.005484 0.000000 0.037520
#
#
# Mechanical properties :
#
#
# Convention : Reuss Voigt Hill
#
# Bulk Modulus (GPa) = 31.67902 39.91143 35.79523
# Shear Modulus (GPa) = 23.45862 25.84881 24.65371
#
# Velocity S-wave (km/s) = 3.70660 3.89086 3.79985
# Velocity P-wave (km/s) = 6.07222 6.59998 6.34159
#
# Compressibility (1/GPa) = 0.03156663
#
# Stress axis : x y z
#
# Youngs Moduli (GPa) = 52.67945 39.83715 65.19770
#
# Poissons Ratio (x) = 0.19013 0.54836
# Poissons Ratio (y) = 0.25142 0.04856
# Poissons Ratio (z) = 0.44307 0.02967
#
# Static dielectric constant tensor:
#      x y z
#    x 3.453940 0.000000 -0.283500 
#    y 0.000000 3.274790 0.000000 
#    z -0.283500 0.000000 3.238160 
# 
# 
# High freq. dielectric constant tensor:
#      x y z
#    x 1.640490 0.000000 -0.015790 
#    y 0.000000 1.677390 0.000000 
#    z -0.015790 0.000000 1.647390 
# 
# From -- ./inp_files/243992.got.cif
#   From: 2010.06.25/outbox.cif.g09.slc.cpg/sg12_122_cif.got.tgz:243992.got - 2010.06.28 00:19:55.
