data_PCOD8096291
_publ_section_title
;
Structure prediction by ZEFSAII (Michael W. Deem and Ramdas Pophale) SiO2 
 PCOD8096291
Probable space group: C 2/M
;
_chemical_formula_sum "Si O2"
_cell_formula_units_Z 64
_cell_length_a 25.766868
_cell_length_b 8.708552
_cell_length_c 15.283947
_cell_angle_alpha 90.000000
_cell_angle_beta 109.236278
_cell_angle_gamma 90.000000
_cell_volume 3238.115684
_symmetry_space_group_name_H-M "C 2/M"
_symmetry_group_IT_number 12
_symmetry_cell_setting 'monoclinic'
loop_
_space_group_symop_operation_xyz
x,y,z
-x,y,-z
-x,-y,-z
x,-y,z
1/2+x,1/2+y,z
1/2-x,1/2+y,-z
1/2-x,1/2-y,-z
1/2+x,1/2-y,z
loop_
_atom_site_type_symbol
_atom_site_label
_atom_site_fract_x
_atom_site_fract_y
_atom_site_fract_z
Si Si1 0.307517 0.319013 0.502738
Si Si2 0.393059 0.181688 0.682837
Si Si3 0.985018 0.325449 0.244984
Si Si4 0.793786 0.318817 0.315841
Si Si5 0.317949 0.179479 0.799653
Si Si6 0.530742 0.330943 0.933089
Si Si7 0.135542 0.317378 0.810338
Si Si8 0.156179 0.170511 0.005296
O O1 0.302007 0.500000 0.499151
O O2 0.250000 0.250000 0.500000
O O3 0.355211 0.269559 0.594263
O O4 0.323107 0.259154 0.414961
O O5 0.455275 0.246283 0.697739
O O6 0.372820 0.215141 0.771966
O O7 0.390288 0.000000 0.663938
O O8 0.986559 0.500000 0.275413
O O9 0.980503 0.307118 0.138826
O O10 0.926770 0.252121 0.246387
O O11 0.796560 0.500000 0.328969
O O12 0.730972 0.266233 0.276915
O O13 0.826020 0.264714 0.247280
O O14 0.305184 0.000000 0.792588
O O15 0.318317 0.233922 0.900556
O O16 0.510318 0.500000 0.888192
O O17 0.593327 0.344907 0.994332
O O18 0.500000 0.273687 0.000000
O O19 0.132234 0.500000 0.819808
O O20 0.162586 0.250354 0.914014
O O21 0.183477 0.000000 0.016795
#
# Coordination Sequence:
#
# PCOD8096291 Si02
#       8
#     8   8   8   8   8   8   8   8
#     4  12  24  40  63  89 117 148 183 229 286 345
#     4  10  21  37  59  88 119 149 186 235 288 341
#     4   9  18  34  56  81 110 146 188 234 279 329
#     4  11  23  40  62  85 112 149 191 238 287 341
#     4  11  22  35  55  84 117 151 191 239 289 343
#     4   9  17  29  46  72 108 148 188 231 280 335
#     4   9  20  39  60  82 112 153 198 237 280 333
#     4  10  20  33  52  79 113 153 194 237 285 337
#
# _framework density 19.764582000000001
#
# number of rings (size 3 to 8) (size 9 to 14) (size 15 to 20)
#    0.000    1.875    1.250    3.000    0.000    3.250 
#    0.000    0.625    0.000    3.750    0.000    0.000 
#    0.000    0.000    0.000    0.000    0.000    0.000 
#
# Total GULP energy -396491.402592 kJ/mol
# GULP energy per Si atom -12390.356331 kJ/mol
# Density = 1.971960 g / cm^3
# Si number density = 19.764582 Si / 1000 Ang^3
#
#
#
# Elastic Constant Matrix: (Units=GPa)
#
#
# Indices 1 2 3 4 5 6 
#
# 1 59.0707 22.3325 33.5198 0.0000 0.1253 0.0000
# 2 22.3325 65.1235 34.7069 0.0000 -2.3366 0.0000
# 3 33.5198 34.7069 102.2954 0.0000 -4.5596 0.0000
# 4 0.0000 0.0000 0.0000 34.0782 0.0000 4.1761
# 5 0.1253 -2.3366 -4.5596 0.0000 34.3858 0.0000
# 6 0.0000 0.0000 0.0000 4.1761 0.0000 17.2698
#
#
#
# Elastic Compliance Matrix: (Units=1/GPa)
#
#
# Indices 1 2 3 4 5 6 
#
# 1 0.021861 -0.004508 -0.005685 0.000000 -0.001140 0.000000
# 2 -0.004508 0.019681 -0.005170 0.000000 0.000668 0.000000
# 3 -0.005685 -0.005170 0.013457 0.000000 0.001454 0.000000
# 4 0.000000 0.000000 0.000000 0.030240 0.000000 -0.007313
# 5 -0.001140 0.000668 0.001454 0.000000 0.029324 0.000000
# 6 0.000000 0.000000 0.000000 -0.007313 0.000000 0.059673
#
#
# Mechanical properties :
#
#
# Convention : Reuss Voigt Hill
#
# Bulk Modulus (GPa) = 41.19766 45.28978 43.24372
# Shear Modulus (GPa) = 23.46819 26.20881 24.83850
#
# Velocity S-wave (km/s) = 3.44958 3.64545 3.54887
# Velocity P-wave (km/s) = 6.06264 6.37835 6.22250
#
# Compressibility (1/GPa) = 0.02427322
#
# Stress axis : x y z
#
# Youngs Moduli (GPa) = 45.74261 50.81088 74.30862
#
# Poissons Ratio (x) = 0.22906 0.42243
# Poissons Ratio (y) = 0.20621 0.38420
# Poissons Ratio (z) = 0.26004 0.26271
#
# Static dielectric constant tensor:
#      x y z
#    x 3.858040 0.000000 0.027520 
#    y 0.000000 3.629270 0.000000 
#    z 0.027520 0.000000 3.425470 
# 
# 
# High freq. dielectric constant tensor:
#      x y z
#    x 1.774980 0.000000 0.001440 
#    y 0.000000 1.766240 0.000000 
#    z 0.001440 0.000000 1.760270 
# 
# From -- ./inp_files/244183.got.cif
#   From: 2010.06.25/outbox.cif.g09.slc.cpg/sg12_123_cif.got.tgz:244183.got - 2010.06.28 00:19:55.
