data_PCOD8096926
_publ_section_title
;
Structure prediction by ZEFSAII (Michael W. Deem and Ramdas Pophale) SiO2 
 PCOD8096926
Probable space group: C 2/M
;
_chemical_formula_sum "Si O2"
_cell_formula_units_Z 48
_cell_length_a 24.412872
_cell_length_b 9.465047
_cell_length_c 11.436227
_cell_angle_alpha 90.000000
_cell_angle_beta 75.778044
_cell_angle_gamma 90.000000
_cell_volume 2561.566308
_symmetry_space_group_name_H-M "C 2/M"
_symmetry_group_IT_number 12
_symmetry_cell_setting 'monoclinic'
loop_
_space_group_symop_operation_xyz
x,y,z
-x,y,-z
-x,-y,-z
x,-y,z
1/2+x,1/2+y,z
1/2-x,1/2+y,-z
1/2-x,1/2-y,-z
1/2+x,1/2-y,z
loop_
_atom_site_type_symbol
_atom_site_label
_atom_site_fract_x
_atom_site_fract_y
_atom_site_fract_z
Si Si1 0.778490 0.836140 0.747669
Si Si2 0.434641 0.834251 0.021097
Si Si3 0.665026 0.660648 0.512603
Si Si4 0.841901 0.662407 0.252497
Si Si5 0.056377 0.839177 0.424786
Si Si6 0.382052 0.331794 0.835505
O O1 0.795721 0.772625 0.611050
O O2 0.711965 0.809900 0.806316
O O3 0.817734 0.782242 0.834724
O O4 0.794816 0.000000 0.726390
O O5 0.400356 0.797297 0.157690
O O6 0.430457 0.000000 0.994207
O O7 0.500000 0.787042 0.000000
O O8 0.403416 0.747432 0.937890
O O9 0.682273 0.500000 0.533138
O O10 0.669919 0.748960 0.626968
O O11 0.600718 0.671331 0.505516
O O12 0.843026 0.500000 0.290160
O O13 0.079147 0.775532 0.291509
O O14 0.000000 0.759084 0.500000
O O15 0.041146 0.000000 0.403325
O O16 0.385793 0.500000 0.854858
#
# Coordination Sequence:
#
# PCOD8096926 Si02
#       6
#     8   8   8   8   8   8
#     4   8  16  33  54  78 104 128 159 206 261 302
#     4  10  23  39  50  67 102 142 173 205 247 293
#     4   9  17  30  51  79 106 126 158 209 252 297
#     4  10  20  34  52  71 101 143 171 196 248 304
#     4   8  15  28  48  74 101 128 155 196 255 298
#     4   9  18  34  56  77  97 125 167 214 250 293
#
# _framework density 18.738534999999999
#
# number of rings (size 3 to 8) (size 9 to 14) (size 15 to 20)
#    0.000    3.000    0.000    2.500    2.333    1.667 
#    0.000    4.167    0.000    1.000    0.000    0.000 
#    0.000    0.000    0.000    0.000    0.000    0.000 
#
# Total GULP energy -297360.964593 kJ/mol
# GULP energy per Si atom -12390.040191 kJ/mol
# Density = 1.869589 g / cm^3
# Si number density = 18.738535 Si / 1000 Ang^3
#
#
#
# Elastic Constant Matrix: (Units=GPa)
#
#
# Indices 1 2 3 4 5 6 
#
# 1 116.9298 29.0047 47.0192 0.0000 -10.2076 0.0000
# 2 29.0047 39.3502 34.4731 0.0000 9.7573 0.0000
# 3 47.0192 34.4731 75.4091 0.0000 16.2090 0.0000
# 4 0.0000 0.0000 0.0000 23.2644 0.0000 4.5042
# 5 -10.2076 9.7573 16.2090 0.0000 28.0990 0.0000
# 6 0.0000 0.0000 0.0000 4.5042 0.0000 17.9236
#
#
#
# Elastic Compliance Matrix: (Units=1/GPa)
#
#
# Indices 1 2 3 4 5 6 
#
# 1 0.014919 -0.006032 -0.009315 0.000000 0.012888 0.000000
# 2 -0.006032 0.045234 -0.014920 0.000000 -0.009292 0.000000
# 3 -0.009315 -0.014920 0.029114 0.000000 -0.014997 0.000000
# 4 0.000000 0.000000 0.000000 0.045182 0.000000 -0.011354
# 5 0.012888 -0.009292 -0.014997 0.000000 0.052148 0.000000
# 6 0.000000 0.000000 0.000000 -0.011354 0.000000 0.058646
#
#
# Mechanical properties :
#
#
# Convention : Reuss Voigt Hill
#
# Bulk Modulus (GPa) = 34.80442 50.29814 42.55128
# Shear Modulus (GPa) = 15.85512 21.93685 18.89598
#
# Velocity S-wave (km/s) = 2.91198 3.42523 3.17898
# Velocity P-wave (km/s) = 5.46993 6.52252 6.01928
#
# Compressibility (1/GPa) = 0.02873198
#
# Stress axis : x y z
#
# Youngs Moduli (GPa) = 67.02769 22.10725 34.34803
#
# Poissons Ratio (x) = 0.13335 0.31996
# Poissons Ratio (y) = 0.40430 0.51249
# Poissons Ratio (z) = 0.62438 0.32985
#
# Static dielectric constant tensor:
#      x y z
#    x 3.765410 0.000000 -0.183320 
#    y 0.000000 3.040590 0.000000 
#    z -0.183320 0.000000 3.315050 
# 
# 
# High freq. dielectric constant tensor:
#      x y z
#    x 1.745960 0.000000 -0.004900 
#    y 0.000000 1.682840 0.000000 
#    z -0.004900 0.000000 1.719450 
# 
# From -- ./inp_files/101935.got.cif
#   From: 2010.06.25/outbox.cif.g09.slc.cpg/sg12_51_cif.got.tgz:101935.got - 2010.06.28 00:19:55.
