data_PCOD8096841
_publ_section_title
;
Structure prediction by ZEFSAII (Michael W. Deem and Ramdas Pophale) SiO2 
 PCOD8096841
Probable space group: C 2/M
;
_chemical_formula_sum "Si O2"
_cell_formula_units_Z 48
_cell_length_a 14.080887
_cell_length_b 9.290139
_cell_length_c 20.982388
_cell_angle_alpha 90.000000
_cell_angle_beta 88.944267
_cell_angle_gamma 90.000000
_cell_volume 2744.311524
_symmetry_space_group_name_H-M "C 2/M"
_symmetry_group_IT_number 12
_symmetry_cell_setting 'monoclinic'
loop_
_space_group_symop_operation_xyz
x,y,z
-x,y,-z
-x,-y,-z
x,-y,z
1/2+x,1/2+y,z
1/2-x,1/2+y,-z
1/2-x,1/2-y,-z
1/2+x,1/2-y,z
loop_
_atom_site_type_symbol
_atom_site_label
_atom_site_fract_x
_atom_site_fract_y
_atom_site_fract_z
Si Si1 0.901048 0.331734 0.653727
Si Si2 0.251539 0.666679 0.240257
Si Si3 0.392935 0.168469 0.008933
Si Si4 0.744974 0.667799 0.904215
Si Si5 0.767513 0.168489 0.564924
Si Si6 0.115186 0.334013 0.673747
O O1 0.895030 0.500000 0.635171
O O2 0.843538 0.298227 0.719062
O O3 0.859835 0.237399 0.596678
O O4 0.008532 0.280476 0.662848
O O5 0.277223 0.500000 0.243858
O O6 0.233258 0.716128 0.168140
O O7 0.341987 0.749331 0.267125
O O8 0.346890 0.247921 0.069675
O O9 0.390112 0.000000 0.023743
O O10 0.500000 0.224390 0.000000
O O11 0.337030 0.207779 0.944936
O O12 0.721628 0.500000 0.909193
O O13 0.750000 0.250000 0.500000
O O14 0.675338 0.195012 0.609460
O O15 0.785795 0.000000 0.552494
O O16 0.116211 0.500000 0.693130
#
# Coordination Sequence:
#
# PCOD8096841 Si02
#       6
#     8   8   8   8   8   8
#     4   9  18  34  53  72  96 127 160 197 241 285
#     4   9  18  32  50  71  97 127 158 195 240 289
#     4   9  18  32  50  71  95 126 164 202 238 282
#     4   9  18  32  48  70  99 127 157 196 242 288
#     4  10  20  34  51  73 100 129 162 200 240 284
#     4   9  19  34  52  73  97 126 162 201 238 282
#
# _framework density 17.490725000000001
#
# number of rings (size 3 to 8) (size 9 to 14) (size 15 to 20)
#    0.000    2.833    0.000    0.500    0.000    4.333 
#    0.000    6.667    0.000    0.000    0.000    0.000 
#    0.000    0.000    0.000    0.000    0.000    0.000 
#
# Total GULP energy -297653.812967 kJ/mol
# GULP energy per Si atom -12402.242207 kJ/mol
# Density = 1.745092 g / cm^3
# Si number density = 17.490725 Si / 1000 Ang^3
#
#
#
# Elastic Constant Matrix: (Units=GPa)
#
#
# Indices 1 2 3 4 5 6 
#
# 1 133.1831 43.5029 53.8854 0.0000 18.4337 0.0000
# 2 43.5029 56.5455 51.3786 0.0000 4.9837 0.0000
# 3 53.8854 51.3786 128.3512 0.0000 3.2945 0.0000
# 4 0.0000 0.0000 0.0000 31.7696 0.0000 1.3854
# 5 18.4337 4.9837 3.2945 0.0000 17.7943 0.0000
# 6 0.0000 0.0000 0.0000 1.3854 0.0000 28.5065
#
#
#
# Elastic Compliance Matrix: (Units=1/GPa)
#
#
# Indices 1 2 3 4 5 6 
#
# 1 0.011830 -0.006182 -0.002233 0.000000 -0.010111 0.000000
# 2 -0.006182 0.031623 -0.010048 0.000000 -0.000592 0.000000
# 3 -0.002233 -0.010048 0.012679 0.000000 0.002779 0.000000
# 4 0.000000 0.000000 0.000000 0.031544 0.000000 -0.001533
# 5 -0.010111 -0.000592 0.002779 0.000000 0.066323 0.000000
# 6 0.000000 0.000000 0.000000 -0.001533 0.000000 0.035154
#
#
# Mechanical properties :
#
#
# Convention : Reuss Voigt Hill
#
# Bulk Modulus (GPa) = 52.06290 68.40154 60.23222
# Shear Modulus (GPa) = 21.50710 26.90159 24.20435
#
# Velocity S-wave (km/s) = 3.51041 3.92605 3.72403
# Velocity P-wave (km/s) = 6.80156 7.72943 7.28029
#
# Compressibility (1/GPa) = 0.01920754
#
# Stress axis : x y z
#
# Youngs Moduli (GPa) = 84.52750 31.62254 78.86876
#
# Poissons Ratio (x) = 0.19549 0.17608
# Poissons Ratio (y) = 0.52255 0.79248
# Poissons Ratio (z) = 0.18872 0.31774
#
# Static dielectric constant tensor:
#      x y z
#    x 3.337570 0.000000 0.013130 
#    y 0.000000 3.240100 0.000000 
#    z 0.013130 0.000000 3.326310 
# 
# 
# High freq. dielectric constant tensor:
#      x y z
#    x 1.675810 0.000000 0.001600 
#    y 0.000000 1.673790 0.000000 
#    z 0.001600 0.000000 1.677510 
# 
# From -- ./inp_files/261668.got.cif
#   From: 2010.06.25/outbox.cif.g09.slc.cpg/sg12_131_cif.got.tgz:261668.got - 2010.06.28 00:19:55.
