data_PCOD8096453
_publ_section_title
;
Structure prediction by ZEFSAII (Michael W. Deem and Ramdas Pophale) SiO2 
 PCOD8096453
Probable space group: C 2/M
;
_chemical_formula_sum "Si O2"
_cell_formula_units_Z 40
_cell_length_a 15.531066
_cell_length_b 9.280032
_cell_length_c 30.800797
_cell_angle_alpha 90.000000
_cell_angle_beta 152.549003
_cell_angle_gamma 90.000000
_cell_volume 2046.463603
_symmetry_space_group_name_H-M "C 2/M"
_symmetry_group_IT_number 12
_symmetry_cell_setting 'monoclinic'
loop_
_space_group_symop_operation_xyz
x,y,z
-x,y,-z
-x,-y,-z
x,-y,z
1/2+x,1/2+y,z
1/2-x,1/2+y,-z
1/2-x,1/2-y,-z
1/2+x,1/2-y,z
loop_
_atom_site_type_symbol
_atom_site_label
_atom_site_fract_x
_atom_site_fract_y
_atom_site_fract_z
Si Si1 0.983366 0.665544 0.722719
Si Si2 0.653903 0.168354 0.102383
Si Si3 0.072317 0.671272 0.401259
Si Si4 0.735992 0.835015 0.293218
Si Si5 0.438551 0.835299 0.090641
O O1 0.045673 0.500000 0.750259
O O2 0.150992 0.754711 0.818760
O O3 0.937377 0.717186 0.653521
O O4 0.801705 0.687952 0.672252
O O5 0.588130 0.208065 0.121138
O O6 0.686719 0.000000 0.109943
O O7 0.500000 0.227603 0.000000
O O8 0.091011 0.500000 0.415197
O O9 0.250000 0.750000 0.500000
O O10 0.891571 0.724907 0.346492
O O11 0.538886 0.803365 0.181149
O O12 0.800206 0.000000 0.312463
O O13 0.379787 0.000000 0.059274
O O14 0.250000 0.750000 0.000000
#
# Coordination Sequence:
#
# PCOD8096453 Si02
#       5
#     8   8   8   8   8
#     4  10  22  39  61  88 118 154 198 245 295 350
#     4  10  20  34  54  84 121 158 197 242 293 346
#     4  11  24  42  64  90 118 154 198 248 303 357
#     4  10  21  40  62  86 119 157 197 245 296 350
#     4  10  20  33  53  82 117 158 196 237 288 343
#
# _framework density 19.545912999999999
#
# number of rings (size 3 to 8) (size 9 to 14) (size 15 to 20)
#    0.000    1.800    2.000    1.800    0.000    4.400 
#    0.000    4.000    0.000    0.000    0.000    0.000 
#    0.000    0.000    0.000    0.000    0.000    0.000 
#
# Total GULP energy -248041.246285 kJ/mol
# GULP energy per Si atom -12402.062314 kJ/mol
# Density = 1.950143 g / cm^3
# Si number density = 19.545913 Si / 1000 Ang^3
#
#
#
# Elastic Constant Matrix: (Units=GPa)
#
#
# Indices 1 2 3 4 5 6 
#
# 1 118.0780 47.8699 54.0594 0.0000 -4.1064 0.0000
# 2 47.8699 72.0867 52.0237 0.0000 5.2688 0.0000
# 3 54.0594 52.0237 103.7478 -0.0001 -1.2971 0.0000
# 4 0.0000 0.0000 -0.0001 40.1110 0.0000 7.0085
# 5 -4.1064 5.2688 -1.2971 0.0000 27.3042 0.0000
# 6 0.0000 0.0000 0.0000 7.0085 0.0000 31.6326
#
#
#
# Elastic Compliance Matrix: (Units=1/GPa)
#
#
# Indices 1 2 3 4 5 6 
#
# 1 0.012637 -0.006078 -0.003501 0.000000 0.002907 0.000000
# 2 -0.006078 0.025287 -0.009591 0.000000 -0.006249 0.000000
# 3 -0.003501 -0.009591 0.016298 0.000000 0.002099 0.000000
# 4 0.000000 0.000000 0.000000 0.025935 0.000000 -0.005746
# 5 0.002907 -0.006249 0.002099 0.000000 0.038367 0.000000
# 6 0.000000 0.000000 0.000000 -0.005746 0.000000 0.032886
#
#
# Mechanical properties :
#
#
# Convention : Reuss Voigt Hill
#
# Bulk Modulus (GPa) = 62.96030 66.86874 64.91452
# Shear Modulus (GPa) = 25.63538 29.14017 27.38777
#
# Velocity S-wave (km/s) = 3.62546 3.86535 3.74732
# Velocity P-wave (km/s) = 7.05738 7.36252 7.21156
#
# Compressibility (1/GPa) = 0.01588302
#
# Stress axis : x y z
#
# Youngs Moduli (GPa) = 79.13459 39.54660 61.35566
#
# Poissons Ratio (x) = 0.24035 0.21478
# Poissons Ratio (y) = 0.48096 0.58847
# Poissons Ratio (z) = 0.27702 0.37929
#
# Static dielectric constant tensor:
#      x y z
#    x 3.788300 0.000000 -0.166990 
#    y 0.000000 3.550380 0.000000 
#    z -0.166990 0.000000 3.453370 
# 
# 
# High freq. dielectric constant tensor:
#      x y z
#    x 1.774910 0.000000 -0.007330 
#    y 0.000000 1.755260 0.000000 
#    z -0.007330 0.000000 1.757190 
# 
# From -- ./inp_files/211182.got.cif
#   From: 2010.06.25/outbox.cif.g09.slc.cpg/sg12_106_cif.got.tgz:211182.got - 2010.06.28 00:19:55.
