data_PCOD8096526
_publ_section_title
;
Structure prediction by ZEFSAII (Michael W. Deem and Ramdas Pophale) SiO2 
 PCOD8096526
Probable space group: C 2/M
;
_chemical_formula_sum "Si O2"
_cell_formula_units_Z 64
_cell_length_a 24.483710
_cell_length_b 9.378012
_cell_length_c 14.751034
_cell_angle_alpha 90.000000
_cell_angle_beta 84.658447
_cell_angle_gamma 90.000000
_cell_volume 3372.255105
_symmetry_space_group_name_H-M "C 2/M"
_symmetry_group_IT_number 12
_symmetry_cell_setting 'monoclinic'
loop_
_space_group_symop_operation_xyz
x,y,z
-x,y,-z
-x,-y,-z
x,-y,z
1/2+x,1/2+y,z
1/2-x,1/2+y,-z
1/2-x,1/2-y,-z
1/2+x,1/2-y,z
loop_
_atom_site_type_symbol
_atom_site_label
_atom_site_fract_x
_atom_site_fract_y
_atom_site_fract_z
Si Si1 0.553206 0.168000 0.429539
Si Si2 0.235665 0.837765 0.613888
Si Si3 0.794520 0.661736 0.042037
Si Si4 0.915130 0.661718 0.963162
Si Si5 0.054774 0.840897 0.875474
Si Si6 0.333846 0.330218 0.550703
Si Si7 0.320325 0.654608 0.193726
Si Si8 0.474936 0.164409 0.772756
O O1 0.500000 0.207157 0.500000
O O2 0.606107 0.257612 0.454493
O O3 0.543055 0.210601 0.325693
O O4 0.566189 0.000000 0.436325
O O5 0.289864 0.740947 0.626891
O O6 0.196782 0.789174 0.537615
O O7 0.193129 0.820053 0.700901
O O8 0.256219 0.000000 0.597681
O O9 0.776925 0.500000 0.043520
O O10 0.794399 0.714137 0.144803
O O11 0.750000 0.750000 0.000000
O O12 0.851348 0.692997 0.983357
O O13 0.929602 0.500000 0.988629
O O14 0.927478 0.690800 0.855302
O O15 0.949888 0.761067 0.026386
O O16 0.115473 0.846305 0.829747
O O17 0.024993 0.759420 0.798584
O O18 0.030578 0.000000 0.891800
O O19 0.340152 0.500000 0.565286
O O20 0.296742 0.500000 0.164819
O O21 0.493434 0.000000 0.768168
#
# Coordination Sequence:
#
# PCOD8096526 Si02
#       8
#     8   8   8   8   8   8   8   8
#     4  10  23  41  58  81 114 153 195 236 283 342
#     4   9  19  37  60  83 111 148 185 228 284 344
#     4  10  20  34  52  77 108 142 179 223 272 326
#     4   9  19  36  55  75 105 144 184 221 266 330
#     4  10  20  33  54  84 114 140 177 229 277 323
#     4  10  21  37  59  86 113 143 186 238 288 336
#     4   9  19  35  54  78 108 144 182 220 273 335
#     4  10  21  37  56  77 104 147 190 222 270 333
#
# _framework density 18.978397999999999
#
# number of rings (size 3 to 8) (size 9 to 14) (size 15 to 20)
#    0.000    2.375    0.000    1.500    1.750    5.750 
#    0.000    2.500    0.000    0.000    0.000    0.000 
#    0.000    0.000    0.000    0.000    0.000    0.000 
#
# Total GULP energy -396555.332216 kJ/mol
# GULP energy per Si atom -12392.354132 kJ/mol
# Density = 1.893520 g / cm^3
# Si number density = 18.978398 Si / 1000 Ang^3
#
#
#
# Elastic Constant Matrix: (Units=GPa)
#
#
# Indices 1 2 3 4 5 6 
#
# 1 87.6354 68.4680 53.4087 0.0000 12.0093 0.0000
# 2 68.4680 111.0862 51.3021 0.0000 11.0056 0.0000
# 3 53.4087 51.3021 106.7520 0.0000 -3.7195 0.0000
# 4 0.0000 0.0000 0.0000 25.4498 0.0000 5.8987
# 5 12.0093 11.0056 -3.7195 0.0000 26.7946 0.0000
# 6 0.0000 0.0000 0.0000 5.8987 0.0000 39.1289
#
#
#
# Elastic Compliance Matrix: (Units=1/GPa)
#
#
# Indices 1 2 3 4 5 6 
#
# 1 0.026718 -0.012028 -0.007870 0.000000 -0.008127 0.000000
# 2 -0.012028 0.017869 -0.002650 0.000000 -0.002316 0.000000
# 3 -0.007870 -0.002650 0.014811 0.000000 0.006672 0.000000
# 4 0.000000 0.000000 0.000000 0.040716 0.000000 -0.006138
# 5 -0.008127 -0.002316 0.006672 0.000000 0.042841 0.000000
# 6 0.000000 0.000000 0.000000 -0.006138 0.000000 0.026482
#
#
# Mechanical properties :
#
#
# Convention : Reuss Voigt Hill
#
# Bulk Modulus (GPa) = 69.92350 72.42570 71.17460
# Shear Modulus (GPa) = 22.79964 27.09431 24.94697
#
# Velocity S-wave (km/s) = 3.46981 3.78251 3.62953
# Velocity P-wave (km/s) = 7.27849 7.57110 7.42624
#
# Compressibility (1/GPa) = 0.01430134
#
# Stress axis : x y z
#
# Youngs Moduli (GPa) = 37.42736 55.96275 67.51660
#
# Poissons Ratio (x) = 0.67313 0.53137
# Poissons Ratio (y) = 0.45018 0.17894
# Poissons Ratio (z) = 0.29456 0.14832
#
# Static dielectric constant tensor:
#      x y z
#    x 3.398400 0.000000 -0.090830 
#    y 0.000000 3.884540 0.000000 
#    z -0.090830 0.000000 3.411200 
# 
# 
# High freq. dielectric constant tensor:
#      x y z
#    x 1.738350 0.000000 -0.009200 
#    y 0.000000 1.744040 0.000000 
#    z -0.009200 0.000000 1.735030 
# 
# From -- ./inp_files/238687.got.cif
#   From: 2010.06.25/outbox.cif.g09.slc.cpg/sg12_120_cif.got.tgz:238687.got - 2010.06.28 00:19:55.
