data_PCOD8096465
_publ_section_title
;
Structure prediction by ZEFSAII (Michael W. Deem and Ramdas Pophale) SiO2 
 PCOD8096465
Probable space group: C 2/M
;
_chemical_formula_sum "Si O2"
_cell_formula_units_Z 64
_cell_length_a 29.915203
_cell_length_b 20.296017
_cell_length_c 16.340974
_cell_angle_alpha 90.000000
_cell_angle_beta 19.410353
_cell_angle_gamma 90.000000
_cell_volume 3297.253203
_symmetry_space_group_name_H-M "C 2/M"
_symmetry_group_IT_number 12
_symmetry_cell_setting 'monoclinic'
loop_
_space_group_symop_operation_xyz
x,y,z
-x,y,-z
-x,-y,-z
x,-y,z
1/2+x,1/2+y,z
1/2-x,1/2+y,-z
1/2-x,1/2-y,-z
1/2+x,1/2-y,z
loop_
_atom_site_type_symbol
_atom_site_label
_atom_site_fract_x
_atom_site_fract_y
_atom_site_fract_z
Si Si1 0.475830 0.824121 0.207908
Si Si2 0.345703 0.664115 0.772281
Si Si3 0.626817 0.925999 0.727618
Si Si4 0.846717 0.680070 0.753614
Si Si5 0.965569 0.812554 0.964967
Si Si6 0.392819 0.425405 0.373118
Si Si7 0.226771 0.853663 0.276073
Si Si8 0.185114 0.706028 0.370396
O O1 0.368238 0.874909 0.355596
O O2 0.455482 0.752704 0.200881
O O3 0.446726 0.819473 0.354887
O O4 0.625152 0.852425 0.940643
O O5 0.500000 0.638553 0.500000
O O6 0.344216 0.742617 0.774308
O O7 0.270533 0.629713 0.825067
O O8 0.260353 0.643337 0.001103
O O9 0.758803 0.918963 0.552303
O O10 0.609240 0.000000 0.723754
O O11 0.500000 0.904383 0.000000
O O12 0.798215 0.666879 0.743785
O O13 0.000000 0.653372 0.500000
O O14 0.000965 0.876414 0.850374
O O15 0.808501 0.801846 0.219901
O O16 0.000000 0.825820 0.000000
O O17 0.449234 0.500000 0.273996
O O18 0.361592 0.406012 0.520845
O O19 0.156827 0.782566 0.402603
#
# Coordination Sequence:
#
# PCOD8096465 Si02
#       8
#     8   8   8   8   8   8   8   8
#     4  11  20  34  57  83 117 147 185 237 279 336
#     4   9  18  29  51  77 109 144 181 228 284 343
#     4  10  20  34  53  79 108 144 188 233 277 322
#     4   9  17  31  49  77 114 147 177 225 292 347
#     4  11  24  36  54  83 117 154 190 230 287 340
#     4  11  23  39  57  77 112 153 196 238 277 332
#     4  10  20  33  53  84 110 144 186 234 284 335
#     4  10  21  33  54  83 117 147 185 227 283 350
#
# _framework density 19.410095999999999
#
# number of rings (size 3 to 8) (size 9 to 14) (size 15 to 20)
#    0.000    1.875    2.500    1.875    3.500    4.250 
#    0.000    0.625    0.000    0.375    0.000    0.000 
#    0.000    3.500    0.000    0.000    0.000    0.000 
#
# Total GULP energy -396678.098137 kJ/mol
# GULP energy per Si atom -12396.190567 kJ/mol
# Density = 1.936592 g / cm^3
# Si number density = 19.410096 Si / 1000 Ang^3
#
#
#
# Elastic Constant Matrix: (Units=GPa)
#
#
# Indices 1 2 3 4 5 6 
#
# 1 100.8481 25.5598 27.2573 -0.0013 20.0937 0.0027
# 2 25.5598 73.3622 21.0728 -0.0027 10.2401 0.0035
# 3 27.2573 21.0728 86.0029 0.0010 20.7359 0.0016
# 4 -0.0013 -0.0027 0.0010 18.5550 -0.0005 7.5025
# 5 20.0937 10.2401 20.7359 -0.0005 35.4753 -0.0005
# 6 0.0027 0.0035 0.0016 7.5025 -0.0005 -1.9318
#
#
#
# Elastic Compliance Matrix: (Units=1/GPa)
#
#
# Indices 1 2 3 4 5 6 
#
# 1 0.012177 -0.003001 -0.001944 -0.000002 -0.004895 0.000005
# 2 -0.003001 0.015593 -0.002554 -0.000003 -0.001308 0.000012
# 3 -0.001944 -0.002554 0.014465 -0.000002 -0.006617 0.000000
# 4 -0.000002 -0.000003 -0.000002 0.020967 0.000004 0.081432
# 5 -0.004895 -0.001308 -0.006617 0.000004 0.035206 -0.000008
# 6 0.000005 0.000012 0.000000 0.081432 -0.000008 -0.201396
#
#
# Mechanical properties :
#
#
# Convention : Reuss Voigt Hill
#
# Bulk Modulus (GPa) = 36.71503 45.33257 41.02380
# Shear Modulus (GPa) = -63.36311 22.84125 -20.26093
#
# Velocity S-wave (km/s) = -5.71973 3.43413 -3.23435
# Velocity P-wave (km/s) = 4.96627 6.25541 2.68945
#
# Compressibility (1/GPa) = 0.02723680
#
# Stress axis : x y z
#
# Youngs Moduli (GPa) = 82.12089 64.13207 69.13372
#
# Poissons Ratio (x) = 0.19246 0.13439
# Poissons Ratio (y) = 0.24644 0.17657
# Poissons Ratio (z) = 0.15963 0.16380
#
# Static dielectric constant tensor:
#      x y z
#    x 3.630990 0.000000 0.120070 
#    y 0.000000 3.246810 0.000010 
#    z 0.120070 0.000010 3.604620 
# 
# 
# High freq. dielectric constant tensor:
#      x y z
#    x 1.760720 0.000000 0.007080 
#    y 0.000000 1.705360 0.000000 
#    z 0.007080 0.000000 1.759030 
# 
# From -- ./inp_files/251919.got.cif
#   From: 2010.06.25/outbox.cif.g09.slc.cpg/sg12_126_cif.got.tgz:251919.got - 2010.06.28 00:19:55.
