data_PCOD8096261
_publ_section_title
;
Structure prediction by ZEFSAII (Michael W. Deem and Ramdas Pophale) SiO2 
 PCOD8096261
Probable space group: C 2/M
;
_chemical_formula_sum "Si O2"
_cell_formula_units_Z 40
_cell_length_a 19.265165
_cell_length_b 9.409314
_cell_length_c 11.983347
_cell_angle_alpha 90.000000
_cell_angle_beta 84.583971
_cell_angle_gamma 90.000000
_cell_volume 2162.547343
_symmetry_space_group_name_H-M "C 2/M"
_symmetry_group_IT_number 12
_symmetry_cell_setting 'monoclinic'
loop_
_space_group_symop_operation_xyz
x,y,z
-x,y,-z
-x,-y,-z
x,-y,z
1/2+x,1/2+y,z
1/2-x,1/2+y,-z
1/2-x,1/2-y,-z
1/2+x,1/2-y,z
loop_
_atom_site_type_symbol
_atom_site_label
_atom_site_fract_x
_atom_site_fract_y
_atom_site_fract_z
Si Si1 0.635037 0.836461 0.237194
Si Si2 0.025972 0.167657 0.376315
Si Si3 0.610863 0.164188 0.994083
Si Si4 0.931627 0.158853 0.188617
Si Si5 0.784684 0.839457 0.139772
O O1 0.599448 0.741663 0.337547
O O2 0.714724 0.784287 0.210018
O O3 0.632612 0.000000 0.275246
O O4 0.592960 0.814570 0.126999
O O5 0.000000 0.222025 0.500000
O O6 0.968933 0.216847 0.293690
O O7 0.037838 0.000000 0.375004
O O8 0.553859 0.241466 0.922591
O O9 0.688463 0.233456 0.963021
O O10 0.613020 0.000000 0.960365
O O11 0.847669 0.157456 0.221859
O O12 0.958929 0.000000 0.156933
O O13 0.771590 0.000000 0.094452
#
# Coordination Sequence:
#
# PCOD8096261 Si02
#       5
#     8   8   8   8   8
#     4  10  20  33  52  79 107 135 164 203 255 302
#     4  10  22  39  55  71  96 134 178 218 251 291
#     4   9  17  29  51  81 109 132 161 202 248 300
#     4   8  17  34  53  72 102 137 165 203 253 301
#     4   8  16  32  52  76 106 136 163 198 250 306
#
# _framework density 18.496704000000001
#
# number of rings (size 3 to 8) (size 9 to 14) (size 15 to 20)
#    1.200    1.800    0.000    0.600    0.000    4.400 
#    0.000    5.000    0.000    0.000    0.000    0.000 
#    0.000    0.000    0.000    0.000    0.000    0.000 
#
# Total GULP energy -247792.380565 kJ/mol
# GULP energy per Si atom -12389.619028 kJ/mol
# Density = 1.845460 g / cm^3
# Si number density = 18.496704 Si / 1000 Ang^3
#
#
#
# Elastic Constant Matrix: (Units=GPa)
#
#
# Indices 1 2 3 4 5 6 
#
# 1 33.8295 13.9126 30.8232 0.0000 -11.8233 0.0000
# 2 13.9126 65.6581 42.3944 0.0000 -11.9536 0.0000
# 3 30.8232 42.3944 87.3687 0.0000 -21.5670 0.0000
# 4 0.0000 0.0000 0.0000 26.8375 0.0000 -6.5817
# 5 -11.8233 -11.9536 -21.5670 0.0000 27.1676 0.0000
# 6 0.0000 0.0000 0.0000 -6.5817 0.0000 20.1363
#
#
#
# Elastic Compliance Matrix: (Units=1/GPa)
#
#
# Indices 1 2 3 4 5 6 
#
# 1 0.045243 0.001339 -0.014434 0.000000 0.008821 0.000000
# 2 0.001339 0.022269 -0.010840 0.000000 0.001776 0.000000
# 3 -0.014434 -0.010840 0.023718 0.000000 0.007777 0.000000
# 4 0.000000 0.000000 0.000000 0.040508 0.000000 0.013241
# 5 0.008821 0.001776 0.007777 0.000000 0.047602 0.000000
# 6 0.000000 0.000000 0.000000 0.013241 0.000000 0.053989
#
#
# Mechanical properties :
#
#
# Convention : Reuss Voigt Hill
#
# Bulk Modulus (GPa) = 23.06255 40.12408 31.59332
# Shear Modulus (GPa) = 16.91170 21.47668 19.19419
#
# Velocity S-wave (km/s) = 3.02703 3.41120 3.22484
# Velocity P-wave (km/s) = 4.97120 6.10366 5.56630
#
# Compressibility (1/GPa) = 0.04336033
#
# Stress axis : x y z
#
# Youngs Moduli (GPa) = 22.10270 44.90536 42.16295
#
# Poissons Ratio (x) = -0.06012 0.60857
# Poissons Ratio (y) = -0.02959 0.45703
# Poissons Ratio (z) = 0.31903 0.48676
#
# Static dielectric constant tensor:
#      x y z
#    x 3.348370 0.000000 0.069730 
#    y 0.000000 3.309700 0.000000 
#    z 0.069730 0.000000 3.121110 
# 
# 
# High freq. dielectric constant tensor:
#      x y z
#    x 1.721910 0.000000 0.002760 
#    y 0.000000 1.714100 0.000000 
#    z 0.002760 0.000000 1.678420 
# 
# From -- ./inp_files/171424.got.cif
#   From: 2010.06.25/outbox.cif.g09.slc.cpg/sg12_86_cif.got.tgz:171424.got - 2010.06.28 00:19:55.
