data_PCOD8096699
_publ_section_title
;
Structure prediction by ZEFSAII (Michael W. Deem and Ramdas Pophale) SiO2 
 PCOD8096699
Probable space group: C 2/M
;
_chemical_formula_sum "Si O2"
_cell_formula_units_Z 56
_cell_length_a 23.221399
_cell_length_b 23.449572
_cell_length_c 13.681690
_cell_angle_alpha 90.000000
_cell_angle_beta 24.373689
_cell_angle_gamma 90.000000
_cell_volume 3074.560059
_symmetry_space_group_name_H-M "C 2/M"
_symmetry_group_IT_number 12
_symmetry_cell_setting 'monoclinic'
loop_
_space_group_symop_operation_xyz
x,y,z
-x,y,-z
-x,-y,-z
x,-y,z
1/2+x,1/2+y,z
1/2-x,1/2+y,-z
1/2-x,1/2-y,-z
1/2+x,1/2-y,z
loop_
_atom_site_type_symbol
_atom_site_label
_atom_site_fract_x
_atom_site_fract_y
_atom_site_fract_z
Si Si1 0.720582 0.064180 0.946769
Si Si2 0.180787 0.387917 0.806857
Si Si3 0.352132 0.170201 0.677044
Si Si4 0.619745 0.065859 0.709237
Si Si5 0.394487 0.935193 0.484404
Si Si6 0.352648 0.333303 0.833435
Si Si7 0.658695 0.291449 0.359555
O O1 0.753215 0.076582 0.782318
O O2 0.822461 0.100428 0.857852
O O3 0.757972 0.000000 0.913483
O O4 0.559023 0.077892 0.220732
O O5 0.226747 0.412429 0.628527
O O6 0.224934 0.321491 0.751904
O O7 0.015241 0.394135 0.072760
O O8 0.500000 0.166978 0.500000
O O9 0.323728 0.110466 0.665820
O O10 0.350399 0.223718 0.603880
O O11 0.233322 0.184005 0.938773
O O12 0.680205 0.071960 0.506251
O O13 0.576812 0.000000 0.793756
O O14 0.371114 0.000000 0.559603
O O15 0.514011 0.323166 0.606896
O O16 0.304132 0.297476 0.813260
#
# Coordination Sequence:
#
# PCOD8096699 Si02
#       7
#     8   8   8   8   8   8   8
#     4   9  16  28  47  74 103 129 165 213 259 299
#     4   9  16  29  50  76 102 133 167 208 259 302
#     4  12  21  33  55  75 100 144 176 209 255 303
#     4   9  16  31  56  81 104 131 172 221 264 299
#     4   9  19  32  50  78 101 124 169 225 262 292
#     4  10  20  34  48  72 106 138 174 204 249 316
#     4  10  22  34  50  74 105 139 171 207 251 310
#
# _framework density 18.213986999999999
#
# number of rings (size 3 to 8) (size 9 to 14) (size 15 to 20)
#    0.000    2.286    2.857    3.000    0.000    0.857 
#    0.000    7.857    0.000    0.857    0.000    2.000 
#    0.000    0.000    0.000    0.000    0.000    0.000 
#
# Total GULP energy -346979.667191 kJ/mol
# GULP energy per Si atom -12392.130971 kJ/mol
# Density = 1.817253 g / cm^3
# Si number density = 18.213987 Si / 1000 Ang^3
#
#
#
# Elastic Constant Matrix: (Units=GPa)
#
#
# Indices 1 2 3 4 5 6 
#
# 1 68.6174 45.6642 35.7468 -0.0014 2.3881 0.0001
# 2 45.6642 120.8675 28.9983 -0.0069 -0.2089 0.0032
# 3 35.7468 28.9983 53.2275 -0.0164 13.0449 0.0027
# 4 -0.0014 -0.0069 -0.0164 12.5118 0.0006 2.9226
# 5 2.3881 -0.2089 13.0449 0.0006 19.4976 -0.0001
# 6 0.0001 0.0032 0.0027 2.9226 -0.0001 24.5557
#
#
#
# Elastic Compliance Matrix: (Units=1/GPa)
#
#
# Indices 1 2 3 4 5 6 
#
# 1 0.027195 -0.006233 -0.016788 -0.000024 0.007834 0.000005
# 2 -0.006233 0.011253 -0.002585 0.000002 0.002614 -0.000001
# 3 -0.016788 -0.002585 0.037048 0.000049 -0.022758 -0.000010
# 4 -0.000024 0.000002 0.000049 0.082210 -0.000032 -0.009784
# 5 0.007834 0.002614 -0.022758 -0.000032 0.065583 0.000006
# 6 0.000005 -0.000001 -0.000010 -0.009784 0.000006 0.041888
#
#
# Mechanical properties :
#
#
# Convention : Reuss Voigt Hill
#
# Bulk Modulus (GPa) = 41.18037 51.50346 46.34191
# Shear Modulus (GPa) = 15.40908 20.13324 17.77116
#
# Velocity S-wave (km/s) = 2.91177 3.32832 3.12699
# Velocity P-wave (km/s) = 5.82776 6.56571 6.20771
#
# Compressibility (1/GPa) = 0.02428341
#
# Stress axis : x y z
#
# Youngs Moduli (GPa) = 36.77183 88.86406 26.99213
#
# Poissons Ratio (x) = 0.55389 0.45314
# Poissons Ratio (y) = 0.22920 0.06978
# Poissons Ratio (z) = 0.61732 0.22974
#
# Static dielectric constant tensor:
#      x y z
#    x 3.560480 0.000000 0.125990 
#    y 0.000000 3.519100 0.000010 
#    z 0.125990 0.000010 3.026200 
# 
# 
# High freq. dielectric constant tensor:
#      x y z
#    x 1.691250 0.000000 0.014350 
#    y 0.000000 1.712480 0.000000 
#    z 0.014350 0.000000 1.659920 
# 
# From -- ./inp_files/242107.got.cif
#   From: 2010.06.25/outbox.cif.g09.slc.cpg/sg12_122_cif.got.tgz:242107.got - 2010.06.28 00:19:55.
