data_PCOD8096551
_publ_section_title
;
Structure prediction by ZEFSAII (Michael W. Deem and Ramdas Pophale) SiO2 
 PCOD8096551
Probable space group: C 2/M
;
_chemical_formula_sum "Si O2"
_cell_formula_units_Z 32
_cell_length_a 23.093076
_cell_length_b 10.494645
_cell_length_c 14.354336
_cell_angle_alpha 90.000000
_cell_angle_beta 151.949711
_cell_angle_gamma 90.000000
_cell_volume 1635.905003
_symmetry_space_group_name_H-M "C 2/M"
_symmetry_group_IT_number 12
_symmetry_cell_setting 'monoclinic'
loop_
_space_group_symop_operation_xyz
x,y,z
-x,y,-z
-x,-y,-z
x,-y,z
1/2+x,1/2+y,z
1/2-x,1/2+y,-z
1/2-x,1/2-y,-z
1/2+x,1/2-y,z
loop_
_atom_site_type_symbol
_atom_site_label
_atom_site_fract_x
_atom_site_fract_y
_atom_site_fract_z
Si Si1 0.148263 0.643258 0.115019
Si Si2 0.565260 0.230150 0.311574
Si Si3 0.928513 0.852961 0.487025
Si Si4 0.170249 0.139299 0.291808
O O1 0.140893 0.500000 0.147667
O O2 0.283194 0.668169 0.264771
O O3 0.120485 0.746848 0.155674
O O4 0.050595 0.653853 0.893354
O O5 0.524487 0.284339 0.353197
O O6 0.682280 0.137832 0.489005
O O7 0.607206 0.344914 0.303179
O O8 0.000000 0.793406 0.500000
O O9 0.963369 0.000000 0.546862
O O10 0.132269 0.000000 0.198119
#
# Coordination Sequence:
#
# PCOD8096551 Si02
#       4
#     8   8   8   8
#     4  10  21  36  56  81 108 141 178 216 265 321
#     4  10  20  33  55  79 108 142 177 216 265 315
#     4   9  19  36  55  77 107 141 179 222 265 312
#     4  10  21  35  53  81 113 141 174 217 263 316
#
# _framework density 19.561038
#
# number of rings (size 3 to 8) (size 9 to 14) (size 15 to 20)
#    0.000    2.250    0.000    2.250    0.000   12.000 
#    0.000    0.000    0.000   18.750    0.000    0.000 
#    0.000    0.000    0.000    0.000    0.000    0.000 
#
# Total GULP energy -198372.034977 kJ/mol
# GULP energy per Si atom -12398.252186 kJ/mol
# Density = 1.951652 g / cm^3
# Si number density = 19.561038 Si / 1000 Ang^3
#
#
#
# Elastic Constant Matrix: (Units=GPa)
#
#
# Indices 1 2 3 4 5 6 
#
# 1 152.4585 54.3229 30.2520 0.0000 -13.4807 0.0000
# 2 54.3229 128.4066 35.1171 0.0000 -10.7260 0.0000
# 3 30.2520 35.1171 112.9034 0.0000 -12.9371 0.0000
# 4 0.0000 0.0000 0.0000 17.5947 0.0000 -10.5888
# 5 -13.4807 -10.7260 -12.9371 0.0000 22.0461 0.0000
# 6 0.0000 0.0000 0.0000 -10.5888 0.0000 15.4292
#
#
#
# Elastic Compliance Matrix: (Units=1/GPa)
#
#
# Indices 1 2 3 4 5 6 
#
# 1 0.008037 -0.002903 -0.000910 0.000000 0.002968 0.000000
# 2 -0.002903 0.009722 -0.002045 0.000000 0.001755 0.000000
# 3 -0.000910 -0.002045 0.010248 0.000000 0.004462 0.000000
# 4 0.000000 0.000000 0.000000 0.096826 0.000000 0.066450
# 5 0.002968 0.001755 0.004462 0.000000 0.050647 0.000000
# 6 0.000000 0.000000 0.000000 0.066450 0.000000 0.110415
#
#
# Mechanical properties :
#
#
# Convention : Reuss Voigt Hill
#
# Bulk Modulus (GPa) = 61.38690 70.35030 65.86860
# Shear Modulus (GPa) = 16.49937 29.28575 22.89256
#
# Velocity S-wave (km/s) = 2.90743 3.87350 3.42470
# Velocity P-wave (km/s) = 6.53615 7.48651 7.02741
#
# Compressibility (1/GPa) = 0.01629012
#
# Stress axis : x y z
#
# Youngs Moduli (GPa) = 124.43067 102.86233 97.57592
#
# Poissons Ratio (x) = 0.29862 0.08883
# Poissons Ratio (y) = 0.36123 0.19953
# Poissons Ratio (z) = 0.11328 0.21034
#
# Static dielectric constant tensor:
#      x y z
#    x 3.524120 0.000000 0.055410 
#    y 0.000000 3.399890 0.000000 
#    z 0.055410 0.000000 3.654140 
# 
# 
# High freq. dielectric constant tensor:
#      x y z
#    x 1.744940 0.000000 0.006040 
#    y 0.000000 1.751870 0.000000 
#    z 0.006040 0.000000 1.772440 
# 
# From -- ./inp_files/127504.got.cif
#   From: 2010.06.25/outbox.cif.g09.slc.cpg/sg12_64_cif.got.tgz:127504.got - 2010.06.28 00:19:55.
