data_PCOD8096201
_publ_section_title
;
Structure prediction by ZEFSAII (Michael W. Deem and Ramdas Pophale) SiO2 
 PCOD8096201
Probable space group: C 2/M
;
_chemical_formula_sum "Si O2"
_cell_formula_units_Z 56
_cell_length_a 32.183240
_cell_length_b 9.613531
_cell_length_c 31.338721
_cell_angle_alpha 90.000000
_cell_angle_beta 161.572608
_cell_angle_gamma 90.000000
_cell_volume 3064.940769
_symmetry_space_group_name_H-M "C 2/M"
_symmetry_group_IT_number 12
_symmetry_cell_setting 'monoclinic'
loop_
_space_group_symop_operation_xyz
x,y,z
-x,y,-z
-x,-y,-z
x,-y,z
1/2+x,1/2+y,z
1/2-x,1/2+y,-z
1/2-x,1/2-y,-z
1/2+x,1/2-y,z
loop_
_atom_site_type_symbol
_atom_site_label
_atom_site_fract_x
_atom_site_fract_y
_atom_site_fract_z
Si Si1 0.623397 0.837671 0.326812
Si Si2 0.142023 0.836352 0.784017
Si Si3 0.418346 0.661457 0.631411
Si Si4 0.435587 0.163620 0.069878
Si Si5 0.199516 0.343172 0.670328
Si Si6 0.576126 0.843155 0.639562
Si Si7 0.555729 0.164491 0.099622
O O1 0.571080 0.753204 0.316205
O O2 0.779277 0.812764 0.471994
O O3 0.544674 0.777811 0.209120
O O4 0.593520 0.000000 0.305771
O O5 0.111448 0.765290 0.709873
O O6 0.036825 0.788273 0.716654
O O7 0.132914 0.000000 0.767172
O O8 0.289120 0.791730 0.941839
O O9 0.433582 0.500000 0.658867
O O10 0.461517 0.214353 0.046571
O O11 0.449999 0.000000 0.084449
O O12 0.256006 0.500000 0.724476
O O13 0.158953 0.302601 0.678653
O O14 0.305068 0.234813 0.756135
O O15 0.077430 0.331307 0.519749
O O16 0.610001 0.000000 0.687323
O O17 0.576393 0.000000 0.119351
O O18 0.500000 0.217415 0.000000
#
# Coordination Sequence:
#
# PCOD8096201 Si02
#       7
#     8   8   8   8   8   8   8
#     4   9  18  35  55  74 102 140 172 207 263 317
#     4  10  20  34  54  79 105 136 173 215 260 309
#     4   9  19  34  54  79 104 131 171 220 260 305
#     4   9  19  34  52  76 109 141 172 214 264 311
#     4   9  19  35  52  72 101 140 178 217 263 309
#     4   9  19  35  52  73 105 138 173 217 264 311
#     4  10  20  33  52  77 106 140 179 219 259 305
#
# _framework density 18.271153000000002
#
# number of rings (size 3 to 8) (size 9 to 14) (size 15 to 20)
#    0.000    2.714    0.000    1.714    2.000    3.714 
#    0.000    3.571    0.000    0.000    0.000    0.000 
#    0.000    0.000    0.000    0.000    0.000    0.000 
#
# Total GULP energy -347157.760269 kJ/mol
# GULP energy per Si atom -12398.491438 kJ/mol
# Density = 1.822957 g / cm^3
# Si number density = 18.271153 Si / 1000 Ang^3
#
#
#
# Elastic Constant Matrix: (Units=GPa)
#
#
# Indices 1 2 3 4 5 6 
#
# 1 101.6022 26.8929 79.5492 -0.0003 -5.3306 -0.0005
# 2 26.8929 32.1428 31.4478 -0.0016 -0.2836 -0.0009
# 3 79.5492 31.4478 116.0010 0.0112 5.3526 0.0043
# 4 -0.0003 -0.0016 0.0112 22.1390 0.0022 -4.2016
# 5 -5.3306 -0.2836 5.3526 0.0022 33.6138 0.0004
# 6 -0.0005 -0.0009 0.0043 -4.2016 0.0004 28.4407
#
#
#
# Elastic Compliance Matrix: (Units=1/GPa)
#
#
# Indices 1 2 3 4 5 6 
#
# 1 0.022926 -0.004735 -0.014712 0.000008 0.005938 0.000004
# 2 -0.004735 0.043482 -0.008586 0.000008 0.000983 0.000004
# 3 -0.014712 -0.008586 0.021305 -0.000012 -0.005798 -0.000005
# 4 0.000008 0.000008 -0.000012 0.046472 0.000000 0.006865
# 5 0.005938 0.000983 -0.005798 0.000000 0.031623 0.000001
# 6 0.000004 0.000004 -0.000005 0.006865 0.000001 0.036175
#
#
# Mechanical properties :
#
#
# Convention : Reuss Voigt Hill
#
# Bulk Modulus (GPa) = 31.59938 58.39174 44.99556
# Shear Modulus (GPa) = 18.61512 24.29578 21.45545
#
# Velocity S-wave (km/s) = 3.19537 3.65051 3.43049
# Velocity P-wave (km/s) = 5.56292 7.05663 6.35382
#
# Compressibility (1/GPa) = 0.03164619
#
# Stress axis : x y z
#
# Youngs Moduli (GPa) = 43.61856 22.99798 46.93747
#
# Poissons Ratio (x) = 0.10890 0.69055
# Poissons Ratio (y) = 0.20653 0.40302
# Poissons Ratio (z) = 0.64172 0.19747
#
# Static dielectric constant tensor:
#      x y z
#    x 3.395260 0.000000 0.049090 
#    y 0.000000 3.177540 0.000000 
#    z 0.049090 0.000000 3.532640 
# 
# 
# High freq. dielectric constant tensor:
#      x y z
#    x 1.705430 0.000000 0.004080 
#    y 0.000000 1.690600 0.000000 
#    z 0.004080 0.000000 1.715100 
# 
# From -- ./inp_files/369424.got.cif
#   From: 2010.06.25/outbox.cif.g09.slc.cpg/sg12_185_cif.got.tgz:369424.got - 2010.06.28 00:19:55.
