data_PCOD8096258
_publ_section_title
;
Structure prediction by ZEFSAII (Michael W. Deem and Ramdas Pophale) SiO2 
 PCOD8096258
Probable space group: C 2/M
;
_chemical_formula_sum "Si O2"
_cell_formula_units_Z 56
_cell_length_a 18.691265
_cell_length_b 9.219383
_cell_length_c 29.067142
_cell_angle_alpha 90.000000
_cell_angle_beta 37.645480
_cell_angle_gamma 90.000000
_cell_volume 3059.308931
_symmetry_space_group_name_H-M "C 2/M"
_symmetry_group_IT_number 12
_symmetry_cell_setting 'monoclinic'
loop_
_space_group_symop_operation_xyz
x,y,z
-x,y,-z
-x,-y,-z
x,-y,z
1/2+x,1/2+y,z
1/2-x,1/2+y,-z
1/2-x,1/2-y,-z
1/2+x,1/2-y,z
loop_
_atom_site_type_symbol
_atom_site_label
_atom_site_fract_x
_atom_site_fract_y
_atom_site_fract_z
Si Si1 0.042258 0.669155 0.709050
Si Si2 0.304363 0.330960 0.297598
Si Si3 0.079230 0.671493 0.001353
Si Si4 0.509285 0.335121 0.126460
Si Si5 0.844037 0.169052 0.859332
Si Si6 0.459487 0.172077 0.569886
Si Si7 0.127908 0.669003 0.564027
O O1 0.038107 0.500000 0.723325
O O2 0.147682 0.741604 0.683603
O O3 0.063128 0.697529 0.644892
O O4 0.917720 0.740159 0.784893
O O5 0.308945 0.500000 0.309364
O O6 0.382072 0.302634 0.212856
O O7 0.173516 0.277839 0.352847
O O8 0.076481 0.500000 0.006605
O O9 0.211197 0.725805 0.925469
O O10 0.026743 0.730711 0.075023
O O11 0.000000 0.729023 0.000000
O O12 0.518138 0.500000 0.104695
O O13 0.608253 0.302172 0.113844
O O14 0.855239 0.000000 0.840723
O O15 0.500000 0.234887 0.500000
O O16 0.543946 0.232873 0.566774
O O17 0.466618 0.000000 0.566234
O O18 0.153144 0.500000 0.543523
O O19 0.250000 0.750000 0.500000
#
# Coordination Sequence:
#
# PCOD8096258 Si02
#       7
#     8   8   8   8   8   8   8
#     4  10  20  33  52  79 106 130 163 210 257 300
#     4   9  18  34  55  77 102 133 170 209 250 303
#     4  10  21  35  51  74 104 135 168 209 255 303
#     4   9  18  32  52  76  99 130 171 210 249 297
#     4   9  19  36  55  74  99 134 173 206 245 304
#     4   9  17  31  53  76  98 132 174 208 242 292
#     4  10  21  35  52  77 105 134 171 211 252 299
#
# _framework density 18.304787000000001
#
# number of rings (size 3 to 8) (size 9 to 14) (size 15 to 20)
#    0.000    2.571    0.000    2.571    0.000    6.571 
#    0.000    2.143    0.000    2.571    0.000    0.000 
#    0.000    0.000    0.000    0.000    0.000    0.000 
#
# Total GULP energy -347249.107594 kJ/mol
# GULP energy per Si atom -12401.753843 kJ/mol
# Density = 1.826312 g / cm^3
# Si number density = 18.304787 Si / 1000 Ang^3
#
#
#
# Elastic Constant Matrix: (Units=GPa)
#
#
# Indices 1 2 3 4 5 6 
#
# 1 149.9927 42.3904 99.7781 -0.0001 -13.8011 0.0003
# 2 42.3904 48.0175 49.1634 -0.0003 3.8572 0.0001
# 3 99.7781 49.1634 141.1732 0.0000 -12.3842 0.0001
# 4 -0.0001 -0.0003 0.0000 29.7420 0.0000 2.4562
# 5 -13.8011 3.8572 -12.3842 0.0000 34.8833 -0.0003
# 6 0.0003 0.0001 0.0001 2.4562 -0.0003 22.0795
#
#
#
# Elastic Compliance Matrix: (Units=1/GPa)
#
#
# Indices 1 2 3 4 5 6 
#
# 1 0.013158 -0.004032 -0.007637 0.000000 0.002940 0.000000
# 2 -0.004032 0.035812 -0.010434 0.000000 -0.009259 0.000000
# 3 -0.007637 -0.010434 0.016464 0.000000 0.003977 0.000000
# 4 0.000000 0.000000 0.000000 0.033934 0.000000 -0.003775
# 5 0.002940 -0.009259 0.003977 0.000000 0.032266 0.000000
# 6 0.000000 0.000000 0.000000 -0.003775 0.000000 0.045711
#
#
# Mechanical properties :
#
#
# Convention : Reuss Voigt Hill
#
# Bulk Modulus (GPa) = 47.11064 80.20525 63.65794
# Shear Modulus (GPa) = 21.86965 27.19773 24.53369
#
# Velocity S-wave (km/s) = 3.46027 3.85882 3.66497
# Velocity P-wave (km/s) = 6.46198 7.98534 7.26371
#
# Compressibility (1/GPa) = 0.02122663
#
# Stress axis : x y z
#
# Youngs Moduli (GPa) = 76.00156 27.92348 60.73885
#
# Poissons Ratio (x) = 0.11259 0.46389
# Poissons Ratio (y) = 0.30645 0.63375
# Poissons Ratio (z) = 0.58045 0.29135
#
# Static dielectric constant tensor:
#      x y z
#    x 3.561850 0.000000 -0.186790 
#    y 0.000000 3.187250 0.000000 
#    z -0.186790 0.000000 3.538200 
# 
# 
# High freq. dielectric constant tensor:
#      x y z
#    x 1.711120 0.000000 -0.005480 
#    y 0.000000 1.689000 0.000000 
#    z -0.005480 0.000000 1.721390 
# 
# From -- ./inp_files/362894.got.cif
#   From: 2010.06.25/outbox.cif.g09.slc.cpg/sg12_182_cif.got.tgz:362894.got - 2010.06.28 00:19:55.
