data_PCOD8096271
_publ_section_title
;
Structure prediction by ZEFSAII (Michael W. Deem and Ramdas Pophale) SiO2 
 PCOD8096271
Probable space group: C 2/M
;
_chemical_formula_sum "Si O2"
_cell_formula_units_Z 64
_cell_length_a 15.453624
_cell_length_b 8.855180
_cell_length_c 30.874920
_cell_angle_alpha 90.000000
_cell_angle_beta 130.111039
_cell_angle_gamma 90.000000
_cell_volume 3231.319590
_symmetry_space_group_name_H-M "C 2/M"
_symmetry_group_IT_number 12
_symmetry_cell_setting 'monoclinic'
loop_
_space_group_symop_operation_xyz
x,y,z
-x,y,-z
-x,-y,-z
x,-y,z
1/2+x,1/2+y,z
1/2-x,1/2+y,-z
1/2-x,1/2-y,-z
1/2+x,1/2-y,z
loop_
_atom_site_type_symbol
_atom_site_label
_atom_site_fract_x
_atom_site_fract_y
_atom_site_fract_z
Si Si1 0.237209 0.828131 0.318808
Si Si2 0.625267 0.167795 0.556955
Si Si3 0.833674 0.320684 0.876502
Si Si4 0.290863 0.829345 0.555896
Si Si5 0.701372 0.179553 0.756653
Si Si6 0.443921 0.178762 0.679029
Si Si7 0.730774 0.174884 0.926465
Si Si8 0.572311 0.674947 0.941203
O O1 0.353576 0.815746 0.384622
O O2 0.265742 0.763432 0.280722
O O3 0.131067 0.744070 0.306181
O O4 0.198283 0.000000 0.301781
O O5 0.500000 0.186516 0.500000
O O6 0.689997 0.307709 0.557099
O O7 0.669646 0.000000 0.557080
O O8 0.836487 0.500000 0.880604
O O9 0.784007 0.267765 0.814970
O O10 0.754661 0.256115 0.888941
O O11 0.960249 0.257880 0.921301
O O12 0.250000 0.750000 0.500000
O O13 0.400887 0.765040 0.617262
O O14 0.311752 0.000000 0.549572
O O15 0.573205 0.229026 0.726175
O O16 0.716164 0.000000 0.766565
O O17 0.429963 0.000000 0.676091
O O18 0.620801 0.250259 0.913030
O O19 0.703682 0.000000 0.909034
O O20 0.838868 0.195508 0.991709
O O21 0.546057 0.500000 0.923449
#
# Coordination Sequence:
#
# PCOD8096271 Si02
#       8
#     8   8   8   8   8   8   8   8
#     4   9  19  36  58  81 107 142 185 232 285 343
#     4   9  18  32  54  80 107 138 175 220 277 344
#     4  12  25  39  58  88 123 160 204 248 294 350
#     4  10  20  33  52  79 109 139 176 222 279 341
#     4  10  22  40  60  80 108 153 200 242 292 347
#     4   9  20  38  59  79 107 144 185 233 287 345
#     4  10  21  39  64  93 125 161 200 245 297 349
#     4  10  21  39  64  93 125 161 200 244 296 350
#
# _framework density 19.806149000000001
#
# number of rings (size 3 to 8) (size 9 to 14) (size 15 to 20)
#    0.000    2.125    0.000    2.625    1.750    5.750 
#    0.000    2.500    0.000    0.000    0.000    0.000 
#    0.000    0.000    0.000    0.000    0.000    0.000 
#
# Total GULP energy -396627.637838 kJ/mol
# GULP energy per Si atom -12394.613682 kJ/mol
# Density = 1.976107 g / cm^3
# Si number density = 19.806149 Si / 1000 Ang^3
#
#
#
# Elastic Constant Matrix: (Units=GPa)
#
#
# Indices 1 2 3 4 5 6 
#
# 1 88.8085 27.4562 25.9108 0.0000 -16.0748 0.0000
# 2 27.4562 77.6336 28.4794 0.0000 -7.9702 0.0000
# 3 25.9108 28.4794 65.6446 0.0000 -14.5423 0.0000
# 4 0.0000 0.0000 0.0000 29.2935 0.0000 -1.4912
# 5 -16.0748 -7.9702 -14.5423 0.0000 32.5687 0.0000
# 6 0.0000 0.0000 0.0000 -1.4912 0.0000 34.0891
#
#
#
# Elastic Compliance Matrix: (Units=1/GPa)
#
#
# Indices 1 2 3 4 5 6 
#
# 1 0.014046 -0.003368 -0.003029 0.000000 0.004756 0.000000
# 2 -0.003368 0.016149 -0.005737 0.000000 -0.000272 0.000000
# 3 -0.003029 -0.005737 0.020282 0.000000 0.006157 0.000000
# 4 0.000000 0.000000 0.000000 0.034213 0.000000 0.001497
# 5 0.004756 -0.000272 0.006157 0.000000 0.035734 0.000000
# 6 0.000000 0.000000 0.000000 0.001497 0.000000 0.029400
#
#
# Mechanical properties :
#
#
# Convention : Reuss Voigt Hill
#
# Bulk Modulus (GPa) = 38.15571 43.97549 41.06560
# Shear Modulus (GPa) = 27.34781 29.20629 28.27705
#
# Velocity S-wave (km/s) = 3.71991 3.84423 3.78258
# Velocity P-wave (km/s) = 6.14465 6.47729 6.31316
#
# Compressibility (1/GPa) = 0.02620840
#
# Stress axis : x y z
#
# Youngs Moduli (GPa) = 71.19392 61.92418 49.30432
#
# Poissons Ratio (x) = 0.20856 0.14937
# Poissons Ratio (y) = 0.23978 0.28285
# Poissons Ratio (z) = 0.21568 0.35525
#
# Static dielectric constant tensor:
#      x y z
#    x 2.845890 0.000000 0.618200 
#    y 0.000000 3.637070 0.000000 
#    z 0.618200 0.000000 4.747610 
# 
# 
# High freq. dielectric constant tensor:
#      x y z
#    x 1.768970 0.000000 -0.004630 
#    y 0.000000 1.768630 0.000000 
#    z -0.004630 0.000000 1.779950 
# 
# From -- ./inp_files/375547.got.cif
#   From: 2010.06.25/outbox.cif.g09.slc.cpg/sg12_188_cif.got.tgz:375547.got - 2010.06.28 00:19:55.
