data_PCOD8096104
_publ_section_title
;
Structure prediction by ZEFSAII (Michael W. Deem and Ramdas Pophale) SiO2 
 PCOD8096104
Probable space group: C 2/M
;
_chemical_formula_sum "Si O2"
_cell_formula_units_Z 56
_cell_length_a 32.317790
_cell_length_b 9.373774
_cell_length_c 11.280654
_cell_angle_alpha 90.000000
_cell_angle_beta 120.049642
_cell_angle_gamma 90.000000
_cell_volume 2958.036856
_symmetry_space_group_name_H-M "C 2/M"
_symmetry_group_IT_number 12
_symmetry_cell_setting 'monoclinic'
loop_
_space_group_symop_operation_xyz
x,y,z
-x,y,-z
-x,-y,-z
x,-y,z
1/2+x,1/2+y,z
1/2-x,1/2+y,-z
1/2-x,1/2-y,-z
1/2+x,1/2-y,z
loop_
_atom_site_type_symbol
_atom_site_label
_atom_site_fract_x
_atom_site_fract_y
_atom_site_fract_z
Si Si1 0.804735 0.666151 0.823041
Si Si2 0.111159 0.333293 0.647790
Si Si3 0.287970 0.162351 0.309445
Si Si4 0.158250 0.334202 0.377733
Si Si5 0.423688 0.665995 0.618327
Si Si6 0.101727 0.334026 0.904186
Si Si7 0.517561 0.664398 0.898203
O O1 0.793456 0.500000 0.803042
O O2 0.756364 0.742399 0.793723
O O3 0.821262 0.719768 0.717496
O O4 0.845134 0.704614 0.976468
O O5 0.102064 0.500000 0.607517
O O6 0.166809 0.296947 0.707123
O O7 0.078581 0.240122 0.513431
O O8 0.096888 0.291054 0.760049
O O9 0.301101 0.190178 0.465440
O O10 0.272829 0.000000 0.266872
O O11 0.142549 0.500000 0.350860
O O12 0.111967 0.240467 0.340509
O O13 0.409943 0.500000 0.587578
O O14 0.477134 0.686772 0.741632
O O15 0.091444 0.500000 0.908692
O O16 0.064268 0.249668 0.928861
O O17 0.532350 0.500000 0.931372
O O18 0.500000 0.722694 0.000000
#
# Coordination Sequence:
#
# PCOD8096104 Si02
#       7
#     8   8   8   8   8   8   8
#     4  10  20  33  51  78 108 138 177 222 262 304
#     4   9  20  39  56  75 107 141 176 218 262 307
#     4   9  18  32  51  74 103 142 179 213 261 315
#     4   9  18  33  52  77 110 141 171 214 265 314
#     4  10  20  34  56  82 105 135 176 218 259 310
#     4  10  22  38  56  78 105 140 181 220 256 306
#     4  10  22  39  57  81 112 139 166 210 267 318
#
# _framework density 18.931474999999999
#
# number of rings (size 3 to 8) (size 9 to 14) (size 15 to 20)
#    0.000    2.429    0.000    2.571    0.000    6.571 
#    0.000    2.857    0.000    0.000    0.000    0.000 
#    0.000    0.000    0.000    0.000    0.000    0.000 
#
# Total GULP energy -347292.239919 kJ/mol
# GULP energy per Si atom -12403.294283 kJ/mol
# Density = 1.888839 g / cm^3
# Si number density = 18.931475 Si / 1000 Ang^3
#
#
#
# Elastic Constant Matrix: (Units=GPa)
#
#
# Indices 1 2 3 4 5 6 
#
# 1 65.4919 35.3656 38.7299 0.0000 -12.1369 0.0000
# 2 35.3656 64.3128 40.8161 0.0000 1.1692 0.0000
# 3 38.7299 40.8161 84.7846 0.0000 -7.7748 0.0000
# 4 0.0000 0.0000 0.0000 29.1095 0.0000 5.0849
# 5 -12.1369 1.1692 -7.7748 0.0000 27.1468 0.0000
# 6 0.0000 0.0000 0.0000 5.0849 0.0000 32.1530
#
#
#
# Elastic Compliance Matrix: (Units=1/GPa)
#
#
# Indices 1 2 3 4 5 6 
#
# 1 0.026778 -0.011211 -0.005847 0.000000 0.010781 0.000000
# 2 -0.011211 0.027550 -0.008945 0.000000 -0.008761 0.000000
# 3 -0.005847 -0.008945 0.019068 0.000000 0.003232 0.000000
# 4 0.000000 0.000000 0.000000 0.035329 0.000000 -0.005587
# 5 0.010781 -0.008761 0.003232 0.000000 0.042960 0.000000
# 6 0.000000 0.000000 0.000000 -0.005587 0.000000 0.031985
#
#
# Mechanical properties :
#
#
# Convention : Reuss Voigt Hill
#
# Bulk Modulus (GPa) = 46.74839 49.37916 48.06377
# Shear Modulus (GPa) = 20.59256 24.32704 22.45980
#
# Velocity S-wave (km/s) = 3.30167 3.58859 3.44811
# Velocity P-wave (km/s) = 6.26752 6.58106 6.42620
#
# Compressibility (1/GPa) = 0.02139111
#
# Stress axis : x y z
#
# Youngs Moduli (GPa) = 37.34359 36.29755 52.44334
#
# Poissons Ratio (x) = 0.40692 0.30663
# Poissons Ratio (y) = 0.41865 0.46911
# Poissons Ratio (z) = 0.21835 0.32469
#
# Static dielectric constant tensor:
#      x y z
#    x 3.324950 0.000000 -0.097530 
#    y 0.000000 3.393060 0.000000 
#    z -0.097530 0.000000 3.516670 
# 
# 
# High freq. dielectric constant tensor:
#      x y z
#    x 1.731780 0.000000 -0.002690 
#    y 0.000000 1.729970 0.000000 
#    z -0.002690 0.000000 1.740870 
# 
# From -- ./inp_files/186448.got.cif
#   From: 2010.06.25/outbox.cif.g09.slc.cpg/sg12_94_cif.got.tgz:186448.got - 2010.06.28 00:19:55.
