data_PCOD8096380
_publ_section_title
;
Structure prediction by ZEFSAII (Michael W. Deem and Ramdas Pophale) SiO2 
 PCOD8096380
Probable space group: C 2/M
;
_chemical_formula_sum "Si O2"
_cell_formula_units_Z 56
_cell_length_a 20.703793
_cell_length_b 8.970149
_cell_length_c 14.860245
_cell_angle_alpha 90.000000
_cell_angle_beta 85.911479
_cell_angle_gamma 90.000000
_cell_volume 2752.763449
_symmetry_space_group_name_H-M "C 2/M"
_symmetry_group_IT_number 12
_symmetry_cell_setting 'monoclinic'
loop_
_space_group_symop_operation_xyz
x,y,z
-x,y,-z
-x,-y,-z
x,-y,z
1/2+x,1/2+y,z
1/2-x,1/2+y,-z
1/2-x,1/2-y,-z
1/2+x,1/2-y,z
loop_
_atom_site_type_symbol
_atom_site_label
_atom_site_fract_x
_atom_site_fract_y
_atom_site_fract_z
Si Si1 0.332899 0.833228 0.947375
Si Si2 0.735364 0.676187 0.681192
Si Si3 0.277774 0.829811 0.137105
Si Si4 0.873837 0.323550 0.416430
Si Si5 0.004190 0.678371 0.711255
Si Si6 0.621474 0.176394 0.379225
Si Si7 0.019660 0.669989 0.092056
O O1 0.290820 0.711670 0.900123
O O2 0.404005 0.819744 0.901607
O O3 0.305207 0.000000 0.931065
O O4 0.332729 0.804941 0.055343
O O5 0.731594 0.500000 0.672741
O O6 0.706135 0.727064 0.779622
O O7 0.692753 0.747007 0.606564
O O8 0.809430 0.734505 0.665141
O O9 0.275752 0.000000 0.170380
O O10 0.865294 0.500000 0.408706
O O11 0.887998 0.273837 0.516804
O O12 0.933599 0.265561 0.350016
O O13 0.000727 0.500000 0.711891
O O14 0.938361 0.742627 0.672454
O O15 0.010716 0.739657 0.813597
O O16 0.620451 0.000000 0.372349
O O17 0.995243 0.500000 0.087295
O O18 0.000000 0.752422 0.000000
#
# Coordination Sequence:
#
# PCOD8096380 Si02
#       7
#     8   8   8   8   8   8   8
#     4   9  18  33  53  77 107 140 178 221 267 314
#     4  11  22  35  54  78 111 146 178 216 269 328
#     4  10  20  33  53  79 106 139 180 222 264 313
#     4  10  20  34  56  83 109 135 175 230 280 321
#     4   9  17  30  53  81 108 138 177 225 271 315
#     4   9  18  34  55  80 106 139 183 228 271 319
#     4   9  17  28  48  78 109 139 174 214 257 312
#
# _framework density 20.343192999999999
#
# number of rings (size 3 to 8) (size 9 to 14) (size 15 to 20)
#    0.000    2.429    0.000    2.571    2.000    4.571 
#    0.000    0.714    0.000    6.429    0.000    0.000 
#    0.000    0.000    0.000    0.000    0.000    0.000 
#
# Total GULP energy -347122.230111 kJ/mol
# GULP energy per Si atom -12397.222504 kJ/mol
# Density = 2.029689 g / cm^3
# Si number density = 20.343193 Si / 1000 Ang^3
#
#
#
# Elastic Constant Matrix: (Units=GPa)
#
#
# Indices 1 2 3 4 5 6 
#
# 1 69.1051 13.6971 29.1618 0.0000 2.0295 0.0000
# 2 13.6971 30.5079 17.0236 0.0000 -1.2083 0.0000
# 3 29.1618 17.0236 136.7957 0.0000 -1.2694 0.0000
# 4 0.0000 0.0000 0.0000 19.5143 0.0000 6.6191
# 5 2.0295 -1.2083 -1.2694 0.0000 33.6920 0.0000
# 6 0.0000 0.0000 0.0000 6.6191 0.0000 20.3501
#
#
#
# Elastic Compliance Matrix: (Units=1/GPa)
#
#
# Indices 1 2 3 4 5 6 
#
# 1 0.016919 -0.006050 -0.002866 0.000000 -0.001344 0.000000
# 2 -0.006050 0.037428 -0.003353 0.000000 0.001580 0.000000
# 3 -0.002866 -0.003353 0.008342 0.000000 0.000367 0.000000
# 4 0.000000 0.000000 0.000000 0.057599 0.000000 -0.018735
# 5 -0.001344 0.001580 0.000367 0.000000 0.029832 0.000000
# 6 0.000000 0.000000 0.000000 -0.018735 0.000000 0.055233
#
#
# Mechanical properties :
#
#
# Convention : Reuss Voigt Hill
#
# Bulk Modulus (GPa) = 26.21231 39.57485 32.89358
# Shear Modulus (GPa) = 20.60921 26.47970 23.54445
#
# Velocity S-wave (km/s) = 3.18634 3.61175 3.40569
# Velocity P-wave (km/s) = 5.14296 6.07362 5.62756
#
# Compressibility (1/GPa) = 0.03815001
#
# Stress axis : x y z
#
# Youngs Moduli (GPa) = 59.10552 26.71765 119.87635
#
# Poissons Ratio (x) = 0.16164 0.34361
# Poissons Ratio (y) = 0.35758 0.40200
# Poissons Ratio (z) = 0.16942 0.08960
#
# Static dielectric constant tensor:
#      x y z
#    x 3.703780 0.000000 -0.073100 
#    y 0.000000 3.180940 0.000000 
#    z -0.073100 0.000000 4.003020 
# 
# 
# High freq. dielectric constant tensor:
#      x y z
#    x 1.795120 0.000000 -0.004530 
#    y 0.000000 1.732890 0.000000 
#    z -0.004530 0.000000 1.817490 
# 
# From -- ./inp_files/230840.got.cif
#   From: 2010.06.25/outbox.cif.g09.slc.cpg/sg12_116_cif.got.tgz:230840.got - 2010.06.28 00:19:55.
