data_PCOD8096252
_publ_section_title
;
Structure prediction by ZEFSAII (Michael W. Deem and Ramdas Pophale) SiO2 
 PCOD8096252
Probable space group: C 2/M
;
_chemical_formula_sum "Si O2"
_cell_formula_units_Z 40
_cell_length_a 15.662620
_cell_length_b 9.428686
_cell_length_c 31.112929
_cell_angle_alpha 90.000000
_cell_angle_beta 27.933648
_cell_angle_gamma 90.000000
_cell_volume 2152.378069
_symmetry_space_group_name_H-M "C 2/M"
_symmetry_group_IT_number 12
_symmetry_cell_setting 'monoclinic'
loop_
_space_group_symop_operation_xyz
x,y,z
-x,y,-z
-x,-y,-z
x,-y,z
1/2+x,1/2+y,z
1/2-x,1/2+y,-z
1/2-x,1/2-y,-z
1/2+x,1/2-y,z
loop_
_atom_site_type_symbol
_atom_site_label
_atom_site_fract_x
_atom_site_fract_y
_atom_site_fract_z
Si Si1 0.212736 0.165253 0.714087
Si Si2 0.713076 0.345599 0.910298
Si Si3 0.914924 0.331792 0.405420
Si Si4 0.351855 0.662078 0.919120
Si Si5 0.949830 0.661103 0.292091
O O1 0.405131 0.213010 0.648142
O O2 0.166926 0.250530 0.690861
O O3 0.066789 0.194309 0.817434
O O4 0.210197 0.000000 0.702626
O O5 0.763984 0.500000 0.908951
O O6 0.760055 0.206494 0.915736
O O7 0.831695 0.332152 0.813968
O O8 0.500000 0.342657 0.000000
O O9 0.885490 0.500000 0.421196
O O10 0.750000 0.250000 0.500000
O O11 0.924886 0.280582 0.351434
O O12 0.314305 0.500000 0.946205
O O13 0.250000 0.750000 0.000000
O O14 0.878430 0.500000 0.320728
#
# Coordination Sequence:
#
# PCOD8096252 Si02
#       5
#     8   8   8   8   8
#     4   9  20  38  58  79 111 148 183 226 278 331
#     4   9  18  32  54  79 106 144 184 220 270 330
#     4  10  22  39  59  83 109 144 186 230 279 331
#     4  10  20  33  52  78 110 145 183 224 270 325
#     4   9  19  36  57  81 111 144 184 229 274 327
#
# _framework density 18.584097
#
# number of rings (size 3 to 8) (size 9 to 14) (size 15 to 20)
#    0.000    2.600    0.000    0.600    2.800    3.600 
#    0.000    4.000    0.000    0.000    0.000    0.000 
#    0.000    0.000    0.000    0.000    0.000    0.000 
#
# Total GULP energy -247783.961050 kJ/mol
# GULP energy per Si atom -12389.198052 kJ/mol
# Density = 1.854180 g / cm^3
# Si number density = 18.584097 Si / 1000 Ang^3
#
#
#
# Elastic Constant Matrix: (Units=GPa)
#
#
# Indices 1 2 3 4 5 6 
#
# 1 122.5012 54.8500 88.4579 0.0002 1.9889 0.0004
# 2 54.8500 70.7535 69.2567 -0.0003 -0.3456 0.0011
# 3 88.4579 69.2567 157.6479 0.0107 2.5384 -0.0141
# 4 0.0002 -0.0003 0.0107 29.9075 -0.0027 9.5778
# 5 1.9889 -0.3456 2.5384 -0.0027 32.7356 -0.0007
# 6 0.0004 0.0011 -0.0141 9.5778 -0.0007 22.2391
#
#
#
# Elastic Compliance Matrix: (Units=1/GPa)
#
#
# Indices 1 2 3 4 5 6 
#
# 1 0.015041 -0.005982 -0.005803 0.000004 -0.000527 -0.000005
# 2 -0.005982 0.027216 -0.008621 0.000006 0.001319 -0.000009
# 3 -0.005803 -0.008621 0.013399 -0.000009 -0.000777 0.000013
# 4 0.000004 0.000006 -0.000009 0.038786 0.000003 -0.016704
# 5 -0.000527 0.001319 -0.000777 0.000003 0.030654 -0.000001
# 6 -0.000005 -0.000009 0.000013 -0.016704 -0.000001 0.052160
#
#
# Mechanical properties :
#
#
# Convention : Reuss Voigt Hill
#
# Bulk Modulus (GPa) = 67.36868 86.22575 76.79722
# Shear Modulus (GPa) = 22.41995 26.19897 24.30946
#
# Velocity S-wave (km/s) = 3.47710 3.75874 3.62066
# Velocity P-wave (km/s) = 7.24222 8.08306 7.67416
#
# Compressibility (1/GPa) = 0.01484369
#
# Stress axis : x y z
#
# Youngs Moduli (GPa) = 66.48704 36.74281 74.63217
#
# Poissons Ratio (x) = 0.21981 0.43308
# Poissons Ratio (y) = 0.39775 0.64340
# Poissons Ratio (z) = 0.38581 0.31676
#
# Static dielectric constant tensor:
#      x y z
#    x 2.026310 -0.000030 -1.789430 
#    y -0.000030 3.634830 0.000030 
#    z -1.789430 0.000030 -1.498260 
# 
# 
# High freq. dielectric constant tensor:
#      x y z
#    x 1.705520 0.000000 0.003430 
#    y 0.000000 1.721850 0.000000 
#    z 0.003430 0.000000 1.733820 
# 
# From -- ./inp_files/151682.got.cif
#   From: 2010.06.25/outbox.cif.g09.slc.cpg/sg12_76_cif.got.tgz:151682.got - 2010.06.28 00:19:55.
