data_PCOD8096477
_publ_section_title
;
Structure prediction by ZEFSAII (Michael W. Deem and Ramdas Pophale) SiO2 
 PCOD8096477
Probable space group: C 2/M
;
_chemical_formula_sum "Si O2"
_cell_formula_units_Z 64
_cell_length_a 19.186346
_cell_length_b 14.234188
_cell_length_c 14.524181
_cell_angle_alpha 90.000000
_cell_angle_beta 58.817436
_cell_angle_gamma 90.000000
_cell_volume 3393.499076
_symmetry_space_group_name_H-M "C 2/M"
_symmetry_group_IT_number 12
_symmetry_cell_setting 'monoclinic'
loop_
_space_group_symop_operation_xyz
x,y,z
-x,y,-z
-x,-y,-z
x,-y,z
1/2+x,1/2+y,z
1/2-x,1/2+y,-z
1/2-x,1/2-y,-z
1/2+x,1/2-y,z
loop_
_atom_site_type_symbol
_atom_site_label
_atom_site_fract_x
_atom_site_fract_y
_atom_site_fract_z
Si Si1 0.630344 0.393066 0.101486
Si Si2 0.684090 0.110398 0.002987
Si Si3 0.640471 0.393133 0.766835
Si Si4 0.021796 0.104878 0.681686
Si Si5 0.900917 0.390509 0.748562
Si Si6 0.041501 0.713342 0.568263
Si Si7 0.408794 0.262746 0.036539
Si Si8 0.177121 0.393114 0.390142
O O1 0.631787 0.500000 0.063964
O O2 0.574570 0.384781 0.230940
O O3 0.721394 0.359500 0.062274
O O4 0.589250 0.330081 0.052306
O O5 0.646072 0.140587 0.127164
O O6 0.673105 0.000000 0.991170
O O7 0.640114 0.167084 0.951448
O O8 0.632877 0.500000 0.810722
O O9 0.570870 0.372499 0.740759
O O10 0.634667 0.318490 0.852040
O O11 0.727354 0.379317 0.658430
O O12 0.048293 0.175988 0.583547
O O13 0.041904 0.000000 0.632465
O O14 0.921184 0.500000 0.737307
O O15 0.844315 0.363932 0.700305
O O16 0.987286 0.335854 0.684817
O O17 0.131618 0.669513 0.498467
O O18 0.000000 0.692426 0.500000
O O19 0.500000 0.233608 0.000000
O O20 0.149543 0.500000 0.425518
#
# Coordination Sequence:
#
# PCOD8096477 Si02
#       8
#     8   8   8   8   8   8   8   8
#     4  10  20  36  57  82 111 145 189 233 272 321
#     4  10  22  37  55  80 114 154 189 225 269 325
#     4  10  21  36  54  79 109 140 177 224 277 327
#     4  10  21  36  53  75 107 141 178 223 272 325
#     4   9  17  32  54  79 105 134 176 224 268 316
#     4  10  20  33  54  79 103 133 176 224 273 322
#     4  12  22  33  56  84 114 149 184 227 273 331
#     4   9  18  34  56  81 106 134 171 223 277 322
#
# _framework density 18.859590000000001
#
# number of rings (size 3 to 8) (size 9 to 14) (size 15 to 20)
#    0.000    2.000    1.250    2.625    0.000    7.000 
#    0.000    0.000    0.000    0.750    0.000    0.000 
#    0.000    0.000    0.000    0.000    0.000    0.000 
#
# Total GULP energy -396860.248270 kJ/mol
# GULP energy per Si atom -12401.882758 kJ/mol
# Density = 1.881666 g / cm^3
# Si number density = 18.859590 Si / 1000 Ang^3
#
#
#
# Elastic Constant Matrix: (Units=GPa)
#
#
# Indices 1 2 3 4 5 6 
#
# 1 95.3237 41.4765 39.3067 0.0000 -22.9833 0.0000
# 2 41.4765 78.0482 48.2316 0.0000 -9.8683 0.0000
# 3 39.3067 48.2316 83.3545 0.0000 -22.7428 0.0000
# 4 0.0000 0.0000 0.0000 37.2931 0.0000 5.9532
# 5 -22.9833 -9.8683 -22.7428 0.0000 20.3984 0.0000
# 6 0.0000 0.0000 0.0000 5.9532 0.0000 29.2908
#
#
#
# Elastic Compliance Matrix: (Units=1/GPa)
#
#
# Indices 1 2 3 4 5 6 
#
# 1 0.017614 -0.007696 0.000785 0.000000 0.016998 0.000000
# 2 -0.007696 0.023615 -0.013343 0.000000 -0.012124 0.000000
# 3 0.000785 -0.013343 0.025622 0.000000 0.022996 0.000000
# 4 0.000000 0.000000 0.000000 0.027714 0.000000 -0.005633
# 5 0.016998 -0.012124 0.022996 0.000000 0.087949 0.000000
# 6 0.000000 0.000000 0.000000 -0.005633 0.000000 0.035285
#
#
# Mechanical properties :
#
#
# Convention : Reuss Voigt Hill
#
# Bulk Modulus (GPa) = 37.96180 57.19509 47.57845
# Shear Modulus (GPa) = 18.72031 25.91056 22.31543
#
# Velocity S-wave (km/s) = 3.15400 3.71059 3.44356
# Velocity P-wave (km/s) = 5.78238 6.98216 6.41040
#
# Compressibility (1/GPa) = 0.02634227
#
# Stress axis : x y z
#
# Youngs Moduli (GPa) = 56.77303 42.34511 39.02917
#
# Poissons Ratio (x) = 0.32591 -0.03064
# Poissons Ratio (y) = 0.43695 0.52078
# Poissons Ratio (z) = -0.04458 0.56502
#
# Static dielectric constant tensor:
#      x y z
#    x 3.363670 0.000000 -0.229010 
#    y 0.000000 3.482990 0.000000 
#    z -0.229010 0.000000 3.371170 
# 
# 
# High freq. dielectric constant tensor:
#      x y z
#    x 1.720600 0.000000 -0.023090 
#    y 0.000000 1.737150 0.000000 
#    z -0.023090 0.000000 1.720620 
# 
# From -- ./inp_files/225262.got.cif
#   From: 2010.06.25/outbox.cif.g09.slc.cpg/sg12_113_cif.got.tgz:225262.got - 2010.06.28 00:19:55.
