data_PCOD8096813
_publ_section_title
;
Structure prediction by ZEFSAII (Michael W. Deem and Ramdas Pophale) SiO2 
 PCOD8096813
Probable space group: C 2/M
;
_chemical_formula_sum "Si O2"
_cell_formula_units_Z 56
_cell_length_a 14.304931
_cell_length_b 9.338280
_cell_length_c 29.260659
_cell_angle_alpha 90.000000
_cell_angle_beta 126.661594
_cell_angle_gamma 90.000000
_cell_volume 3135.497496
_symmetry_space_group_name_H-M "C 2/M"
_symmetry_group_IT_number 12
_symmetry_cell_setting 'monoclinic'
loop_
_space_group_symop_operation_xyz
x,y,z
-x,y,-z
-x,-y,-z
x,-y,z
1/2+x,1/2+y,z
1/2-x,1/2+y,-z
1/2-x,1/2-y,-z
1/2+x,1/2-y,z
loop_
_atom_site_type_symbol
_atom_site_label
_atom_site_fract_x
_atom_site_fract_y
_atom_site_fract_z
Si Si1 0.443610 0.337866 0.436774
Si Si2 0.837616 0.667613 0.058006
Si Si3 0.533257 0.333962 0.230272
Si Si4 0.430647 0.666566 0.863678
Si Si5 0.333876 0.660468 0.555970
Si Si6 0.284260 0.668911 0.642035
Si Si7 0.196025 0.334888 0.846499
O O1 0.500000 0.275684 0.500000
O O2 0.400205 0.500000 0.433526
O O3 0.535085 0.331937 0.422801
O O4 0.340027 0.241578 0.388072
O O5 0.842756 0.500000 0.046939
O O6 0.791397 0.691733 0.095821
O O7 0.964739 0.735699 0.087299
O O8 0.750000 0.750000 0.000000
O O9 0.507586 0.500000 0.231326
O O10 0.584203 0.306336 0.194657
O O11 0.628603 0.274382 0.293558
O O12 0.412499 0.253491 0.204543
O O13 0.458865 0.500000 0.882162
O O14 0.313597 0.715916 0.855458
O O15 0.284540 0.500000 0.540056
O O16 0.250000 0.750000 0.500000
O O17 0.334962 0.717409 0.607967
O O18 0.267310 0.500000 0.641532
O O19 0.171299 0.500000 0.828388
#
# Coordination Sequence:
#
# PCOD8096813 Si02
#       7
#     8   8   8   8   8   8   8
#     4  10  20  34  51  72  98 129 166 204 247 302
#     4  10  20  34  52  78 110 140 175 213 252 298
#     4   9  19  35  53  75 103 132 167 212 258 305
#     4   9  18  35  56  75 102 139 174 211 255 300
#     4  10  20  34  51  71  98 129 162 201 248 301
#     4  10  21  35  52  76 103 131 165 208 258 308
#     4   9  19  35  55  77 102 137 176 212 251 299
#
# _framework density 17.860005000000001
#
# number of rings (size 3 to 8) (size 9 to 14) (size 15 to 20)
#    0.000    2.429    1.429    0.429    0.000    4.286 
#    0.000    2.857    0.000    0.000    0.000    0.000 
#    0.000    0.000    0.000    0.000    0.000    0.000 
#
# Total GULP energy -347244.888752 kJ/mol
# GULP energy per Si atom -12401.603170 kJ/mol
# Density = 1.781936 g / cm^3
# Si number density = 17.860005 Si / 1000 Ang^3
#
#
#
# Elastic Constant Matrix: (Units=GPa)
#
#
# Indices 1 2 3 4 5 6 
#
# 1 125.5082 48.3066 59.7630 0.0000 14.0955 0.0000
# 2 48.3066 68.6506 65.1251 0.0000 12.7652 0.0000
# 3 59.7630 65.1251 152.8953 0.0000 19.1152 0.0000
# 4 0.0000 0.0000 0.0000 31.9071 0.0000 8.0987
# 5 14.0955 12.7652 19.1152 0.0000 22.0672 0.0000
# 6 0.0000 0.0000 0.0000 8.0987 0.0000 29.8604
#
#
#
# Elastic Compliance Matrix: (Units=1/GPa)
#
#
# Indices 1 2 3 4 5 6 
#
# 1 0.011295 -0.006040 -0.001545 0.000000 -0.002383 0.000000
# 2 -0.006040 0.028340 -0.009132 0.000000 -0.004625 0.000000
# 3 -0.001545 -0.009132 0.011495 0.000000 -0.003688 0.000000
# 4 0.000000 0.000000 0.000000 0.033658 0.000000 -0.009129
# 5 -0.002383 -0.004625 -0.003688 0.000000 0.052709 0.000000
# 6 0.000000 0.000000 0.000000 -0.009129 0.000000 0.035965
#
#
# Mechanical properties :
#
#
# Convention : Reuss Voigt Hill
#
# Bulk Modulus (GPa) = 56.50594 77.04926 66.77760
# Shear Modulus (GPa) = 23.49698 28.35756 25.92727
#
# Velocity S-wave (km/s) = 3.63108 3.98900 3.81424
# Velocity P-wave (km/s) = 7.02044 8.02811 7.54113
#
# Compressibility (1/GPa) = 0.01769725
#
# Stress axis : x y z
#
# Youngs Moduli (GPa) = 88.53231 35.28636 86.99429
#
# Poissons Ratio (x) = 0.21312 0.13436
# Poissons Ratio (y) = 0.53471 0.79444
# Poissons Ratio (z) = 0.13674 0.32224
#
# Static dielectric constant tensor:
#      x y z
#    x 3.382870 0.000000 -0.065380 
#    y 0.000000 3.339930 0.000000 
#    z -0.065380 0.000000 3.312530 
# 
# 
# High freq. dielectric constant tensor:
#      x y z
#    x 1.696160 0.000000 -0.002450 
#    y 0.000000 1.688440 0.000000 
#    z -0.002450 0.000000 1.689920 
# 
# From -- ./inp_files/337865.got.cif
#   From: 2010.06.25/outbox.cif.g09.slc.cpg/sg12_169_cif.got.tgz:337865.got - 2010.06.28 00:19:55.
