data_PCOD8096264
_publ_section_title
;
Structure prediction by ZEFSAII (Michael W. Deem and Ramdas Pophale) SiO2 
 PCOD8096264
Probable space group: C 2/M
;
_chemical_formula_sum "Si O2"
_cell_formula_units_Z 56
_cell_length_a 18.587392
_cell_length_b 8.739889
_cell_length_c 29.406591
_cell_angle_alpha 90.000000
_cell_angle_beta 37.924008
_cell_angle_gamma 90.000000
_cell_volume 2936.113012
_symmetry_space_group_name_H-M "C 2/M"
_symmetry_group_IT_number 12
_symmetry_cell_setting 'monoclinic'
loop_
_space_group_symop_operation_xyz
x,y,z
-x,y,-z
-x,-y,-z
x,-y,z
1/2+x,1/2+y,z
1/2-x,1/2+y,-z
1/2-x,1/2-y,-z
1/2+x,1/2-y,z
loop_
_atom_site_type_symbol
_atom_site_label
_atom_site_fract_x
_atom_site_fract_y
_atom_site_fract_z
Si Si1 0.134383 0.822209 0.436446
Si Si2 0.826451 0.681090 0.001941
Si Si3 0.236990 0.818664 0.144762
Si Si4 0.408962 0.817801 0.137635
Si Si5 0.333268 0.178124 0.271855
Si Si6 0.985800 0.681586 0.279064
Si Si7 0.789831 0.179371 0.433364
O O1 0.200827 0.790795 0.355389
O O2 0.189877 0.715692 0.446755
O O3 0.000000 0.775190 0.500000
O O4 0.149736 0.000000 0.442697
O O5 0.824087 0.500000 0.998634
O O6 0.774963 0.735059 0.075789
O O7 0.750000 0.750000 0.000000
O O8 0.958787 0.743546 0.932518
O O9 0.333947 0.759452 0.132181
O O10 0.116904 0.738816 0.217766
O O11 0.221184 0.000000 0.155218
O O12 0.353454 0.748773 0.211986
O O13 0.408048 0.000000 0.138090
O O14 0.426637 0.243932 0.261832
O O15 0.358006 0.000000 0.254803
O O16 0.980527 0.500000 0.283836
O O17 0.913656 0.747598 0.357484
O O18 0.750000 0.250000 0.500000
O O19 0.806668 0.000000 0.430196
#
# Coordination Sequence:
#
# PCOD8096264 Si02
#       7
#     8   8   8   8   8   8   8
#     4   9  18  33  53  79 111 146 185 227 273 329
#     4  10  20  34  53  77 105 140 180 221 266 319
#     4  10  20  33  52  79 107 136 176 224 269 317
#     4   9  17  31  51  75 104 139 178 219 265 318
#     4   8  15  29  50  73  97 133 179 218 256 311
#     4  10  20  36  56  78 106 140 178 219 269 328
#     4  11  22  37  57  81 111 146 186 230 275 323
#
# _framework density 19.072835000000001
#
# number of rings (size 3 to 8) (size 9 to 14) (size 15 to 20)
#    0.000    2.429    0.000    3.857    0.000    4.857 
#    0.000    3.571    0.000    6.000    0.000    0.000 
#    0.000    0.000    0.000    0.000    0.000    0.000 
#
# Total GULP energy -347177.528812 kJ/mol
# GULP energy per Si atom -12399.197458 kJ/mol
# Density = 1.902942 g / cm^3
# Si number density = 19.072835 Si / 1000 Ang^3
#
#
#
# Elastic Constant Matrix: (Units=GPa)
#
#
# Indices 1 2 3 4 5 6 
#
# 1 141.6856 34.6119 101.8510 -0.0023 -4.2312 0.0498
# 2 34.6119 46.2655 41.7519 -0.0028 1.1886 0.0105
# 3 101.8510 41.7519 185.8972 -0.0035 -1.6722 0.0059
# 4 -0.0023 -0.0028 -0.0035 21.2962 -0.0028 -1.8971
# 5 -4.2312 1.1886 -1.6722 -0.0028 44.6505 -0.0001
# 6 0.0498 0.0105 0.0059 -1.8971 -0.0001 27.4917
#
#
#
# Elastic Compliance Matrix: (Units=1/GPa)
#
#
# Indices 1 2 3 4 5 6 
#
# 1 0.012222 -0.003933 -0.005803 -0.000002 0.001045 -0.000020
# 2 -0.003933 0.028415 -0.004239 0.000002 -0.001288 -0.000003
# 3 -0.005803 -0.004239 0.009510 0.000001 -0.000081 0.000010
# 4 -0.000002 0.000002 0.000001 0.047247 0.000003 0.003260
# 5 0.001045 -0.001288 -0.000081 0.000003 0.022526 -0.000001
# 6 -0.000020 -0.000003 0.000010 0.003260 -0.000001 0.036600
#
#
# Mechanical properties :
#
#
# Convention : Reuss Voigt Hill
#
# Bulk Modulus (GPa) = 45.05151 81.14200 63.09675
# Shear Modulus (GPa) = 26.05949 31.72993 28.89471
#
# Velocity S-wave (km/s) = 3.70038 4.08317 3.89648
# Velocity P-wave (km/s) = 6.47527 8.05390 7.30734
#
# Compressibility (1/GPa) = 0.02219681
#
# Stress axis : x y z
#
# Youngs Moduli (GPa) = 81.82222 35.19292 105.15027
#
# Poissons Ratio (x) = 0.13841 0.61023
# Poissons Ratio (y) = 0.32179 0.44570
# Poissons Ratio (z) = 0.47485 0.14917
#
# Static dielectric constant tensor:
#      x y z
#    x 3.602080 0.000000 0.078070 
#    y 0.000000 3.177760 0.000010 
#    z 0.078070 0.000010 3.785330 
# 
# 
# High freq. dielectric constant tensor:
#      x y z
#    x 1.741350 0.000000 0.000370 
#    y 0.000000 1.708060 0.000000 
#    z 0.000370 0.000000 1.761290 
# 
# From -- ./inp_files/313814.got.cif
#   From: 2010.06.25/outbox.cif.g09.slc.cpg/sg12_157_cif.got.tgz:313814.got - 2010.06.28 00:19:55.
