data_PCOD8096286
_publ_section_title
;
Structure prediction by ZEFSAII (Michael W. Deem and Ramdas Pophale) SiO2 
 PCOD8096286
Probable space group: C 2/M
;
_chemical_formula_sum "Si O2"
_cell_formula_units_Z 64
_cell_length_a 18.446068
_cell_length_b 8.467104
_cell_length_c 20.348077
_cell_angle_alpha 90.000000
_cell_angle_beta 89.791921
_cell_angle_gamma 90.000000
_cell_volume 3178.038894
_symmetry_space_group_name_H-M "C 2/M"
_symmetry_group_IT_number 12
_symmetry_cell_setting 'monoclinic'
loop_
_space_group_symop_operation_xyz
x,y,z
-x,y,-z
-x,-y,-z
x,-y,z
1/2+x,1/2+y,z
1/2-x,1/2+y,-z
1/2-x,1/2-y,-z
1/2+x,1/2-y,z
loop_
_atom_site_type_symbol
_atom_site_label
_atom_site_fract_x
_atom_site_fract_y
_atom_site_fract_z
Si Si1 0.417136 0.181376 0.622340
Si Si2 0.832912 0.682745 0.889737
Si Si3 0.071570 0.313976 0.233408
Si Si4 0.323463 0.818067 0.123218
Si Si5 0.082643 0.816639 0.990802
Si Si6 0.915859 0.182965 0.234812
Si Si7 0.917014 0.682351 0.375595
Si Si8 0.830077 0.311970 0.501003
O O1 0.403165 0.253422 0.695325
O O2 0.500394 0.203343 0.602064
O O3 0.368666 0.262168 0.565714
O O4 0.394523 0.000000 0.625229
O O5 0.846593 0.500000 0.906733
O O6 0.866000 0.726604 0.818614
O O7 0.747651 0.714566 0.889976
O O8 0.872644 0.789515 0.943015
O O9 0.055383 0.500000 0.238976
O O10 0.996506 0.232904 0.212513
O O11 0.356548 0.778726 0.193836
O O12 0.300741 0.000000 0.120701
O O13 0.383231 0.783683 0.067913
O O14 0.085693 0.000000 0.971627
O O15 0.000000 0.759549 0.000000
O O16 0.900457 0.216082 0.311146
O O17 0.905311 0.000000 0.219425
O O18 0.900095 0.500000 0.359549
O O19 0.868935 0.749938 0.435038
O O20 0.834093 0.500000 0.502305
O O21 0.750000 0.250000 0.500000
#
# Coordination Sequence:
#
# PCOD8096286 Si02
#       8
#     8   8   8   8   8   8   8   8
#     4   8  15  32  57  80 103 139 188 231 268 321
#     4  11  23  39  60  88 121 155 192 233 282 339
#     4   9  19  37  61  86 113 148 189 232 281 340
#     4  12  25  41  61  85 118 155 190 233 285 341
#     4  11  24  42  64  89 117 151 193 239 283 331
#     4  11  22  37  59  86 115 147 188 237 285 338
#     4   9  18  35  57  79 105 144 193 236 278 333
#     4  10  20  33  52  79 111 146 184 231 285 340
#
# _framework density 20.138204999999999
#
# number of rings (size 3 to 8) (size 9 to 14) (size 15 to 20)
#    0.000    1.875    0.000    5.250    0.000    7.000 
#    0.000    3.750    0.000    3.750    0.000    0.000 
#    0.000    0.000    0.000    0.000    0.000    0.000 
#
# Total GULP energy -396885.228995 kJ/mol
# GULP energy per Si atom -12402.663406 kJ/mol
# Density = 2.009237 g / cm^3
# Si number density = 20.138205 Si / 1000 Ang^3
#
#
#
# Elastic Constant Matrix: (Units=GPa)
#
#
# Indices 1 2 3 4 5 6 
#
# 1 108.2035 8.5435 53.0856 0.0000 9.7234 0.0000
# 2 8.5435 46.7189 16.3255 0.0000 -2.1645 0.0000
# 3 53.0856 16.3255 107.3390 0.0000 5.1122 0.0000
# 4 0.0000 0.0000 0.0000 18.7745 0.0000 0.6216
# 5 9.7234 -2.1645 5.1122 0.0000 27.9070 0.0000
# 6 0.0000 0.0000 0.0000 0.6216 0.0000 28.5899
#
#
#
# Elastic Compliance Matrix: (Units=1/GPa)
#
#
# Indices 1 2 3 4 5 6 
#
# 1 0.012493 -0.000351 -0.005969 0.000000 -0.003287 0.000000
# 2 -0.000351 0.022777 -0.003410 0.000000 0.002514 0.000000
# 3 -0.005969 -0.003410 0.012812 0.000000 -0.000532 0.000000
# 4 0.000000 0.000000 0.000000 0.053302 0.000000 -0.001159
# 5 -0.003287 0.002514 -0.000532 0.000000 0.037271 0.000000
# 6 0.000000 0.000000 0.000000 -0.001159 0.000000 0.035003
#
#
# Mechanical properties :
#
#
# Convention : Reuss Voigt Hill
#
# Bulk Modulus (GPa) = 34.93809 46.46342 40.70075
# Shear Modulus (GPa) = 24.67199 27.34139 26.00669
#
# Velocity S-wave (km/s) = 3.50399 3.68868 3.59752
# Velocity P-wave (km/s) = 5.81011 6.42372 6.12460
#
# Compressibility (1/GPa) = 0.02862206
#
# Stress axis : x y z
#
# Youngs Moduli (GPa) = 80.04337 43.90398 78.05076
#
# Poissons Ratio (x) = 0.01542 0.46586
# Poissons Ratio (y) = 0.02811 0.26617
# Poissons Ratio (z) = 0.47776 0.14972
#
# Static dielectric constant tensor:
#      x y z
#    x 3.555900 0.000000 0.007120 
#    y 0.000000 3.453850 0.000000 
#    z 0.007120 0.000000 3.937700 
# 
# 
# High freq. dielectric constant tensor:
#      x y z
#    x 1.785090 0.000000 0.001130 
#    y 0.000000 1.767580 0.000000 
#    z 0.001130 0.000000 1.803220 
# 
# From -- ./inp_files/314060.got.cif
#   From: 2010.06.25/outbox.cif.g09.slc.cpg/sg12_158_cif.got.tgz:314060.got - 2010.06.28 00:19:55.
