data_PCOD8096414
_publ_section_title
;
Structure prediction by ZEFSAII (Michael W. Deem and Ramdas Pophale) SiO2 
 PCOD8096414
Probable space group: C 2/M
;
_chemical_formula_sum "Si O2"
_cell_formula_units_Z 56
_cell_length_a 21.129787
_cell_length_b 8.700853
_cell_length_c 18.095693
_cell_angle_alpha 90.000000
_cell_angle_beta 122.258494
_cell_angle_gamma 90.000000
_cell_volume 2813.339594
_symmetry_space_group_name_H-M "C 2/M"
_symmetry_group_IT_number 12
_symmetry_cell_setting 'monoclinic'
loop_
_space_group_symop_operation_xyz
x,y,z
-x,y,-z
-x,-y,-z
x,-y,z
1/2+x,1/2+y,z
1/2-x,1/2+y,-z
1/2-x,1/2-y,-z
1/2+x,1/2-y,z
loop_
_atom_site_type_symbol
_atom_site_label
_atom_site_fract_x
_atom_site_fract_y
_atom_site_fract_z
Si Si1 0.641303 0.179837 0.276145
Si Si2 0.797384 0.823354 0.299498
Si Si3 0.916835 0.320524 0.470260
Si Si4 0.332870 0.318953 0.555966
Si Si5 0.236635 0.676269 0.873224
Si Si6 0.355408 0.175019 0.042723
Si Si7 0.484513 0.177911 0.909903
O O1 0.726103 0.211500 0.305905
O O2 0.626251 0.266608 0.343445
O O3 0.586238 0.248849 0.178260
O O4 0.624839 0.000000 0.277682
O O5 0.864650 0.715170 0.367542
O O6 0.777737 0.788177 0.203286
O O7 0.821663 0.000000 0.321862
O O8 0.915521 0.500000 0.487800
O O9 0.885976 0.230648 0.521875
O O10 0.000000 0.265547 0.500000
O O11 0.323854 0.500000 0.548195
O O12 0.250000 0.250000 0.500000
O O13 0.236105 0.500000 0.846755
O O14 0.171837 0.712095 0.891958
O O15 0.316782 0.714279 0.959038
O O16 0.443725 0.203338 0.097090
O O17 0.335143 0.000000 0.008356
O O18 0.466204 0.000000 0.912695
O O19 0.500000 0.255594 0.000000
#
# Coordination Sequence:
#
# PCOD8096414 Si02
#       7
#     8   8   8   8   8   8   8
#     4  10  21  37  61  91 119 157 205 253 308 368
#     4  11  22  37  60  87 117 154 199 248 300 369
#     4  11  25  44  66  92 124 160 201 255 316 374
#     4  12  24  41  66  93 125 164 208 258 312 373
#     4  10  20  33  53  80 113 152 195 244 299 363
#     4   9  18  34  54  78 109 150 196 243 298 360
#     4   9  17  32  56  84 114 148 193 246 297 357
#
# _framework density 19.905169000000001
#
# number of rings (size 3 to 8) (size 9 to 14) (size 15 to 20)
#    0.000    1.714    1.429    3.429    0.000    5.714 
#    0.000    3.571    0.000    1.714    0.000    0.000 
#    0.000    0.000    0.000    0.000    0.000    0.000 
#
# Total GULP energy -347273.059760 kJ/mol
# GULP energy per Si atom -12402.609277 kJ/mol
# Density = 1.985986 g / cm^3
# Si number density = 19.905169 Si / 1000 Ang^3
#
#
#
# Elastic Constant Matrix: (Units=GPa)
#
#
# Indices 1 2 3 4 5 6 
#
# 1 98.0486 47.3156 41.2444 0.0000 0.4439 0.0000
# 2 47.3156 67.4338 43.5019 0.0000 0.2780 0.0000
# 3 41.2444 43.5019 98.6848 0.0000 -6.4215 0.0000
# 4 0.0000 0.0000 0.0000 32.1698 0.0000 -3.6236
# 5 0.4439 0.2780 -6.4215 0.0000 33.2648 0.0000
# 6 0.0000 0.0000 0.0000 -3.6236 0.0000 25.7644
#
#
#
# Elastic Compliance Matrix: (Units=1/GPa)
#
#
# Indices 1 2 3 4 5 6 
#
# 1 0.015829 -0.009518 -0.002460 0.000000 -0.000607 0.000000
# 2 -0.009518 0.026572 -0.007840 0.000000 -0.001609 0.000000
# 3 -0.002460 -0.007840 0.014810 0.000000 0.002957 0.000000
# 4 0.000000 0.000000 0.000000 0.031585 0.000000 0.004442
# 5 -0.000607 -0.001609 0.002957 0.000000 0.030654 0.000000
# 6 0.000000 0.000000 0.000000 0.004442 0.000000 0.039438
#
#
# Mechanical properties :
#
#
# Convention : Reuss Voigt Hill
#
# Bulk Modulus (GPa) = 56.89553 58.69901 57.79727
# Shear Modulus (GPa) = 24.46397 27.04683 25.75540
#
# Velocity S-wave (km/s) = 3.50955 3.69017 3.60099
# Velocity P-wave (km/s) = 6.71327 6.90723 6.81094
#
# Compressibility (1/GPa) = 0.01757607
#
# Stress axis : x y z
#
# Youngs Moduli (GPa) = 63.17374 37.63391 67.52287
#
# Poissons Ratio (x) = 0.35818 0.16609
# Poissons Ratio (y) = 0.60126 0.52939
# Poissons Ratio (z) = 0.15539 0.29506
#
# Static dielectric constant tensor:
#      x y z
#    x 3.703740 0.000000 -0.009150 
#    y 0.000000 3.473450 0.000000 
#    z -0.009150 0.000000 3.740040 
# 
# 
# High freq. dielectric constant tensor:
#      x y z
#    x 1.779660 0.000000 -0.005330 
#    y 0.000000 1.760320 0.000000 
#    z -0.005330 0.000000 1.784610 
# 
# From -- ./inp_files/280905.got.cif
#   From: 2010.06.25/outbox.cif.g09.slc.cpg/sg12_141_cif.got.tgz:280905.got - 2010.06.28 00:19:55.
