data_PCOD8096953
_publ_section_title
;
Structure prediction by ZEFSAII (Michael W. Deem and Ramdas Pophale) SiO2 
 PCOD8096953
Probable space group: C 2/M
;
_chemical_formula_sum "Si O2"
_cell_formula_units_Z 48
_cell_length_a 18.558893
_cell_length_b 17.306892
_cell_length_c 12.147232
_cell_angle_alpha 90.000000
_cell_angle_beta 138.052130
_cell_angle_gamma 90.000000
_cell_volume 2608.075294
_symmetry_space_group_name_H-M "C 2/M"
_symmetry_group_IT_number 12
_symmetry_cell_setting 'monoclinic'
loop_
_space_group_symop_operation_xyz
x,y,z
-x,y,-z
-x,-y,-z
x,-y,z
1/2+x,1/2+y,z
1/2-x,1/2+y,-z
1/2-x,1/2-y,-z
1/2+x,1/2-y,z
loop_
_atom_site_type_symbol
_atom_site_label
_atom_site_fract_x
_atom_site_fract_y
_atom_site_fract_z
Si Si1 0.645228 0.911447 0.955688
Si Si2 0.030932 0.915358 0.162151
Si Si3 0.100511 0.587846 0.344134
Si Si4 0.299501 0.408597 0.937368
Si Si5 0.770512 0.828995 0.675354
Si Si6 0.878353 0.674196 0.849304
O O1 0.525338 0.903943 0.770783
O O2 0.726910 0.880193 0.955889
O O3 0.670969 0.000000 0.015474
O O4 0.663189 0.859743 0.083273
O O5 0.132537 0.859860 0.292313
O O6 0.064073 0.000000 0.243915
O O7 0.000000 0.920323 0.000000
O O8 0.924169 0.885348 0.105065
O O9 0.140092 0.500000 0.412932
O O10 0.160687 0.651490 0.486833
O O11 0.118757 0.605419 0.236051
O O12 0.289643 0.500000 0.906457
O O13 0.260206 0.367939 0.782108
O O14 0.791789 0.738122 0.713349
O O15 0.000000 0.709587 0.000000
#
# Coordination Sequence:
#
# PCOD8096953 Si02
#       6
#     8   8   8   8   8   8
#     4   9  19  35  53  73  98 133 173 204 237 290
#     4   8  14  26  45  69  96 127 161 195 236 288
#     4  10  20  34  53  75 100 131 166 205 248 295
#     4   9  17  30  50  74 100 132 168 205 243 289
#     4  11  19  30  49  77 104 126 158 206 260 298
#     4  10  20  34  52  73 100 134 170 205 241 290
#
# _framework density 18.404375999999999
#
# number of rings (size 3 to 8) (size 9 to 14) (size 15 to 20)
#    0.000    2.500    0.000    5.000    0.000    3.333 
#    0.000    2.500    0.000    3.000    0.000    4.667 
#    0.000    0.000    0.000    0.000    0.000    0.000 
#
# Total GULP energy -297534.668518 kJ/mol
# GULP energy per Si atom -12397.277855 kJ/mol
# Density = 1.836249 g / cm^3
# Si number density = 18.404376 Si / 1000 Ang^3
#
#
#
# Elastic Constant Matrix: (Units=GPa)
#
#
# Indices 1 2 3 4 5 6 
#
# 1 152.0875 40.1493 38.3246 0.0000 1.3381 0.0000
# 2 40.1493 71.2479 37.1754 0.0000 5.5198 0.0000
# 3 38.3246 37.1754 59.4272 0.0000 4.5685 0.0000
# 4 0.0000 0.0000 0.0000 23.5987 0.0000 3.0905
# 5 1.3381 5.5198 4.5685 0.0000 17.9738 0.0000
# 6 0.0000 0.0000 0.0000 3.0905 0.0000 17.2525
#
#
#
# Elastic Compliance Matrix: (Units=1/GPa)
#
#
# Indices 1 2 3 4 5 6 
#
# 1 0.008226 -0.002838 -0.003621 0.000000 0.001179 0.000000
# 2 -0.002838 0.021992 -0.011652 0.000000 -0.003581 0.000000
# 3 -0.003621 -0.011652 0.026676 0.000000 -0.002933 0.000000
# 4 0.000000 0.000000 0.000000 0.043393 0.000000 -0.007773
# 5 0.001179 -0.003581 -0.002933 0.000000 0.057394 0.000000
# 6 0.000000 0.000000 0.000000 -0.007773 0.000000 0.059355
#
#
# Mechanical properties :
#
#
# Convention : Reuss Voigt Hill
#
# Bulk Modulus (GPa) = 48.36944 57.11791 52.74367
# Shear Modulus (GPa) = 19.21980 22.90588 21.06284
#
# Velocity S-wave (km/s) = 3.23508 3.53170 3.38664
# Velocity P-wave (km/s) = 6.34766 6.90890 6.63422
#
# Compressibility (1/GPa) = 0.02067421
#
# Stress axis : x y z
#
# Youngs Moduli (GPa) = 121.56135 45.47166 37.48621
#
# Poissons Ratio (x) = 0.12904 0.13572
# Poissons Ratio (y) = 0.34498 0.43678
# Poissons Ratio (z) = 0.44011 0.52982
#
# Static dielectric constant tensor:
#      x y z
#    x 3.645370 0.000000 0.202520 
#    y 0.000000 3.291750 0.000000 
#    z 0.202520 0.000000 3.157330 
# 
# 
# High freq. dielectric constant tensor:
#      x y z
#    x 1.710460 0.000000 0.009220 
#    y 0.000000 1.709260 0.000000 
#    z 0.009220 0.000000 1.688480 
# 
# From -- ./inp_files/157645.got.cif
#   From: 2010.06.25/outbox.cif.g09.slc.cpg/sg12_79_cif.got.tgz:157645.got - 2010.06.28 00:19:55.
