data_PCOD8096758
_publ_section_title
;
Structure prediction by ZEFSAII (Michael W. Deem and Ramdas Pophale) SiO2 
 PCOD8096758
Probable space group: C 2/M
;
_chemical_formula_sum "Si O2"
_cell_formula_units_Z 64
_cell_length_a 20.422302
_cell_length_b 9.001761
_cell_length_c 20.117921
_cell_angle_alpha 90.000000
_cell_angle_beta 97.949018
_cell_angle_gamma 90.000000
_cell_volume 3662.875698
_symmetry_space_group_name_H-M "C 2/M"
_symmetry_group_IT_number 12
_symmetry_cell_setting 'monoclinic'
loop_
_space_group_symop_operation_xyz
x,y,z
-x,y,-z
-x,-y,-z
x,-y,z
1/2+x,1/2+y,z
1/2-x,1/2+y,-z
1/2-x,1/2-y,-z
1/2+x,1/2-y,z
loop_
_atom_site_type_symbol
_atom_site_label
_atom_site_fract_x
_atom_site_fract_y
_atom_site_fract_z
Si Si1 0.301119 0.324619 0.324822
Si Si2 0.585965 0.175644 0.574570
Si Si3 0.315178 0.324102 0.037988
Si Si4 0.363136 0.175865 0.828191
Si Si5 0.439665 0.176391 0.576690
Si Si6 0.573395 0.825769 0.030510
Si Si7 0.717651 0.324787 0.823292
Si Si8 0.150524 0.676399 0.318803
O O1 0.309414 0.500000 0.332600
O O2 0.353483 0.248378 0.379356
O O3 0.314734 0.269623 0.250608
O O4 0.227164 0.275143 0.336211
O O5 0.515932 0.227308 0.596679
O O6 0.588122 0.229823 0.498340
O O7 0.593458 0.000000 0.580317
O O8 0.308567 0.500000 0.028715
O O9 0.323343 0.278286 0.117082
O O10 0.250000 0.250000 0.000000
O O11 0.379493 0.265932 0.010613
O O12 0.416424 0.224747 0.891199
O O13 0.291950 0.239901 0.840814
O O14 0.379493 0.234660 0.756064
O O15 0.359662 0.000000 0.823996
O O16 0.393730 0.246423 0.628254
O O17 0.437343 0.000000 0.578545
O O18 0.588522 0.000000 0.023556
O O19 0.500000 0.783214 0.000000
O O20 0.723851 0.500000 0.819139
O O21 0.146206 0.500000 0.321410
#
# Coordination Sequence:
#
# PCOD8096758 Si02
#       8
#     8   8   8   8   8   8   8   8
#     4   9  17  30  49  71  92 119 158 199 235 278
#     4   9  17  30  47  68  98 128 149 190 242 279
#     4  11  20  33  55  76  97 130 170 207 247 299
#     4   8  13  26  47  67  91 124 159 196 237 278
#     4   8  15  29  46  65  93 129 163 185 224 287
#     4  10  20  34  50  73 105 132 162 209 254 289
#     4   8  15  29  49  69  92 124 158 193 238 290
#     4   8  14  26  48  70  86 120 169 197 218 279
#
# _framework density 17.472611000000001
#
# number of rings (size 3 to 8) (size 9 to 14) (size 15 to 20)
#    0.000    3.125    1.250    2.625    0.000    0.750 
#    2.250    2.500    0.000    0.750    0.000    0.000 
#    0.000    0.000    0.000    0.000    0.000    0.000 
#
# Total GULP energy -396495.059721 kJ/mol
# GULP energy per Si atom -12390.470616 kJ/mol
# Density = 1.743284 g / cm^3
# Si number density = 17.472611 Si / 1000 Ang^3
#
#
#
# Elastic Constant Matrix: (Units=GPa)
#
#
# Indices 1 2 3 4 5 6 
#
# 1 126.8887 32.0638 106.3893 0.0000 -3.6659 0.0000
# 2 32.0638 27.7265 29.7667 0.0000 -1.9964 0.0000
# 3 106.3893 29.7667 172.0733 0.0000 -3.2582 0.0000
# 4 0.0000 0.0000 0.0000 20.8081 0.0000 3.1152
# 5 -3.6659 -1.9964 -3.2582 0.0000 34.9358 0.0000
# 6 0.0000 0.0000 0.0000 3.1152 0.0000 21.2470
#
#
#
# Elastic Compliance Matrix: (Units=1/GPa)
#
#
# Indices 1 2 3 4 5 6 
#
# 1 0.018929 -0.011425 -0.009719 0.000000 0.000427 0.000000
# 2 -0.011425 0.051305 -0.001781 0.000000 0.001567 0.000000
# 3 -0.009719 -0.001781 0.012129 0.000000 0.000010 0.000000
# 4 0.000000 0.000000 0.000000 0.049137 0.000000 -0.007204
# 5 0.000427 0.001567 0.000010 0.000000 0.028759 0.000000
# 6 0.000000 0.000000 0.000000 -0.007204 0.000000 0.048122
#
#
# Mechanical properties :
#
#
# Convention : Reuss Voigt Hill
#
# Bulk Modulus (GPa) = 27.38890 73.68090 50.53490
# Shear Modulus (GPa) = 18.76862 25.96277 22.36570
#
# Velocity S-wave (km/s) = 3.28102 3.85894 3.58165
# Velocity P-wave (km/s) = 5.48295 7.88138 6.78892
#
# Compressibility (1/GPa) = 0.03651114
#
# Stress axis : x y z
#
# Youngs Moduli (GPa) = 52.82839 19.49143 82.44811
#
# Poissons Ratio (x) = 0.22270 0.80131
# Poissons Ratio (y) = 0.60359 0.14687
# Poissons Ratio (z) = 0.51344 0.03472
#
# Static dielectric constant tensor:
#      x y z
#    x 3.559410 0.000000 -0.187180 
#    y 0.000000 2.766270 0.000000 
#    z -0.187180 0.000000 3.806380 
# 
# 
# High freq. dielectric constant tensor:
#      x y z
#    x 1.665390 0.000000 -0.003720 
#    y 0.000000 1.624000 0.000000 
#    z -0.003720 0.000000 1.692530 
# 
# From -- ./inp_files/276580.got.cif
#   From: 2010.06.25/outbox.cif.g09.slc.cpg/sg12_139_cif.got.tgz:276580.got - 2010.06.28 00:19:55.
