data_PCOD8096061
_publ_section_title
;
Structure prediction by ZEFSAII (Michael W. Deem and Ramdas Pophale) SiO2 
 PCOD8096061
Probable space group: C 2/M
;
_chemical_formula_sum "Si O2"
_cell_formula_units_Z 40
_cell_length_a 14.529254
_cell_length_b 8.468281
_cell_length_c 18.059142
_cell_angle_alpha 90.000000
_cell_angle_beta 67.779602
_cell_angle_gamma 90.000000
_cell_volume 2056.945796
_symmetry_space_group_name_H-M "C 2/M"
_symmetry_group_IT_number 12
_symmetry_cell_setting 'monoclinic'
loop_
_space_group_symop_operation_xyz
x,y,z
-x,y,-z
-x,-y,-z
x,-y,z
1/2+x,1/2+y,z
1/2-x,1/2+y,-z
1/2-x,1/2-y,-z
1/2+x,1/2-y,z
loop_
_atom_site_type_symbol
_atom_site_label
_atom_site_fract_x
_atom_site_fract_y
_atom_site_fract_z
Si Si1 0.662545 0.314323 0.702481
Si Si2 0.362204 0.686603 0.600231
Si Si3 0.353202 0.813154 0.000987
Si Si4 0.947104 0.812349 0.118588
Si Si5 0.920964 0.187559 0.424135
O O1 0.649790 0.500000 0.704599
O O2 0.777678 0.269231 0.674665
O O3 0.601280 0.248213 0.790792
O O4 0.622683 0.237906 0.637874
O O5 0.349951 0.500000 0.609757
O O6 0.358239 0.743186 0.515265
O O7 0.465642 0.744322 0.603493
O O8 0.373685 0.737979 0.074921
O O9 0.347616 0.000000 0.010501
O O10 0.250000 0.750000 0.000000
O O11 0.444297 0.766089 0.919751
O O12 0.959621 0.000000 0.113215
O O13 0.918517 0.000000 0.422350
#
# Coordination Sequence:
#
# PCOD8096061 Si02
#       5
#     8   8   8   8   8
#     4  10  20  33  51  76 108 138 168 215 269 309
#     4   9  17  31  52  73  99 139 185 221 253 305
#     4  11  22  39  62  83 106 139 175 217 268 325
#     4  10  21  37  55  81 113 143 179 222 264 318
#     4   8  16  32  50  71 101 140 180 217 260 308
#
# _framework density 19.446308999999999
#
# number of rings (size 3 to 8) (size 9 to 14) (size 15 to 20)
#    0.000    2.400    0.000    5.400    0.000    3.200 
#    0.000    5.000    0.000    0.000    0.000    0.000 
#    0.000    0.000    0.000    0.000    0.000    0.000 
#
# Total GULP energy -247952.074817 kJ/mol
# GULP energy per Si atom -12397.603741 kJ/mol
# Density = 1.940205 g / cm^3
# Si number density = 19.446309 Si / 1000 Ang^3
#
#
#
# Elastic Constant Matrix: (Units=GPa)
#
#
# Indices 1 2 3 4 5 6 
#
# 1 100.8200 4.2081 44.3436 0.0000 -13.6520 0.0000
# 2 4.2081 27.4226 8.6072 0.0000 -0.8863 0.0000
# 3 44.3436 8.6072 134.2953 0.0000 -18.8946 0.0000
# 4 0.0000 0.0000 0.0000 24.4290 0.0000 -6.3670
# 5 -13.6520 -0.8863 -18.8946 0.0000 22.9683 0.0000
# 6 0.0000 0.0000 0.0000 -6.3670 0.0000 29.5991
#
#
#
# Elastic Compliance Matrix: (Units=1/GPa)
#
#
# Indices 1 2 3 4 5 6 
#
# 1 0.011992 -0.000663 -0.003300 0.000000 0.004388 0.000000
# 2 -0.000663 0.037259 -0.002287 0.000000 -0.000837 0.000000
# 3 -0.003300 -0.002287 0.009493 0.000000 0.005759 0.000000
# 4 0.000000 0.000000 0.000000 0.043366 0.000000 0.009328
# 5 0.004388 -0.000837 0.005759 0.000000 0.050852 0.000000
# 6 0.000000 0.000000 0.000000 0.009328 0.000000 0.035791
#
#
# Mechanical properties :
#
#
# Convention : Reuss Voigt Hill
#
# Bulk Modulus (GPa) = 21.62427 41.87287 31.74857
# Shear Modulus (GPa) = 23.07691 29.09120 26.08406
#
# Velocity S-wave (km/s) = 3.44859 3.87198 3.66640
# Velocity P-wave (km/s) = 5.19626 6.44740 5.85534
#
# Compressibility (1/GPa) = 0.04624434
#
# Stress axis : x y z
#
# Youngs Moduli (GPa) = 83.39007 26.83933 105.34322
#
# Poissons Ratio (x) = 0.01778 0.34762
# Poissons Ratio (y) = 0.05526 0.24092
# Poissons Ratio (z) = 0.27518 0.06138
#
# Static dielectric constant tensor:
#      x y z
#    x 4.056970 0.000000 0.022810 
#    y 0.000000 3.271670 0.000000 
#    z 0.022810 0.000000 3.918950 
# 
# 
# High freq. dielectric constant tensor:
#      x y z
#    x 1.762630 0.000000 -0.004880 
#    y 0.000000 1.737150 0.000000 
#    z -0.004880 0.000000 1.761170 
# 
# From -- ./inp_files/249506.got.cif
#   From: 2010.06.25/outbox.cif.g09.slc.cpg/sg12_125_cif.got.tgz:249506.got - 2010.06.28 00:19:55.
