data_PCOD8096437
_publ_section_title
;
Structure prediction by ZEFSAII (Michael W. Deem and Ramdas Pophale) SiO2 
 PCOD8096437
Probable space group: C 2/M
;
_chemical_formula_sum "Si O2"
_cell_formula_units_Z 64
_cell_length_a 19.919531
_cell_length_b 9.073813
_cell_length_c 31.021418
_cell_angle_alpha 90.000000
_cell_angle_beta 35.687906
_cell_angle_gamma 90.000000
_cell_volume 3270.954552
_symmetry_space_group_name_H-M "C 2/M"
_symmetry_group_IT_number 12
_symmetry_cell_setting 'monoclinic'
loop_
_space_group_symop_operation_xyz
x,y,z
-x,y,-z
-x,-y,-z
x,-y,z
1/2+x,1/2+y,z
1/2-x,1/2+y,-z
1/2-x,1/2-y,-z
1/2+x,1/2-y,z
loop_
_atom_site_type_symbol
_atom_site_label
_atom_site_fract_x
_atom_site_fract_y
_atom_site_fract_z
Si Si1 0.773828 0.174741 0.361553
Si Si2 0.951769 0.338781 0.477653
Si Si3 0.065914 0.830168 0.923735
Si Si4 0.992510 0.672120 0.739110
Si Si5 0.678525 0.829867 0.097790
Si Si6 0.162775 0.825600 0.337647
Si Si7 0.690102 0.831250 0.235917
Si Si8 0.603018 0.169850 0.041254
O O1 0.680210 0.213944 0.447693
O O2 0.742294 0.252515 0.332828
O O3 0.892884 0.232114 0.318641
O O4 0.778306 0.000000 0.350921
O O5 0.958053 0.500000 0.451418
O O6 0.000000 0.356233 0.500000
O O7 0.028498 0.222065 0.411501
O O8 0.203720 0.806458 0.852815
O O9 0.018118 0.743370 0.907291
O O10 0.033517 0.000000 0.934968
O O11 0.000000 0.766081 0.000000
O O12 0.022988 0.500000 0.728399
O O13 0.910536 0.726475 0.820287
O O14 0.927980 0.703621 0.727694
O O15 0.620502 0.799659 0.082276
O O16 0.709798 0.000000 0.088847
O O17 0.796534 0.740753 0.040142
O O18 0.206044 0.775356 0.268288
O O19 0.172851 0.000000 0.336813
O O20 0.690432 0.000000 0.252127
O O21 0.599394 0.000000 0.031764
#
# Coordination Sequence:
#
# PCOD8096437 Si02
#       8
#     8   8   8   8   8   8   8   8
#     4  10  21  37  60  89 119 151 189 232 284 345
#     4   8  16  34  58  84 116 150 185 231 284 338
#     4  10  21  38  59  79 106 148 194 234 281 343
#     4  10  21  38  59  82 113 152 193 238 285 338
#     4   9  19  36  55  77 110 146 182 229 285 338
#     4  11  22  36  59  88 118 150 191 240 283 333
#     4  10  22  39  58  82 115 155 194 235 291 346
#     4  10  20  33  53  82 110 139 183 235 284 335
#
# _framework density 19.566154000000001
#
# number of rings (size 3 to 8) (size 9 to 14) (size 15 to 20)
#    0.000    2.250    0.000    3.375    1.750    7.000 
#    0.000    1.875    0.000    0.000    0.000    0.000 
#    0.000    0.000    0.000    0.000    0.000    0.000 
#
# Total GULP energy -396787.711850 kJ/mol
# GULP energy per Si atom -12399.615995 kJ/mol
# Density = 1.952162 g / cm^3
# Si number density = 19.566154 Si / 1000 Ang^3
#
#
#
# Elastic Constant Matrix: (Units=GPa)
#
#
# Indices 1 2 3 4 5 6 
#
# 1 80.0326 45.9371 39.9656 -0.0002 -18.2291 0.0144
# 2 45.9371 86.8737 36.6665 0.0000 -6.2257 0.0061
# 3 39.9656 36.6665 89.3488 -0.0015 -9.9617 0.0007
# 4 -0.0002 0.0000 -0.0015 25.9870 -0.0006 -4.4622
# 5 -18.2291 -6.2257 -9.9617 -0.0006 29.4596 0.0009
# 6 0.0144 0.0061 0.0007 -4.4622 0.0009 31.5234
#
#
#
# Elastic Compliance Matrix: (Units=1/GPa)
#
#
# Indices 1 2 3 4 5 6 
#
# 1 0.022659 -0.009010 -0.005286 -0.000001 0.010329 -0.000009
# 2 -0.009010 0.017537 -0.003507 0.000000 -0.003055 0.000001
# 3 -0.005286 -0.003507 0.015118 0.000001 0.001100 0.000003
# 4 -0.000001 0.000000 0.000001 0.039439 0.000000 0.005583
# 5 0.010329 -0.003055 0.001100 0.000000 0.040063 -0.000005
# 6 -0.000009 0.000001 0.000003 0.005583 -0.000005 0.032513
#
#
# Mechanical properties :
#
#
# Convention : Reuss Voigt Hill
#
# Bulk Modulus (GPa) = 50.74244 55.71038 53.22641
# Shear Modulus (GPa) = 23.86577 26.30639 25.08608
#
# Velocity S-wave (km/s) = 3.49628 3.67070 3.58455
# Velocity P-wave (km/s) = 6.50298 6.81909 6.66291
#
# Compressibility (1/GPa) = 0.01970737
#
# Stress axis : x y z
#
# Youngs Moduli (GPa) = 44.13232 57.02343 66.14459
#
# Poissons Ratio (x) = 0.51380 0.34965
# Poissons Ratio (y) = 0.39765 0.23196
# Poissons Ratio (z) = 0.23329 0.19998
#
# Static dielectric constant tensor:
#      x y z
#    x 3.423960 -0.000010 -0.158430 
#    y -0.000010 3.470610 0.000000 
#    z -0.158430 0.000000 3.825440 
# 
# 
# High freq. dielectric constant tensor:
#      x y z
#    x 1.750790 0.000000 -0.008310 
#    y 0.000000 1.754710 0.000000 
#    z -0.008310 0.000000 1.765390 
# 
# From -- ./inp_files/378074.got.cif
#   From: 2010.06.25/outbox.cif.g09.slc.cpg/sg12_190_cif.got.tgz:378074.got - 2010.06.28 00:19:55.
