data_PCOD8096188
_publ_section_title
;
Structure prediction by ZEFSAII (Michael W. Deem and Ramdas Pophale) SiO2 
 PCOD8096188
Probable space group: C 2/M
;
_chemical_formula_sum "Si O2"
_cell_formula_units_Z 48
_cell_length_a 30.049433
_cell_length_b 9.042270
_cell_length_c 8.913068
_cell_angle_alpha 90.000000
_cell_angle_beta 90.573295
_cell_angle_gamma 90.000000
_cell_volume 2421.693811
_symmetry_space_group_name_H-M "C 2/M"
_symmetry_group_IT_number 12
_symmetry_cell_setting 'monoclinic'
loop_
_space_group_symop_operation_xyz
x,y,z
-x,y,-z
-x,-y,-z
x,-y,z
1/2+x,1/2+y,z
1/2-x,1/2+y,-z
1/2-x,1/2-y,-z
1/2+x,1/2-y,z
loop_
_atom_site_type_symbol
_atom_site_label
_atom_site_fract_x
_atom_site_fract_y
_atom_site_fract_z
Si Si1 0.513588 0.333251 0.672864
Si Si2 0.827731 0.167163 0.248456
Si Si3 0.902231 0.671305 0.408748
Si Si4 0.149211 0.171748 0.096276
Si Si5 0.765980 0.327971 0.851485
Si Si6 0.571720 0.172819 0.251792
O O1 0.500000 0.330863 0.500000
O O2 0.515632 0.500000 0.735823
O O3 0.561978 0.259332 0.691062
O O4 0.477712 0.239875 0.765870
O O5 0.852969 0.278196 0.360023
O O6 0.774440 0.190714 0.269057
O O7 0.840924 0.000000 0.291944
O O8 0.841366 0.199225 0.077752
O O9 0.908923 0.500000 0.374478
O O10 0.908252 0.705502 0.583833
O O11 0.188146 0.249433 0.198021
O O12 0.102303 0.246561 0.131372
O O13 0.147902 0.000000 0.138838
O O14 0.775319 0.500000 0.883548
O O15 0.750000 0.250000 0.000000
O O16 0.569400 0.000000 0.216237
#
# Coordination Sequence:
#
# PCOD8096188 Si02
#       6
#     8   8   8   8   8   8
#     4   9  17  31  52  74  98 132 169 203 245 298
#     4   9  19  34  52  75 102 131 166 207 249 296
#     4  10  20  33  52  77 103 132 167 206 249 297
#     4  10  20  34  53  77 102 132 170 209 251 298
#     4   9  17  31  51  74 100 132 169 207 248 297
#     4  10  20  34  52  76 104 132 166 208 250 296
#
# _framework density 19.820837000000001
#
# number of rings (size 3 to 8) (size 9 to 14) (size 15 to 20)
#    0.000    2.500    0.000    3.500    0.000    8.000 
#    0.000    1.667    0.000    5.000    0.000    0.000 
#    0.000    0.000    0.000    0.000    0.000    0.000 
#
# Total GULP energy -297574.786197 kJ/mol
# GULP energy per Si atom -12398.949425 kJ/mol
# Density = 1.977572 g / cm^3
# Si number density = 19.820837 Si / 1000 Ang^3
#
#
#
# Elastic Constant Matrix: (Units=GPa)
#
#
# Indices 1 2 3 4 5 6 
#
# 1 32.8725 7.7409 -7.6772 0.0000 -0.6712 0.0000
# 2 7.7409 104.8873 10.2011 0.0000 0.5138 0.0000
# 3 -7.6772 10.2011 11.1530 0.0000 1.9645 0.0000
# 4 0.0000 0.0000 0.0000 24.7484 0.0000 -0.7152
# 5 -0.6712 0.5138 1.9645 0.0000 27.8809 0.0000
# 6 0.0000 0.0000 0.0000 -0.7152 0.0000 44.7612
#
#
#
# Elastic Compliance Matrix: (Units=1/GPa)
#
#
# Indices 1 2 3 4 5 6 
#
# 1 0.039559 -0.006128 0.033059 0.000000 -0.001264 0.000000
# 2 -0.006128 0.011421 -0.014785 0.000000 0.000684 0.000000
# 3 0.033059 -0.014785 0.127334 0.000000 -0.007904 0.000000
# 4 0.000000 0.000000 0.000000 0.040425 0.000000 0.000646
# 5 -0.001264 0.000684 -0.007904 0.000000 0.036381 0.000000
# 6 0.000000 0.000000 0.000000 0.000646 0.000000 0.022351
#
#
# Mechanical properties :
#
#
# Convention : Reuss Voigt Hill
#
# Bulk Modulus (GPa) = 4.93576 18.82691 11.88134
# Shear Modulus (GPa) = 15.59015 28.72130 22.15573
#
# Velocity S-wave (km/s) = 2.80760 3.81076 3.34698
# Velocity P-wave (km/s) = 3.60635 5.37417 4.57643
#
# Compressibility (1/GPa) = 0.20260303
#
# Stress axis : x y z
#
# Youngs Moduli (GPa) = 25.27898 87.55826 7.85337
#
# Poissons Ratio (x) = 0.53660 -0.25962
# Poissons Ratio (y) = 0.15492 0.11611
# Poissons Ratio (z) = -0.83569 1.29457
#
# Static dielectric constant tensor:
#      x y z
#    x 3.966180 0.000000 0.024660 
#    y 0.000000 3.782150 0.000000 
#    z 0.024660 0.000000 3.072970 
# 
# 
# High freq. dielectric constant tensor:
#      x y z
#    x 1.787730 0.000000 0.000550 
#    y 0.000000 1.787120 0.000000 
#    z 0.000550 0.000000 1.720480 
# 
# From -- ./inp_files/108560.got.cif
#   From: 2010.06.25/outbox.cif.g09.slc.cpg/sg12_55_cif.got.tgz:108560.got - 2010.06.28 00:19:55.
