data_PCOD8096654
_publ_section_title
;
Structure prediction by ZEFSAII (Michael W. Deem and Ramdas Pophale) SiO2 
 PCOD8096654
Probable space group: C 2/M
;
_chemical_formula_sum "Si O2"
_cell_formula_units_Z 64
_cell_length_a 30.044327
_cell_length_b 9.003300
_cell_length_c 16.400083
_cell_angle_alpha 90.000000
_cell_angle_beta 47.515480
_cell_angle_gamma 90.000000
_cell_volume 3271.512785
_symmetry_space_group_name_H-M "C 2/M"
_symmetry_group_IT_number 12
_symmetry_cell_setting 'monoclinic'
loop_
_space_group_symop_operation_xyz
x,y,z
-x,y,-z
-x,-y,-z
x,-y,z
1/2+x,1/2+y,z
1/2-x,1/2+y,-z
1/2-x,1/2-y,-z
1/2+x,1/2-y,z
loop_
_atom_site_type_symbol
_atom_site_label
_atom_site_fract_x
_atom_site_fract_y
_atom_site_fract_z
Si Si1 0.716303 0.169622 0.471490
Si Si2 0.823580 0.174994 0.237238
Si Si3 0.894638 0.325801 0.296419
Si Si4 0.870361 0.826944 0.878280
Si Si5 0.550785 0.677090 0.498567
Si Si6 0.836823 0.175911 0.739491
Si Si7 0.009987 0.827086 0.724423
Si Si8 0.299209 0.823742 0.106755
O O1 0.750000 0.250000 0.500000
O O2 0.751797 0.210377 0.344213
O O3 0.645431 0.206746 0.571114
O O4 0.727581 0.000000 0.476452
O O5 0.867183 0.245272 0.251335
O O6 0.836789 0.250000 0.134106
O O7 0.836880 0.000000 0.215924
O O8 0.899406 0.500000 0.271137
O O9 0.959998 0.259763 0.236857
O O10 0.859602 0.771113 0.799719
O O11 0.939187 0.797196 0.817166
O O12 0.853527 0.000000 0.909295
O O13 0.827766 0.727882 0.987040
O O14 0.500000 0.739202 0.500000
O O15 0.548285 0.500000 0.501341
O O16 0.616494 0.735593 0.387157
O O17 0.536354 0.736452 0.606700
O O18 0.769721 0.235261 0.805277
O O19 0.837205 0.000000 0.737193
O O20 0.025233 0.000000 0.714450
O O21 0.303038 0.000000 0.109322
#
# Coordination Sequence:
#
# PCOD8096654 Si02
#       8
#     8   8   8   8   8   8   8   8
#     4   8  16  30  49  73 103 140 176 214 265 322
#     4  10  20  37  57  79 110 147 191 236 275 325
#     4  10  20  35  55  81 116 151 183 225 281 340
#     4  10  20  38  59  80 110 150 195 236 273 326
#     4   9  15  29  54  85 116 145 182 233 279 323
#     4   9  18  33  55  84 115 146 185 231 280 333
#     4  10  20  33  57  87 113 148 193 232 274 330
#     4  11  23  36  55  84 114 147 188 235 288 336
#
# _framework density 19.562813999999999
#
# number of rings (size 3 to 8) (size 9 to 14) (size 15 to 20)
#    0.000    2.375    1.250    1.500    1.750    1.500 
#    0.000    1.250    0.000    4.875    0.000    0.000 
#    0.000    0.000    0.000    0.000    0.000    0.000 
#
# Total GULP energy -396565.387281 kJ/mol
# GULP energy per Si atom -12392.668353 kJ/mol
# Density = 1.951829 g / cm^3
# Si number density = 19.562814 Si / 1000 Ang^3
#
#
#
# Elastic Constant Matrix: (Units=GPa)
#
#
# Indices 1 2 3 4 5 6 
#
# 1 94.3985 30.1801 26.3879 0.0000 -12.0944 0.0000
# 2 30.1801 54.2510 22.6662 0.0000 -5.8027 -0.0003
# 3 26.3879 22.6662 88.1922 0.0000 -7.5398 0.0001
# 4 0.0000 0.0000 0.0000 27.1578 0.0001 0.8616
# 5 -12.0944 -5.8027 -7.5398 0.0001 21.8272 0.0000
# 6 0.0000 -0.0003 0.0001 0.8616 0.0000 21.5835
#
#
#
# Elastic Compliance Matrix: (Units=1/GPa)
#
#
# Indices 1 2 3 4 5 6 
#
# 1 0.013859 -0.006274 -0.002082 0.000000 0.005292 0.000000
# 2 -0.006274 0.023796 -0.004116 0.000000 0.001428 0.000000
# 3 -0.002082 -0.004116 0.013218 0.000000 0.002318 0.000000
# 4 0.000000 0.000000 0.000000 0.036869 0.000000 -0.001472
# 5 0.005292 0.001428 0.002318 0.000000 0.049927 0.000000
# 6 0.000000 0.000000 0.000000 -0.001472 0.000000 0.046391
#
#
# Mechanical properties :
#
#
# Convention : Reuss Voigt Hill
#
# Bulk Modulus (GPa) = 38.56813 43.92335 41.24574
# Shear Modulus (GPa) = 22.97302 24.62085 23.79693
#
# Velocity S-wave (km/s) = 3.43055 3.55146 3.49153
# Velocity P-wave (km/s) = 5.95394 6.27043 6.11424
#
# Compressibility (1/GPa) = 0.02592814
#
# Stress axis : x y z
#
# Youngs Moduli (GPa) = 72.15365 42.02431 75.65491
#
# Poissons Ratio (x) = 0.26367 0.15750
# Poissons Ratio (y) = 0.45270 0.31143
# Poissons Ratio (z) = 0.15021 0.17299
#
# Static dielectric constant tensor:
#      x y z
#    x 3.448480 0.000000 -0.060550 
#    y 0.000000 3.211230 0.000000 
#    z -0.060550 0.000000 3.682260 
# 
# 
# High freq. dielectric constant tensor:
#      x y z
#    x 1.760600 0.000000 -0.001580 
#    y 0.000000 1.735970 0.000000 
#    z -0.001580 0.000000 1.760980 
# 
# From -- ./inp_files/295508.got.cif
#   From: 2010.06.25/outbox.cif.g09.slc.cpg/sg12_148_cif.got.tgz:295508.got - 2010.06.28 00:19:55.
