data_PCOD8096158
_publ_section_title
;
Structure prediction by ZEFSAII (Michael W. Deem and Ramdas Pophale) SiO2 
 PCOD8096158
Probable space group: C 2/M
;
_chemical_formula_sum "Si O2"
_cell_formula_units_Z 64
_cell_length_a 9.659057
_cell_length_b 17.657536
_cell_length_c 23.378539
_cell_angle_alpha 90.000000
_cell_angle_beta 122.140322
_cell_angle_gamma 90.000000
_cell_volume 3376.262788
_symmetry_space_group_name_H-M "C 2/M"
_symmetry_group_IT_number 12
_symmetry_cell_setting 'monoclinic'
loop_
_space_group_symop_operation_xyz
x,y,z
-x,y,-z
-x,-y,-z
x,-y,z
1/2+x,1/2+y,z
1/2-x,1/2+y,-z
1/2-x,1/2-y,-z
1/2+x,1/2-y,z
loop_
_atom_site_type_symbol
_atom_site_label
_atom_site_fract_x
_atom_site_fract_y
_atom_site_fract_z
Si Si1 0.559224 0.587904 0.819679
Si Si2 0.749670 0.090012 0.578715
Si Si3 0.742816 0.089971 0.816567
Si Si4 0.930624 0.409865 0.571722
Si Si5 0.312364 0.672823 0.947702
Si Si6 0.687524 0.153143 0.040320
Si Si7 0.604634 0.089937 0.309287
Si Si8 0.094092 0.909449 0.699729
O O1 0.529293 0.500000 0.804167
O O2 0.391436 0.621354 0.809797
O O3 0.711381 0.599924 0.895137
O O4 0.598336 0.622768 0.765679
O O5 0.700843 0.118261 0.504301
O O6 0.612846 0.118201 0.594124
O O7 0.927908 0.122046 0.634114
O O8 0.754421 0.000000 0.580866
O O9 0.750792 0.128265 0.879665
O O10 0.571441 0.116028 0.752252
O O11 0.754180 0.000000 0.826818
O O12 0.932794 0.500000 0.574102
O O13 0.878713 0.377744 0.622384
O O14 0.270480 0.761286 0.931745
O O15 0.500000 0.660442 0.000000
O O16 0.227806 0.636466 0.983758
O O17 0.500000 0.131497 0.000000
O O18 0.750156 0.122778 0.301371
O O19 0.615448 0.000000 0.312151
O O20 0.098397 0.000000 0.700130
#
# Coordination Sequence:
#
# PCOD8096158 Si02
#       8
#     8   8   8   8   8   8   8   8
#     4  10  20  34  50  71  98 129 162 196 240 290
#     4   8  13  22  37  56  81 119 160 197 232 276
#     4  10  20  33  52  72  95 128 164 201 236 283
#     4   8  13  22  37  56  81 118 163 196 228 278
#     4  10  20  38  55  73  96 123 162 197 240 291
#     4  10  22  36  54  74  97 126 154 198 247 290
#     4   9  17  27  39  61  91 123 157 196 240 282
#     4   9  17  27  39  60  93 124 154 195 243 285
#
# _framework density 18.955870000000001
#
# number of rings (size 3 to 8) (size 9 to 14) (size 15 to 20)
#    0.000    2.750    1.250    1.500    1.750    4.500 
#    0.000    2.500    0.000    0.000    0.000    0.000 
#    0.000    1.000    0.000    2.250    0.000    2.500 
#
# Total GULP energy -396639.034781 kJ/mol
# GULP energy per Si atom -12394.969837 kJ/mol
# Density = 1.891273 g / cm^3
# Si number density = 18.955870 Si / 1000 Ang^3
#
#
#
# Elastic Constant Matrix: (Units=GPa)
#
#
# Indices 1 2 3 4 5 6 
#
# 1 187.4658 9.9101 96.2904 0.0000 -5.2654 0.0000
# 2 9.9101 7.4369 11.7100 0.0000 -5.0928 0.0000
# 3 96.2904 11.7100 151.0722 0.0000 -17.0157 0.0000
# 4 0.0000 0.0000 0.0000 -2.0308 0.0000 -0.6217
# 5 -5.2654 -5.0928 -17.0157 0.0000 44.5996 0.0000
# 6 0.0000 0.0000 0.0000 -0.6217 0.0000 13.2612
#
#
#
# Elastic Compliance Matrix: (Units=1/GPa)
#
#
# Indices 1 2 3 4 5 6 
#
# 1 0.008067 -0.003828 -0.005002 0.000000 -0.001393 0.000000
# 2 -0.003828 0.163221 -0.008530 0.000000 0.014932 0.000000
# 3 -0.005002 -0.008530 0.010754 0.000000 0.002538 0.000000
# 4 0.000000 0.000000 0.000000 -0.485445 0.000000 -0.022758
# 5 -0.001393 0.014932 0.002538 0.000000 0.024931 0.000000
# 6 0.000000 0.000000 0.000000 -0.022758 0.000000 0.074341
#
#
# Mechanical properties :
#
#
# Convention : Reuss Voigt Hill
#
# Bulk Modulus (GPa) = 6.78781 64.64400 35.71591
# Shear Modulus (GPa) = -41.56116 26.37029 -7.59544
#
# Velocity S-wave (km/s) = -4.68752 3.73385 -2.00390
# Velocity P-wave (km/s) = 5.07035 7.26397 3.67809
#
# Compressibility (1/GPa) = 0.14732285
#
# Stress axis : x y z
#
# Youngs Moduli (GPa) = 123.96791 6.12667 92.98472
#
# Poissons Ratio (x) = 0.02345 0.46508
# Poissons Ratio (y) = 0.47449 0.79319
# Poissons Ratio (z) = 0.62005 0.05226
#
# Static dielectric constant tensor:
#      x y z
#    x 3.846520 0.000000 -0.073430 
#    y 0.000000 3.154840 0.000000 
#    z -0.073430 0.000000 3.668270 
# 
# 
# High freq. dielectric constant tensor:
#      x y z
#    x 1.753180 0.000000 -0.003950 
#    y 0.000000 1.663300 0.000000 
#    z -0.003950 0.000000 1.750200 
# 
# From -- ./inp_files/302127.got.cif
#   From: 2010.06.25/outbox.cif.g09.slc.cpg/sg12_152_cif.got.tgz:302127.got - 2010.06.28 00:19:55.
