data_PCOD8096694
_publ_section_title
;
Structure prediction by ZEFSAII (Michael W. Deem and Ramdas Pophale) SiO2 
 PCOD8096694
Probable space group: C 2/M
;
_chemical_formula_sum "Si O2"
_cell_formula_units_Z 36
_cell_length_a 15.553041
_cell_length_b 27.923128
_cell_length_c 16.221136
_cell_angle_alpha 90.000000
_cell_angle_beta 162.423925
_cell_angle_gamma 90.000000
_cell_volume 2127.291945
_symmetry_space_group_name_H-M "C 2/M"
_symmetry_group_IT_number 12
_symmetry_cell_setting 'monoclinic'
loop_
_space_group_symop_operation_xyz
x,y,z
-x,y,-z
-x,-y,-z
x,-y,z
1/2+x,1/2+y,z
1/2-x,1/2+y,-z
1/2-x,1/2-y,-z
1/2+x,1/2-y,z
loop_
_atom_site_type_symbol
_atom_site_label
_atom_site_fract_x
_atom_site_fract_y
_atom_site_fract_z
Si Si1 0.274773 0.752461 0.867093
Si Si2 0.210833 0.288315 0.393303
Si Si3 0.513497 0.153004 0.350997
Si Si4 0.310047 0.500000 0.747765
Si Si5 0.527798 0.398308 0.123934
O O1 0.167399 0.698417 0.781712
O O2 0.996306 0.786581 0.597318
O O3 0.500000 0.754794 0.000000
O O4 0.428115 0.774162 0.086704
O O5 0.250000 0.250000 0.500000
O O6 0.164256 0.338223 0.399880
O O7 0.744813 0.139568 0.632150
O O8 0.286832 0.110756 0.127882
O O9 0.373835 0.451256 0.755747
O O10 0.000000 0.500000 0.500000
O O11 0.500000 0.500000 0.000000
O O12 0.500000 0.393152 0.000000
#
# Coordination Sequence:
#
# PCOD8096694 Si02
#       5
#     8   8   8   4   8
#     4  11  21  33  48  67  91 124 161 195 227 272
#     4  10  20  34  46  64  94 123 151 194 243 271
#     4  11  20  32  49  69  91 124 163 198 229 271
#     4  10  20  34  46  64  96 128 155 194 241 270
#     4  11  21  32  48  69  93 126 164 198 227 269
#
# _framework density 16.922923999999998
#
# number of rings (size 3 to 8) (size 9 to 14) (size 15 to 20)
#    0.000    1.333    0.000   11.333    0.000    3.556 
#    0.000    0.000    0.000    0.000    0.000    0.000 
#    0.000    0.000    0.000   70.000    0.000    0.000 
#
# Total GULP energy -223032.437955 kJ/mol
# GULP energy per Si atom -12390.690997 kJ/mol
# Density = 1.688441 g / cm^3
# Si number density = 16.922924 Si / 1000 Ang^3
#
#
#
# Elastic Constant Matrix: (Units=GPa)
#
#
# Indices 1 2 3 4 5 6 
#
# 1 67.2169 37.7684 21.6979 -0.0078 18.3808 -0.0061
# 2 37.7684 75.9884 36.5759 -0.0046 3.1685 -0.0011
# 3 21.6979 36.5759 119.8730 -0.0116 6.0081 -0.0379
# 4 -0.0078 -0.0046 -0.0116 27.8884 -0.0098 6.7232
# 5 18.3808 3.1685 6.0081 -0.0098 38.9304 -0.0150
# 6 -0.0061 -0.0011 -0.0379 6.7232 -0.0150 21.8555
#
#
#
# Elastic Compliance Matrix: (Units=1/GPa)
#
#
# Indices 1 2 3 4 5 6 
#
# 1 0.024307 -0.011463 -0.000377 0.000002 -0.010485 -0.000002
# 2 -0.011463 0.020842 -0.004506 0.000002 0.004411 -0.000007
# 3 -0.000377 -0.004506 0.009834 -0.000001 -0.000973 0.000016
# 4 0.000002 0.000002 -0.000001 0.038729 0.000004 -0.011914
# 5 -0.010485 0.004411 -0.000973 0.000004 0.030429 0.000015
# 6 -0.000002 -0.000007 0.000016 -0.011914 0.000015 0.049420
#
#
# Mechanical properties :
#
#
# Convention : Reuss Voigt Hill
#
# Bulk Modulus (GPa) = 44.85764 50.57362 47.71563
# Shear Modulus (GPa) = 23.39931 28.87060 26.13496
#
# Velocity S-wave (km/s) = 3.72250 4.13486 3.93409
# Velocity P-wave (km/s) = 6.71123 7.26262 6.99236
#
# Compressibility (1/GPa) = 0.02229275
#
# Stress axis : x y z
#
# Youngs Moduli (GPa) = 41.14080 47.98012 101.68930
#
# Poissons Ratio (x) = 0.54998 0.03830
# Poissons Ratio (y) = 0.47158 0.45817
# Poissons Ratio (z) = 0.01550 0.21618
#
# Static dielectric constant tensor:
#      x y z
#    x 3.227310 -0.003700 0.505250 
#    y -0.003700 4.001470 -0.000320 
#    z 0.505250 -0.000320 3.831400 
# 
# 
# High freq. dielectric constant tensor:
#      x y z
#    x 1.622450 0.000000 0.015050 
#    y 0.000000 1.618560 0.000000 
#    z 0.015050 0.000000 1.689410 
# 
# From -- ./inp_files/219318.got.cif
#   From: 2010.06.25/outbox.cif.g09.slc.cpg/sg12_110_cif.got.tgz:219318.got - 2010.06.28 00:19:55.
