data_PCOD8096857
_publ_section_title
;
Structure prediction by ZEFSAII (Michael W. Deem and Ramdas Pophale) SiO2 
 PCOD8096857
Probable space group: C 2/M
;
_chemical_formula_sum "Si O2"
_cell_formula_units_Z 48
_cell_length_a 35.441866
_cell_length_b 9.397863
_cell_length_c 8.025022
_cell_angle_alpha 90.000000
_cell_angle_beta 102.679594
_cell_angle_gamma 90.000000
_cell_volume 2607.770701
_symmetry_space_group_name_H-M "C 2/M"
_symmetry_group_IT_number 12
_symmetry_cell_setting 'monoclinic'
loop_
_space_group_symop_operation_xyz
x,y,z
-x,y,-z
-x,-y,-z
x,-y,z
1/2+x,1/2+y,z
1/2-x,1/2+y,-z
1/2-x,1/2-y,-z
1/2+x,1/2-y,z
loop_
_atom_site_type_symbol
_atom_site_label
_atom_site_fract_x
_atom_site_fract_y
_atom_site_fract_z
Si Si1 0.158037 0.166689 0.911045
Si Si2 0.496707 0.152503 0.307012
Si Si3 0.083614 0.332268 0.921295
Si Si4 0.788975 0.835140 0.725897
Si Si5 0.711392 0.335317 0.651136
Si Si6 0.959243 0.838707 0.865438
O O1 0.120034 0.262686 0.865882
O O2 0.180932 0.207025 0.764498
O O3 0.147258 0.000000 0.902340
O O4 0.180401 0.209370 0.102747
O O5 0.500000 0.121997 0.500000
O O6 0.453380 0.204608 0.227277
O O7 0.530316 0.266126 0.299387
O O8 0.503684 0.000000 0.219411
O O9 0.090484 0.500000 0.956287
O O10 0.075646 0.250770 0.087637
O O11 0.750067 0.750655 0.724280
O O12 0.804578 0.802330 0.552417
O O13 0.778656 0.000000 0.734722
O O14 0.722244 0.500000 0.677901
O O15 0.945147 0.000000 0.828599
O O16 0.000000 0.826615 0.000000
#
# Coordination Sequence:
#
# PCOD8096857 Si02
#       6
#     8   8   8   8   8   8
#     4  10  20  34  51  73 107 141 169 212 263 309
#     4   9  18  34  54  75 102 133 169 214 259 306
#     4  10  20  34  52  74 101 135 171 210 259 311
#     4   9  18  33  53  76 102 134 173 212 257 308
#     4   9  18  33  53  76 102 134 172 213 257 305
#     4   9  17  31  52  74  97 127 166 207 248 302
#
# _framework density 18.406527000000001
#
# number of rings (size 3 to 8) (size 9 to 14) (size 15 to 20)
#    0.000    2.667    0.000    1.500    0.000    4.333 
#    3.000    0.000    0.000    0.000    0.000    0.000 
#    0.000    0.000    0.000    0.000    0.000    0.000 
#
# Total GULP energy -297414.095405 kJ/mol
# GULP energy per Si atom -12392.253975 kJ/mol
# Density = 1.836463 g / cm^3
# Si number density = 18.406527 Si / 1000 Ang^3
#
#
#
# Elastic Constant Matrix: (Units=GPa)
#
#
# Indices 1 2 3 4 5 6 
#
# 1 108.5443 64.3729 55.7811 0.0000 -23.8600 0.0000
# 2 64.3729 96.7273 43.0578 0.0000 -18.1429 0.0000
# 3 55.7811 43.0578 101.4059 0.0000 -17.8592 0.0000
# 4 0.0000 0.0000 0.0000 17.7369 0.0000 -5.4188
# 5 -23.8600 -18.1429 -17.8592 0.0000 23.4329 0.0000
# 6 0.0000 0.0000 0.0000 -5.4188 0.0000 37.2386
#
#
#
# Elastic Compliance Matrix: (Units=1/GPa)
#
#
# Indices 1 2 3 4 5 6 
#
# 1 0.018913 -0.008655 -0.005218 0.000000 0.008580 0.000000
# 2 -0.008655 0.017669 -0.002176 0.000000 0.003209 0.000000
# 3 -0.005218 -0.002176 0.014349 0.000000 0.003938 0.000000
# 4 0.000000 0.000000 0.000000 0.059003 0.000000 0.008586
# 5 0.008580 0.003209 0.003938 0.000000 0.056898 0.000000
# 6 0.000000 0.000000 0.000000 0.008586 0.000000 0.028103
#
#
# Mechanical properties :
#
#
# Convention : Reuss Voigt Hill
#
# Bulk Modulus (GPa) = 53.09714 70.34459 61.72087
# Shear Modulus (GPa) = 21.43072 25.24607 23.33840
#
# Velocity S-wave (km/s) = 3.41589 3.70751 3.56468
# Velocity P-wave (km/s) = 6.66838 7.52513 7.10967
#
# Compressibility (1/GPa) = 0.01883340
#
# Stress axis : x y z
#
# Youngs Moduli (GPa) = 52.87350 56.59658 69.69041
#
# Poissons Ratio (x) = 0.48983 0.36362
# Poissons Ratio (y) = 0.45761 0.15168
# Poissons Ratio (z) = 0.27587 0.12318
#
# Static dielectric constant tensor:
#      x y z
#    x 3.186410 0.000000 -0.162260 
#    y 0.000000 3.488120 0.000000 
#    z -0.162260 0.000000 3.477990 
# 
# 
# High freq. dielectric constant tensor:
#      x y z
#    x 1.696690 0.000000 -0.015910 
#    y 0.000000 1.721340 0.000000 
#    z -0.015910 0.000000 1.709420 
# 
# From -- ./inp_files/108650.got.cif
#   From: 2010.06.25/outbox.cif.g09.slc.cpg/sg12_55_cif.got.tgz:108650.got - 2010.06.28 00:19:55.
