data_PCOD8096675
_publ_section_title
;
Structure prediction by ZEFSAII (Michael W. Deem and Ramdas Pophale) SiO2 
 PCOD8096675
Probable space group: C 2/M
;
_chemical_formula_sum "Si O2"
_cell_formula_units_Z 56
_cell_length_a 22.681580
_cell_length_b 7.680994
_cell_length_c 16.050269
_cell_angle_alpha 90.000000
_cell_angle_beta 92.898655
_cell_angle_gamma 90.000000
_cell_volume 2792.653344
_symmetry_space_group_name_H-M "C 2/M"
_symmetry_group_IT_number 12
_symmetry_cell_setting 'monoclinic'
loop_
_space_group_symop_operation_xyz
x,y,z
-x,y,-z
-x,-y,-z
x,-y,z
1/2+x,1/2+y,z
1/2-x,1/2+y,-z
1/2-x,1/2-y,-z
1/2+x,1/2-y,z
loop_
_atom_site_type_symbol
_atom_site_label
_atom_site_fract_x
_atom_site_fract_y
_atom_site_fract_z
Si Si1 0.770524 0.697582 0.884124
Si Si2 0.470916 0.302725 0.746966
Si Si3 0.313569 0.702912 0.539371
Si Si4 0.494000 0.000000 0.364150
Si Si5 0.099002 0.500000 0.501163
Si Si6 0.158723 0.302464 0.956873
Si Si7 0.969096 0.703617 0.084644
Si Si8 0.162863 0.798483 0.269944
O O1 0.759163 0.500000 0.909881
O O2 0.706850 0.791022 0.885974
O O3 0.795518 0.703120 0.793097
O O4 0.815259 0.782390 0.955739
O O5 0.472930 0.500000 0.710748
O O6 0.508680 0.174719 0.691367
O O7 0.496022 0.305624 0.841668
O O8 0.403961 0.230931 0.743411
O O9 0.329470 0.500000 0.524163
O O10 0.250000 0.750000 0.500000
O O11 0.361892 0.824873 0.498857
O O12 0.312435 0.744861 0.637279
O O13 0.553096 0.000000 0.422632
O O14 0.434865 0.000000 0.414059
O O15 0.141819 0.500000 0.975779
O O16 0.097155 0.215837 0.924449
O O17 0.970390 0.500000 0.107440
O O18 0.000000 0.743439 0.000000
O O19 0.165873 0.000000 0.248691
#
# Coordination Sequence:
#
# PCOD8096675 Si02
#       8
#     8   8   8   4   4   8   8   8
#     4  10  20  33  58  84 111 157 200 245 302 362
#     4  11  23  40  63  92 127 164 212 265 306 376
#     4  11  23  42  67  97 130 162 208 264 317 387
#     4  11  24  44  69  96 130 172 211 262 329 389
#     4  11  24  44  72  98 126 171 212 262 330 394
#     4   9  19  36  52  79 120 156 198 249 300 358
#     4  10  20  36  60  87 120 167 212 257 310 362
#     4  10  22  38  59  89 117 151 199 250 305 364
#
# _framework density 20.052613000000001
#
# number of rings (size 3 to 8) (size 9 to 14) (size 15 to 20)
#    0.000    1.714    2.857    1.286    2.000    3.143 
#    2.571    1.429    0.000    0.000    0.000    0.000 
#    0.000    0.000    0.000    0.000    0.000    0.000 
#
# Total GULP energy -347226.953965 kJ/mol
# GULP energy per Si atom -12400.962642 kJ/mol
# Density = 2.000697 g / cm^3
# Si number density = 20.052613 Si / 1000 Ang^3
#
#
#
# Elastic Constant Matrix: (Units=GPa)
#
#
# Indices 1 2 3 4 5 6 
#
# 1 145.4026 37.1349 77.5475 0.0000 4.4005 0.0000
# 2 37.1349 86.4146 37.1142 0.0000 -9.8565 0.0000
# 3 77.5475 37.1142 125.3728 0.0000 -3.9831 0.0000
# 4 0.0000 0.0000 0.0000 24.1883 0.0000 -1.3803
# 5 4.4005 -9.8565 -3.9831 0.0000 38.8781 0.0000
# 6 0.0000 0.0000 0.0000 -1.3803 0.0000 27.9504
#
#
#
# Elastic Compliance Matrix: (Units=1/GPa)
#
#
# Indices 1 2 3 4 5 6 
#
# 1 0.010769 -0.002303 -0.006056 0.000000 -0.002423 0.000000
# 2 -0.002303 0.014101 -0.002636 0.000000 0.003565 0.000000
# 3 -0.006056 -0.002636 0.012544 0.000000 0.001302 0.000000
# 4 0.000000 0.000000 0.000000 0.041459 0.000000 0.002047
# 5 -0.002423 0.003565 0.001302 0.000000 0.027033 0.000000
# 6 0.000000 0.000000 0.000000 0.002047 0.000000 0.035879
#
#
# Mechanical properties :
#
#
# Convention : Reuss Voigt Hill
#
# Bulk Modulus (GPa) = 64.84097 73.42036 69.13066
# Shear Modulus (GPa) = 29.60036 31.89626 30.74831
#
# Velocity S-wave (km/s) = 3.84622 3.99260 3.92009
# Velocity P-wave (km/s) = 7.22012 7.61234 7.41882
#
# Compressibility (1/GPa) = 0.01542235
#
# Stress axis : x y z
#
# Youngs Moduli (GPa) = 92.85989 70.91782 79.71928
#
# Poissons Ratio (x) = 0.16333 0.48279
# Poissons Ratio (y) = 0.21386 0.21018
# Poissons Ratio (z) = 0.56237 0.18697
#
# Static dielectric constant tensor:
#      x y z
#    x 3.711920 0.000000 0.114420 
#    y 0.000000 3.614560 0.000000 
#    z 0.114420 0.000000 3.519240 
# 
# 
# High freq. dielectric constant tensor:
#      x y z
#    x 1.785490 0.000000 0.005840 
#    y 0.000000 1.783760 0.000000 
#    z 0.005840 0.000000 1.773560 
# 
# From -- ./inp_files/231107.got.cif
#   From: 2010.06.25/outbox.cif.g09.slc.cpg/sg12_116_cif.got.tgz:231107.got - 2010.06.28 00:19:55.
