data_PCOD8096630
_publ_section_title
;
Structure prediction by ZEFSAII (Michael W. Deem and Ramdas Pophale) SiO2 
 PCOD8096630
Probable space group: C 2/M
;
_chemical_formula_sum "Si O2"
_cell_formula_units_Z 56
_cell_length_a 17.625023
_cell_length_b 13.826382
_cell_length_c 15.132477
_cell_angle_alpha 90.000000
_cell_angle_beta 132.031292
_cell_angle_gamma 90.000000
_cell_volume 2739.100966
_symmetry_space_group_name_H-M "C 2/M"
_symmetry_group_IT_number 12
_symmetry_cell_setting 'monoclinic'
loop_
_space_group_symop_operation_xyz
x,y,z
-x,y,-z
-x,-y,-z
x,-y,z
1/2+x,1/2+y,z
1/2-x,1/2+y,-z
1/2-x,1/2-y,-z
1/2+x,1/2-y,z
loop_
_atom_site_type_symbol
_atom_site_label
_atom_site_fract_x
_atom_site_fract_y
_atom_site_fract_z
Si Si1 0.531091 0.110088 0.432288
Si Si2 0.317748 0.717999 0.843638
Si Si3 0.352312 0.884741 0.172799
Si Si4 0.238568 0.638758 0.502077
Si Si5 0.580713 0.606921 0.234370
Si Si6 0.161928 0.607098 0.251540
Si Si7 0.452154 0.782111 0.103872
O O1 0.500000 0.163571 0.500000
O O2 0.461295 0.148443 0.298269
O O3 0.650066 0.119176 0.504481
O O4 0.497801 0.000000 0.417396
O O5 0.234547 0.664373 0.837017
O O6 0.356975 0.641179 0.802892
O O7 0.276157 0.814460 0.759776
O O8 0.412187 0.752810 0.976582
O O9 0.358101 0.834467 0.081224
O O10 0.334195 0.000000 0.151154
O O11 0.250000 0.750000 0.500000
O O12 0.343716 0.597452 0.622739
O O13 0.212539 0.593355 0.387336
O O14 0.534275 0.500000 0.180997
O O15 0.490078 0.683513 0.182660
O O16 0.163315 0.500000 0.208655
O O17 0.045556 0.643038 0.169158
#
# Coordination Sequence:
#
# PCOD8096630 Si02
#       7
#     8   8   8   8   8   8   8
#     4  10  20  33  56  88 116 146 192 244 295 351
#     4  11  24  39  59  89 122 158 206 248 298 358
#     4  11  22  40  62  86 120 158 200 253 303 350
#     4  12  20  37  61  91 123 156 195 248 305 358
#     4  11  22  38  62  90 123 159 198 248 305 359
#     4  11  22  39  62  88 122 159 202 252 301 357
#     4  11  23  40  60  89 121 158 206 249 297 359
#
# _framework density 20.444665000000001
#
# number of rings (size 3 to 8) (size 9 to 14) (size 15 to 20)
#    0.000    1.000    4.286    5.143    0.000    4.571 
#    0.000    0.714    0.000    0.000    0.000    3.000 
#    0.000    0.000    0.000    0.000    0.000    0.000 
#
# Total GULP energy -347037.580049 kJ/mol
# GULP energy per Si atom -12394.199287 kJ/mol
# Density = 2.039813 g / cm^3
# Si number density = 20.444665 Si / 1000 Ang^3
#
#
#
# Elastic Constant Matrix: (Units=GPa)
#
#
# Indices 1 2 3 4 5 6 
#
# 1 78.4224 42.1274 16.7255 0.0000 -4.0446 0.0000
# 2 42.1274 161.7350 21.0883 0.0000 -2.9249 0.0000
# 3 16.7255 21.0883 104.3856 0.0000 -9.1123 0.0000
# 4 0.0000 0.0000 0.0000 10.5583 0.0000 -28.3253
# 5 -4.0446 -2.9249 -9.1123 0.0000 14.6908 0.0000
# 6 0.0000 0.0000 0.0000 -28.3253 0.0000 -410.6550
#
#
#
# Elastic Compliance Matrix: (Units=1/GPa)
#
#
# Indices 1 2 3 4 5 6 
#
# 1 0.015193 -0.003721 -0.001461 0.000000 0.002536 0.000000
# 2 -0.003721 0.007265 -0.000882 0.000000 -0.000125 0.000000
# 3 -0.001461 -0.000882 0.010511 0.000000 0.005942 0.000000
# 4 0.000000 0.000000 0.000000 0.079923 0.000000 -0.005513
# 5 0.002536 -0.000125 0.005942 0.000000 0.072428 0.000000
# 6 0.000000 0.000000 0.000000 -0.005513 0.000000 -0.002055
#
#
# Mechanical properties :
#
#
# Convention : Reuss Voigt Hill
#
# Bulk Modulus (GPa) = 47.98596 56.04729 52.01663
# Shear Modulus (GPa) = 24.71081 -59.44106 -17.36513
#
# Velocity S-wave (km/s) = 3.48036 -5.39789 -2.91756
# Velocity P-wave (km/s) = 6.29862 3.37283 3.76143
#
# Compressibility (1/GPa) = 0.02083943
#
# Stress axis : x y z
#
# Youngs Moduli (GPa) = 65.82118 137.64759 95.13887
#
# Poissons Ratio (x) = 0.51217 0.13902
# Poissons Ratio (y) = 0.24491 0.08395
# Poissons Ratio (z) = 0.09618 0.12147
#
# Static dielectric constant tensor:
#      x y z
#    x 3.494400 0.000000 -0.460920 
#    y 0.000000 3.842370 0.000000 
#    z -0.460920 0.000000 5.480630 
# 
# 
# High freq. dielectric constant tensor:
#      x y z
#    x 1.775720 0.000000 -0.012410 
#    y 0.000000 1.805010 0.000000 
#    z -0.012410 0.000000 1.806900 
# 
# From -- ./inp_files/225387.got.cif
#   From: 2010.06.25/outbox.cif.g09.slc.cpg/sg12_113_cif.got.tgz:225387.got - 2010.06.28 00:19:55.
