data_PCOD8096308
_publ_section_title
;
Structure prediction by ZEFSAII (Michael W. Deem and Ramdas Pophale) SiO2 
 PCOD8096308
Probable space group: C 2/M
;
_chemical_formula_sum "Si O2"
_cell_formula_units_Z 48
_cell_length_a 30.314401
_cell_length_b 8.535686
_cell_length_c 17.975508
_cell_angle_alpha 90.000000
_cell_angle_beta 148.088553
_cell_angle_gamma 90.000000
_cell_volume 2458.681510
_symmetry_space_group_name_H-M "C 2/M"
_symmetry_group_IT_number 12
_symmetry_cell_setting 'monoclinic'
loop_
_space_group_symop_operation_xyz
x,y,z
-x,y,-z
-x,-y,-z
x,-y,z
1/2+x,1/2+y,z
1/2-x,1/2+y,-z
1/2-x,1/2-y,-z
1/2+x,1/2-y,z
loop_
_atom_site_type_symbol
_atom_site_label
_atom_site_fract_x
_atom_site_fract_y
_atom_site_fract_z
Si Si1 0.924734 0.184909 0.843471
Si Si2 0.001490 0.817569 0.349621
Si Si3 0.749288 0.185144 0.645747
Si Si4 0.848572 0.682650 0.353272
Si Si5 0.414192 0.183352 0.669686
Si Si6 0.828996 0.316212 0.155724
O O1 0.837723 0.260373 0.748581
O O2 0.941252 0.225693 0.781839
O O3 0.921729 0.000000 0.848760
O O4 0.000000 0.256051 0.000000
O O5 0.909264 0.775410 0.242797
O O6 0.065811 0.774368 0.507546
O O7 0.020991 0.721745 0.302776
O O8 0.007385 0.000000 0.340055
O O9 0.723783 0.237260 0.692841
O O10 0.677875 0.242379 0.486402
O O11 0.755937 0.000000 0.651529
O O12 0.869093 0.500000 0.394132
O O13 0.816232 0.719329 0.224726
O O14 0.415496 0.000000 0.687886
O O15 0.839656 0.500000 0.155908
O O16 0.750000 0.250000 0.000000
#
# Coordination Sequence:
#
# PCOD8096308 Si02
#       6
#     8   8   8   8   8   8
#     4  10  20  33  52  80 113 146 180 222 274 333
#     4  11  22  37  59  84 110 142 186 237 285 334
#     4   8  16  33  55  78 104 138 180 223 269 321
#     4   9  19  37  59  81 109 147 188 231 279 330
#     4  10  20  36  57  78 105 142 185 231 277 329
#     4  11  23  38  57  83 117 153 187 225 274 332
#
# _framework density 19.522659999999998
#
# number of rings (size 3 to 8) (size 9 to 14) (size 15 to 20)
#    0.000    2.167    0.000    4.500    0.000    5.000 
#    0.000    6.667    0.000    0.000    0.000    0.000 
#    0.000    0.000    0.000    0.000    0.000    0.000 
#
# Total GULP energy -297634.940558 kJ/mol
# GULP energy per Si atom -12401.455857 kJ/mol
# Density = 1.947823 g / cm^3
# Si number density = 19.522660 Si / 1000 Ang^3
#
#
#
# Elastic Constant Matrix: (Units=GPa)
#
#
# Indices 1 2 3 4 5 6 
#
# 1 97.9926 13.1113 62.4254 0.0000 -14.4445 0.0000
# 2 13.1113 31.1857 26.0782 0.0000 4.8968 0.0000
# 3 62.4254 26.0782 116.1878 0.0000 -23.1917 0.0000
# 4 0.0000 0.0000 0.0000 25.9455 0.0000 -2.6150
# 5 -14.4445 4.8968 -23.1917 0.0000 22.2628 0.0000
# 6 0.0000 0.0000 0.0000 -2.6150 0.0000 26.7445
#
#
#
# Elastic Compliance Matrix: (Units=1/GPa)
#
#
# Indices 1 2 3 4 5 6 
#
# 1 0.015570 -0.000189 -0.007952 0.000000 0.001860 0.000000
# 2 -0.000189 0.051166 -0.017238 0.000000 -0.029334 0.000000
# 3 -0.007952 -0.017238 0.020800 0.000000 0.020300 0.000000
# 4 0.000000 0.000000 0.000000 0.038926 0.000000 0.003806
# 5 0.001860 -0.029334 0.020300 0.000000 0.073724 0.000000
# 6 0.000000 0.000000 0.000000 0.003806 0.000000 0.037763
#
#
# Mechanical properties :
#
#
# Convention : Reuss Voigt Hill
#
# Bulk Modulus (GPa) = 27.18911 49.84398 38.51654
# Shear Modulus (GPa) = 16.61314 24.57396 20.59355
#
# Velocity S-wave (km/s) = 2.92030 3.55172 3.25137
# Velocity P-wave (km/s) = 5.03270 6.51202 5.81956
#
# Compressibility (1/GPa) = 0.03677943
#
# Stress axis : x y z
#
# Youngs Moduli (GPa) = 64.22655 19.54416 48.07625
#
# Poissons Ratio (x) = 0.00368 0.38229
# Poissons Ratio (y) = 0.01211 0.82874
# Poissons Ratio (z) = 0.51072 0.33690
#
# Static dielectric constant tensor:
#      x y z
#    x 3.772800 0.000000 0.097090 
#    y 0.000000 3.392670 0.000000 
#    z 0.097090 0.000000 3.697330 
# 
# 
# High freq. dielectric constant tensor:
#      x y z
#    x 1.772310 0.000000 -0.000550 
#    y 0.000000 1.743420 0.000000 
#    z -0.000550 0.000000 1.757400 
# 
# From -- ./inp_files/274026.got.cif
#   From: 2010.06.25/outbox.cif.g09.slc.cpg/sg12_138_cif.got.tgz:274026.got - 2010.06.28 00:19:55.
