data_PCOD8096312
_publ_section_title
;
Structure prediction by ZEFSAII (Michael W. Deem and Ramdas Pophale) SiO2 
 PCOD8096312
Probable space group: C 2/M
;
_chemical_formula_sum "Si O2"
_cell_formula_units_Z 64
_cell_length_a 22.362736
_cell_length_b 14.472661
_cell_length_c 9.596866
_cell_angle_alpha 90.000000
_cell_angle_beta 87.814642
_cell_angle_gamma 90.000000
_cell_volume 3103.750319
_symmetry_space_group_name_H-M "C 2/M"
_symmetry_group_IT_number 12
_symmetry_cell_setting 'monoclinic'
loop_
_space_group_symop_operation_xyz
x,y,z
-x,y,-z
-x,-y,-z
x,-y,z
1/2+x,1/2+y,z
1/2-x,1/2+y,-z
1/2-x,1/2-y,-z
1/2+x,1/2-y,z
loop_
_atom_site_type_symbol
_atom_site_label
_atom_site_fract_x
_atom_site_fract_y
_atom_site_fract_z
Si Si1 0.268319 0.344342 0.064181
Si Si2 0.241156 0.393102 0.367255
Si Si3 0.147843 0.894023 0.476253
Si Si4 0.110450 0.601811 0.325816
Si Si5 0.395835 0.295067 0.024962
Si Si6 0.551272 0.607953 0.721258
Si Si7 0.565385 0.289912 0.290321
Si Si8 0.148053 0.402102 0.003048
O O1 0.261320 0.335913 0.230951
O O2 0.337776 0.362659 0.020289
O O3 0.220573 0.413962 0.998487
O O4 0.250000 0.250000 0.000000
O O5 0.253981 0.500000 0.329537
O O6 0.283889 0.364021 0.492901
O O7 0.170982 0.378623 0.411013
O O8 0.107001 0.876430 0.615467
O O9 0.125590 0.834036 0.348520
O O10 0.144521 0.000000 0.430203
O O11 0.083818 0.500000 0.366823
O O12 0.062112 0.684019 0.350052
O O13 0.129354 0.605134 0.164494
O O14 0.439415 0.336881 0.136280
O O15 0.430566 0.293601 0.876674
O O16 0.376977 0.189464 0.072044
O O17 0.539647 0.500000 0.752116
O O18 0.492401 0.652670 0.654829
O O19 0.123409 0.500000 0.940614
#
# Coordination Sequence:
#
# PCOD8096312 Si02
#       8
#     8   8   8   8   8   8   8   8
#     4   9  15  26  48  78 107 135 171 210 255 313
#     4   9  16  31  55  79 102 138 182 214 255 323
#     4  10  21  37  57  78 103 141 183 217 260 322
#     4   8  16  32  54  79 107 138 175 215 263 321
#     4  10  20  33  52  81 108 136 178 223 271 315
#     4  11  23  39  56  74 105 148 183 215 262 325
#     4  11  22  35  53  81 110 139 177 227 268 304
#     4   8  15  29  51  77 108 140 172 215 261 315
#
# _framework density 20.620215999999999
#
# number of rings (size 3 to 8) (size 9 to 14) (size 15 to 20)
#    0.000    2.500    1.250    3.000    0.000    3.500 
#    0.000    0.625    0.000    5.250    0.000    0.000 
#    0.000    0.000    0.000    0.000    0.000    0.000 
#
# Total GULP energy -396452.468937 kJ/mol
# GULP energy per Si atom -12389.139654 kJ/mol
# Density = 2.057328 g / cm^3
# Si number density = 20.620216 Si / 1000 Ang^3
#
#
#
# Elastic Constant Matrix: (Units=GPa)
#
#
# Indices 1 2 3 4 5 6 
#
# 1 67.4763 40.6081 7.0537 0.0000 16.1776 0.0000
# 2 40.6081 126.6594 23.9781 0.0000 15.9674 0.0000
# 3 7.0537 23.9781 38.8120 0.0000 17.0551 0.0000
# 4 0.0000 0.0000 0.0000 17.6034 0.0000 6.4000
# 5 16.1776 15.9674 17.0551 0.0000 24.4494 0.0000
# 6 0.0000 0.0000 0.0000 6.4000 0.0000 28.7389
#
#
#
# Elastic Compliance Matrix: (Units=1/GPa)
#
#
# Indices 1 2 3 4 5 6 
#
# 1 0.021381 -0.006226 0.006331 0.000000 -0.014498 0.000000
# 2 -0.006226 0.010895 -0.006176 0.000000 0.001313 0.000000
# 3 0.006331 -0.006176 0.041096 0.000000 -0.028823 0.000000
# 4 0.000000 0.000000 0.000000 0.061812 0.000000 -0.013765
# 5 -0.014498 0.001313 -0.028823 0.000000 0.069742 0.000000
# 6 0.000000 0.000000 0.000000 -0.013765 0.000000 0.037861
#
#
# Mechanical properties :
#
#
# Convention : Reuss Voigt Hill
#
# Bulk Modulus (GPa) = 16.33185 41.80307 29.06746
# Shear Modulus (GPa) = 18.15947 24.91220 21.53584
#
# Velocity S-wave (km/s) = 2.97082 3.47961 3.23523
# Velocity P-wave (km/s) = 4.43905 6.03825 5.29932
#
# Compressibility (1/GPa) = 0.06123004
#
# Stress axis : x y z
#
# Youngs Moduli (GPa) = 46.77094 91.78518 24.33343
#
# Poissons Ratio (x) = 0.57144 -0.15406
# Poissons Ratio (y) = 0.29119 0.15029
# Poissons Ratio (z) = -0.29612 0.56689
#
# Static dielectric constant tensor:
#      x y z
#    x 2.947890 0.000000 0.316940 
#    y 0.000000 4.666490 0.000000 
#    z 0.316940 0.000000 3.277890 
# 
# 
# High freq. dielectric constant tensor:
#      x y z
#    x 1.798180 0.000000 0.018910 
#    y 0.000000 1.812340 0.000000 
#    z 0.018910 0.000000 1.765850 
# 
# From -- ./inp_files/96919.got.cif
#   From: 2010.06.25/outbox.cif.g09.slc.cpg/sg12_49_cif.got.tgz:96919.got - 2010.06.28 00:19:55.
