data_PCOD8096053
_publ_section_title
;
Structure prediction by ZEFSAII (Michael W. Deem and Ramdas Pophale) SiO2 
 PCOD8096053
Probable space group: C 2/M
;
_chemical_formula_sum "Si O2"
_cell_formula_units_Z 56
_cell_length_a 23.302775
_cell_length_b 9.293725
_cell_length_c 14.599068
_cell_angle_alpha 90.000000
_cell_angle_beta 109.138267
_cell_angle_gamma 90.000000
_cell_volume 2986.966624
_symmetry_space_group_name_H-M "C 2/M"
_symmetry_group_IT_number 12
_symmetry_cell_setting 'monoclinic'
loop_
_space_group_symop_operation_xyz
x,y,z
-x,y,-z
-x,-y,-z
x,-y,z
1/2+x,1/2+y,z
1/2-x,1/2+y,-z
1/2-x,1/2-y,-z
1/2+x,1/2-y,z
loop_
_atom_site_type_symbol
_atom_site_label
_atom_site_fract_x
_atom_site_fract_y
_atom_site_fract_z
Si Si1 0.072351 0.834827 0.688300
Si Si2 0.175583 0.832680 0.881148
Si Si3 0.758406 0.335672 0.412284
Si Si4 0.061826 0.836114 0.335972
Si Si5 0.603498 0.834458 0.531946
Si Si6 0.847963 0.832609 0.774444
Si Si7 0.814797 0.667821 0.930942
O O1 0.128175 0.780847 0.779389
O O2 0.066133 0.743457 0.592337
O O3 0.010240 0.813370 0.712347
O O4 0.082112 0.000000 0.664694
O O5 0.243151 0.803148 0.879194
O O6 0.166225 0.000000 0.900958
O O7 0.162234 0.739130 0.963596
O O8 0.743729 0.500000 0.428788
O O9 0.750000 0.250000 0.500000
O O10 0.825617 0.315988 0.407623
O O11 0.711261 0.279584 0.312048
O O12 0.089864 0.733041 0.426688
O O13 0.092046 0.800671 0.254059
O O14 0.077123 0.000000 0.372660
O O15 0.583615 0.000000 0.518905
O O16 0.852323 0.739055 0.868287
O O17 0.842731 0.000000 0.798485
O O18 0.829911 0.500000 0.942624
#
# Coordination Sequence:
#
# PCOD8096053 Si02
#       7
#     8   8   8   8   8   8   8
#     4  10  21  37  57  78 102 140 186 224 260 310
#     4   9  19  37  58  81 107 134 171 220 266 312
#     4  10  20  33  51  76 106 139 175 215 261 310
#     4  10  21  37  55  75 104 145 188 221 255 310
#     4  11  22  34  52  80 110 142 178 221 273 318
#     4  10  20  35  54  77 107 142 177 217 263 310
#     4  10  20  34  57  85 108 134 168 213 271 327
#
# _framework density 18.748117000000001
#
# number of rings (size 3 to 8) (size 9 to 14) (size 15 to 20)
#    0.000    2.000    1.429    2.143    0.000    5.143 
#    0.000    0.714    0.000    4.286    0.000    0.000 
#    0.000    0.000    0.000    0.000    0.000    0.000 
#
# Total GULP energy -347320.617721 kJ/mol
# GULP energy per Si atom -12404.307776 kJ/mol
# Density = 1.870545 g / cm^3
# Si number density = 18.748117 Si / 1000 Ang^3
#
#
#
# Elastic Constant Matrix: (Units=GPa)
#
#
# Indices 1 2 3 4 5 6 
#
# 1 81.6846 36.7839 31.7772 0.0000 -17.3265 0.0000
# 2 36.7839 87.9139 52.7320 0.0000 -19.0747 0.0000
# 3 31.7772 52.7320 84.3082 0.0000 -22.7969 0.0000
# 4 0.0000 0.0000 0.0000 34.1920 0.0000 -5.3777
# 5 -17.3265 -19.0747 -22.7969 0.0000 32.3496 0.0000
# 6 0.0000 0.0000 0.0000 -5.3777 0.0000 24.7151
#
#
#
# Elastic Compliance Matrix: (Units=1/GPa)
#
#
# Indices 1 2 3 4 5 6 
#
# 1 0.016010 -0.004533 -0.001981 0.000000 0.004506 0.000000
# 2 -0.004533 0.019786 -0.010092 0.000000 0.002127 0.000000
# 3 -0.001981 -0.010092 0.021032 0.000000 0.007810 0.000000
# 4 0.000000 0.000000 0.000000 0.030283 0.000000 0.006589
# 5 0.004506 0.002127 0.007810 0.000000 0.040084 0.000000
# 6 0.000000 0.000000 0.000000 0.006589 0.000000 0.041895
#
#
# Mechanical properties :
#
#
# Convention : Reuss Voigt Hill
#
# Bulk Modulus (GPa) = 42.34288 55.16590 48.75439
# Shear Modulus (GPa) = 23.79002 27.09225 25.44114
#
# Velocity S-wave (km/s) = 3.56607 3.80553 3.68774
# Velocity P-wave (km/s) = 6.29205 6.98556 6.64786
#
# Compressibility (1/GPa) = 0.02361672
#
# Stress axis : x y z
#
# Youngs Moduli (GPa) = 62.46165 50.54049 47.54736
#
# Poissons Ratio (x) = 0.22909 0.09418
# Poissons Ratio (y) = 0.28313 0.47984
# Poissons Ratio (z) = 0.12372 0.51005
#
# Static dielectric constant tensor:
#      x y z
#    x 3.543030 0.000000 0.040420 
#    y 0.000000 3.449360 0.000000 
#    z 0.040420 0.000000 3.294150 
# 
# 
# High freq. dielectric constant tensor:
#      x y z
#    x 1.730430 0.000000 -0.004210 
#    y 0.000000 1.727500 0.000000 
#    z -0.004210 0.000000 1.716890 
# 
# From -- ./inp_files/237350.got.cif
#   From: 2010.06.25/outbox.cif.g09.slc.cpg/sg12_119_cif.got.tgz:237350.got - 2010.06.28 00:19:55.
