data_PCOD8096969
_publ_section_title
;
Structure prediction by ZEFSAII (Michael W. Deem and Ramdas Pophale) SiO2 
 PCOD8096969
Probable space group: C 2/M
;
_chemical_formula_sum "Si O2"
_cell_formula_units_Z 40
_cell_length_a 18.144391
_cell_length_b 9.439328
_cell_length_c 22.173141
_cell_angle_alpha 90.000000
_cell_angle_beta 34.505205
_cell_angle_gamma 90.000000
_cell_volume 2151.275931
_symmetry_space_group_name_H-M "C 2/M"
_symmetry_group_IT_number 12
_symmetry_cell_setting 'monoclinic'
loop_
_space_group_symop_operation_xyz
x,y,z
-x,y,-z
-x,-y,-z
x,-y,z
1/2+x,1/2+y,z
1/2-x,1/2+y,-z
1/2-x,1/2-y,-z
1/2+x,1/2-y,z
loop_
_atom_site_type_symbol
_atom_site_label
_atom_site_fract_x
_atom_site_fract_y
_atom_site_fract_z
Si Si1 0.702783 0.167629 0.869119
Si Si2 0.004500 0.167110 0.331312
Si Si3 0.392976 0.662814 0.278022
Si Si4 0.988714 0.667610 0.104711
Si Si5 0.905007 0.664012 0.510627
O O1 0.848661 0.228006 0.772458
O O2 0.630706 0.219044 0.857026
O O3 0.704371 0.000000 0.868005
O O4 0.623076 0.216500 0.982155
O O5 0.928627 0.206618 0.321804
O O6 0.930354 0.242863 0.435119
O O7 0.003775 0.000000 0.344387
O O8 0.429360 0.500000 0.241901
O O9 0.479300 0.756113 0.175026
O O10 0.241319 0.691933 0.368691
O O11 0.984815 0.500000 0.117768
O O12 0.927140 0.500000 0.478982
O O13 0.000000 0.713293 0.500000
#
# Coordination Sequence:
#
# PCOD8096969 Si02
#       5
#     8   8   8   8   8
#     4   8  16  32  52  74  98 125 162 205 240 275
#     4  10  20  34  52  73  99 129 161 199 241 287
#     4  10  21  34  48  72 104 130 156 199 248 286
#     4   9  17  32  54  74  95 128 166 199 235 285
#     4  10  21  36  52  71  98 129 161 201 245 286
#
# _framework density 18.593615
#
# number of rings (size 3 to 8) (size 9 to 14) (size 15 to 20)
#    0.000    2.600    0.000    3.000    0.000    2.800 
#    0.000    3.000    0.000    0.000    0.000    0.000 
#    0.000    0.000    0.000    0.000    0.000    0.000 
#
# Total GULP energy -248016.684497 kJ/mol
# GULP energy per Si atom -12400.834225 kJ/mol
# Density = 1.855130 g / cm^3
# Si number density = 18.593615 Si / 1000 Ang^3
#
#
#
# Elastic Constant Matrix: (Units=GPa)
#
#
# Indices 1 2 3 4 5 6 
#
# 1 66.1901 23.8772 18.5402 -0.0002 15.0593 0.0000
# 2 23.8772 43.3930 35.0415 -0.0001 19.6136 0.0000
# 3 18.5402 35.0415 77.2977 -0.0004 23.3899 0.0001
# 4 -0.0002 -0.0001 -0.0004 21.0367 0.0001 0.9649
# 5 15.0593 19.6136 23.3899 0.0001 37.1485 0.0000
# 6 0.0000 0.0000 0.0001 0.9649 0.0000 15.2512
#
#
#
# Elastic Compliance Matrix: (Units=1/GPa)
#
#
# Indices 1 2 3 4 5 6 
#
# 1 0.019109 -0.009737 0.000765 0.000000 -0.003087 0.000000
# 2 -0.009737 0.045272 -0.015009 0.000000 -0.010505 0.000000
# 3 0.000765 -0.015009 0.021314 0.000000 -0.005806 0.000000
# 4 0.000000 0.000000 0.000000 0.047674 0.000000 -0.003016
# 5 -0.003087 -0.010505 -0.005806 0.000000 0.037373 0.000000
# 6 0.000000 0.000000 0.000000 -0.003016 0.000000 0.065760
#
#
# Mechanical properties :
#
#
# Convention : Reuss Voigt Hill
#
# Bulk Modulus (GPa) = 26.50217 37.97764 32.23990
# Shear Modulus (GPa) = 16.83273 21.98204 19.40738
#
# Velocity S-wave (km/s) = 3.01208 3.44210 3.23424
# Velocity P-wave (km/s) = 5.13626 6.02219 5.59678
#
# Compressibility (1/GPa) = 0.03773276
#
# Stress axis : x y z
#
# Youngs Moduli (GPa) = 52.33255 22.08893 46.91672
#
# Poissons Ratio (x) = 0.21508 -0.03589
# Poissons Ratio (y) = 0.50956 0.70416
# Poissons Ratio (z) = -0.04003 0.33153
#
# Static dielectric constant tensor:
#      x y z
#    x 3.590140 0.000000 -0.241920 
#    y 0.000000 3.103310 0.000000 
#    z -0.241920 0.000000 3.514030 
# 
# 
# High freq. dielectric constant tensor:
#      x y z
#    x 1.727450 0.000000 -0.003230 
#    y 0.000000 1.692750 0.000000 
#    z -0.003230 0.000000 1.730490 
# 
# From -- ./inp_files/71417.got.cif
#   From: 2010.06.25/outbox.cif.g09.slc.cpg/sg12_36_cif.got.tgz:71417.got - 2010.06.28 00:19:55.
