data_PCOD8096333
_publ_section_title
;
Structure prediction by ZEFSAII (Michael W. Deem and Ramdas Pophale) SiO2 
 PCOD8096333
Probable space group: C 2/M
;
_chemical_formula_sum "Si O2"
_cell_formula_units_Z 56
_cell_length_a 14.491480
_cell_length_b 12.984912
_cell_length_c 15.770503
_cell_angle_alpha 90.000000
_cell_angle_beta 61.846288
_cell_angle_gamma 90.000000
_cell_volume 2616.439606
_symmetry_space_group_name_H-M "C 2/M"
_symmetry_group_IT_number 12
_symmetry_cell_setting 'monoclinic'
loop_
_space_group_symop_operation_xyz
x,y,z
-x,y,-z
-x,-y,-z
x,-y,z
1/2+x,1/2+y,z
1/2-x,1/2+y,-z
1/2-x,1/2-y,-z
1/2+x,1/2-y,z
loop_
_atom_site_type_symbol
_atom_site_label
_atom_site_fract_x
_atom_site_fract_y
_atom_site_fract_z
Si Si1 0.240201 0.710030 0.217974
Si Si2 0.752402 0.614108 0.475719
Si Si3 0.043622 0.882163 0.893735
Si Si4 0.850947 0.620663 0.265298
Si Si5 0.541737 0.255234 0.224054
Si Si6 0.985858 0.883966 0.410656
Si Si7 0.120066 0.621458 0.428184
O O1 0.330278 0.625716 0.164100
O O2 0.305248 0.816337 0.205418
O O3 0.164233 0.720628 0.168382
O O4 0.161582 0.675653 0.326382
O O5 0.802104 0.500000 0.451722
O O6 0.769001 0.655107 0.373822
O O7 0.635287 0.610656 0.558460
O O8 0.818515 0.675014 0.518589
O O9 0.985377 0.831257 0.839905
O O10 0.010958 0.000000 0.903167
O O11 0.000000 0.832670 0.000000
O O12 0.853832 0.500000 0.241282
O O13 0.965948 0.656302 0.247345
O O14 0.536254 0.312368 0.317681
O O15 0.000000 0.838631 0.500000
O O16 0.035122 0.000000 0.385939
O O17 0.143310 0.500000 0.409688
O O18 0.000000 0.644103 0.500000
#
# Coordination Sequence:
#
# PCOD8096333 Si02
#       7
#     8   8   8   8   8   8   8
#     4  11  23  37  61  90 119 156 198 248 302 362
#     4   9  17  30  47  68 106 158 202 240 279 326
#     4  10  23  45  70  93 117 148 195 256 313 363
#     4  10  22  37  52  79 120 165 207 245 291 349
#     4  11  23  37  61  90 119 156 198 248 302 362
#     4  10  20  33  52  83 121 158 199 246 295 353
#     4  10  20  33  52  83 121 158 199 246 295 353
#
# _framework density 21.403131999999999
#
# number of rings (size 3 to 8) (size 9 to 14) (size 15 to 20)
#    0.000    1.857    0.000    4.286    0.000   11.429 
#    0.000    0.000    0.000    7.714    0.000    0.000 
#    0.000    0.000    0.000    0.000    0.000    0.000 
#
# Total GULP energy -347056.139055 kJ/mol
# GULP energy per Si atom -12394.862109 kJ/mol
# Density = 2.135442 g / cm^3
# Si number density = 21.403132 Si / 1000 Ang^3
#
#
#
# Elastic Constant Matrix: (Units=GPa)
#
#
# Indices 1 2 3 4 5 6 
#
# 1 130.4150 6.5789 29.7956 0.0000 -0.4612 0.0000
# 2 6.5789 76.3505 14.7343 0.0000 6.6882 0.0000
# 3 29.7956 14.7343 85.9376 0.0000 7.9964 0.0000
# 4 0.0000 0.0000 0.0000 0.2480 0.0000 0.3466
# 5 -0.4612 6.6882 7.9964 0.0000 20.3903 0.0000
# 6 0.0000 0.0000 0.0000 0.3466 0.0000 15.4378
#
#
#
# Elastic Compliance Matrix: (Units=1/GPa)
#
#
# Indices 1 2 3 4 5 6 
#
# 1 0.008370 -0.000271 -0.002990 0.000000 0.001451 0.000000
# 2 -0.000271 0.013824 -0.001924 0.000000 -0.003786 0.000000
# 3 -0.002990 -0.001924 0.013441 0.000000 -0.004708 0.000000
# 4 0.000000 0.000000 0.000000 4.163705 0.000000 -0.093472
# 5 0.001451 -0.003786 -0.004708 0.000000 0.052164 0.000000
# 6 0.000000 0.000000 0.000000 -0.093472 0.000000 0.066875
#
#
# Mechanical properties :
#
#
# Convention : Reuss Voigt Hill
#
# Bulk Modulus (GPa) = 39.58243 43.88009 41.73126
# Shear Modulus (GPa) = 1.15283 23.32148 12.23715
#
# Velocity S-wave (km/s) = 0.73471 3.30453 2.39372
# Velocity P-wave (km/s) = 4.38790 5.92504 5.21343
#
# Compressibility (1/GPa) = 0.02526374
#
# Stress axis : x y z
#
# Youngs Moduli (GPa) = 119.47625 72.33921 74.39878
#
# Poissons Ratio (x) = 0.01962 0.22249
# Poissons Ratio (y) = 0.03240 0.14313
# Poissons Ratio (z) = 0.35729 0.13917
#
# Static dielectric constant tensor:
#      x y z
#    x 4.001250 0.000000 0.014880 
#    y 0.000000 4.041960 0.000000 
#    z 0.014880 0.000000 3.606660 
# 
# 
# High freq. dielectric constant tensor:
#      x y z
#    x 1.856740 0.000000 -0.001130 
#    y 0.000000 1.853380 0.000000 
#    z -0.001130 0.000000 1.795230 
# 
# From -- ./inp_files/269807.got.cif
#   From: 2010.06.25/outbox.cif.g09.slc.cpg/sg12_135_cif.got.tgz:269807.got - 2010.06.28 00:19:55.
