data_PCOD8096545
_publ_section_title
;
Structure prediction by ZEFSAII (Michael W. Deem and Ramdas Pophale) SiO2 
 PCOD8096545
Probable space group: C 2/M
;
_chemical_formula_sum "Si O2"
_cell_formula_units_Z 64
_cell_length_a 12.582690
_cell_length_b 16.390542
_cell_length_c 30.255452
_cell_angle_alpha 90.000000
_cell_angle_beta 27.921599
_cell_angle_gamma 90.000000
_cell_volume 2921.865648
_symmetry_space_group_name_H-M "C 2/M"
_symmetry_group_IT_number 12
_symmetry_cell_setting 'monoclinic'
loop_
_space_group_symop_operation_xyz
x,y,z
-x,y,-z
-x,-y,-z
x,-y,z
1/2+x,1/2+y,z
1/2-x,1/2+y,-z
1/2-x,1/2-y,-z
1/2+x,1/2-y,z
loop_
_atom_site_type_symbol
_atom_site_label
_atom_site_fract_x
_atom_site_fract_y
_atom_site_fract_z
Si Si1 0.396051 0.320960 0.727457
Si Si2 0.416662 0.817315 0.883804
Si Si3 0.053033 0.858853 0.084048
Si Si4 0.162875 0.096327 0.694008
Si Si5 0.746005 0.095290 0.596585
Si Si6 0.537716 0.206239 0.600603
Si Si7 0.252854 0.911426 0.093404
Si Si8 0.914918 0.667416 0.780290
O O1 0.586712 0.388912 0.670409
O O2 0.419280 0.279877 0.670700
O O3 0.422280 0.257054 0.757608
O O4 0.145061 0.360734 0.818512
O O5 0.429168 0.723122 0.893047
O O6 0.390571 0.828081 0.841383
O O7 0.200502 0.858588 0.985499
O O8 0.148293 0.925169 0.082949
O O9 0.798953 0.879983 0.162597
O O10 0.369817 0.158888 0.628574
O O11 0.943411 0.125885 0.803253
O O12 0.226817 0.000000 0.677466
O O13 0.603416 0.136581 0.610624
O O14 0.641448 0.117994 0.682875
O O15 0.000000 0.129870 0.500000
O O16 0.740527 0.000000 0.590225
O O17 0.750000 0.250000 0.500000
O O18 0.309049 0.000000 0.092936
O O19 0.500000 0.863173 0.000000
#
# Coordination Sequence:
#
# PCOD8096545 Si02
#       8
#     8   8   8   8   8   8   8   8
#     4  10  21  37  61  90 122 163 207 261 315 378
#     4  10  20  34  56  85 126 163 207 257 312 372
#     4  10  20  33  54  88 120 165 210 261 311 367
#     4  11  23  42  65  94 131 168 211 264 321 379
#     4  10  23  42  64  90 118 157 208 263 319 384
#     4  11  25  40  68  93 121 162 209 263 323 388
#     4  10  20  35  59  87 122 167 209 251 306 378
#     4  10  20  36  60  86 122 163 216 266 318 378
#
# _framework density 21.903813
#
# number of rings (size 3 to 8) (size 9 to 14) (size 15 to 20)
#    0.000    1.750    0.000    5.250    5.250    3.500 
#    0.000    3.125    0.000    1.500    0.000    0.000 
#    0.000    0.000    0.000    0.000    0.000    0.000 
#
# Total GULP energy -396500.003940 kJ/mol
# GULP energy per Si atom -12390.625123 kJ/mol
# Density = 2.185396 g / cm^3
# Si number density = 21.903813 Si / 1000 Ang^3
#
#
#
# Elastic Constant Matrix: (Units=GPa)
#
#
# Indices 1 2 3 4 5 6 
#
# 1 97.4771 24.4076 43.3324 -0.0939 -7.0501 0.0494
# 2 24.4076 52.6362 36.8916 -0.0909 -1.9189 0.0526
# 3 43.3324 36.8916 146.3132 -0.2661 -12.6906 0.1374
# 4 -0.0939 -0.0909 -0.2661 19.9630 0.0484 -3.6278
# 5 -7.0501 -1.9189 -12.6906 0.0484 38.4582 0.0049
# 6 0.0494 0.0526 0.1374 -3.6278 0.0049 24.7388
#
#
#
# Elastic Compliance Matrix: (Units=1/GPa)
#
#
# Indices 1 2 3 4 5 6 
#
# 1 0.012487 -0.003921 -0.002602 0.000003 0.001235 -0.000002
# 2 -0.003921 0.024331 -0.005076 0.000025 -0.001180 -0.000012
# 3 -0.002602 -0.005076 0.009082 0.000076 0.002266 -0.000024
# 4 0.000003 0.000025 0.000076 0.051465 -0.000039 0.007547
# 5 0.001235 -0.001180 0.002266 -0.000039 0.026918 -0.000024
# 6 -0.000002 -0.000012 -0.000024 0.007547 -0.000024 0.041529
#
#
# Mechanical properties :
#
#
# Convention : Reuss Voigt Hill
#
# Bulk Modulus (GPa) = 44.05064 56.18775 50.11919
# Shear Modulus (GPa) = 25.43518 29.41831 27.42674
#
# Velocity S-wave (km/s) = 3.41137 3.66876 3.54240
# Velocity P-wave (km/s) = 5.97253 6.60713 6.29783
#
# Compressibility (1/GPa) = 0.02270115
#
# Stress axis : x y z
#
# Youngs Moduli (GPa) = 80.08457 41.09942 110.10866
#
# Poissons Ratio (x) = 0.16116 0.28654
# Poissons Ratio (y) = 0.31403 0.55890
# Poissons Ratio (z) = 0.20840 0.20862
#
# Static dielectric constant tensor:
#      x y z
#    x 3.946520 0.000010 -0.182660 
#    y 0.000010 3.688760 0.000020 
#    z -0.182660 0.000020 4.298190 
# 
# 
# High freq. dielectric constant tensor:
#      x y z
#    x 1.866080 0.000000 -0.011080 
#    y 0.000000 1.831220 0.000000 
#    z -0.011080 0.000000 1.869580 
# 
# From -- ./inp_files/374423.got.cif
#   From: 2010.06.25/outbox.cif.g09.slc.cpg/sg12_188_cif.got.tgz:374423.got - 2010.06.28 00:19:55.
