data_PCOD8096919
_publ_section_title
;
Structure prediction by ZEFSAII (Michael W. Deem and Ramdas Pophale) SiO2 
 PCOD8096919
Probable space group: C 2/M
;
_chemical_formula_sum "Si O2"
_cell_formula_units_Z 56
_cell_length_a 32.550938
_cell_length_b 8.882696
_cell_length_c 14.016131
_cell_angle_alpha 90.000000
_cell_angle_beta 46.314004
_cell_angle_gamma 90.000000
_cell_volume 2930.599220
_symmetry_space_group_name_H-M "C 2/M"
_symmetry_group_IT_number 12
_symmetry_cell_setting 'monoclinic'
loop_
_space_group_symop_operation_xyz
x,y,z
-x,y,-z
-x,-y,-z
x,-y,z
1/2+x,1/2+y,z
1/2-x,1/2+y,-z
1/2-x,1/2-y,-z
1/2+x,1/2-y,z
loop_
_atom_site_type_symbol
_atom_site_label
_atom_site_fract_x
_atom_site_fract_y
_atom_site_fract_z
Si Si1 0.976207 0.176057 0.742337
Si Si2 0.636100 0.677263 0.966103
Si Si3 0.589528 0.177056 0.538542
Si Si4 0.815190 0.676316 0.293186
Si Si5 0.197705 0.328316 0.034895
Si Si6 0.315584 0.323403 0.491936
Si Si7 0.416722 0.170672 0.670567
O O1 0.958413 0.223430 0.663941
O O2 0.033072 0.263869 0.683068
O O3 0.988757 0.000000 0.723749
O O4 0.926672 0.220882 0.896029
O O5 0.644844 0.500000 0.949442
O O6 0.644174 0.745151 0.848691
O O7 0.683664 0.746043 0.958784
O O8 0.645219 0.260498 0.487138
O O9 0.582920 0.222629 0.438958
O O10 0.596844 0.000000 0.542263
O O11 0.827256 0.500000 0.273087
O O12 0.749434 0.713390 0.376299
O O13 0.832928 0.741067 0.366855
O O14 0.212712 0.500000 0.986337
O O15 0.146954 0.314878 0.190671
O O16 0.250000 0.250000 0.000000
O O17 0.325152 0.500000 0.463043
O O18 0.439260 0.000000 0.645471
#
# Coordination Sequence:
#
# PCOD8096919 Si02
#       7
#     8   8   8   8   8   8   8
#     4  10  21  37  56  82 113 149 190 233 277 329
#     4  10  21  37  58  81 110 150 187 227 282 335
#     4  11  22  36  57  83 113 150 189 233 280 329
#     4  10  21  39  62  87 113 145 183 228 282 338
#     4  10  20  34  51  78 113 148 188 232 276 331
#     4  10  22  39  59  86 115 145 182 230 280 334
#     4   9  20  36  53  77 111 151 189 228 278 330
#
# _framework density 19.108720999999999
#
# number of rings (size 3 to 8) (size 9 to 14) (size 15 to 20)
#    0.000    2.000    0.000    3.000    2.000    6.857 
#    0.000    0.714    0.000    4.286    0.000    0.000 
#    0.000    0.000    0.000    0.000    0.000    0.000 
#
# Total GULP energy -347329.024031 kJ/mol
# GULP energy per Si atom -12404.608001 kJ/mol
# Density = 1.906523 g / cm^3
# Si number density = 19.108721 Si / 1000 Ang^3
#
#
#
# Elastic Constant Matrix: (Units=GPa)
#
#
# Indices 1 2 3 4 5 6 
#
# 1 57.0432 25.9874 24.8016 0.0000 -9.5570 -0.0002
# 2 25.9874 83.5941 35.7257 0.0000 -0.7897 -0.0002
# 3 24.8016 35.7257 93.2702 0.0000 10.7472 0.0000
# 4 0.0000 0.0000 0.0000 31.2897 0.0000 3.4039
# 5 -9.5570 -0.7897 10.7472 0.0000 15.4907 0.0000
# 6 -0.0002 -0.0002 0.0000 3.4039 0.0000 37.9859
#
#
#
# Elastic Compliance Matrix: (Units=1/GPa)
#
#
# Indices 1 2 3 4 5 6 
#
# 1 0.026704 -0.004781 -0.007760 0.000000 0.021616 0.000000
# 2 -0.004781 0.015514 -0.004807 0.000000 0.001176 0.000000
# 3 -0.007760 -0.004807 0.016527 0.000000 -0.016499 0.000000
# 4 0.000000 0.000000 0.000000 0.032274 0.000000 -0.002892
# 5 0.021616 0.001176 -0.016499 0.000000 0.089397 0.000000
# 6 0.000000 0.000000 0.000000 -0.002892 0.000000 0.026585
#
#
# Mechanical properties :
#
#
# Convention : Reuss Voigt Hill
#
# Bulk Modulus (GPa) = 41.58035 45.21520 43.39777
# Shear Modulus (GPa) = 20.02286 26.77945 23.40115
#
# Velocity S-wave (km/s) = 3.24055 3.74762 3.50327
# Velocity P-wave (km/s) = 5.98403 6.51457 6.25493
#
# Compressibility (1/GPa) = 0.02404982
#
# Stress axis : x y z
#
# Youngs Moduli (GPa) = 37.44728 64.45712 60.50569
#
# Poissons Ratio (x) = 0.30817 0.46955
# Poissons Ratio (y) = 0.17903 0.29083
# Poissons Ratio (z) = 0.29060 0.30982
#
# Static dielectric constant tensor:
#      x y z
#    x 3.384660 0.000000 -0.062060 
#    y 0.000000 3.596030 0.000000 
#    z -0.062060 0.000000 3.673110 
# 
# 
# High freq. dielectric constant tensor:
#      x y z
#    x 1.735440 0.000000 -0.007010 
#    y 0.000000 1.756160 0.000000 
#    z -0.007010 0.000000 1.745050 
# 
# From -- ./inp_files/187243.got.cif
#   From: 2010.06.25/outbox.cif.g09.slc.cpg/sg12_94_cif.got.tgz:187243.got - 2010.06.28 00:19:55.
