data_PCOD8096004
_publ_section_title
;
Structure prediction by ZEFSAII (Michael W. Deem and Ramdas Pophale) SiO2 
 PCOD8096004
Probable space group: C 2/M
;
_chemical_formula_sum "Si O2"
_cell_formula_units_Z 56
_cell_length_a 18.455516
_cell_length_b 8.962208
_cell_length_c 19.717692
_cell_angle_alpha 90.000000
_cell_angle_beta 63.789667
_cell_angle_gamma 90.000000
_cell_volume 2926.013055
_symmetry_space_group_name_H-M "C 2/M"
_symmetry_group_IT_number 12
_symmetry_cell_setting 'monoclinic'
loop_
_space_group_symop_operation_xyz
x,y,z
-x,y,-z
-x,-y,-z
x,-y,z
1/2+x,1/2+y,z
1/2-x,1/2+y,-z
1/2-x,1/2-y,-z
1/2+x,1/2-y,z
loop_
_atom_site_type_symbol
_atom_site_label
_atom_site_fract_x
_atom_site_fract_y
_atom_site_fract_z
Si Si1 0.165206 0.326978 0.524869
Si Si2 0.031068 0.322918 0.205650
Si Si3 0.838789 0.175778 0.754696
Si Si4 0.299656 0.831107 0.636555
Si Si5 0.384035 0.326142 0.329227
Si Si6 0.373630 0.334483 0.944933
Si Si7 0.718656 0.164788 0.913910
O O1 0.170826 0.500000 0.543098
O O2 0.250000 0.250000 0.500000
O O3 0.144044 0.310483 0.453692
O O4 0.102243 0.244271 0.600951
O O5 0.029486 0.500000 0.208117
O O6 0.086886 0.262869 0.243121
O O7 0.061714 0.270231 0.119232
O O8 0.941820 0.257303 0.252523
O O9 0.832010 0.217122 0.678997
O O10 0.754874 0.221827 0.827150
O O11 0.854707 0.000000 0.757097
O O12 0.206831 0.796253 0.657591
O O13 0.307447 0.000000 0.660733
O O14 0.405564 0.500000 0.323620
O O15 0.410197 0.500000 0.938465
O O16 0.292556 0.340525 0.935299
O O17 0.352178 0.271154 0.028652
O O18 0.681216 0.000000 0.921269
#
# Coordination Sequence:
#
# PCOD8096004 Si02
#       7
#     8   8   8   8   8   8   8
#     4   9  17  31  51  75 100 129 167 207 246 291
#     4  11  21  33  51  74 103 135 166 205 252 299
#     4  10  20  33  51  75 104 134 166 206 248 295
#     4   9  19  34  53  76 102 131 163 203 248 296
#     4  10  20  35  54  76 102 131 167 209 250 296
#     4   9  16  27  45  69  96 127 164 204 244 290
#     4   8  15  27  43  67  96 127 163 201 242 288
#
# _framework density 19.138669
#
# number of rings (size 3 to 8) (size 9 to 14) (size 15 to 20)
#    0.000    2.571    0.000    4.714    0.000    7.429 
#    0.000    0.714    0.000    5.143    0.000    6.000 
#    0.000    0.000    0.000    0.000    0.000    0.000 
#
# Total GULP energy -347078.986465 kJ/mol
# GULP energy per Si atom -12395.678088 kJ/mol
# Density = 1.909511 g / cm^3
# Si number density = 19.138669 Si / 1000 Ang^3
#
#
#
# Elastic Constant Matrix: (Units=GPa)
#
#
# Indices 1 2 3 4 5 6 
#
# 1 14.2412 8.8079 -4.7388 0.0000 -4.9243 0.0000
# 2 8.8079 111.9955 10.3934 0.0000 -9.5123 -0.0001
# 3 -4.7388 10.3934 32.7443 0.0000 -12.1023 0.0001
# 4 0.0000 0.0000 0.0000 39.4869 0.0000 -3.0449
# 5 -4.9243 -9.5123 -12.1023 0.0000 23.0109 0.0000
# 6 0.0000 -0.0001 0.0001 -3.0449 0.0000 21.7409
#
#
#
# Elastic Compliance Matrix: (Units=1/GPa)
#
#
# Indices 1 2 3 4 5 6 
#
# 1 0.095129 -0.007355 0.027932 0.000000 0.032007 0.000000
# 2 -0.007355 0.009918 -0.004070 0.000000 0.000385 0.000000
# 3 0.027932 -0.004070 0.046500 0.000000 0.028751 0.000000
# 4 0.000000 0.000000 0.000000 0.025601 0.000000 0.003586
# 5 0.032007 0.000385 0.028751 0.000000 0.065588 0.000000
# 6 0.000000 0.000000 0.000000 0.003586 0.000000 0.046499
#
#
# Mechanical properties :
#
#
# Convention : Reuss Voigt Hill
#
# Bulk Modulus (GPa) = 5.41830 20.87848 13.14839
# Shear Modulus (GPa) = 15.73605 26.48230 21.10918
#
# Velocity S-wave (km/s) = 2.87054 3.72386 3.32469
# Velocity P-wave (km/s) = 3.71804 5.42422 4.65006
#
# Compressibility (1/GPa) = 0.18455984
#
# Stress axis : x y z
#
# Youngs Moduli (GPa) = 10.51202 100.82875 21.50535
#
# Poissons Ratio (x) = 0.74160 -0.60068
# Poissons Ratio (y) = 0.07732 0.08753
# Poissons Ratio (z) = -0.29362 0.41038
#
# Static dielectric constant tensor:
#      x y z
#    x 2.907570 0.000000 -0.050510 
#    y 0.000000 3.700160 0.000000 
#    z -0.050510 0.000000 3.982630 
# 
# 
# High freq. dielectric constant tensor:
#      x y z
#    x 1.681560 0.000000 -0.006730 
#    y 0.000000 1.756400 0.000000 
#    z -0.006730 0.000000 1.761010 
# 
# From -- ./inp_files/319021.got.cif
#   From: 2010.06.25/outbox.cif.g09.slc.cpg/sg12_160_cif.got.tgz:319021.got - 2010.06.28 00:19:55.
