data_PCOD8096510
_publ_section_title
;
Structure prediction by ZEFSAII (Michael W. Deem and Ramdas Pophale) SiO2 
 PCOD8096510
Probable space group: C 2/M
;
_chemical_formula_sum "Si O2"
_cell_formula_units_Z 48
_cell_length_a 24.113164
_cell_length_b 9.481581
_cell_length_c 11.631236
_cell_angle_alpha 90.000000
_cell_angle_beta 74.431530
_cell_angle_gamma 90.000000
_cell_volume 2561.692990
_symmetry_space_group_name_H-M "C 2/M"
_symmetry_group_IT_number 12
_symmetry_cell_setting 'monoclinic'
loop_
_space_group_symop_operation_xyz
x,y,z
-x,y,-z
-x,-y,-z
x,-y,z
1/2+x,1/2+y,z
1/2-x,1/2+y,-z
1/2-x,1/2-y,-z
1/2+x,1/2-y,z
loop_
_atom_site_type_symbol
_atom_site_label
_atom_site_fract_x
_atom_site_fract_y
_atom_site_fract_z
Si Si1 0.225896 0.339816 0.754386
Si Si2 0.150992 0.662190 0.013779
Si Si3 0.065193 0.158432 0.927994
Si Si4 0.890973 0.335038 0.299429
Si Si5 0.935838 0.666743 0.520911
Si Si6 0.332759 0.164512 0.733245
O O1 0.246514 0.500000 0.729850
O O2 0.176151 0.304376 0.689459
O O3 0.280372 0.241722 0.698259
O O4 0.202965 0.311591 0.896273
O O5 0.129898 0.500000 0.018443
O O6 0.170674 0.701492 0.130602
O O7 0.098599 0.763694 0.011657
O O8 0.069736 0.245241 0.807843
O O9 0.089969 0.000000 0.897590
O O10 0.000000 0.151267 0.000000
O O11 0.904543 0.500000 0.271840
O O12 0.906824 0.284235 0.418069
O O13 0.941585 0.500000 0.519737
O O14 0.893844 0.717114 0.647286
O O15 0.000000 0.733150 0.500000
O O16 0.324736 0.000000 0.713273
#
# Coordination Sequence:
#
# PCOD8096510 Si02
#       6
#     8   8   8   8   8   8
#     4   9  18  33  51  77 110 141 176 220 270 315
#     4   9  19  34  53  80 109 138 179 221 260 317
#     4  10  21  34  51  78 109 140 175 218 269 319
#     4   9  19  36  57  78 104 140 181 222 262 312
#     4   9  19  35  55  80 107 137 179 230 266 299
#     4  10  20  33  54  83 108 139 183 220 261 318
#
# _framework density 18.737607000000001
#
# number of rings (size 3 to 8) (size 9 to 14) (size 15 to 20)
#    0.000    2.667    0.000    2.000    2.333    5.333 
#    0.000    0.833    0.000    1.000    0.000    0.000 
#    0.000    0.000    0.000    0.000    0.000    0.000 
#
# Total GULP energy -297578.273226 kJ/mol
# GULP energy per Si atom -12399.094718 kJ/mol
# Density = 1.869496 g / cm^3
# Si number density = 18.737607 Si / 1000 Ang^3
#
#
#
# Elastic Constant Matrix: (Units=GPa)
#
#
# Indices 1 2 3 4 5 6 
#
# 1 132.5218 45.3099 65.3569 0.0000 -2.4895 0.0000
# 2 45.3099 64.3548 26.3547 0.0000 -2.0962 0.0000
# 3 65.3569 26.3547 85.5129 0.0000 8.3411 0.0000
# 4 0.0000 0.0000 0.0000 10.3335 0.0000 -8.3212
# 5 -2.4895 -2.0962 8.3411 0.0000 28.2136 0.0000
# 6 0.0000 0.0000 0.0000 -8.3212 0.0000 29.1150
#
#
#
# Elastic Compliance Matrix: (Units=1/GPa)
#
#
# Indices 1 2 3 4 5 6 
#
# 1 0.014366 -0.006131 -0.009442 0.000000 0.003604 0.000000
# 2 -0.006131 0.020655 -0.001830 0.000000 0.001535 0.000000
# 3 -0.009442 -0.001830 0.020150 0.000000 -0.006926 0.000000
# 4 0.000000 0.000000 0.000000 0.125703 0.000000 0.035927
# 5 0.003604 0.001535 -0.006926 0.000000 0.037924 0.000000
# 6 0.000000 0.000000 0.000000 0.035927 0.000000 0.044614
#
#
# Mechanical properties :
#
#
# Convention : Reuss Voigt Hill
#
# Bulk Modulus (GPa) = 49.10132 61.82584 55.46358
# Shear Modulus (GPa) = 16.39310 23.22362 19.80836
#
# Velocity S-wave (km/s) = 2.96104 3.52435 3.25490
# Velocity P-wave (km/s) = 6.16051 7.04476 6.61742
#
# Compressibility (1/GPa) = 0.02036605
#
# Stress axis : x y z
#
# Youngs Moduli (GPa) = 69.60671 48.41548 49.62719
#
# Poissons Ratio (x) = 0.29682 0.46859
# Poissons Ratio (y) = 0.42674 0.09080
# Poissons Ratio (z) = 0.65724 0.08858
#
# Static dielectric constant tensor:
#      x y z
#    x 3.457730 0.000000 0.112210 
#    y 0.000000 3.348590 0.000000 
#    z 0.112210 0.000000 3.505880 
# 
# 
# High freq. dielectric constant tensor:
#      x y z
#    x 1.729530 0.000000 0.003270 
#    y 0.000000 1.707180 0.000000 
#    z 0.003270 0.000000 1.723550 
# 
# From -- ./inp_files/172141.got.cif
#   From: 2010.06.25/outbox.cif.g09.slc.cpg/sg12_87_cif.got.tgz:172141.got - 2010.06.28 00:19:55.
