data_PCOD8096415
_publ_section_title
;
Structure prediction by ZEFSAII (Michael W. Deem and Ramdas Pophale) SiO2 
 PCOD8096415
Probable space group: C 2/M
;
_chemical_formula_sum "Si O2"
_cell_formula_units_Z 48
_cell_length_a 25.920589
_cell_length_b 13.043618
_cell_length_c 20.646061
_cell_angle_alpha 90.000000
_cell_angle_beta 21.536125
_cell_angle_gamma 90.000000
_cell_volume 2562.418574
_symmetry_space_group_name_H-M "C 2/M"
_symmetry_group_IT_number 12
_symmetry_cell_setting 'monoclinic'
loop_
_space_group_symop_operation_xyz
x,y,z
-x,y,-z
-x,-y,-z
x,-y,z
1/2+x,1/2+y,z
1/2-x,1/2+y,-z
1/2-x,1/2-y,-z
1/2+x,1/2-y,z
loop_
_atom_site_type_symbol
_atom_site_label
_atom_site_fract_x
_atom_site_fract_y
_atom_site_fract_z
Si Si1 0.071842 0.713984 0.484748
Si Si2 0.340031 0.237741 0.330841
Si Si3 0.347964 0.378836 0.203517
Si Si4 0.149813 0.618077 0.169312
Si Si5 0.609866 0.380763 0.542055
Si Si6 0.582234 0.739993 0.135097
O O1 0.229779 0.669513 0.294238
O O2 0.070403 0.824233 0.521444
O O3 0.000000 0.728803 0.500000
O O4 0.985955 0.631322 0.627265
O O5 0.250000 0.250000 0.500000
O O6 0.326395 0.338440 0.301879
O O7 0.273818 0.141809 0.368715
O O8 0.501180 0.222191 0.164930
O O9 0.332818 0.500000 0.222260
O O10 0.500000 0.343933 0.000000
O O11 0.191483 0.500000 0.115695
O O12 0.119756 0.659096 0.132205
O O13 0.277705 0.681926 0.051503
O O14 0.585435 0.500000 0.560191
O O15 0.509874 0.339835 0.715815
#
# Coordination Sequence:
#
# PCOD8096415 Si02
#       6
#     8   8   8   8   8   8
#     4  10  22  37  53  80 113 147 184 233 274 329
#     4   9  19  34  54  81 110 142 184 234 279 325
#     4  10  22  38  57  83 115 151 190 233 285 344
#     4  10  20  33  53  80 114 147 180 226 280 333
#     4   9  18  35  57  79 106 143 186 229 279 330
#     4   9  19  34  52  82 113 141 181 231 277 329
#
# _framework density 18.732303000000002
#
# number of rings (size 3 to 8) (size 9 to 14) (size 15 to 20)
#    0.000    2.500    0.000    2.000    2.333    5.667 
#    0.000    0.000    0.000    8.000    0.000    0.000 
#    0.000    0.000    0.000    0.000    0.000    0.000 
#
# Total GULP energy -297542.076481 kJ/mol
# GULP energy per Si atom -12397.586520 kJ/mol
# Density = 1.868967 g / cm^3
# Si number density = 18.732303 Si / 1000 Ang^3
#
#
#
# Elastic Constant Matrix: (Units=GPa)
#
#
# Indices 1 2 3 4 5 6 
#
# 1 122.8624 25.2556 37.9970 -0.0001 -18.1458 0.0001
# 2 25.2556 75.5213 31.0936 -0.0001 7.9481 0.0002
# 3 37.9970 31.0936 94.0653 -0.0001 -16.6628 0.0000
# 4 -0.0001 -0.0001 -0.0001 21.3321 0.0000 -1.5276
# 5 -18.1458 7.9481 -16.6628 0.0000 31.5762 0.0000
# 6 0.0001 0.0002 0.0000 -1.5276 0.0000 12.8904
#
#
#
# Elastic Compliance Matrix: (Units=1/GPa)
#
#
# Indices 1 2 3 4 5 6 
#
# 1 0.010264 -0.003147 -0.002119 0.000000 0.005572 0.000000
# 2 -0.003147 0.017937 -0.006374 0.000000 -0.009687 0.000000
# 3 -0.002119 -0.006374 0.015071 0.000000 0.008340 0.000000
# 4 0.000000 0.000000 0.000000 0.047279 0.000000 0.005603
# 5 0.005572 -0.009687 0.008340 0.000000 0.041711 0.000000
# 6 0.000000 0.000000 0.000000 0.005603 0.000000 0.078241
#
#
# Mechanical properties :
#
#
# Convention : Reuss Voigt Hill
#
# Bulk Modulus (GPa) = 50.01645 53.46015 51.73830
# Shear Modulus (GPa) = 20.79449 26.36658 23.58054
#
# Velocity S-wave (km/s) = 3.33541 3.75580 3.55183
# Velocity P-wave (km/s) = 6.44918 6.88542 6.67087
#
# Compressibility (1/GPa) = 0.01999342
#
# Stress axis : x y z
#
# Youngs Moduli (GPa) = 97.42469 55.74930 66.35169
#
# Poissons Ratio (x) = 0.17542 0.14060
# Poissons Ratio (y) = 0.30656 0.42294
# Poissons Ratio (z) = 0.20644 0.35536
#
# Static dielectric constant tensor:
#      x y z
#    x 3.678420 0.000000 -0.473360 
#    y 0.000000 3.176790 0.000000 
#    z -0.473360 0.000000 3.831880 
# 
# 
# High freq. dielectric constant tensor:
#      x y z
#    x 1.728480 0.000000 -0.021910 
#    y 0.000000 1.708470 0.000000 
#    z -0.021910 0.000000 1.729350 
# 
# From -- ./inp_files/327958.got.cif
#   From: 2010.06.25/outbox.cif.g09.slc.cpg/sg12_164_cif.got.tgz:327958.got - 2010.06.28 00:19:55.
