data_PCOD8096428
_publ_section_title
;
Structure prediction by ZEFSAII (Michael W. Deem and Ramdas Pophale) SiO2 
 PCOD8096428
Probable space group: C 2/M
;
_chemical_formula_sum "Si O2"
_cell_formula_units_Z 40
_cell_length_a 29.956638
_cell_length_b 9.882910
_cell_length_c 18.587255
_cell_angle_alpha 90.000000
_cell_angle_beta 159.300200
_cell_angle_gamma 90.000000
_cell_volume 1945.125683
_symmetry_space_group_name_H-M "C 2/M"
_symmetry_group_IT_number 12
_symmetry_cell_setting 'monoclinic'
loop_
_space_group_symop_operation_xyz
x,y,z
-x,y,-z
-x,-y,-z
x,-y,z
1/2+x,1/2+y,z
1/2-x,1/2+y,-z
1/2-x,1/2-y,-z
1/2+x,1/2-y,z
loop_
_atom_site_type_symbol
_atom_site_label
_atom_site_fract_x
_atom_site_fract_y
_atom_site_fract_z
Si Si1 0.934029 0.657641 0.975425
Si Si2 0.955323 0.155895 0.136215
Si Si3 0.550013 0.784618 0.649112
Si Si4 0.706939 0.144555 0.017210
Si Si5 0.146043 0.150858 0.547748
O O1 0.953754 0.500000 0.026311
O O2 0.788064 0.699874 0.750154
O O3 0.993326 0.759006 0.123230
O O4 0.000000 0.690222 0.000000
O O5 0.842864 0.231279 0.009884
O O6 0.081019 0.158520 0.372474
O O7 0.914717 0.000000 0.058248
O O8 0.500000 0.857421 0.500000
O O9 0.635201 0.872562 0.832071
O O10 0.422550 0.742266 0.497149
O O11 0.642696 0.660183 0.768037
O O12 0.686625 0.000000 0.026629
O O13 0.142968 0.000000 0.573949
#
# Coordination Sequence:
#
# PCOD8096428 Si02
#       5
#     8   8   8   8   8
#     4  10  21  38  61  86 109 138 181 230 276 325
#     4  10  21  38  58  80 112 149 181 221 273 328
#     4  10  20  33  53  81 113 148 184 223 271 322
#     4  10  21  36  55  81 112 147 187 227 267 317
#     4   9  19  36  55  79 112 148 183 219 271 333
#
# _framework density 20.564222000000001
#
# number of rings (size 3 to 8) (size 9 to 14) (size 15 to 20)
#    0.000    2.200    0.000    2.400    0.000    9.600 
#    0.000    9.000    0.000    0.000    0.000    0.000 
#    0.000    0.000    0.000    0.000    0.000    0.000 
#
# Total GULP energy -247822.941830 kJ/mol
# GULP energy per Si atom -12391.147091 kJ/mol
# Density = 2.051742 g / cm^3
# Si number density = 20.564222 Si / 1000 Ang^3
#
#
#
# Elastic Constant Matrix: (Units=GPa)
#
#
# Indices 1 2 3 4 5 6 
#
# 1 129.5865 51.5868 42.8271 0.0000 -8.9670 0.0000
# 2 51.5868 115.3152 17.4055 0.0000 -10.7184 0.0000
# 3 42.8271 17.4055 73.9969 0.0000 4.5217 0.0000
# 4 0.0000 0.0000 0.0000 7.4235 0.0000 3.2548
# 5 -8.9670 -10.7184 4.5217 0.0000 27.7068 0.0000
# 6 0.0000 0.0000 0.0000 3.2548 0.0000 16.0003
#
#
#
# Elastic Compliance Matrix: (Units=1/GPa)
#
#
# Indices 1 2 3 4 5 6 
#
# 1 0.011451 -0.003941 -0.005892 0.000000 0.003143 0.000000
# 2 -0.003941 0.010776 -0.000435 0.000000 0.002964 0.000000
# 3 -0.005892 -0.000435 0.017326 0.000000 -0.004903 0.000000
# 4 0.000000 0.000000 0.000000 0.147898 0.000000 -0.030085
# 5 0.003143 0.002964 -0.004903 0.000000 0.039056 0.000000
# 6 0.000000 0.000000 0.000000 -0.030085 0.000000 0.068619
#
#
# Mechanical properties :
#
#
# Convention : Reuss Voigt Hill
#
# Bulk Modulus (GPa) = 52.58606 60.28193 56.43399
# Shear Modulus (GPa) = 15.52791 24.03141 19.77966
#
# Velocity S-wave (km/s) = 2.75088 3.42219 3.10473
# Velocity P-wave (km/s) = 5.97636 6.70767 6.35255
#
# Compressibility (1/GPa) = 0.01901645
#
# Stress axis : x y z
#
# Youngs Moduli (GPa) = 87.33236 92.79829 57.71586
#
# Poissons Ratio (x) = 0.36571 0.34008
# Poissons Ratio (y) = 0.34417 0.02511
# Poissons Ratio (z) = 0.51459 0.04037
#
# Static dielectric constant tensor:
#      x y z
#    x 3.678540 0.000000 -0.207260 
#    y 0.000000 3.597910 0.000000 
#    z -0.207260 0.000000 3.903320 
# 
# 
# High freq. dielectric constant tensor:
#      x y z
#    x 1.799440 0.000000 -0.010080 
#    y 0.000000 1.787550 0.000000 
#    z -0.010080 0.000000 1.810850 
# 
# From -- ./inp_files/250228.got.cif
#   From: 2010.06.25/outbox.cif.g09.slc.cpg/sg12_126_cif.got.tgz:250228.got - 2010.06.28 00:19:55.
