data_PCOD8096577
_publ_section_title
;
Structure prediction by ZEFSAII (Michael W. Deem and Ramdas Pophale) SiO2 
 PCOD8096577
Probable space group: C 2/M
;
_chemical_formula_sum "Si O2"
_cell_formula_units_Z 64
_cell_length_a 33.212801
_cell_length_b 9.065958
_cell_length_c 15.054619
_cell_angle_alpha 90.000000
_cell_angle_beta 134.231234
_cell_angle_gamma 90.000000
_cell_volume 3248.056887
_symmetry_space_group_name_H-M "C 2/M"
_symmetry_group_IT_number 12
_symmetry_cell_setting 'monoclinic'
loop_
_space_group_symop_operation_xyz
x,y,z
-x,y,-z
-x,-y,-z
x,-y,z
1/2+x,1/2+y,z
1/2-x,1/2+y,-z
1/2-x,1/2-y,-z
1/2+x,1/2-y,z
loop_
_atom_site_type_symbol
_atom_site_label
_atom_site_fract_x
_atom_site_fract_y
_atom_site_fract_z
Si Si1 0.774862 0.333588 0.904138
Si Si2 0.431766 0.672719 0.727558
Si Si3 0.780768 0.169149 0.739991
Si Si4 0.099036 0.830857 0.122678
Si Si5 0.121830 0.330378 0.825018
Si Si6 0.545879 0.174158 0.875114
Si Si7 0.646100 0.670979 0.694516
Si Si8 0.343418 0.824158 0.471984
O O1 0.783929 0.500000 0.885387
O O2 0.798181 0.235055 0.860890
O O3 0.709980 0.302207 0.824113
O O4 0.812875 0.302833 0.048798
O O5 0.429123 0.500000 0.701163
O O6 0.432862 0.700982 0.834844
O O7 0.487138 0.743416 0.770890
O O8 0.377684 0.752900 0.604513
O O9 0.833978 0.197218 0.757382
O O10 0.721213 0.231658 0.612322
O O11 0.769478 0.000000 0.740510
O O12 0.089166 0.000000 0.076993
O O13 0.075472 0.724005 0.011327
O O14 0.110956 0.500000 0.783472
O O15 0.083032 0.281343 0.847372
O O16 0.107943 0.233005 0.716489
O O17 0.535871 0.000000 0.864900
O O18 0.632084 0.500000 0.656139
O O19 0.633348 0.762268 0.585784
O O20 0.350221 0.000000 0.484114
#
# Coordination Sequence:
#
# PCOD8096577 Si02
#       8
#     8   8   8   8   8   8   8   8
#     4   9  17  31  50  79 117 151 184 225 277 334
#     4  11  24  41  60  82 112 152 194 239 287 337
#     4   9  18  33  56  85 116 150 186 228 281 338
#     4  10  21  38  60  87 118 149 185 233 290 342
#     4  10  20  34  53  81 116 149 185 231 282 333
#     4  11  23  39  60  86 116 150 191 238 284 334
#     4  10  20  33  55  84 114 150 189 228 277 338
#     4  10  21  39  60  83 115 152 192 236 280 333
#
# _framework density 19.704087000000001
#
# number of rings (size 3 to 8) (size 9 to 14) (size 15 to 20)
#    0.000    2.000    1.250    2.250    0.000    5.500 
#    0.000    0.625    0.000    3.750    0.000    0.000 
#    0.000    0.000    0.000    0.000    0.000    0.000 
#
# Total GULP energy -396760.413393 kJ/mol
# GULP energy per Si atom -12398.762919 kJ/mol
# Density = 1.965924 g / cm^3
# Si number density = 19.704087 Si / 1000 Ang^3
#
#
#
# Elastic Constant Matrix: (Units=GPa)
#
#
# Indices 1 2 3 4 5 6 
#
# 1 67.6130 31.0801 9.4544 0.0000 -2.5819 0.0000
# 2 31.0801 74.8255 24.9074 0.0000 1.0777 0.0000
# 3 9.4544 24.9074 48.1172 0.0000 7.3466 0.0000
# 4 0.0000 0.0000 0.0000 35.0839 0.0000 -2.7724
# 5 -2.5819 1.0777 7.3466 0.0000 18.6410 0.0000
# 6 0.0000 0.0000 0.0000 -2.7724 0.0000 29.3972
#
#
#
# Elastic Compliance Matrix: (Units=1/GPa)
#
#
# Indices 1 2 3 4 5 6 
#
# 1 0.018447 -0.007666 -0.000122 0.000000 0.003046 0.000000
# 2 -0.007666 0.019443 -0.008751 0.000000 0.001263 0.000000
# 3 -0.000122 -0.008751 0.026879 0.000000 -0.010104 0.000000
# 4 0.000000 0.000000 0.000000 0.028717 0.000000 0.002708
# 5 0.003046 0.001263 -0.010104 0.000000 0.057976 0.000000
# 6 0.000000 0.000000 0.000000 0.002708 0.000000 0.034272
#
#
# Mechanical properties :
#
#
# Convention : Reuss Voigt Hill
#
# Bulk Modulus (GPa) = 31.55327 35.71550 33.63439
# Shear Modulus (GPa) = 21.79818 24.96534 23.38176
#
# Velocity S-wave (km/s) = 3.32968 3.56337 3.44851
# Velocity P-wave (km/s) = 5.55254 5.92414 5.74135
#
# Compressibility (1/GPa) = 0.03169243
#
# Stress axis : x y z
#
# Youngs Moduli (GPa) = 54.20891 51.43124 37.20342
#
# Poissons Ratio (x) = 0.39426 0.00452
# Poissons Ratio (y) = 0.41555 0.32558
# Poissons Ratio (z) = 0.00659 0.45009
#
# Static dielectric constant tensor:
#      x y z
#    x 3.637880 0.000000 0.140480 
#    y 0.000000 3.589580 0.000000 
#    z 0.140480 0.000000 3.456470 
# 
# 
# High freq. dielectric constant tensor:
#      x y z
#    x 1.767710 0.000000 0.002890 
#    y 0.000000 1.771490 0.000000 
#    z 0.002890 0.000000 1.752860 
# 
# From -- ./inp_files/250041.got.cif
#   From: 2010.06.25/outbox.cif.g09.slc.cpg/sg12_126_cif.got.tgz:250041.got - 2010.06.28 00:19:55.
