data_PCOD8096980
_publ_section_title
;
Structure prediction by ZEFSAII (Michael W. Deem and Ramdas Pophale) SiO2 
 PCOD8096980
Probable space group: C 2/M
;
_chemical_formula_sum "Si O2"
_cell_formula_units_Z 52
_cell_length_a 8.695348
_cell_length_b 11.026297
_cell_length_c 29.036868
_cell_angle_alpha 90.000000
_cell_angle_beta 107.188477
_cell_angle_gamma 90.000000
_cell_volume 2659.643286
_symmetry_space_group_name_H-M "C 2/M"
_symmetry_group_IT_number 12
_symmetry_cell_setting 'monoclinic'
loop_
_space_group_symop_operation_xyz
x,y,z
-x,y,-z
-x,-y,-z
x,-y,z
1/2+x,1/2+y,z
1/2-x,1/2+y,-z
1/2-x,1/2-y,-z
1/2+x,1/2-y,z
loop_
_atom_site_type_symbol
_atom_site_label
_atom_site_fract_x
_atom_site_fract_y
_atom_site_fract_z
Si Si1 0.065813 0.634827 0.556487
Si Si2 0.711388 0.363572 0.937736
Si Si3 0.049898 0.634586 0.288770
Si Si4 0.217481 0.362280 0.396626
Si Si5 0.500000 0.715530 0.000000
Si Si6 0.264708 0.287329 0.227461
Si Si7 0.477759 0.636038 0.165254
O O1 0.153057 0.500000 0.566304
O O2 0.168524 0.753058 0.577844
O O3 0.000000 0.657162 0.500000
O O4 0.922011 0.630281 0.579126
O O5 0.757351 0.500000 0.928641
O O6 0.602723 0.365425 0.974068
O O7 0.615347 0.303312 0.886335
O O8 0.879064 0.296045 0.959332
O O9 0.988224 0.500000 0.293303
O O10 0.151566 0.680647 0.341253
O O11 0.160217 0.632012 0.252870
O O12 0.889937 0.712644 0.269242
O O13 0.296308 0.500000 0.400455
O O14 0.364372 0.367220 0.200224
O O15 0.145183 0.202850 0.188080
O O16 0.525217 0.500000 0.156184
#
# Coordination Sequence:
#
# PCOD8096980 Si02
#       7
#     8   8   8   8   4   8   8
#     4  10  21  37  56  80 110 142 178 221 267 316
#     4  10  20  34  52  74 101 131 166 207 250 299
#     4  10  20  35  53  75 104 135 170 213 257 305
#     4  10  21  36  55  80 108 140 179 220 264 316
#     4  10  20  34  52  74 100 132 166 204 252 300
#     4  10  20  34  53  75 101 134 169 207 255 304
#     4  10  20  34  52  75 101 131 168 208 250 300
#
# _framework density 19.551493000000001
#
# number of rings (size 3 to 8) (size 9 to 14) (size 15 to 20)
#    0.000    2.000    0.000    3.692    0.000    0.923 
#    0.000    3.846    0.000   14.769    0.000    0.000 
#    0.000    0.000    0.000    0.000    0.000    0.000 
#
# Total GULP energy -322257.464095 kJ/mol
# GULP energy per Si atom -12394.517850 kJ/mol
# Density = 1.950699 g / cm^3
# Si number density = 19.551493 Si / 1000 Ang^3
#
#
#
# Elastic Constant Matrix: (Units=GPa)
#
#
# Indices 1 2 3 4 5 6 
#
# 1 57.9671 30.3353 14.2726 0.0000 15.0467 0.0000
# 2 30.3353 112.4347 41.4622 0.0000 33.0045 0.0000
# 3 14.2726 41.4622 109.7086 0.0000 21.6564 0.0000
# 4 0.0000 0.0000 0.0000 44.6390 0.0000 2.0045
# 5 15.0467 33.0045 21.6564 0.0000 35.6310 0.0000
# 6 0.0000 0.0000 0.0000 2.0045 0.0000 27.9967
#
#
#
# Elastic Compliance Matrix: (Units=1/GPa)
#
#
# Indices 1 2 3 4 5 6 
#
# 1 0.020695 -0.004095 -0.000191 0.000000 -0.004830 0.000000
# 2 -0.004095 0.013777 -0.002837 0.000000 -0.009308 0.000000
# 3 -0.000191 -0.002837 0.010997 0.000000 -0.003975 0.000000
# 4 0.000000 0.000000 0.000000 0.022474 0.000000 -0.001609
# 5 -0.004830 -0.009308 -0.003975 0.000000 0.041143 0.000000
# 6 0.000000 0.000000 0.000000 -0.001609 0.000000 0.035834
#
#
# Mechanical properties :
#
#
# Convention : Reuss Voigt Hill
#
# Bulk Modulus (GPa) = 32.02791 50.25009 41.13900
# Shear Modulus (GPa) = 29.48552 34.58935 32.03744
#
# Velocity S-wave (km/s) = 3.88763 4.21068 4.05238
# Velocity P-wave (km/s) = 6.04719 7.02830 6.55612
#
# Compressibility (1/GPa) = 0.03122277
#
# Stress axis : x y z
#
# Youngs Moduli (GPa) = 48.32067 72.58227 90.93594
#
# Poissons Ratio (x) = 0.29725 0.01739
# Poissons Ratio (y) = 0.19789 0.25796
# Poissons Ratio (z) = 0.00924 0.20589
#
# Static dielectric constant tensor:
#      x y z
#    x 3.372250 0.000000 0.022410 
#    y 0.000000 3.744130 0.000000 
#    z 0.022410 0.000000 3.799830 
# 
# 
# High freq. dielectric constant tensor:
#      x y z
#    x 1.751040 0.000000 -0.003560 
#    y 0.000000 1.761510 0.000000 
#    z -0.003560 0.000000 1.781760 
# 
# From -- ./inp_files/355529.got.cif
#   From: 2010.06.25/outbox.cif.g09.slc.cpg/sg12_178_cif.got.tgz:355529.got - 2010.06.28 00:19:55.
