data_PCOD8096034
_publ_section_title
;
Structure prediction by ZEFSAII (Michael W. Deem and Ramdas Pophale) SiO2 
 PCOD8096034
Probable space group: C 2/M
;
_chemical_formula_sum "Si O2"
_cell_formula_units_Z 64
_cell_length_a 22.838554
_cell_length_b 9.738319
_cell_length_c 20.860420
_cell_angle_alpha 90.000000
_cell_angle_beta 128.374571
_cell_angle_gamma 90.000000
_cell_volume 3637.261875
_symmetry_space_group_name_H-M "C 2/M"
_symmetry_group_IT_number 12
_symmetry_cell_setting 'monoclinic'
loop_
_space_group_symop_operation_xyz
x,y,z
-x,y,-z
-x,-y,-z
x,-y,z
1/2+x,1/2+y,z
1/2-x,1/2+y,-z
1/2-x,1/2-y,-z
1/2+x,1/2-y,z
loop_
_atom_site_type_symbol
_atom_site_label
_atom_site_fract_x
_atom_site_fract_y
_atom_site_fract_z
Si Si1 0.357257 0.157576 0.286909
Si Si2 0.188880 0.344408 0.879892
Si Si3 0.353395 0.659781 0.531119
Si Si4 0.010859 0.152644 0.582472
Si Si5 0.677987 0.847770 0.012932
Si Si6 0.193499 0.159868 0.224970
Si Si7 0.276060 0.657804 0.609209
Si Si8 0.082160 0.656881 0.067129
O O1 0.366825 0.181554 0.216945
O O2 0.419900 0.248000 0.361553
O O3 0.275152 0.203697 0.254751
O O4 0.371090 0.000000 0.315827
O O5 0.217592 0.500000 0.896713
O O6 0.261268 0.254019 0.918243
O O7 0.150697 0.308516 0.922217
O O8 0.342290 0.500000 0.505754
O O9 0.437146 0.707316 0.569653
O O10 0.338087 0.686608 0.596314
O O11 0.295856 0.746747 0.449475
O O12 0.000000 0.147056 0.500000
O O13 0.030113 0.000000 0.621407
O O14 0.608869 0.839486 0.012338
O O15 0.713544 0.000000 0.036136
O O16 0.188008 0.189773 0.297281
O O17 0.130147 0.249923 0.147623
O O18 0.178445 0.000000 0.199544
O O19 0.248734 0.500000 0.587508
O O20 0.082245 0.500000 0.093712
O O21 0.000000 0.717148 0.000000
#
# Coordination Sequence:
#
# PCOD8096034 Si02
#       8
#     8   8   8   8   8   8   8   8
#     4  10  20  33  51  76 103 131 166 210 252 296
#     4   9  17  31  51  74  99 127 163 206 248 292
#     4   9  18  34  53  75 105 135 169 208 247 296
#     4  10  21  35  51  74 105 138 168 203 249 299
#     4   9  17  31  52  73  97 129 163 202 249 297
#     4  10  20  35  54  76 101 130 169 211 253 300
#     4   9  18  33  55  78 101 133 170 210 251 293
#     4  10  21  36  52  74 103 133 168 210 253 299
#
# _framework density 17.595652999999999
#
# number of rings (size 3 to 8) (size 9 to 14) (size 15 to 20)
#    0.000    2.500    1.250    0.750    0.000    2.500 
#    2.250    0.000    0.000    0.000    0.000    0.000 
#    0.000    0.000    0.000    0.000    0.000    0.000 
#
# Total GULP energy -396651.305718 kJ/mol
# GULP energy per Si atom -12395.353304 kJ/mol
# Density = 1.755560 g / cm^3
# Si number density = 17.595653 Si / 1000 Ang^3
#
#
#
# Elastic Constant Matrix: (Units=GPa)
#
#
# Indices 1 2 3 4 5 6 
#
# 1 94.8395 42.1505 58.4573 0.0000 6.2418 0.0000
# 2 42.1505 69.3988 58.0202 0.0000 10.6085 0.0000
# 3 58.4573 58.0202 104.1334 0.0000 7.4453 0.0000
# 4 0.0000 0.0000 0.0000 23.4178 0.0000 3.1598
# 5 6.2418 10.6085 7.4453 0.0000 26.6960 0.0000
# 6 0.0000 0.0000 0.0000 3.1598 0.0000 23.0616
#
#
#
# Elastic Compliance Matrix: (Units=1/GPa)
#
#
# Indices 1 2 3 4 5 6 
#
# 1 0.016795 -0.004294 -0.007017 0.000000 -0.000264 0.000000
# 2 -0.004294 0.029286 -0.013414 0.000000 -0.006893 0.000000
# 3 -0.007017 -0.013414 0.020935 0.000000 0.001132 0.000000
# 4 0.000000 0.000000 0.000000 0.043507 0.000000 -0.005961
# 5 -0.000264 -0.006893 0.001132 0.000000 0.039944 0.000000
# 6 0.000000 0.000000 0.000000 -0.005961 0.000000 0.044179
#
#
# Mechanical properties :
#
#
# Convention : Reuss Voigt Hill
#
# Bulk Modulus (GPa) = 56.92752 65.06974 60.99863
# Shear Modulus (GPa) = 20.00406 21.95134 20.97770
#
# Velocity S-wave (km/s) = 3.37542 3.53589 3.45658
# Velocity P-wave (km/s) = 6.90034 7.33014 7.11848
#
# Compressibility (1/GPa) = 0.01756620
#
# Stress axis : x y z
#
# Youngs Moduli (GPa) = 59.54165 34.14644 47.76719
#
# Poissons Ratio (x) = 0.14663 0.33517
# Poissons Ratio (y) = 0.25568 0.64074
# Poissons Ratio (z) = 0.41779 0.45803
#
# Static dielectric constant tensor:
#      x y z
#    x 3.382750 0.000000 -0.277270 
#    y 0.000000 3.359660 0.000000 
#    z -0.277270 0.000000 3.192480 
# 
# 
# High freq. dielectric constant tensor:
#      x y z
#    x 1.681700 0.000000 -0.022250 
#    y 0.000000 1.682320 0.000000 
#    z -0.022250 0.000000 1.670110 
# 
# From -- ./inp_files/324304.got.cif
#   From: 2010.06.25/outbox.cif.g09.slc.cpg/sg12_163_cif.got.tgz:324304.got - 2010.06.28 00:19:55.
