data_PCOD8096707
_publ_section_title
;
Structure prediction by ZEFSAII (Michael W. Deem and Ramdas Pophale) SiO2 
 PCOD8096707
Probable space group: C 2/M
;
_chemical_formula_sum "Si O2"
_cell_formula_units_Z 48
_cell_length_a 23.224458
_cell_length_b 9.023383
_cell_length_c 30.643570
_cell_angle_alpha 90.000000
_cell_angle_beta 154.867852
_cell_angle_gamma 90.000000
_cell_volume 2727.371061
_symmetry_space_group_name_H-M "C 2/M"
_symmetry_group_IT_number 12
_symmetry_cell_setting 'monoclinic'
loop_
_space_group_symop_operation_xyz
x,y,z
-x,y,-z
-x,-y,-z
x,-y,z
1/2+x,1/2+y,z
1/2-x,1/2+y,-z
1/2-x,1/2-y,-z
1/2+x,1/2-y,z
loop_
_atom_site_type_symbol
_atom_site_label
_atom_site_fract_x
_atom_site_fract_y
_atom_site_fract_z
Si Si1 0.226289 0.670698 0.354840
Si Si2 0.970970 0.165365 0.417573
Si Si3 0.646619 0.824831 0.395904
Si Si4 0.295611 0.326220 0.745484
Si Si5 0.418393 0.332804 0.284195
Si Si6 0.626042 0.174686 0.115470
O O1 0.185755 0.500000 0.321632
O O2 0.388528 0.692924 0.461151
O O3 0.176175 0.730381 0.367114
O O4 0.154665 0.763538 0.267178
O O5 0.862487 0.287513 0.356896
O O6 0.999714 0.174390 0.385628
O O7 0.913751 0.000000 0.389244
O O8 0.750000 0.750000 0.500000
O O9 0.492984 0.775827 0.301603
O O10 0.662881 0.000000 0.411196
O O11 0.317173 0.500000 0.761272
O O12 0.384414 0.254444 0.844992
O O13 0.420956 0.500000 0.267319
O O14 0.263808 0.278766 0.185093
O O15 0.625086 0.000000 0.123576
O O16 0.500000 0.227167 0.000000
#
# Coordination Sequence:
#
# PCOD8096707 Si02
#       6
#     8   8   8   8   8   8
#     4  10  20  34  49  67  99 145 182 206 242 302
#     4   9  17  32  50  68  99 142 178 207 245 303
#     4  11  21  33  50  73 104 143 181 212 247 295
#     4  11  22  32  47  77 107 130 164 216 268 304
#     4   9  17  32  52  78 105 131 170 214 255 301
#     4   9  19  38  62  80  98 132 172 209 257 319
#
# _framework density 17.599366
#
# number of rings (size 3 to 8) (size 9 to 14) (size 15 to 20)
#    0.000    2.167    1.667    3.500    0.000    7.000 
#    0.000    0.000    0.000    1.000    0.000    0.000 
#    0.000    0.000    0.000    0.000    0.000    0.000 
#
# Total GULP energy -297606.922753 kJ/mol
# GULP energy per Si atom -12400.288448 kJ/mol
# Density = 1.755931 g / cm^3
# Si number density = 17.599366 Si / 1000 Ang^3
#
#
#
# Elastic Constant Matrix: (Units=GPa)
#
#
# Indices 1 2 3 4 5 6 
#
# 1 110.0462 52.8269 51.0516 -0.0007 -22.5107 -0.0003
# 2 52.8269 78.6848 41.2602 -0.0035 -14.1867 -0.0022
# 3 51.0516 41.2602 102.5972 -0.0030 -18.4555 -0.0003
# 4 -0.0007 -0.0035 -0.0030 19.3109 -0.0011 0.6914
# 5 -22.5107 -14.1867 -18.4555 -0.0011 22.3227 0.0000
# 6 -0.0003 -0.0022 -0.0003 0.6914 0.0000 29.8887
#
#
#
# Elastic Compliance Matrix: (Units=1/GPa)
#
#
# Indices 1 2 3 4 5 6 
#
# 1 0.015980 -0.007377 -0.003441 -0.000001 0.008581 0.000000
# 2 -0.007377 0.020160 -0.004077 0.000003 0.002003 0.000001
# 3 -0.003441 -0.004077 0.014106 0.000002 0.005601 0.000000
# 4 -0.000001 0.000003 0.000002 0.051827 0.000005 -0.001199
# 5 0.008581 0.002003 0.005601 0.000005 0.059355 0.000000
# 6 0.000000 0.000001 0.000000 -0.001199 0.000000 0.033485
#
#
# Mechanical properties :
#
#
# Convention : Reuss Voigt Hill
#
# Bulk Modulus (GPa) = 48.88265 64.62284 56.75274
# Shear Modulus (GPa) = 21.59610 24.05041 22.82326
#
# Velocity S-wave (km/s) = 3.50679 3.70070 3.60505
# Velocity P-wave (km/s) = 6.65074 7.42016 7.04596
#
# Compressibility (1/GPa) = 0.02045716
#
# Stress axis : x y z
#
# Youngs Moduli (GPa) = 62.57754 49.60212 70.89058
#
# Poissons Ratio (x) = 0.36591 0.24396
# Poissons Ratio (y) = 0.46163 0.28899
# Poissons Ratio (z) = 0.21535 0.20221
#
# Static dielectric constant tensor:
#      x y z
#    x 3.376820 0.000000 -0.114240 
#    y 0.000000 3.129870 0.000000 
#    z -0.114240 0.000000 3.112640 
# 
# 
# High freq. dielectric constant tensor:
#      x y z
#    x 1.681820 0.000000 -0.013750 
#    y 0.000000 1.671340 0.000000 
#    z -0.013750 0.000000 1.650020 
# 
# From -- ./inp_files/236316.got.cif
#   From: 2010.06.25/outbox.cif.g09.slc.cpg/sg12_119_cif.got.tgz:236316.got - 2010.06.28 00:19:55.
