data_PCOD8096112
_publ_section_title
;
Structure prediction by ZEFSAII (Michael W. Deem and Ramdas Pophale) SiO2 
 PCOD8096112
Probable space group: C 2/M
;
_chemical_formula_sum "Si O2"
_cell_formula_units_Z 64
_cell_length_a 15.169415
_cell_length_b 9.612156
_cell_length_c 23.698142
_cell_angle_alpha 90.000000
_cell_angle_beta 90.985882
_cell_angle_gamma 90.000000
_cell_volume 3454.933124
_symmetry_space_group_name_H-M "C 2/M"
_symmetry_group_IT_number 12
_symmetry_cell_setting 'monoclinic'
loop_
_space_group_symop_operation_xyz
x,y,z
-x,y,-z
-x,-y,-z
x,-y,z
1/2+x,1/2+y,z
1/2-x,1/2+y,-z
1/2-x,1/2-y,-z
1/2+x,1/2-y,z
loop_
_atom_site_type_symbol
_atom_site_label
_atom_site_fract_x
_atom_site_fract_y
_atom_site_fract_z
Si Si1 0.976775 0.838496 0.563498
Si Si2 0.384171 0.838211 0.367681
Si Si3 0.976591 0.841779 0.061325
Si Si4 0.361377 0.836673 0.238410
Si Si5 0.727671 0.343146 0.946598
Si Si6 0.218688 0.341095 0.174601
Si Si7 0.523058 0.158531 0.163452
Si Si8 0.224408 0.160625 0.446175
O O1 0.874564 0.803856 0.575047
O O2 0.000000 0.795848 0.500000
O O3 0.035783 0.748375 0.605792
O O4 0.998209 0.000000 0.574303
O O5 0.374209 0.793069 0.303034
O O6 0.291483 0.803701 0.396634
O O7 0.408366 0.000000 0.374053
O O8 0.873623 0.830228 0.071254
O O9 0.026363 0.750510 0.107639
O O10 0.010849 0.000000 0.066974
O O11 0.000000 0.782131 0.000000
O O12 0.276990 0.757587 0.213749
O O13 0.448786 0.789348 0.205984
O O14 0.343430 0.000000 0.232065
O O15 0.752996 0.500000 0.963838
O O16 0.779498 0.294748 0.891215
O O17 0.750000 0.250000 0.000000
O O18 0.253144 0.500000 0.180145
O O19 0.117987 0.328156 0.194798
O O20 0.504653 0.000000 0.144935
O O21 0.250000 0.250000 0.500000
O O22 0.230303 0.000000 0.464484
#
# Coordination Sequence:
#
# PCOD8096112 Si02
#       8
#     8   8   8   8   8   8   8   8
#     4  10  20  35  56  84 116 147 185 230 276 327
#     4  10  22  38  57  83 115 149 188 230 274 328
#     4  10  20  34  53  80 112 142 179 228 278 331
#     4  10  22  40  58  81 113 149 189 231 274 327
#     4  10  20  33  51  78 110 140 177 224 274 330
#     4  10  21  38  58  81 109 145 187 231 277 329
#     4  10  21  37  58  81 109 145 185 229 277 329
#     4  10  20  35  56  82 114 149 184 227 276 328
#
# _framework density 18.524236999999999
#
# number of rings (size 3 to 8) (size 9 to 14) (size 15 to 20)
#    0.000    2.000    2.500    0.750    0.000    4.000 
#    0.000    0.000    0.000    0.000    0.000    0.000 
#    0.000    0.000    0.000    0.000    0.000    0.000 
#
# Total GULP energy -396889.220100 kJ/mol
# GULP energy per Si atom -12402.788128 kJ/mol
# Density = 1.848207 g / cm^3
# Si number density = 18.524237 Si / 1000 Ang^3
#
#
#
# Elastic Constant Matrix: (Units=GPa)
#
#
# Indices 1 2 3 4 5 6 
#
# 1 120.3433 49.1030 62.3563 0.0000 2.1854 0.0000
# 2 49.1030 70.4785 66.0138 0.0000 13.5562 0.0000
# 3 62.3563 66.0138 136.5756 0.0000 7.5051 0.0000
# 4 0.0000 0.0000 0.0000 31.4202 0.0000 10.3133
# 5 2.1854 13.5562 7.5051 0.0000 29.4346 0.0000
# 6 0.0000 0.0000 0.0000 10.3133 0.0000 29.2063
#
#
#
# Elastic Compliance Matrix: (Units=1/GPa)
#
#
# Indices 1 2 3 4 5 6 
#
# 1 0.012325 -0.006794 -0.002500 0.000000 0.002851 0.000000
# 2 -0.006794 0.032175 -0.011829 0.000000 -0.011298 0.000000
# 3 -0.002500 -0.011829 0.014069 0.000000 0.002046 0.000000
# 4 0.000000 0.000000 0.000000 0.035999 0.000000 -0.012712
# 5 0.002851 -0.011298 0.002046 0.000000 0.038443 0.000000
# 6 0.000000 0.000000 0.000000 -0.012712 0.000000 0.038728
#
#
# Mechanical properties :
#
#
# Convention : Reuss Voigt Hill
#
# Bulk Modulus (GPa) = 61.26476 75.81594 68.54035
# Shear Modulus (GPa) = 22.78673 28.00717 25.39695
#
# Velocity S-wave (km/s) = 3.51109 3.89256 3.70673
# Velocity P-wave (km/s) = 7.04142 7.82429 7.44315
#
# Compressibility (1/GPa) = 0.01632260
#
# Stress axis : x y z
#
# Youngs Moduli (GPa) = 81.13387 31.08045 71.08018
#
# Poissons Ratio (x) = 0.21115 0.17773
# Poissons Ratio (y) = 0.55119 0.84081
# Poissons Ratio (z) = 0.20286 0.36765
#
# Static dielectric constant tensor:
#      x y z
#    x 3.572800 0.000000 -0.207120 
#    y 0.000000 3.382100 0.000000 
#    z -0.207120 0.000000 3.317360 
# 
# 
# High freq. dielectric constant tensor:
#      x y z
#    x 1.731750 0.000000 -0.010370 
#    y 0.000000 1.714530 0.000000 
#    z -0.010370 0.000000 1.711270 
# 
# From -- ./inp_files/338904.got.cif
#   From: 2010.06.25/outbox.cif.g09.slc.cpg/sg12_170_cif.got.tgz:338904.got - 2010.06.28 00:19:55.
