data_PCOD8096556
_publ_section_title
;
Structure prediction by ZEFSAII (Michael W. Deem and Ramdas Pophale) SiO2 
 PCOD8096556
Probable space group: C 2/M
;
_chemical_formula_sum "Si O2"
_cell_formula_units_Z 48
_cell_length_a 22.988537
_cell_length_b 9.324330
_cell_length_c 19.833119
_cell_angle_alpha 90.000000
_cell_angle_beta 143.865912
_cell_angle_gamma 90.000000
_cell_volume 2506.883485
_symmetry_space_group_name_H-M "C 2/M"
_symmetry_group_IT_number 12
_symmetry_cell_setting 'monoclinic'
loop_
_space_group_symop_operation_xyz
x,y,z
-x,y,-z
-x,-y,-z
x,-y,z
1/2+x,1/2+y,z
1/2-x,1/2+y,-z
1/2-x,1/2-y,-z
1/2+x,1/2-y,z
loop_
_atom_site_type_symbol
_atom_site_label
_atom_site_fract_x
_atom_site_fract_y
_atom_site_fract_z
Si Si1 0.063766 0.162571 0.225725
Si Si2 0.663232 0.663247 0.452786
Si Si3 0.593660 0.165334 0.625546
Si Si4 0.276665 0.835425 0.375413
Si Si5 0.816479 0.332657 0.154138
Si Si6 0.124455 0.666626 0.940613
O O1 0.072629 0.169383 0.315713
O O2 0.163755 0.215220 0.281617
O O3 0.975230 0.266752 0.121655
O O4 0.038942 0.000000 0.180267
O O5 0.695097 0.500000 0.496614
O O6 0.750000 0.750000 0.500000
O O7 0.644875 0.742583 0.506904
O O8 0.500000 0.239924 0.500000
O O9 0.692649 0.184574 0.673456
O O10 0.616246 0.227852 0.721189
O O11 0.565969 0.000000 0.609594
O O12 0.286362 0.000000 0.408301
O O13 0.790366 0.500000 0.140025
O O14 0.874060 0.307566 0.138432
O O15 0.715676 0.244253 0.061127
O O16 0.128559 0.500000 0.962820
#
# Coordination Sequence:
#
# PCOD8096556 Si02
#       6
#     8   8   8   8   8   8
#     4   9  18  31  48  74 105 137 171 212 261 311
#     4   9  17  29  46  71 104 139 173 211 257 305
#     4   9  18  33  56  81 105 137 178 218 258 314
#     4   9  18  32  51  76 107 139 174 217 264 313
#     4   9  19  36  55  78 105 135 173 219 264 308
#     4  10  20  33  55  81 102 134 176 219 266 310
#
# _framework density 19.147279999999999
#
# number of rings (size 3 to 8) (size 9 to 14) (size 15 to 20)
#    0.000    2.833    0.000    2.000    2.333    4.000 
#    0.000    1.667    0.000    6.000    0.000    0.000 
#    0.000    0.000    0.000    0.000    0.000    0.000 
#
# Total GULP energy -297434.012238 kJ/mol
# GULP energy per Si atom -12393.083843 kJ/mol
# Density = 1.910370 g / cm^3
# Si number density = 19.147280 Si / 1000 Ang^3
#
#
#
# Elastic Constant Matrix: (Units=GPa)
#
#
# Indices 1 2 3 4 5 6 
#
# 1 63.2437 17.0439 47.1862 0.0000 5.3376 0.0000
# 2 17.0439 70.1668 36.8698 0.0000 8.9388 0.0000
# 3 47.1862 36.8698 116.8828 0.0000 -0.2677 0.0000
# 4 0.0000 0.0000 0.0000 27.2742 0.0000 0.5996
# 5 5.3376 8.9388 -0.2677 0.0000 32.3261 0.0000
# 6 0.0000 0.0000 0.0000 0.5996 0.0000 16.7112
#
#
#
# Elastic Compliance Matrix: (Units=1/GPa)
#
#
# Indices 1 2 3 4 5 6 
#
# 1 0.023111 -0.000264 -0.009256 0.000000 -0.003820 0.000000
# 2 -0.000264 0.017854 -0.005537 0.000000 -0.004939 0.000000
# 3 -0.009256 -0.005537 0.014046 0.000000 0.003176 0.000000
# 4 0.000000 0.000000 0.000000 0.036694 0.000000 -0.001317
# 5 -0.003820 -0.004939 0.003176 0.000000 0.032958 0.000000
# 6 0.000000 0.000000 0.000000 -0.001317 0.000000 0.059887
#
#
# Mechanical properties :
#
#
# Convention : Reuss Voigt Hill
#
# Bulk Modulus (GPa) = 40.16232 50.27699 45.21966
# Shear Modulus (GPa) = 22.42536 25.20854 23.81695
#
# Velocity S-wave (km/s) = 3.42600 3.63238 3.53070
# Velocity P-wave (km/s) = 6.05565 6.62626 6.34737
#
# Compressibility (1/GPa) = 0.02489896
#
# Stress axis : x y z
#
# Youngs Moduli (GPa) = 43.26966 56.00832 71.19498
#
# Poissons Ratio (x) = 0.01477 0.65895
# Poissons Ratio (y) = 0.01141 0.39420
# Poissons Ratio (z) = 0.40048 0.31011
#
# Static dielectric constant tensor:
#      x y z
#    x 3.524510 0.000000 -0.236040 
#    y 0.000000 3.533000 0.000000 
#    z -0.236040 0.000000 3.651280 
# 
# 
# High freq. dielectric constant tensor:
#      x y z
#    x 1.731480 0.000000 0.002760 
#    y 0.000000 1.725490 0.000000 
#    z 0.002760 0.000000 1.732260 
# 
# From -- ./inp_files/327321.got.cif
#   From: 2010.06.25/outbox.cif.g09.slc.cpg/sg12_164_cif.got.tgz:327321.got - 2010.06.28 00:19:55.
