data_PCOD8096383
_publ_section_title
;
Structure prediction by ZEFSAII (Michael W. Deem and Ramdas Pophale) SiO2 
 PCOD8096383
Probable space group: C 2/M
;
_chemical_formula_sum "Si O2"
_cell_formula_units_Z 56
_cell_length_a 32.164394
_cell_length_b 9.008531
_cell_length_c 20.930468
_cell_angle_alpha 90.000000
_cell_angle_beta 151.699792
_cell_angle_gamma 90.000000
_cell_volume 2875.215309
_symmetry_space_group_name_H-M "C 2/M"
_symmetry_group_IT_number 12
_symmetry_cell_setting 'monoclinic'
loop_
_space_group_symop_operation_xyz
x,y,z
-x,y,-z
-x,-y,-z
x,-y,z
1/2+x,1/2+y,z
1/2-x,1/2+y,-z
1/2-x,1/2-y,-z
1/2+x,1/2-y,z
loop_
_atom_site_type_symbol
_atom_site_label
_atom_site_fract_x
_atom_site_fract_y
_atom_site_fract_z
Si Si1 0.383454 0.672336 0.378049
Si Si2 0.384485 0.174889 0.672206
Si Si3 0.953085 0.329986 0.353651
Si Si4 0.328786 0.168918 0.071949
Si Si5 0.918520 0.324237 0.068451
Si Si6 0.775218 0.825896 0.630488
Si Si7 0.705850 0.829343 0.210658
O O1 0.407429 0.500000 0.404240
O O2 0.387739 0.747496 0.314262
O O3 0.452676 0.750501 0.518909
O O4 0.287384 0.696859 0.274794
O O5 0.482234 0.237133 0.791300
O O6 0.321275 0.216798 0.527201
O O7 0.350086 0.248970 0.690217
O O8 0.386028 0.000000 0.686267
O O9 0.963759 0.500000 0.389887
O O10 0.915793 0.319592 0.232367
O O11 0.356704 0.240979 0.041567
O O12 0.297967 0.000000 0.021105
O O13 0.250000 0.250000 0.000000
O O14 0.919494 0.500000 0.079283
O O15 0.879472 0.282633 0.946130
O O16 0.785024 0.774336 0.716120
O O17 0.790514 0.000000 0.647747
O O18 0.699915 0.000000 0.225185
#
# Coordination Sequence:
#
# PCOD8096383 Si02
#       7
#     8   8   8   8   8   8   8
#     4  10  20  34  53  77 109 146 185 230 278 330
#     4   9  19  38  62  83 107 144 187 226 269 330
#     4  10  20  33  53  79 107 144 186 235 282 329
#     4  10  21  36  56  80 110 147 189 232 278 327
#     4   9  19  37  59  81 107 147 194 229 266 327
#     4  10  21  36  59  86 114 144 175 227 286 332
#     4  10  21  36  56  81 109 146 187 228 271 327
#
# _framework density 19.476800999999998
#
# number of rings (size 3 to 8) (size 9 to 14) (size 15 to 20)
#    0.000    2.286    0.000    3.000    2.000    4.571 
#    0.000    5.000    0.000    0.000    0.000    0.000 
#    0.000    0.000    0.000    0.000    0.000    0.000 
#
# Total GULP energy -347175.188640 kJ/mol
# GULP energy per Si atom -12399.113880 kJ/mol
# Density = 1.943247 g / cm^3
# Si number density = 19.476801 Si / 1000 Ang^3
#
#
#
# Elastic Constant Matrix: (Units=GPa)
#
#
# Indices 1 2 3 4 5 6 
#
# 1 86.2726 31.9843 57.4184 0.0000 2.1193 0.0000
# 2 31.9843 69.7885 30.5359 0.0000 3.4262 0.0000
# 3 57.4184 30.5359 107.1853 0.0000 7.4855 0.0000
# 4 0.0000 0.0000 0.0000 21.2677 0.0000 -2.3090
# 5 2.1193 3.4262 7.4855 0.0000 34.3755 0.0000
# 6 0.0000 0.0000 0.0000 -2.3090 0.0000 29.8342
#
#
#
# Elastic Compliance Matrix: (Units=1/GPa)
#
#
# Indices 1 2 3 4 5 6 
#
# 1 0.019466 -0.005007 -0.009091 0.000000 0.001279 0.000000
# 2 -0.005007 0.017670 -0.002285 0.000000 -0.000955 0.000000
# 3 -0.009091 -0.002285 0.015024 0.000000 -0.002483 0.000000
# 4 0.000000 0.000000 0.000000 0.047418 0.000000 0.003670
# 5 0.001279 -0.000955 -0.002483 0.000000 0.029648 0.000000
# 6 0.000000 0.000000 0.000000 0.003670 0.000000 0.033803
#
#
# Mechanical properties :
#
#
# Convention : Reuss Voigt Hill
#
# Bulk Modulus (GPa) = 51.55971 55.90261 53.73116
# Shear Modulus (GPa) = 24.72066 26.64933 25.68499
#
# Velocity S-wave (km/s) = 3.56650 3.70301 3.63540
# Velocity P-wave (km/s) = 6.59467 6.85912 6.72820
#
# Compressibility (1/GPa) = 0.01939499
#
# Stress axis : x y z
#
# Youngs Moduli (GPa) = 51.37083 56.59181 66.55963
#
# Poissons Ratio (x) = 0.28333 0.60509
# Poissons Ratio (y) = 0.25719 0.15212
# Poissons Ratio (z) = 0.46701 0.12934
#
# Static dielectric constant tensor:
#      x y z
#    x 3.555790 0.000000 -0.033110 
#    y 0.000000 3.450850 0.000000 
#    z -0.033110 0.000000 3.739320 
# 
# 
# High freq. dielectric constant tensor:
#      x y z
#    x 1.757290 0.000000 -0.003430 
#    y 0.000000 1.742120 0.000000 
#    z -0.003430 0.000000 1.769440 
# 
# From -- ./inp_files/329705.got.cif
#   From: 2010.06.25/outbox.cif.g09.slc.cpg/sg12_165_cif.got.tgz:329705.got - 2010.06.28 00:19:55.
