data_PCOD8096554
_publ_section_title
;
Structure prediction by ZEFSAII (Michael W. Deem and Ramdas Pophale) SiO2 
 PCOD8096554
Probable space group: C 2/M
;
_chemical_formula_sum "Si O2"
_cell_formula_units_Z 64
_cell_length_a 24.074311
_cell_length_b 13.886194
_cell_length_c 10.306864
_cell_angle_alpha 90.000000
_cell_angle_beta 95.795096
_cell_angle_gamma 90.000000
_cell_volume 3427.981144
_symmetry_space_group_name_H-M "C 2/M"
_symmetry_group_IT_number 12
_symmetry_cell_setting 'monoclinic'
loop_
_space_group_symop_operation_xyz
x,y,z
-x,y,-z
-x,-y,-z
x,-y,z
1/2+x,1/2+y,z
1/2-x,1/2+y,-z
1/2-x,1/2-y,-z
1/2+x,1/2-y,z
loop_
_atom_site_type_symbol
_atom_site_label
_atom_site_fract_x
_atom_site_fract_y
_atom_site_fract_z
Si Si1 0.856420 0.396171 0.757085
Si Si2 0.519204 0.112494 0.149062
Si Si3 0.885299 0.891675 0.613575
Si Si4 0.283482 0.105873 0.992314
Si Si5 0.602262 0.391836 0.686284
Si Si6 0.698775 0.272835 0.837392
Si Si7 0.005241 0.772134 0.350038
Si Si8 0.213197 0.761545 0.365126
O O1 0.861401 0.500000 0.688737
O O2 0.915387 0.365582 0.829425
O O3 0.832742 0.323845 0.644167
O O4 0.814050 0.403231 0.864342
O O5 0.492391 0.179783 0.255175
O O6 0.504270 0.000000 0.172260
O O7 0.500000 0.142774 0.000000
O O8 0.881334 0.893231 0.458758
O O9 0.934765 0.819587 0.669016
O O10 0.824216 0.858246 0.649709
O O11 0.896585 0.000000 0.668896
O O12 0.319063 0.172799 0.098359
O O13 0.275443 0.000000 0.052480
O O14 0.223130 0.154166 0.951381
O O15 0.606591 0.500000 0.744975
O O16 0.644430 0.319832 0.765146
O O17 0.539735 0.354451 0.691875
O O18 0.746297 0.243792 0.746835
O O19 0.000000 0.739944 0.500000
O O20 0.250000 0.750000 0.500000
#
# Coordination Sequence:
#
# PCOD8096554 Si02
#       8
#     8   8   8   8   8   8   8   8
#     4   9  19  36  58  78 106 148 188 230 280 343
#     4  10  21  37  60  87 114 151 195 234 288 353
#     4  10  20  36  57  81 112 149 188 234 284 341
#     4   9  19  35  53  76 107 144 187 227 275 333
#     4  10  20  35  57  83 109 144 190 234 280 340
#     4  10  20  33  55  80 110 146 183 230 281 331
#     4  10  21  38  61  85 116 150 192 242 292 340
#     4  11  20  34  55  83 117 145 185 230 286 344
#
# _framework density 18.669882000000001
#
# number of rings (size 3 to 8) (size 9 to 14) (size 15 to 20)
#    0.000    2.125    2.500    0.750    1.750    3.250 
#    0.000    0.000    0.000    5.250    0.000    0.000 
#    0.000    0.000    0.000    0.000    0.000    0.000 
#
# Total GULP energy -396633.370419 kJ/mol
# GULP energy per Si atom -12394.792826 kJ/mol
# Density = 1.862739 g / cm^3
# Si number density = 18.669882 Si / 1000 Ang^3
#
#
#
# Elastic Constant Matrix: (Units=GPa)
#
#
# Indices 1 2 3 4 5 6 
#
# 1 84.3286 39.6681 29.4425 0.0000 19.2784 0.0000
# 2 39.6681 138.0559 59.7702 0.0000 11.8600 0.0000
# 3 29.4425 59.7702 67.9650 0.0000 15.2842 0.0000
# 4 0.0000 0.0000 0.0000 28.9981 0.0000 4.2911
# 5 19.2784 11.8600 15.2842 0.0000 21.2411 0.0000
# 6 0.0000 0.0000 0.0000 4.2911 0.0000 27.2605
#
#
#
# Elastic Compliance Matrix: (Units=1/GPa)
#
#
# Indices 1 2 3 4 5 6 
#
# 1 0.016674 -0.002911 -0.001939 0.000000 -0.012112 0.000000
# 2 -0.002911 0.012224 -0.010199 0.000000 0.003155 0.000000
# 3 -0.001939 -0.010199 0.027257 0.000000 -0.012158 0.000000
# 4 0.000000 0.000000 0.000000 0.035307 0.000000 -0.005558
# 5 -0.012112 0.003155 -0.012158 0.000000 0.065059 0.000000
# 6 0.000000 0.000000 0.000000 -0.005558 0.000000 0.037558
#
#
# Mechanical properties :
#
#
# Convention : Reuss Voigt Hill
#
# Bulk Modulus (GPa) = 38.37775 60.90123 49.63949
# Shear Modulus (GPa) = 21.47186 26.26452 23.86819
#
# Velocity S-wave (km/s) = 3.39496 3.75478 3.57940
# Velocity P-wave (km/s) = 5.99736 7.17556 6.61275
#
# Compressibility (1/GPa) = 0.02605677
#
# Stress axis : x y z
#
# Youngs Moduli (GPa) = 59.97466 81.80413 36.68775
#
# Poissons Ratio (x) = 0.23811 0.07115
# Poissons Ratio (y) = 0.17457 0.37418
# Poissons Ratio (z) = 0.11632 0.83432
#
# Static dielectric constant tensor:
#      x y z
#    x 3.396690 0.000000 0.114850 
#    y 0.000000 3.852770 0.000000 
#    z 0.114850 0.000000 3.386400 
# 
# 
# High freq. dielectric constant tensor:
#      x y z
#    x 1.726350 0.000000 0.011020 
#    y 0.000000 1.734930 0.000000 
#    z 0.011020 0.000000 1.702600 
# 
# From -- ./inp_files/96909.got.cif
#   From: 2010.06.25/outbox.cif.g09.slc.cpg/sg12_49_cif.got.tgz:96909.got - 2010.06.28 00:19:55.
