data_PCOD8096993
_publ_section_title
;
Structure prediction by ZEFSAII (Michael W. Deem and Ramdas Pophale) SiO2 
 PCOD8096993
Probable space group: C 2/M
;
_chemical_formula_sum "Si O2"
_cell_formula_units_Z 64
_cell_length_a 19.521050
_cell_length_b 8.568998
_cell_length_c 21.489738
_cell_angle_alpha 90.000000
_cell_angle_beta 76.713485
_cell_angle_gamma 90.000000
_cell_volume 3498.494196
_symmetry_space_group_name_H-M "C 2/M"
_symmetry_group_IT_number 12
_symmetry_cell_setting 'monoclinic'
loop_
_space_group_symop_operation_xyz
x,y,z
-x,y,-z
-x,-y,-z
x,-y,z
1/2+x,1/2+y,z
1/2-x,1/2+y,-z
1/2-x,1/2-y,-z
1/2+x,1/2-y,z
loop_
_atom_site_type_symbol
_atom_site_label
_atom_site_fract_x
_atom_site_fract_y
_atom_site_fract_z
Si Si1 0.539499 0.817677 0.553423
Si Si2 0.968826 0.815183 0.821798
Si Si3 0.645710 0.180933 0.683934
Si Si4 0.690020 0.684250 0.556345
Si Si5 0.117825 0.319394 0.824512
Si Si6 0.500774 0.680164 0.682175
Si Si7 0.844700 0.185137 0.933800
Si Si8 0.690194 0.814935 0.932742
O O1 0.500000 0.758790 0.500000
O O2 0.613248 0.727902 0.545359
O O3 0.486959 0.780287 0.622547
O O4 0.555861 0.000000 0.546671
O O5 0.905509 0.746781 0.876475
O O6 0.042223 0.758721 0.834244
O O7 0.956503 0.762478 0.752085
O O8 0.969661 0.000000 0.823822
O O9 0.704004 0.236921 0.621800
O O10 0.666220 0.204166 0.752252
O O11 0.581452 0.296486 0.684281
O O12 0.625278 0.000000 0.675674
O O13 0.697228 0.500000 0.560215
O O14 0.750000 0.750000 0.500000
O O15 0.103352 0.500000 0.839177
O O16 0.159315 0.247547 0.874564
O O17 0.485913 0.500000 0.670048
O O18 0.770182 0.245803 0.922709
O O19 0.847460 0.000000 0.935525
O O20 0.856703 0.250396 0.000693
O O21 0.688164 0.000000 0.934056
#
# Coordination Sequence:
#
# PCOD8096993 Si02
#       8
#     8   8   8   8   8   8   8   8
#     4  10  20  34  52  74 102 133 164 202 247 292
#     4   9  18  31  48  71  96 122 156 199 241 281
#     4   9  16  29  48  70  96 126 160 195 240 291
#     4  11  21  34  53  75 101 132 167 205 245 291
#     4   9  18  31  49  72  96 123 156 197 240 282
#     4   9  16  28  47  70  95 125 161 197 238 288
#     4   9  18  33  50  67  92 126 159 192 234 283
#     4   9  18  33  50  68  93 125 160 194 232 282
#
# _framework density 18.293583999999999
#
# number of rings (size 3 to 8) (size 9 to 14) (size 15 to 20)
#    0.000    2.625    0.000    3.750    0.000    3.500 
#    0.000    3.750    0.000    3.000    0.000    0.000 
#    0.000    0.000    0.000    0.000    0.000    0.000 
#
# Total GULP energy -396551.224589 kJ/mol
# GULP energy per Si atom -12392.225768 kJ/mol
# Density = 1.825195 g / cm^3
# Si number density = 18.293584 Si / 1000 Ang^3
#
#
#
# Elastic Constant Matrix: (Units=GPa)
#
#
# Indices 1 2 3 4 5 6 
#
# 1 66.7493 19.6646 77.8050 0.0000 -2.4903 0.0000
# 2 19.6646 41.6933 33.4160 0.0000 -0.9151 0.0000
# 3 77.8050 33.4160 204.2111 0.0000 -2.0612 0.0000
# 4 0.0000 0.0000 0.0000 30.9686 0.0000 -1.1595
# 5 -2.4903 -0.9151 -2.0612 0.0000 35.2344 0.0000
# 6 0.0000 0.0000 0.0000 -1.1595 0.0000 20.0405
#
#
#
# Elastic Compliance Matrix: (Units=1/GPa)
#
#
# Indices 1 2 3 4 5 6 
#
# 1 0.028006 -0.005340 -0.009784 0.000000 0.001268 0.000000
# 2 -0.005340 0.028630 -0.002648 0.000000 0.000211 0.000000
# 3 -0.009784 -0.002648 0.009056 0.000000 -0.000231 0.000000
# 4 0.000000 0.000000 0.000000 0.032361 0.000000 0.001872
# 5 0.001268 0.000211 -0.000231 0.000000 0.028463 0.000000
# 6 0.000000 0.000000 0.000000 0.001872 0.000000 0.050007
#
#
# Mechanical properties :
#
#
# Convention : Reuss Voigt Hill
#
# Bulk Modulus (GPa) = 33.16939 63.82498 48.49718
# Shear Modulus (GPa) = 22.51068 29.36657 25.93862
#
# Velocity S-wave (km/s) = 3.51169 4.01096 3.76960
# Velocity P-wave (km/s) = 5.88334 7.51102 6.74645
#
# Compressibility (1/GPa) = 0.03014828
#
# Stress axis : x y z
#
# Youngs Moduli (GPa) = 35.70630 34.92796 110.42874
#
# Poissons Ratio (x) = 0.18651 1.08042
# Poissons Ratio (y) = 0.19066 0.29245
# Poissons Ratio (z) = 0.34935 0.09250
#
# Static dielectric constant tensor:
#      x y z
#    x 3.175900 0.000000 -0.056030 
#    y 0.000000 3.283050 0.000000 
#    z -0.056030 0.000000 4.186600 
# 
# 
# High freq. dielectric constant tensor:
#      x y z
#    x 1.665170 0.000000 -0.002780 
#    y 0.000000 1.706960 0.000000 
#    z -0.002780 0.000000 1.734600 
# 
# From -- ./inp_files/319107.got.cif
#   From: 2010.06.25/outbox.cif.g09.slc.cpg/sg12_160_cif.got.tgz:319107.got - 2010.06.28 00:19:55.
