data_PCOD8096416
_publ_section_title
;
Structure prediction by ZEFSAII (Michael W. Deem and Ramdas Pophale) SiO2 
 PCOD8096416
Probable space group: C 2/M
;
_chemical_formula_sum "Si O2"
_cell_formula_units_Z 64
_cell_length_a 30.078130
_cell_length_b 9.028746
_cell_length_c 14.716633
_cell_angle_alpha 90.000000
_cell_angle_beta 59.740964
_cell_angle_gamma 90.000000
_cell_volume 3452.055959
_symmetry_space_group_name_H-M "C 2/M"
_symmetry_group_IT_number 12
_symmetry_cell_setting 'monoclinic'
loop_
_space_group_symop_operation_xyz
x,y,z
-x,y,-z
-x,-y,-z
x,-y,z
1/2+x,1/2+y,z
1/2-x,1/2+y,-z
1/2-x,1/2-y,-z
1/2+x,1/2-y,z
loop_
_atom_site_type_symbol
_atom_site_label
_atom_site_fract_x
_atom_site_fract_y
_atom_site_fract_z
Si Si1 0.902418 0.825188 0.932180
Si Si2 0.361538 0.823618 0.505493
Si Si3 0.283963 0.175735 0.732831
Si Si4 0.616443 0.824849 0.717528
Si Si5 0.134368 0.672924 0.206132
Si Si6 0.002604 0.325764 0.892782
Si Si7 0.443766 0.826426 0.559192
Si Si8 0.169109 0.174895 0.828414
O O1 0.869753 0.766351 0.881112
O O2 0.958972 0.754483 0.878610
O O3 0.907874 0.000000 0.918747
O O4 0.871184 0.776617 0.053626
O O5 0.310023 0.769233 0.611206
O O6 0.364734 0.763971 0.399581
O O7 0.410183 0.759618 0.511438
O O8 0.363750 0.000000 0.502067
O O9 0.316195 0.231028 0.787459
O O10 0.225688 0.234079 0.798276
O O11 0.286567 0.000000 0.731575
O O12 0.557363 0.778133 0.795052
O O13 0.653911 0.749734 0.750364
O O14 0.622217 0.000000 0.720730
O O15 0.139622 0.500000 0.176532
O O16 0.082994 0.703804 0.316937
O O17 0.992941 0.500000 0.894819
O O18 0.000000 0.273140 0.000000
O O19 0.500000 0.750602 0.500000
O O20 0.449103 0.000000 0.536474
O O21 0.169957 0.000000 0.813479
#
# Coordination Sequence:
#
# PCOD8096416 Si02
#       8
#     8   8   8   8   8   8   8   8
#     4  11  23  35  50  75 106 140 175 209 254 309
#     4   8  15  28  48  76 105 129 160 210 258 301
#     4   8  16  34  55  76 102 134 171 212 257 303
#     4  10  20  33  53  81 106 129 168 215 258 302
#     4   9  18  33  55  78 101 132 172 216 256 297
#     4  10  20  35  54  75 103 136 170 215 259 298
#     4   8  14  25  46  76 102 125 161 207 253 298
#     4  10  21  36  53  72 102 141 176 209 252 308
#
# _framework density 18.539676
#
# number of rings (size 3 to 8) (size 9 to 14) (size 15 to 20)
#    0.000    2.750    1.250    1.875    1.750    2.250 
#    0.000    0.625    0.000    3.375    0.000    0.000 
#    0.000    0.000    0.000    0.000    0.000    0.000 
#
# Total GULP energy -396717.059323 kJ/mol
# GULP energy per Si atom -12397.408104 kJ/mol
# Density = 1.849748 g / cm^3
# Si number density = 18.539676 Si / 1000 Ang^3
#
#
#
# Elastic Constant Matrix: (Units=GPa)
#
#
# Indices 1 2 3 4 5 6 
#
# 1 129.2861 26.6622 45.2424 0.0000 0.2243 0.0000
# 2 26.6622 23.4648 20.6495 0.0000 3.7745 0.0000
# 3 45.2424 20.6495 65.7471 0.0000 16.6944 0.0000
# 4 0.0000 0.0000 0.0000 9.9359 0.0000 4.8740
# 5 0.2243 3.7745 16.6944 0.0000 36.1906 0.0000
# 6 0.0000 0.0000 0.0000 4.8740 0.0000 23.5861
#
#
#
# Elastic Compliance Matrix: (Units=1/GPa)
#
#
# Indices 1 2 3 4 5 6 
#
# 1 0.011660 -0.008229 -0.006387 0.000000 0.003732 0.000000
# 2 -0.008229 0.064938 -0.014754 0.000000 0.000084 0.000000
# 3 -0.006387 -0.014754 0.027001 0.000000 -0.010877 0.000000
# 4 0.000000 0.000000 0.000000 0.111998 0.000000 -0.023144
# 5 0.003732 0.000084 -0.010877 0.000000 0.032617 0.000000
# 6 0.000000 0.000000 0.000000 -0.023144 0.000000 0.047181
#
#
# Mechanical properties :
#
#
# Convention : Reuss Voigt Hill
#
# Bulk Modulus (GPa) = 22.29231 44.84515 33.56873
# Shear Modulus (GPa) = 13.54695 22.33878 17.94287
#
# Velocity S-wave (km/s) = 2.70608 3.47496 3.11434
# Velocity P-wave (km/s) = 4.67055 6.35151 5.57475
#
# Compressibility (1/GPa) = 0.04485851
#
# Stress axis : x y z
#
# Youngs Moduli (GPa) = 85.76017 15.39938 37.03628
#
# Poissons Ratio (x) = 0.12672 0.23655
# Poissons Ratio (y) = 0.70572 0.54644
# Poissons Ratio (z) = 0.54775 0.22720
#
# Static dielectric constant tensor:
#      x y z
#    x 3.671990 0.000000 -0.099830 
#    y 0.000000 2.915610 0.000000 
#    z -0.099830 0.000000 3.581570 
# 
# 
# High freq. dielectric constant tensor:
#      x y z
#    x 1.729430 0.000000 0.000030 
#    y 0.000000 1.670390 0.000000 
#    z 0.000030 0.000000 1.725560 
# 
# From -- ./inp_files/248970.got.cif
#   From: 2010.06.25/outbox.cif.g09.slc.cpg/sg12_125_cif.got.tgz:248970.got - 2010.06.28 00:19:55.
