data_PCOD8096223
_publ_section_title
;
Structure prediction by ZEFSAII (Michael W. Deem and Ramdas Pophale) SiO2 
 PCOD8096223
Probable space group: C 2/M
;
_chemical_formula_sum "Si O2"
_cell_formula_units_Z 56
_cell_length_a 29.872983
_cell_length_b 9.457350
_cell_length_c 17.622296
_cell_angle_alpha 90.000000
_cell_angle_beta 144.211122
_cell_angle_gamma 90.000000
_cell_volume 2911.508588
_symmetry_space_group_name_H-M "C 2/M"
_symmetry_group_IT_number 12
_symmetry_cell_setting 'monoclinic'
loop_
_space_group_symop_operation_xyz
x,y,z
-x,y,-z
-x,-y,-z
x,-y,z
1/2+x,1/2+y,z
1/2-x,1/2+y,-z
1/2-x,1/2-y,-z
1/2+x,1/2-y,z
loop_
_atom_site_type_symbol
_atom_site_label
_atom_site_fract_x
_atom_site_fract_y
_atom_site_fract_z
Si Si1 0.675436 0.159064 0.324562
Si Si2 0.862464 0.330624 0.014021
Si Si3 0.408710 0.665585 0.226162
Si Si4 0.567612 0.161625 0.043728
Si Si5 0.581126 0.334344 0.484118
Si Si6 0.649375 0.334919 0.423728
Si Si7 0.812402 0.832612 0.236341
O O1 0.645403 0.174513 0.198076
O O2 0.625648 0.255156 0.313780
O O3 0.762955 0.205060 0.439640
O O4 0.666975 0.000000 0.343118
O O5 0.865427 0.500000 0.026851
O O6 0.896479 0.257795 0.134744
O O7 0.914243 0.274943 0.014476
O O8 0.775053 0.280138 0.879390
O O9 0.400847 0.500000 0.194592
O O10 0.492061 0.697041 0.377151
O O11 0.346879 0.715505 0.203012
O O12 0.542529 0.000000 0.996390
O O13 0.500000 0.237554 0.000000
O O14 0.598318 0.500000 0.505927
O O15 0.601800 0.273685 0.429282
O O16 0.635514 0.266529 0.624113
O O17 0.635018 0.500000 0.391367
O O18 0.817154 0.000000 0.248608
#
# Coordination Sequence:
#
# PCOD8096223 Si02
#       7
#     8   8   8   8   8   8   8
#     4   9  17  30  48  68  93 125 162 201 239 282
#     4  10  20  34  54  76 100 133 170 208 251 298
#     4  10  20  33  52  78 105 131 164 208 255 299
#     4   9  18  31  48  70  95 126 165 201 234 282
#     4   9  17  30  51  75 100 130 167 206 245 292
#     4   9  17  29  47  71  96 123 157 199 244 290
#     4   9  17  32  54  77  99 130 173 211 243 292
#
# _framework density 19.234016
#
# number of rings (size 3 to 8) (size 9 to 14) (size 15 to 20)
#    0.000    2.714    0.000    1.714    2.000    5.143 
#    0.000    0.714    0.000    6.857    0.000    0.000 
#    0.000    0.000    0.000    0.000    0.000    0.000 
#
# Total GULP energy -347052.321428 kJ/mol
# GULP energy per Si atom -12394.725765 kJ/mol
# Density = 1.919024 g / cm^3
# Si number density = 19.234016 Si / 1000 Ang^3
#
#
#
# Elastic Constant Matrix: (Units=GPa)
#
#
# Indices 1 2 3 4 5 6 
#
# 1 144.9935 24.5132 39.5704 0.0000 -10.8919 0.0000
# 2 24.5132 25.0891 17.8026 0.0000 -3.8582 0.0000
# 3 39.5704 17.8026 80.9012 0.0000 -7.4682 0.0000
# 4 0.0000 0.0000 0.0000 19.6434 0.0000 -5.9622
# 5 -10.8919 -3.8582 -7.4682 0.0000 30.1715 0.0000
# 6 0.0000 0.0000 0.0000 -5.9622 0.0000 18.7180
#
#
#
# Elastic Compliance Matrix: (Units=1/GPa)
#
#
# Indices 1 2 3 4 5 6 
#
# 1 0.008867 -0.006443 -0.002763 0.000000 0.001693 0.000000
# 2 -0.006443 0.052288 -0.008138 0.000000 0.002346 0.000000
# 3 -0.002763 -0.008138 0.015673 0.000000 0.001841 0.000000
# 4 0.000000 0.000000 0.000000 0.056356 0.000000 0.017951
# 5 0.001693 0.002346 0.001841 0.000000 0.034511 0.000000
# 6 0.000000 0.000000 0.000000 0.017951 0.000000 0.059142
#
#
# Mechanical properties :
#
#
# Convention : Reuss Voigt Hill
#
# Bulk Modulus (GPa) = 23.73026 46.08402 34.90714
# Shear Modulus (GPa) = 18.14395 24.97974 21.56185
#
# Velocity S-wave (km/s) = 3.07469 3.60770 3.35181
# Velocity P-wave (km/s) = 4.99694 6.43161 5.75913
#
# Compressibility (1/GPa) = 0.04214028
#
# Stress axis : x y z
#
# Youngs Moduli (GPa) = 112.77249 19.12472 63.80354
#
# Poissons Ratio (x) = 0.12322 0.17630
# Poissons Ratio (y) = 0.72657 0.51925
# Poissons Ratio (z) = 0.31161 0.15564
#
# Static dielectric constant tensor:
#      x y z
#    x 3.850890 0.000000 -0.006090 
#    y 0.000000 3.056030 0.000000 
#    z -0.006090 0.000000 3.545720 
# 
# 
# High freq. dielectric constant tensor:
#      x y z
#    x 1.767060 0.000000 -0.001330 
#    y 0.000000 1.683670 0.000000 
#    z -0.001330 0.000000 1.754180 
# 
# From -- ./inp_files/245634.got.cif
#   From: 2010.06.25/outbox.cif.g09.slc.cpg/sg12_123_cif.got.tgz:245634.got - 2010.06.28 00:19:55.
