data_PCOD8096194
_publ_section_title
;
Structure prediction by ZEFSAII (Michael W. Deem and Ramdas Pophale) SiO2 
 PCOD8096194
Probable space group: C 2/M
;
_chemical_formula_sum "Si O2"
_cell_formula_units_Z 56
_cell_length_a 14.354540
_cell_length_b 9.267334
_cell_length_c 24.280095
_cell_angle_alpha 90.000000
_cell_angle_beta 62.965937
_cell_angle_gamma 90.000000
_cell_volume 2877.025482
_symmetry_space_group_name_H-M "C 2/M"
_symmetry_group_IT_number 12
_symmetry_cell_setting 'monoclinic'
loop_
_space_group_symop_operation_xyz
x,y,z
-x,y,-z
-x,-y,-z
x,-y,z
1/2+x,1/2+y,z
1/2-x,1/2+y,-z
1/2-x,1/2-y,-z
1/2+x,1/2-y,z
loop_
_atom_site_type_symbol
_atom_site_label
_atom_site_fract_x
_atom_site_fract_y
_atom_site_fract_z
Si Si1 0.891079 0.336102 0.824319
Si Si2 0.691078 0.341194 0.061202
Si Si3 0.115373 0.667890 0.815074
Si Si4 0.029915 0.159861 0.932495
Si Si5 0.924001 0.168170 0.599180
Si Si6 0.153715 0.833098 0.499504
Si Si7 0.685916 0.831090 0.274344
O O1 0.860677 0.500000 0.846047
O O2 0.807703 0.239303 0.880425
O O3 0.879659 0.300673 0.763280
O O4 0.010086 0.305711 0.809124
O O5 0.742771 0.500000 0.052954
O O6 0.571972 0.356856 0.076450
O O7 0.750000 0.250000 0.000000
O O8 0.142516 0.500000 0.813909
O O9 0.108663 0.735516 0.878583
O O10 0.204318 0.748309 0.756804
O O11 0.081075 0.000000 0.926971
O O12 0.000000 0.227644 0.000000
O O13 0.859490 0.205016 0.561272
O O14 0.882106 0.270613 0.657836
O O15 0.046093 0.205836 0.559300
O O16 0.909677 0.000000 0.618323
O O17 0.250000 0.750000 0.500000
O O18 0.178902 0.000000 0.499837
O O19 0.707615 0.000000 0.277301
#
# Coordination Sequence:
#
# PCOD8096194 Si02
#       7
#     8   8   8   8   8   8   8
#     4   9  21  40  56  74 107 146 184 229 282 340
#     4  10  20  33  52  77 104 135 174 224 282 341
#     4  10  21  38  57  79 108 143 185 234 285 341
#     4   9  19  35  53  74 102 137 175 223 283 342
#     4   9  20  39  58  84 121 156 192 232 278 333
#     4   9  19  37  62  89 121 158 192 232 279 326
#     4  11  23  38  59  84 113 152 193 235 285 337
#
# _framework density 19.464549000000002
#
# number of rings (size 3 to 8) (size 9 to 14) (size 15 to 20)
#    0.000    2.429    0.000    2.143    2.000    4.857 
#    0.000    5.714    0.000    0.000    0.000    0.000 
#    0.000    0.000    0.000    0.000    0.000    0.000 
#
# Total GULP energy -347184.691466 kJ/mol
# GULP energy per Si atom -12399.453267 kJ/mol
# Density = 1.942025 g / cm^3
# Si number density = 19.464549 Si / 1000 Ang^3
#
#
#
# Elastic Constant Matrix: (Units=GPa)
#
#
# Indices 1 2 3 4 5 6 
#
# 1 89.7389 59.4479 50.2657 0.0000 2.7951 0.0000
# 2 59.4479 141.2413 94.5164 0.0000 -2.6238 0.0000
# 3 50.2657 94.5164 159.4960 0.0000 1.3220 0.0000
# 4 0.0000 0.0000 0.0000 41.6467 0.0000 -2.0056
# 5 2.7951 -2.6238 1.3220 0.0000 22.1452 0.0000
# 6 0.0000 0.0000 0.0000 -2.0056 0.0000 29.8330
#
#
#
# Elastic Compliance Matrix: (Units=1/GPa)
#
#
# Indices 1 2 3 4 5 6 
#
# 1 0.015874 -0.005627 -0.001647 0.000000 -0.002572 0.000000
# 2 -0.005627 0.013800 -0.006427 0.000000 0.002729 0.000000
# 3 -0.001647 -0.006427 0.010607 0.000000 -0.001187 0.000000
# 4 0.000000 0.000000 0.000000 0.024089 0.000000 0.001619
# 5 -0.002572 0.002729 -0.001187 0.000000 0.045875 0.000000
# 6 0.000000 0.000000 0.000000 0.001619 0.000000 0.033629
#
#
# Mechanical properties :
#
#
# Convention : Reuss Voigt Hill
#
# Bulk Modulus (GPa) = 77.64449 88.77069 83.20759
# Shear Modulus (GPa) = 28.47882 31.14139 29.81011
#
# Velocity S-wave (km/s) = 3.82921 4.00422 3.91769
# Velocity P-wave (km/s) = 7.71540 8.19046 7.95648
#
# Compressibility (1/GPa) = 0.01287921
#
# Stress axis : x y z
#
# Youngs Moduli (GPa) = 62.99797 72.46377 94.27506
#
# Poissons Ratio (x) = 0.40774 0.15526
# Poissons Ratio (y) = 0.35448 0.60592
# Poissons Ratio (z) = 0.10375 0.46573
#
# Static dielectric constant tensor:
#      x y z
#    x 3.469030 0.000000 0.048330 
#    y 0.000000 8.313030 0.000000 
#    z 0.048330 0.000000 3.495940 
# 
# 
# High freq. dielectric constant tensor:
#      x y z
#    x 1.756920 0.000000 0.001390 
#    y 0.000000 1.762800 0.000000 
#    z 0.001390 0.000000 1.755450 
# 
# From -- ./inp_files/338490.got.cif
#   From: 2010.06.25/outbox.cif.g09.slc.cpg/sg12_170_cif.got.tgz:338490.got - 2010.06.28 00:19:55.
