data_PCOD8096655
_publ_section_title
;
Structure prediction by ZEFSAII (Michael W. Deem and Ramdas Pophale) SiO2 
 PCOD8096655
Probable space group: C 2/M
;
_chemical_formula_sum "Si O2"
_cell_formula_units_Z 56
_cell_length_a 14.727211
_cell_length_b 18.170974
_cell_length_c 12.032173
_cell_angle_alpha 90.000000
_cell_angle_beta 116.402598
_cell_angle_gamma 90.000000
_cell_volume 2884.040030
_symmetry_space_group_name_H-M "C 2/M"
_symmetry_group_IT_number 12
_symmetry_cell_setting 'monoclinic'
loop_
_space_group_symop_operation_xyz
x,y,z
-x,y,-z
-x,-y,-z
x,-y,z
1/2+x,1/2+y,z
1/2-x,1/2+y,-z
1/2-x,1/2-y,-z
1/2+x,1/2-y,z
loop_
_atom_site_type_symbol
_atom_site_label
_atom_site_fract_x
_atom_site_fract_y
_atom_site_fract_z
Si Si1 0.924397 0.345190 0.055721
Si Si2 0.612383 0.716217 0.796437
Si Si3 0.236544 0.419076 0.767759
Si Si4 0.495133 0.919197 0.302600
Si Si5 0.217670 0.084709 0.952335
Si Si6 0.243183 0.731274 0.672657
Si Si7 0.091512 0.725686 0.395881
O O1 0.888703 0.272717 0.102014
O O2 0.987859 0.400199 0.168607
O O3 0.824455 0.387766 0.958823
O O4 0.000000 0.320776 0.000000
O O5 0.626911 0.633661 0.850798
O O6 0.708897 0.736159 0.771832
O O7 0.508562 0.723568 0.669585
O O8 0.271367 0.500000 0.743638
O O9 0.270406 0.355538 0.700871
O O10 0.115722 0.415558 0.705673
O O11 0.282490 0.405429 0.914898
O O12 0.563920 0.859578 0.402381
O O13 0.543576 0.000000 0.344828
O O14 0.199416 0.000000 0.908638
O O15 0.155728 0.750676 0.536270
O O16 0.345885 0.768888 0.685302
#
# Coordination Sequence:
#
# PCOD8096655 Si02
#       7
#     8   8   8   8   8   8   8
#     4  10  20  33  57  87 115 149 187 235 288 340
#     4  11  22  37  60  82 116 153 189 236 284 340
#     4   9  18  35  60  86 115 147 182 233 292 344
#     4   9  18  34  54  84 116 142 179 232 299 344
#     4  10  21  36  55  85 120 156 190 225 283 346
#     4  11  21  39  60  79 116 146 197 237 290 329
#     4  10  23  37  57  87 106 151 195 244 276 344
#
# _framework density 19.417204999999999
#
# number of rings (size 3 to 8) (size 9 to 14) (size 15 to 20)
#    0.000    2.000    4.286    2.143    4.000    1.714 
#    0.000    2.143    0.000    5.571    0.000    0.000 
#    0.000    0.000    0.000    0.000    0.000    0.000 
#
# Total GULP energy -347112.708610 kJ/mol
# GULP energy per Si atom -12396.882450 kJ/mol
# Density = 1.937301 g / cm^3
# Si number density = 19.417205 Si / 1000 Ang^3
#
#
#
# Elastic Constant Matrix: (Units=GPa)
#
#
# Indices 1 2 3 4 5 6 
#
# 1 50.0332 29.2878 17.4750 0.0000 -8.9658 0.0000
# 2 29.2878 136.0226 32.4904 0.0000 7.4713 0.0000
# 3 17.4750 32.4904 33.6205 0.0000 -1.6330 0.0000
# 4 0.0000 0.0000 0.0000 21.2289 0.0000 1.2725
# 5 -8.9658 7.4713 -1.6330 0.0000 26.8670 0.0000
# 6 0.0000 0.0000 0.0000 1.2725 0.0000 18.9336
#
#
#
# Elastic Compliance Matrix: (Units=1/GPa)
#
#
# Indices 1 2 3 4 5 6 
#
# 1 0.027599 -0.004115 -0.009895 0.000000 0.009753 0.000000
# 2 -0.004115 0.010459 -0.008201 0.000000 -0.004780 0.000000
# 3 -0.009895 -0.008201 0.042889 0.000000 0.001585 0.000000
# 4 0.000000 0.000000 0.000000 0.047296 0.000000 -0.003179
# 5 0.009753 -0.004780 0.001585 0.000000 0.041901 0.000000
# 6 0.000000 0.000000 0.000000 -0.003179 0.000000 0.053030
#
#
# Mechanical properties :
#
#
# Convention : Reuss Voigt Hill
#
# Bulk Modulus (GPa) = 27.37786 42.02029 34.69908
# Shear Modulus (GPa) = 17.87174 22.76742 20.31958
#
# Velocity S-wave (km/s) = 3.03711 3.42795 3.23843
# Velocity P-wave (km/s) = 5.14093 6.11192 5.64733
#
# Compressibility (1/GPa) = 0.03652586
#
# Stress axis : x y z
#
# Youngs Moduli (GPa) = 36.23314 95.61015 23.31578
#
# Poissons Ratio (x) = 0.39340 0.23071
# Poissons Ratio (y) = 0.14909 0.19121
# Poissons Ratio (z) = 0.35853 0.78411
#
# Static dielectric constant tensor:
#      x y z
#    x 3.415350 0.000000 -0.024110 
#    y 0.000000 3.709290 0.000000 
#    z -0.024110 0.000000 3.390300 
# 
# 
# High freq. dielectric constant tensor:
#      x y z
#    x 1.734060 0.000000 -0.000340 
#    y 0.000000 1.751680 0.000000 
#    z -0.000340 0.000000 1.746470 
# 
# From -- ./inp_files/145660.got.cif
#   From: 2010.06.25/outbox.cif.g09.slc.cpg/sg12_73_cif.got.tgz:145660.got - 2010.06.28 00:19:55.
