data_PCOD8096946
_publ_section_title
;
Structure prediction by ZEFSAII (Michael W. Deem and Ramdas Pophale) SiO2 
 PCOD8096946
Probable space group: C 2/M
;
_chemical_formula_sum "Si O2"
_cell_formula_units_Z 56
_cell_length_a 14.322926
_cell_length_b 9.318633
_cell_length_c 29.984371
_cell_angle_alpha 90.000000
_cell_angle_beta 128.387434
_cell_angle_gamma 90.000000
_cell_volume 3136.899436
_symmetry_space_group_name_H-M "C 2/M"
_symmetry_group_IT_number 12
_symmetry_cell_setting 'monoclinic'
loop_
_space_group_symop_operation_xyz
x,y,z
-x,y,-z
-x,-y,-z
x,-y,z
1/2+x,1/2+y,z
1/2-x,1/2+y,-z
1/2-x,1/2-y,-z
1/2+x,1/2-y,z
loop_
_atom_site_type_symbol
_atom_site_label
_atom_site_fract_x
_atom_site_fract_y
_atom_site_fract_z
Si Si1 0.161302 0.338726 0.943796
Si Si2 0.438821 0.837442 0.936864
Si Si3 0.453312 0.833272 0.270144
Si Si4 0.308818 0.668007 0.558060
Si Si5 0.795540 0.330581 0.141633
Si Si6 0.417037 0.665529 0.346788
Si Si7 0.774945 0.667492 0.636731
O O1 0.211035 0.500000 0.958910
O O2 0.155841 0.279360 0.891907
O O3 0.028958 0.331111 0.922832
O O4 0.250000 0.250000 0.000000
O O5 0.331640 0.740447 0.888527
O O6 0.395127 0.000000 0.933377
O O7 0.500000 0.775556 0.000000
O O8 0.387699 0.776529 0.206383
O O9 0.396772 0.752849 0.295548
O O10 0.593347 0.802176 0.305037
O O11 0.429720 0.000000 0.271281
O O12 0.276093 0.500000 0.547239
O O13 0.250000 0.750000 0.500000
O O14 0.450193 0.692415 0.595717
O O15 0.255604 0.736596 0.587244
O O16 0.779953 0.500000 0.139808
O O17 0.395675 0.500000 0.328835
O O18 0.322158 0.717016 0.355659
O O19 0.758291 0.500000 0.619312
#
# Coordination Sequence:
#
# PCOD8096946 Si02
#       7
#     8   8   8   8   8   8   8
#     4  10  20  34  52  73 100 131 165 205 253 308
#     4  10  20  34  52  75 100 129 167 208 252 305
#     4   9  19  35  53  75 103 132 170 215 260 311
#     4  10  20  34  52  79 113 144 179 218 258 305
#     4  10  21  35  52  76 103 134 168 208 259 314
#     4   9  19  35  56  79 103 138 179 217 259 306
#     4   9  18  35  57  77 102 139 177 216 261 307
#
# _framework density 17.852022000000002
#
# number of rings (size 3 to 8) (size 9 to 14) (size 15 to 20)
#    0.000    2.429    1.429    0.429    0.000    4.286 
#    0.000    5.714    0.000    0.000    0.000    0.000 
#    0.000    0.000    0.000    0.000    0.000    0.000 
#
# Total GULP energy -347236.358082 kJ/mol
# GULP energy per Si atom -12401.298503 kJ/mol
# Density = 1.781139 g / cm^3
# Si number density = 17.852022 Si / 1000 Ang^3
#
#
#
# Elastic Constant Matrix: (Units=GPa)
#
#
# Indices 1 2 3 4 5 6 
#
# 1 135.4969 48.1519 67.9461 0.0000 -17.4142 0.0000
# 2 48.1519 59.9079 62.5664 0.0000 -10.6300 0.0000
# 3 67.9461 62.5664 156.9689 0.0000 -19.5958 0.0000
# 4 0.0000 0.0000 0.0000 31.3861 0.0000 -1.2161
# 5 -17.4142 -10.6300 -19.5958 0.0000 22.4290 0.0000
# 6 0.0000 0.0000 0.0000 -1.2161 0.0000 29.6993
#
#
#
# Elastic Compliance Matrix: (Units=1/GPa)
#
#
# Indices 1 2 3 4 5 6 
#
# 1 0.011020 -0.006314 -0.001750 0.000000 0.004035 0.000000
# 2 -0.006314 0.032543 -0.010017 0.000000 0.001769 0.000000
# 3 -0.001750 -0.010017 0.011627 0.000000 0.004052 0.000000
# 4 0.000000 0.000000 0.000000 0.031912 0.000000 0.001307
# 5 0.004035 0.001769 0.004052 0.000000 0.052097 0.000000
# 6 0.000000 0.000000 0.000000 0.001307 0.000000 0.033724
#
#
# Mechanical properties :
#
#
# Convention : Reuss Voigt Hill
#
# Bulk Modulus (GPa) = 52.55569 78.85584 65.70576
# Shear Modulus (GPa) = 23.20957 28.28350 25.74653
#
# Velocity S-wave (km/s) = 3.60961 3.98468 3.80178
# Velocity P-wave (km/s) = 6.84660 8.08938 7.49380
#
# Compressibility (1/GPa) = 0.01902744
#
# Stress axis : x y z
#
# Youngs Moduli (GPa) = 90.74288 30.72818 86.00856
#
# Poissons Ratio (x) = 0.19403 0.15049
# Poissons Ratio (y) = 0.57298 0.86158
# Poissons Ratio (z) = 0.15877 0.30782
#
# Static dielectric constant tensor:
#      x y z
#    x 3.355860 0.000000 -0.050590 
#    y 0.000000 3.328300 0.000000 
#    z -0.050590 0.000000 3.335080 
# 
# 
# High freq. dielectric constant tensor:
#      x y z
#    x 1.695540 0.000000 -0.005260 
#    y 0.000000 1.687650 0.000000 
#    z -0.005260 0.000000 1.690340 
# 
# From -- ./inp_files/337833.got.cif
#   From: 2010.06.25/outbox.cif.g09.slc.cpg/sg12_169_cif.got.tgz:337833.got - 2010.06.28 00:19:55.
