data_PCOD8096124
_publ_section_title
;
Structure prediction by ZEFSAII (Michael W. Deem and Ramdas Pophale) SiO2 
 PCOD8096124
Probable space group: C 2/M
;
_chemical_formula_sum "Si O2"
_cell_formula_units_Z 64
_cell_length_a 16.295145
_cell_length_b 8.711905
_cell_length_c 32.707591
_cell_angle_alpha 90.000000
_cell_angle_beta 137.757336
_cell_angle_gamma 90.000000
_cell_volume 3121.511642
_symmetry_space_group_name_H-M "C 2/M"
_symmetry_group_IT_number 12
_symmetry_cell_setting 'monoclinic'
loop_
_space_group_symop_operation_xyz
x,y,z
-x,y,-z
-x,-y,-z
x,-y,z
1/2+x,1/2+y,z
1/2-x,1/2+y,-z
1/2-x,1/2-y,-z
1/2+x,1/2-y,z
loop_
_atom_site_type_symbol
_atom_site_label
_atom_site_fract_x
_atom_site_fract_y
_atom_site_fract_z
Si Si1 0.537235 0.681272 0.630835
Si Si2 0.661475 0.682864 0.000029
Si Si3 0.031263 0.320723 0.248690
Si Si4 0.595710 0.319503 0.125295
Si Si5 0.112149 0.675425 0.571778
Si Si6 0.858792 0.682902 0.628211
Si Si7 0.221673 0.317277 0.874106
Si Si8 0.206193 0.323147 0.243297
O O1 0.520031 0.500000 0.619684
O O2 0.567493 0.747444 0.597437
O O3 0.414269 0.750934 0.606101
O O4 0.651104 0.721081 0.702937
O O5 0.662219 0.500000 0.000183
O O6 0.528544 0.749369 0.939444
O O7 0.750000 0.750000 0.000000
O O8 0.709133 0.748922 0.060801
O O9 0.005805 0.500000 0.242015
O O10 0.051356 0.260128 0.302134
O O11 0.153866 0.284438 0.268886
O O12 0.914162 0.247376 0.182348
O O13 0.584733 0.500000 0.119766
O O14 0.705820 0.258670 0.138495
O O15 0.624162 0.271264 0.181726
O O16 0.149559 0.500000 0.594767
O O17 0.223815 0.758227 0.589531
O O18 0.000000 0.685085 0.500000
O O19 0.852561 0.500000 0.622313
O O20 0.219389 0.500000 0.876787
O O21 0.187205 0.500000 0.225220
#
# Coordination Sequence:
#
# PCOD8096124 Si02
#       8
#     8   8   8   8   8   8   8   8
#     4  11  23  41  65  95 130 168 212 260 312 372
#     4  10  20  34  52  73 102 141 186 237 294 356
#     4   9  17  32  55  83 114 152 196 240 296 364
#     4  10  20  33  51  79 107 140 192 246 294 354
#     4  11  25  45  68  96 130 169 212 255 306 370
#     4  11  22  40  66  96 130 168 211 261 314 370
#     4   9  17  31  52  75 105 144 186 234 289 352
#     4  10  20  36  57  84 119 156 194 241 302 363
#
# _framework density 20.502887000000001
#
# number of rings (size 3 to 8) (size 9 to 14) (size 15 to 20)
#    0.000    1.875    1.250    3.000    0.000    6.500 
#    0.000    0.625    0.000    6.000    0.000    0.000 
#    0.000    0.000    0.000    0.000    0.000    0.000 
#
# Total GULP energy -396630.563111 kJ/mol
# GULP energy per Si atom -12394.705097 kJ/mol
# Density = 2.045622 g / cm^3
# Si number density = 20.502887 Si / 1000 Ang^3
#
#
#
# Elastic Constant Matrix: (Units=GPa)
#
#
# Indices 1 2 3 4 5 6 
#
# 1 135.6854 39.4123 45.0275 0.0000 6.6355 0.0000
# 2 39.4123 60.4197 33.0434 0.0000 2.1951 0.0000
# 3 45.0275 33.0434 98.3345 0.0000 3.8452 0.0000
# 4 0.0000 0.0000 0.0000 25.1706 0.0000 -1.8247
# 5 6.6355 2.1951 3.8452 0.0000 28.4646 0.0000
# 6 0.0000 0.0000 0.0000 -1.8247 0.0000 32.2066
#
#
#
# Elastic Compliance Matrix: (Units=1/GPa)
#
#
# Indices 1 2 3 4 5 6 
#
# 1 0.009764 -0.004779 -0.002805 0.000000 -0.001529 0.000000
# 2 -0.004779 0.022629 -0.005419 0.000000 0.000101 0.000000
# 3 -0.002805 -0.005419 0.013303 0.000000 -0.000725 0.000000
# 4 0.000000 0.000000 0.000000 0.039893 0.000000 0.002260
# 5 -0.001529 0.000101 -0.000725 0.000000 0.035578 0.000000
# 6 0.000000 0.000000 0.000000 0.002260 0.000000 0.031178
#
#
# Mechanical properties :
#
#
# Convention : Reuss Voigt Hill
#
# Bulk Modulus (GPa) = 50.79223 58.82291 54.80757
# Shear Modulus (GPa) = 27.03948 28.96544 28.00246
#
# Velocity S-wave (km/s) = 3.63549 3.76273 3.69966
# Velocity P-wave (km/s) = 6.51532 6.90144 6.71116
#
# Compressibility (1/GPa) = 0.01968805
#
# Stress axis : x y z
#
# Youngs Moduli (GPa) = 102.41809 44.19154 75.16943
#
# Poissons Ratio (x) = 0.21121 0.21086
# Poissons Ratio (y) = 0.48950 0.40737
# Poissons Ratio (z) = 0.28729 0.23949
#
# Static dielectric constant tensor:
#      x y z
#    x 3.822060 0.000000 0.215640 
#    y 0.000000 3.062760 0.000000 
#    z 0.215640 0.000000 3.462440 
# 
# 
# High freq. dielectric constant tensor:
#      x y z
#    x 1.814920 0.000000 0.003240 
#    y 0.000000 1.769940 0.000000 
#    z 0.003240 0.000000 1.813390 
# 
# From -- ./inp_files/375557.got.cif
#   From: 2010.06.25/outbox.cif.g09.slc.cpg/sg12_188_cif.got.tgz:375557.got - 2010.06.28 00:19:55.
