data_PCOD8096033
_publ_section_title
;
Structure prediction by ZEFSAII (Michael W. Deem and Ramdas Pophale) SiO2 
 PCOD8096033
Probable space group: C 2/M
;
_chemical_formula_sum "Si O2"
_cell_formula_units_Z 24
_cell_length_a 18.393047
_cell_length_b 9.034370
_cell_length_c 23.767274
_cell_angle_alpha 90.000000
_cell_angle_beta 160.133199
_cell_angle_gamma 90.000000
_cell_volume 1342.142404
_symmetry_space_group_name_H-M "C 2/M"
_symmetry_group_IT_number 12
_symmetry_cell_setting 'monoclinic'
loop_
_space_group_symop_operation_xyz
x,y,z
-x,y,-z
-x,-y,-z
x,-y,z
1/2+x,1/2+y,z
1/2-x,1/2+y,-z
1/2-x,1/2-y,-z
1/2+x,1/2-y,z
loop_
_atom_site_type_symbol
_atom_site_label
_atom_site_fract_x
_atom_site_fract_y
_atom_site_fract_z
Si Si1 0.748772 0.162844 0.826842
Si Si2 0.363004 0.324708 0.030055
Si Si3 0.704990 0.329389 0.687296
O O1 0.645512 0.276941 0.707465
O O2 0.646180 0.000000 0.742865
O O3 0.719755 0.214679 0.870514
O O4 0.000000 0.152734 0.000000
O O5 0.376755 0.500000 0.048575
O O6 0.602813 0.264208 0.198993
O O7 0.250000 0.250000 0.000000
O O8 0.500000 0.302847 0.500000
O O9 0.773499 0.500000 0.739300
#
# Coordination Sequence:
#
# PCOD8096033 Si02
#       3
#     8   8   8
#     4   8  16  31  50  72  97 128 166 204 243 292
#     4  10  20  34  53  76 101 130 166 206 248 295
#     4  10  20  33  51  76 103 131 166 205 244 292
#
# _framework density 17.881858000000001
#
# number of rings (size 3 to 8) (size 9 to 14) (size 15 to 20)
#    0.000    2.667    0.000    4.000    0.000   10.000 
#    0.000    1.667    0.000    0.000    0.000    0.000 
#    0.000    0.000    0.000    0.000    0.000    0.000 
#
# Total GULP energy -148741.137659 kJ/mol
# GULP energy per Si atom -12395.094805 kJ/mol
# Density = 1.784116 g / cm^3
# Si number density = 17.881858 Si / 1000 Ang^3
#
#
#
# Elastic Constant Matrix: (Units=GPa)
#
#
# Indices 1 2 3 4 5 6 
#
# 1 163.7394 81.5470 50.7386 0.0034 -20.5067 -0.0006
# 2 81.5470 125.6327 59.6174 -0.0075 -17.5000 -0.0025
# 3 50.7386 59.6174 64.7924 -0.0423 -19.0260 -0.0105
# 4 0.0034 -0.0075 -0.0423 27.2439 0.0046 -4.5859
# 5 -20.5067 -17.5000 -19.0260 0.0046 25.0867 0.0062
# 6 -0.0006 -0.0025 -0.0105 -4.5859 0.0062 33.5956
#
#
#
# Elastic Compliance Matrix: (Units=1/GPa)
#
#
# Indices 1 2 3 4 5 6 
#
# 1 0.009504 -0.004681 -0.002332 -0.000007 0.002735 -0.000002
# 2 -0.004681 0.016435 -0.011853 -0.000014 -0.001352 -0.000004
# 3 -0.002332 -0.011853 0.032393 0.000047 0.014392 0.000013
# 4 -0.000007 -0.000014 0.000047 0.037569 0.000012 0.005128
# 5 0.002735 -0.001352 0.014392 0.000012 0.052069 -0.000004
# 6 -0.000002 -0.000004 0.000013 0.005128 -0.000004 0.030466
#
#
# Mechanical properties :
#
#
# Convention : Reuss Voigt Hill
#
# Bulk Modulus (GPa) = 48.54729 81.99671 65.27200
# Shear Modulus (GPa) = 22.41808 28.00266 25.21037
#
# Velocity S-wave (km/s) = 3.54457 3.96154 3.75884
# Velocity P-wave (km/s) = 6.63022 8.17798 7.44443
#
# Compressibility (1/GPa) = 0.02059847
#
# Stress axis : x y z
#
# Youngs Moduli (GPa) = 105.22124 60.84663 30.87116
#
# Poissons Ratio (x) = 0.28484 0.07199
# Poissons Ratio (y) = 0.49257 0.36592
# Poissons Ratio (z) = 0.24537 0.72122
#
# Static dielectric constant tensor:
#      x y z
#    x 3.898320 -0.000030 -0.384320 
#    y -0.000030 3.480270 0.000000 
#    z -0.384320 0.000000 2.985270 
# 
# 
# High freq. dielectric constant tensor:
#      x y z
#    x 1.700210 0.000000 -0.025230 
#    y 0.000000 1.704350 0.000000 
#    z -0.025230 0.000000 1.656470 
# 
# From -- ./inp_files/55253.got.cif
#   From: 2010.06.25/outbox.cif.g09.slc.cpg/sg12_28_cif.got.tgz:55253.got - 2010.06.28 00:19:55.
