data_PCOD8096826
_publ_section_title
;
Structure prediction by ZEFSAII (Michael W. Deem and Ramdas Pophale) SiO2 
 PCOD8096826
Probable space group: C 2/M
;
_chemical_formula_sum "Si O2"
_cell_formula_units_Z 64
_cell_length_a 14.026602
_cell_length_b 9.351722
_cell_length_c 29.198303
_cell_angle_alpha 90.000000
_cell_angle_beta 72.777799
_cell_angle_gamma 90.000000
_cell_volume 3658.301429
_symmetry_space_group_name_H-M "C 2/M"
_symmetry_group_IT_number 12
_symmetry_cell_setting 'monoclinic'
loop_
_space_group_symop_operation_xyz
x,y,z
-x,y,-z
-x,-y,-z
x,-y,z
1/2+x,1/2+y,z
1/2-x,1/2+y,-z
1/2-x,1/2-y,-z
1/2+x,1/2-y,z
loop_
_atom_site_type_symbol
_atom_site_label
_atom_site_fract_x
_atom_site_fract_y
_atom_site_fract_z
Si Si1 0.989526 0.166374 0.553277
Si Si2 0.635792 0.165264 0.195442
Si Si3 0.585158 0.833668 0.617687
Si Si4 0.210683 0.166360 0.366103
Si Si5 0.835742 0.834099 0.114128
Si Si6 0.259392 0.667219 0.951592
Si Si7 0.384976 0.833423 0.698381
Si Si8 0.540800 0.664555 0.130936
O O1 0.069341 0.249888 0.572700
O O2 0.000000 0.221497 0.500000
O O3 0.877658 0.199793 0.585750
O O4 0.015601 0.000000 0.553349
O O5 0.748645 0.192534 0.163221
O O6 0.625506 0.223244 0.248433
O O7 0.557302 0.247572 0.174890
O O8 0.606279 0.000000 0.197008
O O9 0.687234 0.778957 0.625790
O O10 0.496772 0.800156 0.665806
O O11 0.591091 0.000000 0.604551
O O12 0.194892 0.250543 0.321183
O O13 0.216577 0.000000 0.352923
O O14 0.819804 0.735535 0.072141
O O15 0.938625 0.783972 0.122291
O O16 0.839702 0.000000 0.098181
O O17 0.235016 0.500000 0.961583
O O18 0.370967 0.692049 0.917570
O O19 0.250000 0.750000 0.000000
O O20 0.358980 0.000000 0.698764
O O21 0.534405 0.500000 0.146242
#
# Coordination Sequence:
#
# PCOD8096826 Si02
#       8
#     8   8   8   8   8   8   8   8
#     4   9  18  32  48  67  92 120 153 194 235 275
#     4   9  18  32  50  71  96 124 155 192 232 273
#     4   9  18  32  48  67  94 124 154 189 230 278
#     4   9  18  32  48  67  92 123 156 190 231 278
#     4   9  18  34  52  70  95 126 157 191 231 275
#     4  10  20  34  51  72  97 125 157 193 232 275
#     4   9  18  32  48  69  96 124 154 190 231 274
#     4   9  19  34  51  71  96 125 157 192 231 275
#
# _framework density 17.494457000000001
#
# number of rings (size 3 to 8) (size 9 to 14) (size 15 to 20)
#    0.000    2.875    0.000    0.375    0.000    4.250 
#    0.000    2.500    0.000    0.000    0.000    0.000 
#    0.000    0.000    0.000    0.000    0.000    0.000 
#
# Total GULP energy -396891.226057 kJ/mol
# GULP energy per Si atom -12402.850814 kJ/mol
# Density = 1.745464 g / cm^3
# Si number density = 17.494457 Si / 1000 Ang^3
#
#
#
# Elastic Constant Matrix: (Units=GPa)
#
#
# Indices 1 2 3 4 5 6 
#
# 1 147.7160 57.8319 70.5281 0.0000 32.9379 0.0000
# 2 57.8319 68.7682 67.6499 0.0000 18.8927 0.0000
# 3 70.5281 67.6499 157.0699 0.0000 30.0038 0.0000
# 4 0.0000 0.0000 0.0000 32.0448 0.0000 8.8149
# 5 32.9379 18.8927 30.0038 0.0000 21.6208 0.0000
# 6 0.0000 0.0000 0.0000 8.8149 0.0000 28.9549
#
#
#
# Elastic Compliance Matrix: (Units=1/GPa)
#
#
# Indices 1 2 3 4 5 6 
#
# 1 0.012293 -0.006622 -0.000266 0.000000 -0.012571 0.000000
# 2 -0.006622 0.030314 -0.009457 0.000000 -0.003277 0.000000
# 3 -0.000266 -0.009457 0.012115 0.000000 -0.008143 0.000000
# 4 0.000000 0.000000 0.000000 0.034058 0.000000 -0.010369
# 5 -0.012571 -0.003277 -0.008143 0.000000 0.079567 0.000000
# 6 0.000000 0.000000 0.000000 -0.010369 0.000000 0.037693
#
#
# Mechanical properties :
#
#
# Convention : Reuss Voigt Hill
#
# Bulk Modulus (GPa) = 45.39072 85.06379 65.22726
# Shear Modulus (GPa) = 20.31920 28.36038 24.33979
#
# Velocity S-wave (km/s) = 3.41172 4.03066 3.73404
# Velocity P-wave (km/s) = 6.44375 8.38991 7.48039
#
# Compressibility (1/GPa) = 0.02203093
#
# Stress axis : x y z
#
# Youngs Moduli (GPa) = 81.35001 32.98826 82.54560
#
# Poissons Ratio (x) = 0.21846 0.02197
# Poissons Ratio (y) = 0.53872 0.78060
# Poissons Ratio (z) = 0.02165 0.31196
#
# Static dielectric constant tensor:
#      x y z
#    x 3.320100 0.000000 0.054510 
#    y 0.000000 3.226340 0.000000 
#    z 0.054510 0.000000 3.294170 
# 
# 
# High freq. dielectric constant tensor:
#      x y z
#    x 1.676480 0.000000 0.004690 
#    y 0.000000 1.672760 0.000000 
#    z 0.004690 0.000000 1.677150 
# 
# From -- ./inp_files/359686.got.cif
#   From: 2010.06.25/outbox.cif.g09.slc.cpg/sg12_180_cif.got.tgz:359686.got - 2010.06.28 00:19:55.
