data_PCOD8096666
_publ_section_title
;
Structure prediction by ZEFSAII (Michael W. Deem and Ramdas Pophale) SiO2 
 PCOD8096666
Probable space group: C 2/M
;
_chemical_formula_sum "Si O2"
_cell_formula_units_Z 64
_cell_length_a 12.933940
_cell_length_b 16.386179
_cell_length_c 32.935163
_cell_angle_alpha 90.000000
_cell_angle_beta 153.817043
_cell_angle_gamma 90.000000
_cell_volume 3079.939491
_symmetry_space_group_name_H-M "C 2/M"
_symmetry_group_IT_number 12
_symmetry_cell_setting 'monoclinic'
loop_
_space_group_symop_operation_xyz
x,y,z
-x,y,-z
-x,-y,-z
x,-y,z
1/2+x,1/2+y,z
1/2-x,1/2+y,-z
1/2-x,1/2-y,-z
1/2+x,1/2-y,z
loop_
_atom_site_type_symbol
_atom_site_label
_atom_site_fract_x
_atom_site_fract_y
_atom_site_fract_z
Si Si1 0.519516 0.177179 0.394294
Si Si2 0.624558 0.803428 0.278252
Si Si3 0.235662 0.297061 0.102767
Si Si4 0.428367 0.407910 0.102802
Si Si5 0.964604 0.594496 0.898935
Si Si6 0.211667 0.674345 0.543657
Si Si7 0.687015 0.595553 0.725217
Si Si8 0.453878 0.092838 0.288752
O O1 0.302904 0.227932 0.337351
O O2 0.711926 0.234107 0.440608
O O3 0.635637 0.131393 0.474042
O O4 0.442472 0.112828 0.332877
O O5 0.371295 0.775407 0.173041
O O6 0.717253 0.877996 0.284362
O O7 0.606767 0.840568 0.317614
O O8 0.399524 0.340404 0.127376
O O9 0.167366 0.367164 0.109859
O O10 0.000000 0.259435 0.000000
O O11 0.381381 0.500000 0.103034
O O12 0.690839 0.401500 0.178145
O O13 0.244539 0.389754 0.001335
O O14 0.902140 0.500000 0.877746
O O15 0.860667 0.632858 0.820793
O O16 0.424251 0.627238 0.640048
O O17 0.000000 0.676343 0.500000
O O18 0.683977 0.500000 0.725933
O O19 0.550149 0.000000 0.317549
#
# Coordination Sequence:
#
# PCOD8096666 Si02
#       8
#     8   8   8   8   8   8   8   8
#     4  10  22  41  63  90 122 164 195 249 312 365
#     4  11  23  38  61  86 125 158 199 251 305 361
#     4  10  20  33  57  91 122 160 204 252 296 354
#     4   9  18  35  56  87 127 162 201 248 297 357
#     4   9  19  35  58  86 122 163 198 243 306 364
#     4  10  22  39  65  91 120 153 200 253 310 362
#     4  10  23  41  59  83 117 159 198 245 304 363
#     4  11  23  39  63  92 125 167 210 248 294 361
#
# _framework density 20.779629
#
# number of rings (size 3 to 8) (size 9 to 14) (size 15 to 20)
#    0.000    2.000    1.250    1.500    5.250    3.250 
#    0.000    2.500    0.000   11.625    0.000    0.000 
#    0.000    0.000    0.000    0.000    0.000    0.000 
#
# Total GULP energy -396692.726506 kJ/mol
# GULP energy per Si atom -12396.647703 kJ/mol
# Density = 2.073233 g / cm^3
# Si number density = 20.779629 Si / 1000 Ang^3
#
#
#
# Elastic Constant Matrix: (Units=GPa)
#
#
# Indices 1 2 3 4 5 6 
#
# 1 73.6499 23.3560 41.4777 0.0000 -0.5846 0.0001
# 2 23.3560 57.0083 24.6740 0.0001 -4.4667 -0.0001
# 3 41.4777 24.6740 114.0535 -0.0010 -13.4253 -0.0004
# 4 0.0000 0.0001 -0.0010 24.5351 0.0001 -3.5591
# 5 -0.5846 -4.4667 -13.4253 0.0001 29.9988 -0.0001
# 6 0.0001 -0.0001 -0.0004 -3.5591 -0.0001 25.3707
#
#
#
# Elastic Compliance Matrix: (Units=1/GPa)
#
#
# Indices 1 2 3 4 5 6 
#
# 1 0.018597 -0.005270 -0.005988 0.000000 -0.003102 0.000000
# 2 -0.005270 0.020879 -0.002371 0.000000 0.001945 0.000000
# 3 -0.005988 -0.002371 0.012037 0.000000 0.004917 0.000000
# 4 0.000000 0.000000 0.000000 0.041605 0.000000 0.005836
# 5 -0.003102 0.001945 0.004917 0.000000 0.035764 0.000000
# 6 0.000000 0.000000 0.000000 0.005836 0.000000 0.040234
#
#
# Mechanical properties :
#
#
# Convention : Reuss Voigt Hill
#
# Bulk Modulus (GPa) = 41.23059 47.08079 44.15569
# Shear Modulus (GPa) = 24.45456 26.32787 25.39122
#
# Velocity S-wave (km/s) = 3.43425 3.56336 3.49940
# Velocity P-wave (km/s) = 5.96744 6.29575 6.13379
#
# Compressibility (1/GPa) = 0.02425384
#
# Stress axis : x y z
#
# Youngs Moduli (GPa) = 53.77270 47.89432 83.07505
#
# Poissons Ratio (x) = 0.25242 0.49746
# Poissons Ratio (y) = 0.28340 0.19700
# Poissons Ratio (z) = 0.32199 0.11357
#
# Static dielectric constant tensor:
#      x y z
#    x 3.633700 0.000000 -0.161750 
#    y 0.000000 3.497820 0.000000 
#    z -0.161750 0.000000 4.522600 
# 
# 
# High freq. dielectric constant tensor:
#      x y z
#    x 1.803600 0.000000 -0.002900 
#    y 0.000000 1.793300 0.000000 
#    z -0.002900 0.000000 1.830830 
# 
# From -- ./inp_files/306216.got.cif
#   From: 2010.06.25/outbox.cif.g09.slc.cpg/sg12_154_cif.got.tgz:306216.got - 2010.06.28 00:19:55.
