data_PCOD8096287
_publ_section_title
;
Structure prediction by ZEFSAII (Michael W. Deem and Ramdas Pophale) SiO2 
 PCOD8096287
Probable space group: C 2/M
;
_chemical_formula_sum "Si O2"
_cell_formula_units_Z 56
_cell_length_a 29.139205
_cell_length_b 15.098848
_cell_length_c 8.639578
_cell_angle_alpha 90.000000
_cell_angle_beta 130.654908
_cell_angle_gamma 90.000000
_cell_volume 2883.725789
_symmetry_space_group_name_H-M "C 2/M"
_symmetry_group_IT_number 12
_symmetry_cell_setting 'monoclinic'
loop_
_space_group_symop_operation_xyz
x,y,z
-x,y,-z
-x,-y,-z
x,-y,z
1/2+x,1/2+y,z
1/2-x,1/2+y,-z
1/2-x,1/2-y,-z
1/2+x,1/2-y,z
loop_
_atom_site_type_symbol
_atom_site_label
_atom_site_fract_x
_atom_site_fract_y
_atom_site_fract_z
Si Si1 0.366752 0.831119 0.526816
Si Si2 0.651706 0.281412 0.030157
Si Si3 0.804462 0.808172 0.186903
Si Si4 0.786568 0.598607 0.824740
Si Si5 0.946572 0.274464 0.982531
Si Si6 0.748794 0.597715 0.391795
Si Si7 0.483291 0.102998 0.633283
O O1 0.344489 0.738944 0.405437
O O2 0.309462 0.894700 0.422985
O O3 0.412771 0.877983 0.509888
O O4 0.396195 0.814512 0.758712
O O5 0.664212 0.175573 0.033903
O O6 0.702641 0.324965 0.248312
O O7 0.651757 0.330520 0.863054
O O8 0.586722 0.293046 0.972100
O O9 0.772363 0.893225 0.192865
O O10 0.750000 0.750000 0.000000
O O11 0.814777 0.500000 0.912171
O O12 0.763429 0.610799 0.601686
O O13 0.976376 0.353066 0.145427
O O14 0.000000 0.226436 0.000000
O O15 0.721274 0.500000 0.299898
O O16 0.500000 0.140624 0.500000
O O17 0.497383 0.000000 0.673097
#
# Coordination Sequence:
#
# PCOD8096287 Si02
#       7
#     8   8   8   8   8   8   8
#     4  11  19  36  56  79 116 154 194 240 289 346
#     4  11  20  38  55  81 119 150 194 243 297 349
#     4  10  20  34  54  80 113 157 187 238 292 352
#     4  10  20  33  52  79 111 151 188 229 288 352
#     4  10  22  35  59  81 108 156 199 241 285 346
#     4  11  21  33  56  85 114 154 193 239 299 353
#     4  10  22  38  54  80 116 155 202 246 287 348
#
# _framework density 19.419321
#
# number of rings (size 3 to 8) (size 9 to 14) (size 15 to 20)
#    0.000    1.571    4.286    2.571    0.000    4.286 
#    0.000    2.143    0.000    0.429    0.000    3.000 
#    0.000   12.571    0.000    0.000    0.000    0.000 
#
# Total GULP energy -347062.977687 kJ/mol
# GULP energy per Si atom -12395.106346 kJ/mol
# Density = 1.937512 g / cm^3
# Si number density = 19.419321 Si / 1000 Ang^3
#
#
#
# Elastic Constant Matrix: (Units=GPa)
#
#
# Indices 1 2 3 4 5 6 
#
# 1 174.8042 27.1174 22.7650 0.0000 -6.2686 0.0000
# 2 27.1174 42.3555 8.0089 0.0000 5.8798 0.0000
# 3 22.7650 8.0089 57.6006 0.0000 0.9279 0.0000
# 4 0.0000 0.0000 0.0000 15.6811 0.0000 -2.2692
# 5 -6.2686 5.8798 0.9279 0.0000 30.8133 0.0000
# 6 0.0000 0.0000 0.0000 -2.2692 0.0000 24.9312
#
#
#
# Elastic Compliance Matrix: (Units=1/GPa)
#
#
# Indices 1 2 3 4 5 6 
#
# 1 0.006730 -0.004221 -0.002109 0.000000 0.002238 0.000000
# 2 -0.004221 0.027543 -0.002064 0.000000 -0.006052 0.000000
# 3 -0.002109 -0.002064 0.018491 0.000000 -0.000592 0.000000
# 4 0.000000 0.000000 0.000000 0.064622 0.000000 0.005882
# 5 0.002238 -0.006052 -0.000592 0.000000 0.034082 0.000000
# 6 0.000000 0.000000 0.000000 0.005882 0.000000 0.040646
#
#
# Mechanical properties :
#
#
# Convention : Reuss Voigt Hill
#
# Bulk Modulus (GPa) = 27.79628 43.39364 35.59496
# Shear Modulus (GPa) = 22.63535 28.74306 25.68921
#
# Velocity S-wave (km/s) = 3.41781 3.85142 3.64107
# Velocity P-wave (km/s) = 5.46992 6.49400 6.00383
#
# Compressibility (1/GPa) = 0.03597603
#
# Stress axis : x y z
#
# Youngs Moduli (GPa) = 148.57904 36.30752 54.08034
#
# Poissons Ratio (x) = 0.15325 0.11406
# Poissons Ratio (y) = 0.62714 0.11161
# Poissons Ratio (z) = 0.31338 0.07493
#
# Static dielectric constant tensor:
#      x y z
#    x 4.298420 0.000000 -0.309320 
#    y 0.000000 3.290040 0.000000 
#    z -0.309320 0.000000 3.499500 
# 
# 
# High freq. dielectric constant tensor:
#      x y z
#    x 1.778740 0.000000 -0.023170 
#    y 0.000000 1.710710 0.000000 
#    z -0.023170 0.000000 1.749580 
# 
# From -- ./inp_files/104460.got.cif
#   From: 2010.06.25/outbox.cif.g09.slc.cpg/sg12_53_cif.got.tgz:104460.got - 2010.06.28 00:19:55.
