data_PCOD8096474
_publ_section_title
;
Structure prediction by ZEFSAII (Michael W. Deem and Ramdas Pophale) SiO2 
 PCOD8096474
Probable space group: C 2/M
;
_chemical_formula_sum "Si O2"
_cell_formula_units_Z 56
_cell_length_a 8.963604
_cell_length_b 22.091927
_cell_length_c 16.308082
_cell_angle_alpha 90.000000
_cell_angle_beta 114.977445
_cell_angle_gamma 90.000000
_cell_volume 2927.349254
_symmetry_space_group_name_H-M "C 2/M"
_symmetry_group_IT_number 12
_symmetry_cell_setting 'monoclinic'
loop_
_space_group_symop_operation_xyz
x,y,z
-x,y,-z
-x,-y,-z
x,-y,z
1/2+x,1/2+y,z
1/2-x,1/2+y,-z
1/2-x,1/2-y,-z
1/2+x,1/2-y,z
loop_
_atom_site_type_symbol
_atom_site_label
_atom_site_fract_x
_atom_site_fract_y
_atom_site_fract_z
Si Si1 0.653357 0.312969 0.475312
Si Si2 0.786533 0.069943 0.151699
Si Si3 0.515045 0.070923 0.799695
Si Si4 0.505216 0.670082 0.262457
Si Si5 0.415747 0.165098 0.642921
Si Si6 0.279728 0.755408 0.286088
Si Si7 0.318683 0.428340 0.975590
O O1 0.500000 0.313379 0.500000
O O2 0.750000 0.250000 0.500000
O O3 0.594411 0.332458 0.371611
O O4 0.796377 0.359427 0.542227
O O5 0.625101 0.084620 0.166115
O O6 0.756554 0.091097 0.051371
O O7 0.946810 0.103789 0.224182
O O8 0.834438 0.000000 0.167093
O O9 0.482908 0.108737 0.710299
O O10 0.519621 0.000000 0.778089
O O11 0.686789 0.094463 0.878035
O O12 0.347294 0.715549 0.225881
O O13 0.636857 0.696840 0.227312
O O14 0.565467 0.205997 0.642230
O O15 0.295043 0.209121 0.666092
O O16 0.325635 0.500000 0.971471
O O17 0.500000 0.400795 0.000000
#
# Coordination Sequence:
#
# PCOD8096474 Si02
#       7
#     8   8   8   8   8   8   8
#     4  12  18  30  51  79 106 142 185 223 254 301
#     4  10  20  36  57  81 109 141 174 218 270 322
#     4  10  20  36  57  81 109 141 174 218 270 322
#     4  11  20  34  53  82 109 141 182 224 262 312
#     4  11  20  34  53  82 109 141 182 224 262 312
#     4  10  20  33  54  77 108 142 184 225 264 301
#     4   9  19  35  57  82 103 132 182 224 261 313
#
# _framework density 19.129933999999999
#
# number of rings (size 3 to 8) (size 9 to 14) (size 15 to 20)
#    0.000    1.571    5.714    0.429    2.000    1.714 
#    0.000    0.714    0.000    7.714    0.000    2.000 
#    0.000    0.000    0.000    0.000    0.000    0.000 
#
# Total GULP energy -346889.859160 kJ/mol
# GULP energy per Si atom -12388.923541 kJ/mol
# Density = 1.908639 g / cm^3
# Si number density = 19.129934 Si / 1000 Ang^3
#
#
#
# Elastic Constant Matrix: (Units=GPa)
#
#
# Indices 1 2 3 4 5 6 
#
# 1 85.8601 29.9976 22.6435 0.0000 24.9970 0.0000
# 2 29.9976 61.5661 50.7448 0.0000 15.2847 0.0000
# 3 22.6435 50.7448 117.6979 0.0000 22.3058 0.0000
# 4 0.0000 0.0000 0.0000 23.7718 0.0000 11.3974
# 5 24.9970 15.2847 22.3058 0.0000 28.6804 0.0000
# 6 0.0000 0.0000 0.0000 11.3974 0.0000 22.2758
#
#
#
# Elastic Compliance Matrix: (Units=1/GPa)
#
#
# Indices 1 2 3 4 5 6 
#
# 1 0.017312 -0.006964 0.002144 0.000000 -0.013045 0.000000
# 2 -0.006964 0.028860 -0.010953 0.000000 -0.000793 0.000000
# 3 0.002144 -0.010953 0.014138 0.000000 -0.007027 0.000000
# 4 0.000000 0.000000 0.000000 0.055741 0.000000 -0.028520
# 5 -0.013045 -0.000793 -0.007027 0.000000 0.052124 0.000000
# 6 0.000000 0.000000 0.000000 -0.028520 0.000000 0.059484
#
#
# Mechanical properties :
#
#
# Convention : Reuss Voigt Hill
#
# Bulk Modulus (GPa) = 34.76447 52.43289 43.59868
# Shear Modulus (GPa) = 18.60164 25.72813 22.16489
#
# Velocity S-wave (km/s) = 3.12169 3.67129 3.40759
# Velocity P-wave (km/s) = 5.58619 6.74088 6.19052
#
# Compressibility (1/GPa) = 0.02876500
#
# Stress axis : x y z
#
# Youngs Moduli (GPa) = 57.76226 34.64955 70.73171
#
# Poissons Ratio (x) = 0.24129 -0.15165
# Poissons Ratio (y) = 0.40225 0.77473
# Poissons Ratio (z) = -0.12384 0.37952
#
# Static dielectric constant tensor:
#      x y z
#    x 4.010250 0.000000 0.243470 
#    y 0.000000 3.335400 0.000000 
#    z 0.243470 0.000000 3.738310 
# 
# 
# High freq. dielectric constant tensor:
#      x y z
#    x 1.768770 0.000000 0.016270 
#    y 0.000000 1.705130 0.000000 
#    z 0.016270 0.000000 1.728490 
# 
# From -- ./inp_files/257975.got.cif
#   From: 2010.06.25/outbox.cif.g09.slc.cpg/sg12_129_cif.got.tgz:257975.got - 2010.06.28 00:19:55.
