data_PCOD8096184
_publ_section_title
;
Structure prediction by ZEFSAII (Michael W. Deem and Ramdas Pophale) SiO2 
 PCOD8096184
Probable space group: C 2/M
;
_chemical_formula_sum "Si O2"
_cell_formula_units_Z 64
_cell_length_a 15.617476
_cell_length_b 9.467300
_cell_length_c 25.016055
_cell_angle_alpha 90.000000
_cell_angle_beta 71.945972
_cell_angle_gamma 90.000000
_cell_volume 3516.647669
_symmetry_space_group_name_H-M "C 2/M"
_symmetry_group_IT_number 12
_symmetry_cell_setting 'monoclinic'
loop_
_space_group_symop_operation_xyz
x,y,z
-x,y,-z
-x,-y,-z
x,-y,z
1/2+x,1/2+y,z
1/2-x,1/2+y,-z
1/2-x,1/2-y,-z
1/2+x,1/2-y,z
loop_
_atom_site_type_symbol
_atom_site_label
_atom_site_fract_x
_atom_site_fract_y
_atom_site_fract_z
Si Si1 0.027358 0.667847 0.936487
Si Si2 0.301272 0.657841 0.740415
Si Si3 0.596887 0.832936 0.630716
Si Si4 0.962509 0.664116 0.742594
Si Si5 0.286840 0.662047 0.623156
Si Si6 0.535418 0.833658 0.434846
Si Si7 0.395888 0.833304 0.869183
Si Si8 0.275389 0.834925 0.133165
O O1 0.029027 0.500000 0.934170
O O2 0.127106 0.724240 0.903197
O O3 0.952247 0.721951 0.909144
O O4 0.000000 0.725166 0.000000
O O5 0.339150 0.500000 0.741973
O O6 0.383642 0.763619 0.724941
O O7 0.256112 0.672234 0.691211
O O8 0.231227 0.692200 0.801729
O O9 0.555050 0.787503 0.696382
O O10 0.700006 0.779649 0.607269
O O11 0.537470 0.772890 0.593328
O O12 0.598883 0.000000 0.626174
O O13 0.946203 0.500000 0.737467
O O14 0.958746 0.703526 0.805866
O O15 0.310405 0.500000 0.603976
O O16 0.370025 0.758872 0.592481
O O17 0.500000 0.794887 0.500000
O O18 0.550524 0.000000 0.424682
O O19 0.301547 0.750414 0.883954
O O20 0.374785 0.000000 0.876600
O O21 0.264645 0.000000 0.120868
#
# Coordination Sequence:
#
# PCOD8096184 Si02
#       8
#     8   8   8   8   8   8   8   8
#     4   9  18  32  50  73 101 134 172 208 245 297
#     4   9  17  29  48  74 102 127 159 204 253 299
#     4   9  18  32  51  75 101 130 163 201 247 294
#     4   9  16  29  51  73  98 131 166 202 245 297
#     4  10  20  33  52  77 102 129 164 207 252 295
#     4  10  21  38  56  73 100 137 171 203 243 296
#     4   9  18  31  50  75  99 128 169 210 246 292
#     4   9  18  32  50  72 100 132 164 204 254 299
#
# _framework density 18.199149999999999
#
# number of rings (size 3 to 8) (size 9 to 14) (size 15 to 20)
#    0.000    2.750    1.250    0.000    1.750    1.250 
#    0.000    1.875    0.000    0.750    0.000    0.000 
#    0.000    0.000    0.000    0.000    0.000    0.000 
#
# Total GULP energy -396624.448913 kJ/mol
# GULP energy per Si atom -12394.514029 kJ/mol
# Density = 1.815773 g / cm^3
# Si number density = 18.199150 Si / 1000 Ang^3
#
#
#
# Elastic Constant Matrix: (Units=GPa)
#
#
# Indices 1 2 3 4 5 6 
#
# 1 157.1334 35.2313 83.3257 0.0000 -5.9224 0.0000
# 2 35.2313 27.6678 32.7976 0.0000 -1.1872 0.0000
# 3 83.3257 32.7976 116.2577 0.0000 -7.1752 0.0000
# 4 0.0000 0.0000 0.0000 15.4215 0.0000 -3.7774
# 5 -5.9224 -1.1872 -7.1752 0.0000 23.7681 0.0000
# 6 0.0000 0.0000 0.0000 -3.7774 0.0000 26.0832
#
#
#
# Elastic Compliance Matrix: (Units=1/GPa)
#
#
# Indices 1 2 3 4 5 6 
#
# 1 0.011127 -0.007112 -0.005930 0.000000 0.000627 0.000000
# 2 -0.007112 0.058938 -0.011675 0.000000 -0.002353 0.000000
# 3 -0.005930 -0.011675 0.016322 0.000000 0.002867 0.000000
# 4 0.000000 0.000000 0.000000 0.067229 0.000000 0.009736
# 5 0.000627 -0.002353 0.002867 0.000000 0.042977 0.000000
# 6 0.000000 0.000000 0.000000 0.009736 0.000000 0.039749
#
#
# Mechanical properties :
#
#
# Convention : Reuss Voigt Hill
#
# Bulk Modulus (GPa) = 27.06111 67.08534 47.07322
# Shear Modulus (GPa) = 16.77324 23.03485 19.90405
#
# Velocity S-wave (km/s) = 3.03916 3.56154 3.31067
# Velocity P-wave (km/s) = 5.21700 7.33857 6.36678
#
# Compressibility (1/GPa) = 0.03695340
#
# Stress axis : x y z
#
# Youngs Moduli (GPa) = 89.87291 16.96697 61.26680
#
# Poissons Ratio (x) = 0.12068 0.36330
# Poissons Ratio (y) = 0.63922 0.71526
# Poissons Ratio (z) = 0.53292 0.19808
#
# Static dielectric constant tensor:
#      x y z
#    x 3.465600 0.000000 0.062970 
#    y 0.000000 3.084250 0.000000 
#    z 0.062970 0.000000 3.567880 
# 
# 
# High freq. dielectric constant tensor:
#      x y z
#    x 1.705190 0.000000 0.001140 
#    y 0.000000 1.670800 0.000000 
#    z 0.001140 0.000000 1.710500 
# 
# From -- ./inp_files/359750.got.cif
#   From: 2010.06.25/outbox.cif.g09.slc.cpg/sg12_180_cif.got.tgz:359750.got - 2010.06.28 00:19:55.
