data_PCOD8096674
_publ_section_title
;
Structure prediction by ZEFSAII (Michael W. Deem and Ramdas Pophale) SiO2 
 PCOD8096674
Probable space group: C 2/M
;
_chemical_formula_sum "Si O2"
_cell_formula_units_Z 56
_cell_length_a 11.174504
_cell_length_b 21.661531
_cell_length_c 11.866033
_cell_angle_alpha 90.000000
_cell_angle_beta 96.017047
_cell_angle_gamma 90.000000
_cell_volume 2856.430780
_symmetry_space_group_name_H-M "C 2/M"
_symmetry_group_IT_number 12
_symmetry_cell_setting 'monoclinic'
loop_
_space_group_symop_operation_xyz
x,y,z
-x,y,-z
-x,-y,-z
x,-y,z
1/2+x,1/2+y,z
1/2-x,1/2+y,-z
1/2-x,1/2-y,-z
1/2+x,1/2-y,z
loop_
_atom_site_type_symbol
_atom_site_label
_atom_site_fract_x
_atom_site_fract_y
_atom_site_fract_z
Si Si1 0.423995 0.071781 0.379877
Si Si2 0.881649 0.754270 0.567123
Si Si3 0.627762 0.429870 0.070166
Si Si4 0.923856 0.345408 0.746126
Si Si5 0.251475 0.842807 0.919263
Si Si6 0.291726 0.350243 0.721559
Si Si7 0.371114 0.775859 0.125472
O O1 0.500000 0.084762 0.500000
O O2 0.500950 0.093400 0.278446
O O3 0.300191 0.110659 0.366183
O O4 0.392978 0.000000 0.363627
O O5 0.750000 0.750000 0.500000
O O6 0.888945 0.688539 0.628396
O O7 0.883750 0.813365 0.650431
O O8 0.000000 0.761097 0.500000
O O9 0.664917 0.500000 0.096936
O O10 0.631432 0.395080 0.190130
O O11 0.500000 0.423777 0.000000
O O12 0.721369 0.402291 0.990246
O O13 0.809620 0.366440 0.808354
O O14 0.996237 0.295724 0.827593
O O15 0.136945 0.798926 0.879440
O O16 0.345598 0.801591 0.998686
O O17 0.222307 0.300159 0.790085
#
# Coordination Sequence:
#
# PCOD8096674 Si02
#       7
#     8   8   8   8   8   8   8
#     4  10  21  39  61  83 115 161 210 257 307 366
#     4  12  25  39  60  91 129 159 203 264 319 377
#     4  10  23  39  57  83 116 157 204 246 291 367
#     4  11  21  35  57  87 121 151 194 249 307 368
#     4  10  20  33  58  82 117 151 192 237 296 361
#     4  10  20  39  60  85 117 163 196 247 309 366
#     4   9  19  34  52  88 118 149 186 230 298 367
#
# _framework density 19.604887000000002
#
# number of rings (size 3 to 8) (size 9 to 14) (size 15 to 20)
#    0.000    1.714    1.429    3.857    2.000    0.571 
#    0.000    0.000    0.000    8.571    0.000    0.000 
#    0.000    0.000    0.000    0.000    0.000    0.000 
#
# Total GULP energy -347116.389132 kJ/mol
# GULP energy per Si atom -12397.013898 kJ/mol
# Density = 1.956027 g / cm^3
# Si number density = 19.604887 Si / 1000 Ang^3
#
#
#
# Elastic Constant Matrix: (Units=GPa)
#
#
# Indices 1 2 3 4 5 6 
#
# 1 74.6802 22.8427 39.0315 0.0000 -15.4513 0.0000
# 2 22.8427 79.1883 39.7792 0.0000 -5.1077 0.0000
# 3 39.0315 39.7792 93.8807 0.0000 -11.9137 0.0000
# 4 0.0000 0.0000 0.0000 31.4328 0.0000 4.2415
# 5 -15.4513 -5.1077 -11.9137 0.0000 43.2521 0.0000
# 6 0.0000 0.0000 0.0000 4.2415 0.0000 21.1867
#
#
#
# Elastic Compliance Matrix: (Units=1/GPa)
#
#
# Indices 1 2 3 4 5 6 
#
# 1 0.018123 -0.001829 -0.006182 0.000000 0.004556 0.000000
# 2 -0.001829 0.016227 -0.006171 0.000000 -0.000437 0.000000
# 3 -0.006182 -0.006171 0.016024 0.000000 0.001477 0.000000
# 4 0.000000 0.000000 0.000000 0.032697 0.000000 -0.006546
# 5 0.004556 -0.000437 0.001477 0.000000 0.025103 0.000000
# 6 0.000000 0.000000 0.000000 -0.006546 0.000000 0.048510
#
#
# Mechanical properties :
#
#
# Convention : Reuss Voigt Hill
#
# Bulk Modulus (GPa) = 45.43041 50.11733 47.77387
# Shear Modulus (GPa) = 25.98953 28.91405 27.45179
#
# Velocity S-wave (km/s) = 3.64492 3.84453 3.74605
# Velocity P-wave (km/s) = 6.39822 6.73249 6.56748
#
# Compressibility (1/GPa) = 0.02201169
#
# Stress axis : x y z
#
# Youngs Moduli (GPa) = 55.17763 61.62424 62.40561
#
# Poissons Ratio (x) = 0.11269 0.38579
# Poissons Ratio (y) = 0.10090 0.38511
# Poissons Ratio (z) = 0.34111 0.38029
#
# Static dielectric constant tensor:
#      x y z
#    x 3.410380 0.000000 0.113750 
#    y 0.000000 3.569540 0.000000 
#    z 0.113750 0.000000 3.738640 
# 
# 
# High freq. dielectric constant tensor:
#      x y z
#    x 1.752010 0.000000 0.007860 
#    y 0.000000 1.755060 0.000000 
#    z 0.007860 0.000000 1.775750 
# 
# From -- ./inp_files/133297.got.cif
#   From: 2010.06.25/outbox.cif.g09.slc.cpg/sg12_67_cif.got.tgz:133297.got - 2010.06.28 00:19:55.
