data_PCOD8096023
_publ_section_title
;
Structure prediction by ZEFSAII (Michael W. Deem and Ramdas Pophale) SiO2 
 PCOD8096023
Probable space group: C 2/M
;
_chemical_formula_sum "Si O2"
_cell_formula_units_Z 56
_cell_length_a 14.173487
_cell_length_b 9.426408
_cell_length_c 27.197685
_cell_angle_alpha 90.000000
_cell_angle_beta 120.120910
_cell_angle_gamma 90.000000
_cell_volume 3143.077522
_symmetry_space_group_name_H-M "C 2/M"
_symmetry_group_IT_number 12
_symmetry_cell_setting 'monoclinic'
loop_
_space_group_symop_operation_xyz
x,y,z
-x,y,-z
-x,-y,-z
x,-y,z
1/2+x,1/2+y,z
1/2-x,1/2+y,-z
1/2-x,1/2-y,-z
1/2+x,1/2-y,z
loop_
_atom_site_type_symbol
_atom_site_label
_atom_site_fract_x
_atom_site_fract_y
_atom_site_fract_z
Si Si1 0.289020 0.665805 0.139731
Si Si2 0.652286 0.336124 0.638240
Si Si3 0.090051 0.161673 0.452943
Si Si4 0.519087 0.664941 0.157229
Si Si5 0.294122 0.835491 0.438630
Si Si6 0.918460 0.835181 0.936276
Si Si7 0.774569 0.336128 0.768103
O O1 0.272231 0.500000 0.125147
O O2 0.403813 0.719194 0.148044
O O3 0.193003 0.748354 0.086775
O O4 0.285983 0.701988 0.196866
O O5 0.676377 0.500000 0.632066
O O6 0.524456 0.301155 0.601833
O O7 0.717137 0.237797 0.617149
O O8 0.691275 0.296774 0.703003
O O9 0.179331 0.189893 0.434787
O O10 0.109380 0.261443 0.505048
O O11 0.094707 0.000000 0.473221
O O12 0.535440 0.500000 0.173090
O O13 0.523294 0.697029 0.100301
O O14 0.615121 0.747412 0.210162
O O15 0.323093 0.000000 0.440180
O O16 0.889199 0.000000 0.934192
O O17 0.000000 0.783937 0.000000
O O18 0.808286 0.500000 0.775686
#
# Coordination Sequence:
#
# PCOD8096023 Si02
#       7
#     8   8   8   8   8   8   8
#     4   9  18  33  52  72  96 129 167 203 239 283
#     4  10  20  34  51  70  95 128 161 194 241 296
#     4   9  19  35  52  70  97 131 160 191 240 296
#     4   9  18  33  52  72  97 130 164 200 244 288
#     4  10  20  33  51  75  99 124 159 201 241 285
#     4   9  18  32  49  73 105 134 161 198 244 291
#     4   9  19  34  50  70  95 124 162 204 241 284
#
# _framework density 17.816932999999999
#
# number of rings (size 3 to 8) (size 9 to 14) (size 15 to 20)
#    0.000    2.714    0.000    0.857    0.000    6.000 
#    0.000    2.857    0.000    0.000    0.000    0.000 
#    0.000    0.000    0.000    0.000    0.000    0.000 
#
# Total GULP energy -347288.619097 kJ/mol
# GULP energy per Si atom -12403.164968 kJ/mol
# Density = 1.777638 g / cm^3
# Si number density = 17.816933 Si / 1000 Ang^3
#
#
#
# Elastic Constant Matrix: (Units=GPa)
#
#
# Indices 1 2 3 4 5 6 
#
# 1 112.9705 43.6247 50.7978 0.0000 10.6766 0.0000
# 2 43.6247 61.6037 47.9527 0.0000 4.1314 0.0000
# 3 50.7978 47.9527 126.5715 0.0000 10.5575 0.0000
# 4 0.0000 0.0000 0.0000 30.0465 0.0000 2.0205
# 5 10.6766 4.1314 10.5575 0.0000 19.2907 0.0000
# 6 0.0000 0.0000 0.0000 2.0205 0.0000 28.6763
#
#
#
# Elastic Compliance Matrix: (Units=1/GPa)
#
#
# Indices 1 2 3 4 5 6 
#
# 1 0.013038 -0.007304 -0.002089 0.000000 -0.004508 0.000000
# 2 -0.007304 0.027115 -0.007538 0.000000 0.002361 0.000000
# 3 -0.002089 -0.007538 0.011908 0.000000 -0.003746 0.000000
# 4 0.000000 0.000000 0.000000 0.033440 0.000000 -0.002356
# 5 -0.004508 0.002361 -0.003746 0.000000 0.055878 0.000000
# 6 0.000000 0.000000 0.000000 -0.002356 0.000000 0.035038
#
#
# Mechanical properties :
#
#
# Convention : Reuss Voigt Hill
#
# Bulk Modulus (GPa) = 54.95438 65.09957 60.02697
# Shear Modulus (GPa) = 23.11120 26.18740 24.64930
#
# Velocity S-wave (km/s) = 3.60550 3.83796 3.72355
# Velocity P-wave (km/s) = 6.94577 7.50049 7.22845
#
# Compressibility (1/GPa) = 0.01819691
#
# Stress axis : x y z
#
# Youngs Moduli (GPa) = 76.69887 36.88044 83.98039
#
# Poissons Ratio (x) = 0.26938 0.17546
# Poissons Ratio (y) = 0.56022 0.63305
# Poissons Ratio (z) = 0.16025 0.27801
#
# Static dielectric constant tensor:
#      x y z
#    x 3.344410 0.000000 -0.017230 
#    y 0.000000 3.296710 0.000000 
#    z -0.017230 0.000000 3.313320 
# 
# 
# High freq. dielectric constant tensor:
#      x y z
#    x 1.691730 0.000000 -0.000660 
#    y 0.000000 1.686830 0.000000 
#    z -0.000660 0.000000 1.686600 
# 
# From -- ./inp_files/338561.got.cif
#   From: 2010.06.25/outbox.cif.g09.slc.cpg/sg12_170_cif.got.tgz:338561.got - 2010.06.28 00:19:55.
