data_PCOD8096759
_publ_section_title
;
Structure prediction by ZEFSAII (Michael W. Deem and Ramdas Pophale) SiO2 
 PCOD8096759
Probable space group: C 2/M
;
_chemical_formula_sum "Si O2"
_cell_formula_units_Z 48
_cell_length_a 20.500713
_cell_length_b 8.958210
_cell_length_c 23.407047
_cell_angle_alpha 90.000000
_cell_angle_beta 39.498818
_cell_angle_gamma 90.000000
_cell_volume 2734.239093
_symmetry_space_group_name_H-M "C 2/M"
_symmetry_group_IT_number 12
_symmetry_cell_setting 'monoclinic'
loop_
_space_group_symop_operation_xyz
x,y,z
-x,y,-z
-x,-y,-z
x,-y,z
1/2+x,1/2+y,z
1/2-x,1/2+y,-z
1/2-x,1/2-y,-z
1/2+x,1/2-y,z
loop_
_atom_site_type_symbol
_atom_site_label
_atom_site_fract_x
_atom_site_fract_y
_atom_site_fract_z
Si Si1 0.894266 0.324342 0.542761
Si Si2 0.464271 0.675979 0.266110
Si Si3 0.859435 0.176341 0.932189
Si Si4 0.317386 0.676738 0.269093
Si Si5 0.853857 0.176581 0.450911
Si Si6 0.988470 0.177461 0.071359
O O1 0.888477 0.500000 0.533563
O O2 0.801848 0.273959 0.647820
O O3 0.888184 0.236652 0.488226
O O4 0.000000 0.277280 0.500000
O O5 0.462225 0.500000 0.260480
O O6 0.573465 0.732125 0.167817
O O7 0.372079 0.740400 0.289173
O O8 0.444273 0.722284 0.345106
O O9 0.917213 0.227338 0.951495
O O10 0.844684 0.000000 0.942012
O O11 0.750000 0.250000 0.000000
O O12 0.324460 0.500000 0.263616
O O13 0.379853 0.736023 0.171330
O O14 0.750000 0.250000 0.500000
O O15 0.837997 0.000000 0.463816
O O16 0.987311 0.000000 0.068484
O O17 0.000000 0.246902 0.000000
#
# Coordination Sequence:
#
# PCOD8096759 Si02
#       6
#     8   8   8   8   8   8
#     4  10  20  34  50  73 105 136 165 204 255 300
#     4   8  15  29  50  70  93 131 168 192 238 303
#     4   9  17  31  50  72  98 128 157 197 248 295
#     4   8  13  26  47  66  92 129 162 194 239 292
#     4  11  20  33  55  77  99 131 173 214 247 298
#     4   8  14  26  47  71  91 121 166 201 230 284
#
# _framework density 17.555157000000001
#
# number of rings (size 3 to 8) (size 9 to 14) (size 15 to 20)
#    0.000    3.000    1.667    2.500    0.000    0.333 
#    3.000    1.667    0.000    0.500    0.000    0.000 
#    0.000    0.000    0.000    0.000    0.000    0.000 
#
# Total GULP energy -297349.478897 kJ/mol
# GULP energy per Si atom -12389.561621 kJ/mol
# Density = 1.751520 g / cm^3
# Si number density = 17.555157 Si / 1000 Ang^3
#
#
#
# Elastic Constant Matrix: (Units=GPa)
#
#
# Indices 1 2 3 4 5 6 
#
# 1 122.1311 34.7461 104.9872 0.0000 -0.4906 0.0002
# 2 34.7461 30.3683 32.3382 0.0002 0.4091 0.0005
# 3 104.9872 32.3382 189.6784 0.0001 -2.1665 0.0000
# 4 0.0000 0.0002 0.0001 20.1282 -0.0001 -0.8547
# 5 -0.4906 0.4091 -2.1665 -0.0001 37.3424 0.0000
# 6 0.0002 0.0005 0.0000 -0.8547 0.0000 22.7249
#
#
#
# Elastic Compliance Matrix: (Units=1/GPa)
#
#
# Indices 1 2 3 4 5 6 
#
# 1 0.019011 -0.012883 -0.008327 0.000000 -0.000092 0.000000
# 2 -0.012883 0.048990 -0.001230 -0.000001 -0.000777 -0.000001
# 3 -0.008327 -0.001230 0.010097 0.000000 0.000490 0.000000
# 4 0.000000 -0.000001 0.000000 0.049761 0.000000 0.001871
# 5 -0.000092 -0.000777 0.000490 0.000000 0.026815 0.000000
# 6 0.000000 -0.000001 0.000000 0.001871 0.000000 0.044075
#
#
# Mechanical properties :
#
#
# Convention : Reuss Voigt Hill
#
# Bulk Modulus (GPa) = 30.10577 76.25788 53.18183
# Shear Modulus (GPa) = 19.63079 27.37953 23.50516
#
# Velocity S-wave (km/s) = 3.34763 3.95350 3.66311
# Velocity P-wave (km/s) = 5.66821 8.02331 6.94630
#
# Compressibility (1/GPa) = 0.03321622
#
# Stress axis : x y z
#
# Youngs Moduli (GPa) = 52.60078 20.41240 99.04290
#
# Poissons Ratio (x) = 0.26297 0.82476
# Poissons Ratio (y) = 0.67765 0.12186
# Poissons Ratio (z) = 0.43802 0.02512
#
# Static dielectric constant tensor:
#      x y z
#    x 3.663500 0.000000 0.184650 
#    y 0.000000 2.807130 0.000000 
#    z 0.184650 0.000000 3.935870 
# 
# 
# High freq. dielectric constant tensor:
#      x y z
#    x 1.662440 0.000000 0.002580 
#    y 0.000000 1.629020 0.000000 
#    z 0.002580 0.000000 1.700050 
# 
# From -- ./inp_files/315215.got.cif
#   From: 2010.06.25/outbox.cif.g09.slc.cpg/sg12_158_cif.got.tgz:315215.got - 2010.06.28 00:19:55.
