data_PCOD8096512
_publ_section_title
;
Structure prediction by ZEFSAII (Michael W. Deem and Ramdas Pophale) SiO2 
 PCOD8096512
Probable space group: C 2/M
;
_chemical_formula_sum "Si O2"
_cell_formula_units_Z 64
_cell_length_a 15.350083
_cell_length_b 9.127627
_cell_length_c 23.789372
_cell_angle_alpha 90.000000
_cell_angle_beta 90.535313
_cell_angle_gamma 90.000000
_cell_volume 3332.979440
_symmetry_space_group_name_H-M "C 2/M"
_symmetry_group_IT_number 12
_symmetry_cell_setting 'monoclinic'
loop_
_space_group_symop_operation_xyz
x,y,z
-x,y,-z
-x,-y,-z
x,-y,z
1/2+x,1/2+y,z
1/2-x,1/2+y,-z
1/2-x,1/2-y,-z
1/2+x,1/2-y,z
loop_
_atom_site_type_symbol
_atom_site_label
_atom_site_fract_x
_atom_site_fract_y
_atom_site_fract_z
Si Si1 0.599833 0.668121 0.135305
Si Si2 0.506330 0.173932 0.437157
Si Si3 0.906718 0.168173 0.124404
Si Si4 0.150337 0.665008 0.240740
Si Si5 0.151483 0.326133 0.641430
Si Si6 0.742847 0.174261 0.940378
Si Si7 0.648374 0.334539 0.754306
Si Si8 0.831533 0.326141 0.633837
O O1 0.619941 0.500000 0.146788
O O2 0.506311 0.690397 0.104634
O O3 0.596406 0.740632 0.196448
O O4 0.675324 0.732254 0.095789
O O5 0.500000 0.238757 0.500000
O O6 0.423930 0.228850 0.400944
O O7 0.596944 0.228098 0.410408
O O8 0.506533 0.000000 0.438205
O O9 0.846751 0.277930 0.089333
O O10 0.906011 0.206562 0.190714
O O11 0.876051 0.000000 0.114604
O O12 0.117493 0.500000 0.233584
O O13 0.251672 0.681174 0.227192
O O14 0.133182 0.719056 0.304302
O O15 0.161757 0.500000 0.641399
O O16 0.124874 0.275241 0.703801
O O17 0.240956 0.254364 0.620375
O O18 0.744131 0.000000 0.947744
O O19 0.750000 0.250000 0.000000
O O20 0.628963 0.500000 0.733633
O O21 0.814226 0.500000 0.631733
#
# Coordination Sequence:
#
# PCOD8096512 Si02
#       8
#     8   8   8   8   8   8   8   8
#     4  10  22  37  57  86 115 145 184 231 281 326
#     4   9  19  36  56  78 109 151 194 232 278 340
#     4  10  21  39  60  84 114 150 186 226 280 337
#     4   9  17  31  54  81 111 145 182 223 274 337
#     4  10  20  33  54  83 110 141 187 237 278 326
#     4  11  24  42  62  85 115 152 192 234 277 326
#     4   9  18  34  56  81 114 151 181 219 282 344
#     4   9  19  36  55  78 110 149 186 226 285 342
#
# _framework density 19.20204
#
# number of rings (size 3 to 8) (size 9 to 14) (size 15 to 20)
#    0.000    2.375    1.250    1.500    1.750    4.500 
#    0.000    3.750    0.000    2.625    0.000    0.000 
#    0.000    0.000    0.000    0.000    0.000    0.000 
#
# Total GULP energy -396798.294092 kJ/mol
# GULP energy per Si atom -12399.946690 kJ/mol
# Density = 1.915833 g / cm^3
# Si number density = 19.202040 Si / 1000 Ang^3
#
#
#
# Elastic Constant Matrix: (Units=GPa)
#
#
# Indices 1 2 3 4 5 6 
#
# 1 104.1988 38.0169 61.3880 0.0000 7.5510 0.0000
# 2 38.0169 56.8007 40.6808 0.0000 6.8919 0.0000
# 3 61.3880 40.6808 111.7057 0.0000 4.2676 0.0000
# 4 0.0000 0.0000 0.0000 26.7032 0.0000 3.1625
# 5 7.5510 6.8919 4.2676 0.0000 22.9523 0.0000
# 6 0.0000 0.0000 0.0000 3.1625 0.0000 25.8066
#
#
#
# Elastic Compliance Matrix: (Units=1/GPa)
#
#
# Indices 1 2 3 4 5 6 
#
# 1 0.015587 -0.005526 -0.006467 0.000000 -0.002266 0.000000
# 2 -0.005526 0.026508 -0.006428 0.000000 -0.004946 0.000000
# 3 -0.006467 -0.006428 0.014797 0.000000 0.001306 0.000000
# 4 0.000000 0.000000 0.000000 0.038000 0.000000 -0.004657
# 5 -0.002266 -0.004946 0.001306 0.000000 0.045557 0.000000
# 6 0.000000 0.000000 0.000000 -0.004657 0.000000 0.039320
#
#
# Mechanical properties :
#
#
# Convention : Reuss Voigt Hill
#
# Bulk Modulus (GPa) = 49.87394 61.43072 55.65233
# Shear Modulus (GPa) = 22.39194 23.93372 23.16283
#
# Velocity S-wave (km/s) = 3.41856 3.53429 3.47691
# Velocity P-wave (km/s) = 6.45071 6.97970 6.72041
#
# Compressibility (1/GPa) = 0.02005055
#
# Stress axis : x y z
#
# Youngs Moduli (GPa) = 64.15406 37.72484 67.58117
#
# Poissons Ratio (x) = 0.20847 0.43705
# Poissons Ratio (y) = 0.35452 0.43439
# Poissons Ratio (z) = 0.41489 0.24249
#
# Static dielectric constant tensor:
#      x y z
#    x 3.614420 0.000000 -0.108950 
#    y 0.000000 3.311350 0.000000 
#    z -0.108950 0.000000 3.555470 
# 
# 
# High freq. dielectric constant tensor:
#      x y z
#    x 1.752660 0.000000 -0.005780 
#    y 0.000000 1.728150 0.000000 
#    z -0.005780 0.000000 1.743880 
# 
# From -- ./inp_files/338779.got.cif
#   From: 2010.06.25/outbox.cif.g09.slc.cpg/sg12_170_cif.got.tgz:338779.got - 2010.06.28 00:19:55.
