data_PCOD8096444
_publ_section_title
;
Structure prediction by ZEFSAII (Michael W. Deem and Ramdas Pophale) SiO2 
 PCOD8096444
Probable space group: C 2/M
;
_chemical_formula_sum "Si O2"
_cell_formula_units_Z 48
_cell_length_a 12.285659
_cell_length_b 26.067260
_cell_length_c 16.917093
_cell_angle_alpha 90.000000
_cell_angle_beta 27.192852
_cell_angle_gamma 90.000000
_cell_volume 2475.844636
_symmetry_space_group_name_H-M "C 2/M"
_symmetry_group_IT_number 12
_symmetry_cell_setting 'monoclinic'
loop_
_space_group_symop_operation_xyz
x,y,z
-x,y,-z
-x,-y,-z
x,-y,z
1/2+x,1/2+y,z
1/2-x,1/2+y,-z
1/2-x,1/2-y,-z
1/2+x,1/2-y,z
loop_
_atom_site_type_symbol
_atom_site_label
_atom_site_fract_x
_atom_site_fract_y
_atom_site_fract_z
Si Si1 0.094902 0.884676 0.711424
Si Si2 0.709278 0.353978 0.808935
Si Si3 0.099830 0.440704 0.022916
Si Si4 0.461396 0.941765 0.384216
Si Si5 0.760462 0.391488 0.367117
Si Si6 0.806486 0.690791 0.460242
O O1 0.106585 0.856793 0.787616
O O2 0.322813 0.921977 0.551749
O O3 0.103208 0.839648 0.640422
O O4 0.865988 0.919950 0.850793
O O5 0.793919 0.410112 0.784436
O O6 0.934123 0.315711 0.667287
O O7 0.500000 0.333217 0.000000
O O8 0.095019 0.500000 0.055066
O O9 0.000000 0.436225 0.000000
O O10 0.949128 0.404161 0.177387
O O11 0.290672 0.932354 0.418847
O O12 0.534385 0.000000 0.346284
O O13 0.500000 0.397359 0.500000
O O14 0.806171 0.333674 0.371740
O O15 0.750000 0.750000 0.500000
#
# Coordination Sequence:
#
# PCOD8096444 Si02
#       6
#     8   8   8   8   8   8
#     4  10  20  37  58  82 114 149 191 239 283 339
#     4  10  21  38  57  82 115 145 184 234 285 343
#     4  11  22  36  57  87 123 160 194 232 282 341
#     4  10  20  33  53  82 114 152 192 230 278 335
#     4  10  21  37  56  81 114 150 194 242 287 341
#     4  10  22  41  62  83 109 148 193 243 298 343
#
# _framework density 19.387322999999999
#
# number of rings (size 3 to 8) (size 9 to 14) (size 15 to 20)
#    0.000    2.167    0.000    7.000    0.000    6.333 
#    0.000    5.833    0.000    0.000    0.000    0.000 
#    0.000    0.000    0.000    0.000    0.000    0.000 
#
# Total GULP energy -297547.657438 kJ/mol
# GULP energy per Si atom -12397.819060 kJ/mol
# Density = 1.934320 g / cm^3
# Si number density = 19.387323 Si / 1000 Ang^3
#
#
#
# Elastic Constant Matrix: (Units=GPa)
#
#
# Indices 1 2 3 4 5 6 
#
# 1 87.8579 26.4299 37.0507 -0.1099 2.8710 0.0860
# 2 26.4299 155.6943 39.1234 -0.0652 5.5528 0.0404
# 3 37.0507 39.1234 103.3002 -0.1020 6.7006 0.1132
# 4 -0.1099 -0.0652 -0.1020 14.2188 0.0550 6.2429
# 5 2.8710 5.5528 6.7006 0.0550 33.4425 -0.0568
# 6 0.0860 0.0404 0.1132 6.2429 -0.0568 17.1180
#
#
#
# Elastic Compliance Matrix: (Units=1/GPa)
#
#
# Indices 1 2 3 4 5 6 
#
# 1 0.013610 -0.001196 -0.004423 0.000100 -0.000084 -0.000073
# 2 -0.001196 0.007217 -0.002263 0.000011 -0.000642 -0.000002
# 3 -0.004423 -0.002263 0.012234 0.000090 -0.001696 -0.000092
# 4 0.000100 0.000011 0.000090 0.083741 -0.000218 -0.030542
# 5 -0.000084 -0.000642 -0.001696 -0.000218 0.030356 0.000193
# 6 -0.000073 -0.000002 -0.000092 -0.030542 0.000193 0.069558
#
#
# Mechanical properties :
#
#
# Convention : Reuss Voigt Hill
#
# Bulk Modulus (GPa) = 57.80993 61.34005 59.57499
# Shear Modulus (GPa) = 20.98665 29.23910 25.11287
#
# Velocity S-wave (km/s) = 3.29370 3.88771 3.60297
# Velocity P-wave (km/s) = 6.65941 7.20141 6.93571
#
# Compressibility (1/GPa) = 0.01729807
#
# Stress axis : x y z
#
# Youngs Moduli (GPa) = 73.47591 138.55429 81.73859
#
# Poissons Ratio (x) = 0.16570 0.36152
# Poissons Ratio (y) = 0.08787 0.18496
# Poissons Ratio (z) = 0.32498 0.31353
#
# Static dielectric constant tensor:
#      x y z
#    x 3.662480 -0.000310 0.085320 
#    y -0.000310 3.350150 0.000550 
#    z 0.085320 0.000550 3.601580 
# 
# 
# High freq. dielectric constant tensor:
#      x y z
#    x 1.764390 -0.000020 0.003800 
#    y -0.000020 1.731680 0.000040 
#    z 0.003800 0.000040 1.758400 
# 
# From -- ./inp_files/209282.got.cif
#   From: 2010.06.25/outbox.cif.g09.slc.cpg/sg12_105_cif.got.tgz:209282.got - 2010.06.28 00:19:55.
