data_PCOD8096895
_publ_section_title
;
Structure prediction by ZEFSAII (Michael W. Deem and Ramdas Pophale) SiO2 
 PCOD8096895
Probable space group: C 2/M
;
_chemical_formula_sum "Si O2"
_cell_formula_units_Z 56
_cell_length_a 14.292664
_cell_length_b 9.127644
_cell_length_c 26.356405
_cell_angle_alpha 90.000000
_cell_angle_beta 123.648743
_cell_angle_gamma 90.000000
_cell_volume 2862.307498
_symmetry_space_group_name_H-M "C 2/M"
_symmetry_group_IT_number 12
_symmetry_cell_setting 'monoclinic'
loop_
_space_group_symop_operation_xyz
x,y,z
-x,y,-z
-x,-y,-z
x,-y,z
1/2+x,1/2+y,z
1/2-x,1/2+y,-z
1/2-x,1/2-y,-z
1/2+x,1/2-y,z
loop_
_atom_site_type_symbol
_atom_site_label
_atom_site_fract_x
_atom_site_fract_y
_atom_site_fract_z
Si Si1 0.650080 0.826550 0.999063
Si Si2 0.597233 0.173310 0.094899
Si Si3 0.216534 0.669068 0.331377
Si Si4 0.516603 0.828405 0.686586
Si Si5 0.321337 0.165334 0.450121
Si Si6 0.582475 0.333996 0.433239
Si Si7 0.763725 0.827176 0.230845
O O1 0.531623 0.772387 0.939393
O O2 0.664020 0.000000 0.998264
O O3 0.750000 0.750000 0.000000
O O4 0.652928 0.775844 0.058696
O O5 0.669848 0.233124 0.163778
O O6 0.594823 0.000000 0.094941
O O7 0.245045 0.500000 0.349108
O O8 0.307817 0.759713 0.391149
O O9 0.223127 0.713976 0.274883
O O10 0.090863 0.705740 0.311255
O O11 0.506198 0.750273 0.628798
O O12 0.622048 0.758788 0.747512
O O13 0.534048 0.000000 0.682946
O O14 0.412932 0.252869 0.511054
O O15 0.203534 0.169201 0.443691
O O16 0.363968 0.000000 0.455530
O O17 0.540318 0.500000 0.428406
O O18 0.784363 0.000000 0.230631
#
# Coordination Sequence:
#
# PCOD8096895 Si02
#       7
#     8   8   8   8   8   8   8
#     4   9  17  33  57  83 109 139 174 212 253 299
#     4   8  17  34  54  76 107 144 176 206 250 308
#     4   9  19  34  51  71  99 135 173 212 259 316
#     4  10  20  34  51  75 105 134 169 218 269 310
#     4   9  16  27  47  73  99 128 166 216 269 313
#     4   9  16  28  48  72  98 132 172 212 260 319
#     4  10  20  36  55  74 101 141 181 211 247 306
#
# _framework density 19.564634000000002
#
# number of rings (size 3 to 8) (size 9 to 14) (size 15 to 20)
#    0.000    2.857    0.000    2.143    0.000    5.714 
#    0.000    5.000    0.000    4.286    0.000    0.000 
#    0.000    0.000    0.000    0.000    0.000    0.000 
#
# Total GULP energy -347208.788666 kJ/mol
# GULP energy per Si atom -12400.313881 kJ/mol
# Density = 1.952010 g / cm^3
# Si number density = 19.564634 Si / 1000 Ang^3
#
#
#
# Elastic Constant Matrix: (Units=GPa)
#
#
# Indices 1 2 3 4 5 6 
#
# 1 74.3503 23.4809 42.4583 0.0000 0.6123 0.0000
# 2 23.4809 73.0491 40.2016 0.0000 0.5982 0.0000
# 3 42.4583 40.2016 151.7170 0.0000 7.1258 0.0000
# 4 0.0000 0.0000 0.0000 24.0635 0.0000 4.0835
# 5 0.6123 0.5982 7.1258 0.0000 25.6125 0.0000
# 6 0.0000 0.0000 0.0000 4.0835 0.0000 25.9849
#
#
#
# Elastic Compliance Matrix: (Units=1/GPa)
#
#
# Indices 1 2 3 4 5 6 
#
# 1 0.016661 -0.003250 -0.003836 0.000000 0.000745 0.000000
# 2 -0.003250 0.016678 -0.003541 0.000000 0.000673 0.000000
# 3 -0.003836 -0.003541 0.008709 0.000000 -0.002248 0.000000
# 4 0.000000 0.000000 0.000000 0.042695 0.000000 -0.006710
# 5 0.000745 0.000673 -0.002248 0.000000 0.039635 0.000000
# 6 0.000000 0.000000 0.000000 -0.006710 0.000000 0.039538
#
#
# Mechanical properties :
#
#
# Convention : Reuss Voigt Hill
#
# Bulk Modulus (GPa) = 48.09638 56.82200 52.45919
# Shear Modulus (GPa) = 26.02776 27.99722 27.01249
#
# Velocity S-wave (km/s) = 3.65135 3.78698 3.71978
# Velocity P-wave (km/s) = 6.51254 6.94463 6.73205
#
# Compressibility (1/GPa) = 0.02079159
#
# Stress axis : x y z
#
# Youngs Moduli (GPa) = 60.02046 59.96082 114.82683
#
# Poissons Ratio (x) = 0.19489 0.44051
# Poissons Ratio (y) = 0.19509 0.40662
# Poissons Ratio (z) = 0.23026 0.21233
#
# Static dielectric constant tensor:
#      x y z
#    x 3.439720 0.000000 0.103290 
#    y 0.000000 3.414210 0.000000 
#    z 0.103290 0.000000 3.910140 
# 
# 
# High freq. dielectric constant tensor:
#      x y z
#    x 1.760110 0.000000 0.004000 
#    y 0.000000 1.745880 0.000000 
#    z 0.004000 0.000000 1.761890 
# 
# From -- ./inp_files/339004.got.cif
#   From: 2010.06.25/outbox.cif.g09.slc.cpg/sg12_170_cif.got.tgz:339004.got - 2010.06.28 00:19:55.
