data_PCOD8096069
_publ_section_title
;
Structure prediction by ZEFSAII (Michael W. Deem and Ramdas Pophale) SiO2 
 PCOD8096069
Probable space group: C 2/M
;
_chemical_formula_sum "Si O2"
_cell_formula_units_Z 64
_cell_length_a 31.761808
_cell_length_b 9.146625
_cell_length_c 26.478227
_cell_angle_alpha 90.000000
_cell_angle_beta 25.338600
_cell_angle_gamma 90.000000
_cell_volume 3292.040090
_symmetry_space_group_name_H-M "C 2/M"
_symmetry_group_IT_number 12
_symmetry_cell_setting 'monoclinic'
loop_
_space_group_symop_operation_xyz
x,y,z
-x,y,-z
-x,-y,-z
x,-y,z
1/2+x,1/2+y,z
1/2-x,1/2+y,-z
1/2-x,1/2-y,-z
1/2+x,1/2-y,z
loop_
_atom_site_type_symbol
_atom_site_label
_atom_site_fract_x
_atom_site_fract_y
_atom_site_fract_z
Si Si1 0.383252 0.663609 0.628535
Si Si2 0.764217 0.325237 0.038346
Si Si3 0.465341 0.825630 0.874773
Si Si4 0.238294 0.341903 0.648887
Si Si5 0.122843 0.670753 0.265995
Si Si6 0.965748 0.327051 0.091193
Si Si7 0.835308 0.658370 0.382070
Si Si8 0.105229 0.332983 0.481003
O O1 0.500000 0.660181 0.500000
O O2 0.339932 0.500000 0.682090
O O3 0.344475 0.766792 0.715297
O O4 0.349024 0.735972 0.613769
O O5 0.760441 0.500000 0.036621
O O6 0.672919 0.268172 0.169496
O O7 0.750000 0.250000 0.000000
O O8 0.863855 0.273101 0.958760
O O9 0.475442 0.767028 0.922222
O O10 0.555071 0.768810 0.740731
O O11 0.470959 0.000000 0.869529
O O12 0.279221 0.500000 0.623798
O O13 0.149461 0.285617 0.780695
O O14 0.192732 0.368290 0.644537
O O15 0.325563 0.221782 0.548574
O O16 0.151145 0.500000 0.231271
O O17 0.007035 0.696125 0.383613
O O18 0.981112 0.500000 0.073620
O O19 0.000000 0.258954 0.000000
O O20 0.840871 0.500000 0.403748
O O21 0.750000 0.750000 0.500000
O O22 0.121843 0.500000 0.448850
#
# Coordination Sequence:
#
# PCOD8096069 Si02
#       8
#     8   8   8   8   8   8   8   8
#     4   9  17  31  52  76 102 135 177 222 265 313
#     4  11  23  39  58  79 106 144 190 235 276 320
#     4   8  17  34  53  75 106 139 172 216 269 323
#     4   9  18  31  49  76 106 132 167 217 262 311
#     4  10  21  37  54  75 106 143 182 223 271 325
#     4   8  14  28  52  80 107 135 169 211 262 323
#     4   9  18  34  54  76 102 132 168 212 264 320
#     4  10  20  33  51  76 110 147 176 212 266 323
#
# _framework density 19.440833999999999
#
# number of rings (size 3 to 8) (size 9 to 14) (size 15 to 20)
#    0.000    2.750    0.000    3.000    0.000    5.500 
#    0.000    7.500    0.000    1.875    0.000    0.000 
#    0.000    0.000    0.000    0.000    0.000    0.000 
#
# Total GULP energy -396440.011167 kJ/mol
# GULP energy per Si atom -12388.750349 kJ/mol
# Density = 1.939659 g / cm^3
# Si number density = 19.440834 Si / 1000 Ang^3
#
#
#
# Elastic Constant Matrix: (Units=GPa)
#
#
# Indices 1 2 3 4 5 6 
#
# 1 76.4499 34.1154 49.0159 -0.0023 -9.7633 -0.0007
# 2 34.1154 80.0337 52.2848 -0.0366 -5.8762 0.0182
# 3 49.0159 52.2848 113.7585 -0.0072 7.8373 0.0077
# 4 -0.0023 -0.0366 -0.0072 28.3940 0.0041 2.4040
# 5 -9.7633 -5.8762 7.8373 0.0041 27.8637 -0.0016
# 6 -0.0007 0.0182 0.0077 2.4040 -0.0016 26.0567
#
#
#
# Elastic Compliance Matrix: (Units=1/GPa)
#
#
# Indices 1 2 3 4 5 6 
#
# 1 0.020801 -0.002774 -0.008311 -0.000006 0.009041 0.000006
# 2 -0.002774 0.019340 -0.008064 0.000023 0.005375 -0.000013
# 3 -0.008311 -0.008064 0.016720 -0.000006 -0.009316 0.000000
# 4 -0.000006 0.000023 -0.000006 0.035496 -0.000001 -0.003275
# 5 0.009041 0.005375 -0.009316 -0.000001 0.042811 0.000002
# 6 0.000006 -0.000013 0.000000 -0.003275 0.000002 0.038680
#
#
# Mechanical properties :
#
#
# Convention : Reuss Voigt Hill
#
# Bulk Modulus (GPa) = 53.86868 60.11938 56.99403
# Shear Modulus (GPa) = 22.90082 25.45127 24.17605
#
# Velocity S-wave (km/s) = 3.43589 3.62216 3.53026
# Velocity P-wave (km/s) = 6.59618 6.96311 6.78213
#
# Compressibility (1/GPa) = 0.01856366
#
# Stress axis : x y z
#
# Youngs Moduli (GPa) = 48.07370 51.70689 59.80982
#
# Poissons Ratio (x) = 0.14342 0.49708
# Poissons Ratio (y) = 0.13334 0.48231
# Poissons Ratio (z) = 0.39954 0.41697
#
# Static dielectric constant tensor:
#      x y z
#    x 3.834070 -0.000030 -0.450960 
#    y -0.000030 3.278010 0.000030 
#    z -0.450960 0.000030 6.846000 
# 
# 
# High freq. dielectric constant tensor:
#      x y z
#    x 1.755720 0.000000 -0.000190 
#    y 0.000000 1.731660 0.000000 
#    z -0.000190 0.000000 1.755120 
# 
# From -- ./inp_files/353405.got.cif
#   From: 2010.06.25/outbox.cif.g09.slc.cpg/sg12_177_cif.got.tgz:353405.got - 2010.06.28 00:19:55.
