data_PCOD8096683
_publ_section_title
;
Structure prediction by ZEFSAII (Michael W. Deem and Ramdas Pophale) SiO2 
 PCOD8096683
Probable space group: C 2/M
;
_chemical_formula_sum "Si O2"
_cell_formula_units_Z 36
_cell_length_a 8.518980
_cell_length_b 21.107333
_cell_length_c 15.182566
_cell_angle_alpha 90.000000
_cell_angle_beta 40.270155
_cell_angle_gamma 90.000000
_cell_volume 1764.665500
_symmetry_space_group_name_H-M "C 2/M"
_symmetry_group_IT_number 12
_symmetry_cell_setting 'monoclinic'
loop_
_space_group_symop_operation_xyz
x,y,z
-x,y,-z
-x,-y,-z
x,-y,z
1/2+x,1/2+y,z
1/2-x,1/2+y,-z
1/2-x,1/2-y,-z
1/2+x,1/2-y,z
loop_
_atom_site_type_symbol
_atom_site_label
_atom_site_fract_x
_atom_site_fract_y
_atom_site_fract_z
Si Si1 0.433395 0.836433 0.881327
Si Si2 0.500000 0.740330 0.000000
Si Si3 0.857161 0.073546 0.651518
Si Si4 0.942073 0.929060 0.922099
Si Si5 0.239211 0.925986 0.632074
O O1 0.547799 0.782403 0.893157
O O2 0.629562 0.878334 0.744488
O O3 0.240362 0.803124 0.898681
O O4 0.281543 0.884358 0.008781
O O5 0.000000 0.080002 0.500000
O O6 0.028878 0.098453 0.656903
O O7 0.771686 0.000000 0.701242
O O8 0.171594 0.910643 0.762553
O O9 0.861314 0.000000 0.933832
O O10 0.000000 0.921480 0.000000
O O11 0.500000 0.893405 0.500000
O O12 0.264879 0.000000 0.602741
#
# Coordination Sequence:
#
# PCOD8096683 Si02
#       5
#     8   4   8   8   8
#     4  11  21  41  58  87 117 158 204 259 292 359
#     4  10  24  38  62  80 116 162 214 250 296 340
#     4  10  22  38  62  94 126 157 193 250 317 373
#     4  10  20  33  59  93 120 153 196 251 312 367
#     4   9  19  34  53  84 125 160 189 228 296 374
#
# _framework density 20.400468
#
# number of rings (size 3 to 8) (size 9 to 14) (size 15 to 20)
#    0.000    2.000    1.111    2.000    3.111    0.000 
#    0.000    5.556    0.000    5.333    0.000    0.000 
#    0.000    0.000    0.000    0.000    0.000    0.000 
#
# Total GULP energy -223088.214451 kJ/mol
# GULP energy per Si atom -12393.789692 kJ/mol
# Density = 2.035404 g / cm^3
# Si number density = 20.400468 Si / 1000 Ang^3
#
#
#
# Elastic Constant Matrix: (Units=GPa)
#
#
# Indices 1 2 3 4 5 6 
#
# 1 113.3972 49.4115 62.1795 0.0002 -6.8437 -0.0001
# 2 49.4115 111.6390 64.8642 0.0000 -16.8928 0.0000
# 3 62.1795 64.8642 142.8594 0.0008 -6.8544 -0.0004
# 4 0.0002 0.0000 0.0008 22.6245 -0.0003 -13.3840
# 5 -6.8437 -16.8928 -6.8544 -0.0003 34.7306 0.0002
# 6 -0.0001 0.0000 -0.0004 -13.3840 0.0002 22.6538
#
#
#
# Elastic Compliance Matrix: (Units=1/GPa)
#
#
# Indices 1 2 3 4 5 6 
#
# 1 0.012365 -0.003166 -0.003938 0.000000 0.000119 0.000000
# 2 -0.003166 0.013854 -0.004663 0.000000 0.005194 0.000000
# 3 -0.003938 -0.004663 0.010787 0.000000 -0.000915 0.000000
# 4 0.000000 0.000000 0.000000 0.067948 0.000000 0.040144
# 5 0.000119 0.005194 -0.000915 0.000000 0.031162 0.000000
# 6 0.000000 0.000000 0.000000 0.040144 0.000000 0.067860
#
#
# Mechanical properties :
#
#
# Convention : Reuss Voigt Hill
#
# Bulk Modulus (GPa) = 74.23427 80.08956 77.16192
# Shear Modulus (GPa) = 21.55140 28.76448 25.15794
#
# Velocity S-wave (km/s) = 3.25378 3.75906 3.51551
# Velocity P-wave (km/s) = 7.11222 7.62788 7.37456
#
# Compressibility (1/GPa) = 0.01347087
#
# Stress axis : x y z
#
# Youngs Moduli (GPa) = 80.87273 72.18048 92.70084
#
# Poissons Ratio (x) = 0.22856 0.36510
# Poissons Ratio (y) = 0.25608 0.43226
# Poissons Ratio (z) = 0.31852 0.33657
#
# Static dielectric constant tensor:
#      x y z
#    x 3.779050 0.000000 -0.119280 
#    y 0.000000 3.810640 0.000000 
#    z -0.119280 0.000000 3.628470 
# 
# 
# High freq. dielectric constant tensor:
#      x y z
#    x 1.798610 0.000000 -0.001970 
#    y 0.000000 1.783380 0.000000 
#    z -0.001970 0.000000 1.790180 
# 
# From -- ./inp_files/38898.got.cif
#   From: 2010.06.25/outbox.cif.g09.slc.cpg/sg12_20_cif.got.tgz:38898.got - 2010.06.28 00:19:55.
