data_PCOD8096222
_publ_section_title
;
Structure prediction by ZEFSAII (Michael W. Deem and Ramdas Pophale) SiO2 
 PCOD8096222
Probable space group: C 2/M
;
_chemical_formula_sum "Si O2"
_cell_formula_units_Z 56
_cell_length_a 14.257834
_cell_length_b 8.956924
_cell_length_c 31.686519
_cell_angle_alpha 90.000000
_cell_angle_beta 131.805886
_cell_angle_gamma 90.000000
_cell_volume 3016.343144
_symmetry_space_group_name_H-M "C 2/M"
_symmetry_group_IT_number 12
_symmetry_cell_setting 'monoclinic'
loop_
_space_group_symop_operation_xyz
x,y,z
-x,y,-z
-x,-y,-z
x,-y,z
1/2+x,1/2+y,z
1/2-x,1/2+y,-z
1/2-x,1/2-y,-z
1/2+x,1/2-y,z
loop_
_atom_site_type_symbol
_atom_site_label
_atom_site_fract_x
_atom_site_fract_y
_atom_site_fract_z
Si Si1 0.838516 0.827678 0.059747
Si Si2 0.673143 0.677198 0.847637
Si Si3 0.875530 0.177214 0.847545
Si Si4 0.691756 0.673747 0.640199
Si Si5 0.795024 0.174720 0.451645
Si Si6 0.409559 0.823679 0.770072
Si Si7 0.558283 0.825113 0.435349
O O1 0.798298 0.783565 0.095078
O O2 0.983429 0.783667 0.095034
O O3 0.818584 0.000000 0.046340
O O4 0.750000 0.750000 0.000000
O O5 0.667537 0.500000 0.838404
O O6 0.781378 0.751168 0.852565
O O7 0.539908 0.748313 0.795089
O O8 0.852782 0.250431 0.795198
O O9 0.854492 0.000000 0.837795
O O10 0.660432 0.500000 0.633203
O O11 0.716165 0.727190 0.599808
O O12 0.813468 0.713244 0.703920
O O13 0.571917 0.762115 0.622155
O O14 0.664882 0.222925 0.434282
O O15 0.911457 0.255153 0.509716
O O16 0.820049 0.000000 0.463082
O O17 0.428791 0.000000 0.782708
O O18 0.547890 0.000000 0.437536
#
# Coordination Sequence:
#
# PCOD8096222 Si02
#       7
#     8   8   8   8   8   8   8
#     4   9  20  36  55  82 115 146 181 224 267 315
#     4  10  21  38  58  82 111 146 185 225 271 320
#     4  10  21  38  58  81 110 147 185 223 271 323
#     4  10  21  36  54  76 103 137 174 212 264 322
#     4   9  19  36  53  71 102 139 170 208 261 320
#     4  10  21  37  56  80 108 141 183 229 274 323
#     4  10  20  33  52  78 104 133 172 216 261 311
#
# _framework density 18.565525999999998
#
# number of rings (size 3 to 8) (size 9 to 14) (size 15 to 20)
#    0.000    2.286    0.000    3.000    0.000    9.143 
#    0.000    4.286    0.000    0.000    0.000    0.000 
#    0.000    0.000    0.000    0.000    0.000    0.000 
#
# Total GULP energy -347259.754597 kJ/mol
# GULP energy per Si atom -12402.134093 kJ/mol
# Density = 1.852327 g / cm^3
# Si number density = 18.565526 Si / 1000 Ang^3
#
#
#
# Elastic Constant Matrix: (Units=GPa)
#
#
# Indices 1 2 3 4 5 6 
#
# 1 134.4047 54.6272 61.5071 0.0000 6.4646 0.0000
# 2 54.6272 77.4708 55.4553 0.0000 6.7313 0.0000
# 3 61.5071 55.4553 129.9444 0.0000 9.8678 0.0000
# 4 0.0000 0.0000 0.0000 34.1453 0.0000 4.0120
# 5 6.4646 6.7313 9.8678 0.0000 20.7192 0.0000
# 6 0.0000 0.0000 0.0000 4.0120 0.0000 35.1767
#
#
#
# Elastic Compliance Matrix: (Units=1/GPa)
#
#
# Indices 1 2 3 4 5 6 
#
# 1 0.011073 -0.005828 -0.002734 0.000000 -0.000259 0.000000
# 2 -0.005828 0.021764 -0.006361 0.000000 -0.002223 0.000000
# 3 -0.002734 -0.006361 0.011913 0.000000 -0.002754 0.000000
# 4 0.000000 0.000000 0.000000 0.029684 0.000000 -0.003386
# 5 -0.000259 -0.002223 -0.002754 0.000000 0.050379 0.000000
# 6 0.000000 0.000000 0.000000 -0.003386 0.000000 0.028814
#
#
# Mechanical properties :
#
#
# Convention : Reuss Voigt Hill
#
# Bulk Modulus (GPa) = 67.09462 76.11098 71.60280
# Shear Modulus (GPa) = 26.53349 29.35692 27.94520
#
# Velocity S-wave (km/s) = 3.78455 3.98082 3.88393
# Velocity P-wave (km/s) = 7.43740 7.88759 7.66580
#
# Compressibility (1/GPa) = 0.01490433
#
# Stress axis : x y z
#
# Youngs Moduli (GPa) = 90.31275 45.94800 83.93898
#
# Poissons Ratio (x) = 0.26778 0.22951
# Poissons Ratio (y) = 0.52634 0.53390
# Poissons Ratio (z) = 0.24694 0.29226
#
# Static dielectric constant tensor:
#      x y z
#    x 5.723500 0.000000 -0.008380 
#    y 0.000000 3.449220 0.000000 
#    z -0.008380 0.000000 3.531800 
# 
# 
# High freq. dielectric constant tensor:
#      x y z
#    x 1.728260 0.000000 0.002900 
#    y 0.000000 1.727340 0.000000 
#    z 0.002900 0.000000 1.719180 
# 
# From -- ./inp_files/337862.got.cif
#   From: 2010.06.25/outbox.cif.g09.slc.cpg/sg12_169_cif.got.tgz:337862.got - 2010.06.28 00:19:55.
