data_PCOD8096218
_publ_section_title
;
Structure prediction by ZEFSAII (Michael W. Deem and Ramdas Pophale) SiO2 
 PCOD8096218
Probable space group: C 2/M
;
_chemical_formula_sum "Si O2"
_cell_formula_units_Z 64
_cell_length_a 14.393275
_cell_length_b 9.140833
_cell_length_c 29.355078
_cell_angle_alpha 90.000000
_cell_angle_beta 62.427116
_cell_angle_gamma 90.000000
_cell_volume 3423.493643
_symmetry_space_group_name_H-M "C 2/M"
_symmetry_group_IT_number 12
_symmetry_cell_setting 'monoclinic'
loop_
_space_group_symop_operation_xyz
x,y,z
-x,y,-z
-x,-y,-z
x,-y,z
1/2+x,1/2+y,z
1/2-x,1/2+y,-z
1/2-x,1/2-y,-z
1/2+x,1/2-y,z
loop_
_atom_site_type_symbol
_atom_site_label
_atom_site_fract_x
_atom_site_fract_y
_atom_site_fract_z
Si Si1 0.747645 0.332378 0.138139
Si Si2 0.024574 0.670402 0.876876
Si Si3 0.666139 0.830519 0.239645
Si Si4 0.465439 0.671101 0.308690
Si Si5 0.388243 0.328548 0.506814
Si Si6 0.821681 0.172527 0.947007
Si Si7 0.316366 0.671148 0.423223
Si Si8 0.106857 0.168307 0.774977
O O1 0.719086 0.500000 0.154861
O O2 0.673320 0.236958 0.187451
O O3 0.726132 0.289996 0.091257
O O4 0.868984 0.300055 0.119958
O O5 0.995515 0.500000 0.881236
O O6 0.936907 0.758469 0.924473
O O7 0.033874 0.732289 0.823528
O O8 0.574658 0.755113 0.289295
O O9 0.771798 0.799579 0.243336
O O10 0.641224 0.000000 0.240010
O O11 0.487890 0.500000 0.308803
O O12 0.388035 0.727060 0.365599
O O13 0.413453 0.710647 0.272346
O O14 0.500000 0.270558 0.500000
O O15 0.377682 0.500000 0.518142
O O16 0.377223 0.289413 0.455982
O O17 0.295168 0.250943 0.555514
O O18 0.826672 0.000000 0.955302
O O19 0.750000 0.250000 0.000000
O O20 0.293674 0.500000 0.424771
O O21 0.078294 0.000000 0.791887
#
# Coordination Sequence:
#
# PCOD8096218 Si02
#       8
#     8   8   8   8   8   8   8   8
#     4   9  20  38  57  75 102 139 171 202 250 307
#     4  10  20  36  57  79 102 132 171 211 249 297
#     4  10  20  33  52  78 104 131 169 211 248 292
#     4  10  20  34  51  72 105 141 168 202 251 305
#     4   9  18  34  54  74  99 131 168 214 262 300
#     4  11  23  38  55  77 104 134 168 208 255 304
#     4   9  19  34  51  74 101 133 173 209 248 304
#     4   9  19  35  52  73 103 137 168 202 249 301
#
# _framework density 18.694353
#
# number of rings (size 3 to 8) (size 9 to 14) (size 15 to 20)
#    0.000    2.375    0.000    1.875    0.000    7.750 
#    0.000    2.500    0.000    0.000    0.000    0.000 
#    0.000    0.000    0.000    0.000    0.000    0.000 
#
# Total GULP energy -396936.654129 kJ/mol
# GULP energy per Si atom -12404.270442 kJ/mol
# Density = 1.865180 g / cm^3
# Si number density = 18.694353 Si / 1000 Ang^3
#
#
#
# Elastic Constant Matrix: (Units=GPa)
#
#
# Indices 1 2 3 4 5 6 
#
# 1 88.0879 37.8465 49.5168 0.0000 -18.9103 0.0000
# 2 37.8465 70.3639 52.2377 0.0000 -17.3423 0.0000
# 3 49.5168 52.2377 132.0271 0.0000 -29.1234 0.0000
# 4 0.0000 0.0000 0.0000 34.3881 0.0000 -7.9508
# 5 -18.9103 -17.3423 -29.1234 0.0000 27.5558 0.0000
# 6 0.0000 0.0000 0.0000 -7.9508 0.0000 30.8178
#
#
#
# Elastic Compliance Matrix: (Units=1/GPa)
#
#
# Indices 1 2 3 4 5 6 
#
# 1 0.016357 -0.005460 -0.002942 0.000000 0.004679 0.000000
# 2 -0.005460 0.022616 -0.005982 0.000000 0.004164 0.000000
# 3 -0.002942 -0.005982 0.012738 0.000000 0.007679 0.000000
# 4 0.000000 0.000000 0.000000 0.030924 0.000000 0.007978
# 5 0.004679 0.004164 0.007679 0.000000 0.050238 0.000000
# 6 0.000000 0.000000 0.000000 0.007978 0.000000 0.034507
#
#
# Mechanical properties :
#
#
# Convention : Reuss Voigt Hill
#
# Bulk Modulus (GPa) = 43.58703 63.29787 53.44245
# Shear Modulus (GPa) = 24.53438 28.61088 26.57263
#
# Velocity S-wave (km/s) = 3.62663 3.91635 3.77427
# Velocity P-wave (km/s) = 6.39553 7.37450 6.90239
#
# Compressibility (1/GPa) = 0.02294261
#
# Stress axis : x y z
#
# Youngs Moduli (GPa) = 61.13775 44.21671 78.50361
#
# Poissons Ratio (x) = 0.24144 0.23096
# Poissons Ratio (y) = 0.33383 0.46959
# Poissons Ratio (z) = 0.17987 0.26449
#
# Static dielectric constant tensor:
#      x y z
#    x 3.553960 0.000000 -0.051120 
#    y 0.000000 3.425040 0.000000 
#    z -0.051120 0.000000 3.445120 
# 
# 
# High freq. dielectric constant tensor:
#      x y z
#    x 1.733210 0.000000 -0.006300 
#    y 0.000000 1.725540 0.000000 
#    z -0.006300 0.000000 1.722840 
# 
# From -- ./inp_files/338935.got.cif
#   From: 2010.06.25/outbox.cif.g09.slc.cpg/sg12_170_cif.got.tgz:338935.got - 2010.06.28 00:19:55.
