data_PCOD8096500
_publ_section_title
;
Structure prediction by ZEFSAII (Michael W. Deem and Ramdas Pophale) SiO2 
 PCOD8096500
Probable space group: C 2/M
;
_chemical_formula_sum "Si O2"
_cell_formula_units_Z 64
_cell_length_a 15.221253
_cell_length_b 18.873537
_cell_length_c 24.110920
_cell_angle_alpha 90.000000
_cell_angle_beta 150.345649
_cell_angle_gamma 90.000000
_cell_volume 3427.028582
_symmetry_space_group_name_H-M "C 2/M"
_symmetry_group_IT_number 12
_symmetry_cell_setting 'monoclinic'
loop_
_space_group_symop_operation_xyz
x,y,z
-x,y,-z
-x,-y,-z
x,-y,z
1/2+x,1/2+y,z
1/2-x,1/2+y,-z
1/2-x,1/2-y,-z
1/2+x,1/2-y,z
loop_
_atom_site_type_symbol
_atom_site_label
_atom_site_fract_x
_atom_site_fract_y
_atom_site_fract_z
Si Si1 0.951762 0.579212 0.607221
Si Si2 0.551863 0.677243 0.142564
Si Si3 0.467578 0.830514 0.072119
Si Si4 0.662938 0.131282 0.622949
Si Si5 0.191423 0.661557 0.815534
Si Si6 0.282349 0.676269 0.165353
Si Si7 0.880537 0.079334 0.643373
Si Si8 0.767017 0.415410 0.046396
O O1 0.960678 0.500000 0.636620
O O2 0.751496 0.598842 0.479662
O O3 0.081087 0.580927 0.624987
O O4 0.013470 0.634182 0.687799
O O5 0.440951 0.749984 0.078427
O O6 0.701925 0.685985 0.272847
O O7 0.637809 0.656917 0.130691
O O8 0.411987 0.615082 0.080737
O O9 0.667676 0.834914 0.158317
O O10 0.437221 0.885896 0.105525
O O11 0.327537 0.850563 0.947601
O O12 0.500000 0.170153 0.500000
O O13 0.774156 0.082716 0.642472
O O14 0.161622 0.742886 0.815191
O O15 0.227067 0.612721 0.887855
O O16 0.459554 0.633086 0.270668
O O17 0.954457 0.000000 0.677038
O O18 0.766451 0.500000 0.044817
#
# Coordination Sequence:
#
# PCOD8096500 Si02
#       8
#     8   8   8   8   8   8   8   8
#     4   9  18  34  53  78 117 148 171 221 283 334
#     4  10  20  36  57  79 113 147 182 219 277 337
#     4  10  22  39  56  77 111 149 181 228 285 319
#     4   9  18  31  53  84 113 140 174 222 277 331
#     4  10  21  36  56  82 109 147 183 226 277 329
#     4  10  21  38  59  78 106 146 190 233 272 324
#     4  10  20  33  54  82 109 145 187 225 272 328
#     4  12  24  35  56  87 114 145 186 227 273 335
#
# _framework density 18.675070999999999
#
# number of rings (size 3 to 8) (size 9 to 14) (size 15 to 20)
#    0.000    2.000    1.250    2.250    1.750    7.500 
#    0.000    1.250    0.000    0.000    0.000    2.625 
#    0.000    0.000    0.000    0.000    0.000    0.000 
#
# Total GULP energy -396717.200131 kJ/mol
# GULP energy per Si atom -12397.412504 kJ/mol
# Density = 1.863257 g / cm^3
# Si number density = 18.675071 Si / 1000 Ang^3
#
#
#
# Elastic Constant Matrix: (Units=GPa)
#
#
# Indices 1 2 3 4 5 6 
#
# 1 67.1411 43.4433 35.1111 0.0019 -3.5165 0.0003
# 2 43.4433 110.0039 46.0330 0.0028 12.8435 0.0003
# 3 35.1111 46.0330 107.9926 0.0070 4.5057 0.0023
# 4 0.0019 0.0028 0.0070 26.2889 0.0010 0.2806
# 5 -3.5165 12.8435 4.5057 0.0010 23.7178 0.0002
# 6 0.0003 0.0003 0.0023 0.2806 0.0002 18.7184
#
#
#
# Elastic Compliance Matrix: (Units=1/GPa)
#
#
# Indices 1 2 3 4 5 6 
#
# 1 0.022957 -0.008285 -0.004296 0.000000 0.008706 0.000000
# 2 -0.008285 0.014712 -0.003219 0.000000 -0.008584 0.000000
# 3 -0.004296 -0.003219 0.012078 -0.000003 -0.001188 -0.000001
# 4 0.000000 0.000000 -0.000003 0.038045 -0.000001 -0.000570
# 5 0.008706 -0.008584 -0.001188 -0.000001 0.048327 0.000000
# 6 0.000000 0.000000 -0.000001 -0.000570 0.000000 0.053432
#
#
# Mechanical properties :
#
#
# Convention : Reuss Voigt Hill
#
# Bulk Modulus (GPa) = 55.10457 59.36807 57.23632
# Shear Modulus (GPa) = 22.00695 24.44838 23.22766
#
# Velocity S-wave (km/s) = 3.43653 3.62214 3.53055
# Velocity P-wave (km/s) = 6.73182 7.02511 6.88003
#
# Compressibility (1/GPa) = 0.01814732
#
# Stress axis : x y z
#
# Youngs Moduli (GPa) = 43.55900 67.97154 82.79319
#
# Poissons Ratio (x) = 0.56317 0.35564
# Poissons Ratio (y) = 0.36091 0.26653
# Poissons Ratio (z) = 0.18711 0.21882
#
# Static dielectric constant tensor:
#      x y z
#    x 3.401590 0.000000 -0.061560 
#    y 0.000000 3.231540 0.000000 
#    z -0.061560 0.000000 3.605720 
# 
# 
# High freq. dielectric constant tensor:
#      x y z
#    x 1.718280 0.000000 -0.004000 
#    y 0.000000 1.705380 0.000000 
#    z -0.004000 0.000000 1.729660 
# 
# From -- ./inp_files/340852.got.cif
#   From: 2010.06.25/outbox.cif.g09.slc.cpg/sg12_171_cif.got.tgz:340852.got - 2010.06.28 00:19:55.
