data_PCOD8096650
_publ_section_title
;
Structure prediction by ZEFSAII (Michael W. Deem and Ramdas Pophale) SiO2 
 PCOD8096650
Probable space group: C 2/M
;
_chemical_formula_sum "Si O2"
_cell_formula_units_Z 48
_cell_length_a 15.959883
_cell_length_b 27.410092
_cell_length_c 12.747985
_cell_angle_alpha 90.000000
_cell_angle_beta 154.397572
_cell_angle_gamma 90.000000
_cell_volume 2409.850453
_symmetry_space_group_name_H-M "C 2/M"
_symmetry_group_IT_number 12
_symmetry_cell_setting 'monoclinic'
loop_
_space_group_symop_operation_xyz
x,y,z
-x,y,-z
-x,-y,-z
x,-y,z
1/2+x,1/2+y,z
1/2-x,1/2+y,-z
1/2-x,1/2-y,-z
1/2+x,1/2-y,z
loop_
_atom_site_type_symbol
_atom_site_label
_atom_site_fract_x
_atom_site_fract_y
_atom_site_fract_z
Si Si1 0.229207 0.313805 0.605900
Si Si2 0.712872 0.910816 0.701557
Si Si3 0.063775 0.055466 0.237501
Si Si4 0.058146 0.147696 0.347209
Si Si5 0.708716 0.714007 0.688369
Si Si6 0.175199 0.301002 0.960006
O O1 0.233417 0.352623 0.705743
O O2 0.393890 0.325078 0.707196
O O3 0.282522 0.260661 0.708000
O O4 0.021215 0.316971 0.315892
O O5 0.500000 0.925385 0.500000
O O6 0.759708 0.938732 0.645636
O O7 0.863103 0.927601 0.958909
O O8 0.097884 0.089850 0.377601
O O9 0.051304 0.000000 0.262196
O O10 0.191663 0.167456 0.592502
O O11 0.832733 0.157069 0.116274
O O12 0.500000 0.727988 0.500000
O O13 0.857401 0.702387 0.950630
O O14 0.250000 0.250000 0.000000
#
# Coordination Sequence:
#
# PCOD8096650 Si02
#       6
#     8   8   8   8   8   8
#     4  11  21  35  53  83 114 150 184 219 277 342
#     4  10  20  33  57  84 116 146 185 230 287 343
#     4  10  22  38  56  83 113 147 192 241 285 327
#     4  10  22  38  53  82 111 147 188 231 273 336
#     4  10  20  34  53  78 111 149 184 221 268 330
#     4  11  22  36  55  78 115 151 182 229 273 330
#
# _framework density 19.918248999999999
#
# number of rings (size 3 to 8) (size 9 to 14) (size 15 to 20)
#    0.000    1.667    3.333    3.000    2.333    2.000 
#    0.000    0.000    0.000    4.500    0.000    4.667 
#    0.000    0.000    0.000    0.000    0.000    0.000 
#
# Total GULP energy -297652.702853 kJ/mol
# GULP energy per Si atom -12402.195952 kJ/mol
# Density = 1.987291 g / cm^3
# Si number density = 19.918249 Si / 1000 Ang^3
#
#
#
# Elastic Constant Matrix: (Units=GPa)
#
#
# Indices 1 2 3 4 5 6 
#
# 1 85.2821 54.1888 41.3340 0.0002 -8.3592 0.0001
# 2 54.1888 162.9622 44.0153 0.0000 -22.1925 0.0000
# 3 41.3340 44.0153 62.0532 0.0003 5.6953 0.0001
# 4 0.0002 0.0000 0.0003 23.5026 0.0003 -5.1425
# 5 -8.3592 -22.1925 5.6953 0.0003 28.4471 0.0001
# 6 0.0001 0.0000 0.0001 -5.1425 0.0001 18.8666
#
#
#
# Elastic Compliance Matrix: (Units=1/GPa)
#
#
# Indices 1 2 3 4 5 6 
#
# 1 0.019697 -0.002474 -0.011938 0.000000 0.006248 0.000000
# 2 -0.002474 0.009648 -0.005928 0.000000 0.007987 0.000000
# 3 -0.011938 -0.005928 0.029562 0.000000 -0.014052 0.000000
# 4 0.000000 0.000000 0.000000 0.045247 0.000000 0.012333
# 5 0.006248 0.007987 -0.014052 0.000000 0.046033 0.000000
# 6 0.000000 0.000000 0.000000 0.012333 0.000000 0.056365
#
#
# Mechanical properties :
#
#
# Convention : Reuss Voigt Hill
#
# Bulk Modulus (GPa) = 54.87052 65.48595 60.17823
# Shear Modulus (GPa) = 19.73878 25.54723 22.64301
#
# Velocity S-wave (km/s) = 3.15141 3.58523 3.37530
# Velocity P-wave (km/s) = 6.39137 7.07723 6.74303
#
# Compressibility (1/GPa) = 0.01822472
#
# Stress axis : x y z
#
# Youngs Moduli (GPa) = 50.77030 103.64871 33.82700
#
# Poissons Ratio (x) = 0.25645 0.40384
# Poissons Ratio (y) = 0.12562 0.20054
# Poissons Ratio (z) = 0.60612 0.61447
#
# Static dielectric constant tensor:
#      x y z
#    x 3.894670 0.000000 0.026900 
#    y 0.000000 3.560520 0.000000 
#    z 0.026900 0.000000 3.819350 
# 
# 
# High freq. dielectric constant tensor:
#      x y z
#    x 1.780290 0.000000 0.010450 
#    y 0.000000 1.753010 0.000000 
#    z 0.010450 0.000000 1.770720 
# 
# From -- ./inp_files/149605.got.cif
#   From: 2010.06.25/outbox.cif.g09.slc.cpg/sg12_75_cif.got.tgz:149605.got - 2010.06.28 00:19:55.
