data_PCOD8096309
_publ_section_title
;
Structure prediction by ZEFSAII (Michael W. Deem and Ramdas Pophale) SiO2 
 PCOD8096309
Probable space group: C 2/M
;
_chemical_formula_sum "Si O2"
_cell_formula_units_Z 64
_cell_length_a 28.165664
_cell_length_b 9.272331
_cell_length_c 22.953646
_cell_angle_alpha 90.000000
_cell_angle_beta 31.933951
_cell_angle_gamma 90.000000
_cell_volume 3170.794405
_symmetry_space_group_name_H-M "C 2/M"
_symmetry_group_IT_number 12
_symmetry_cell_setting 'monoclinic'
loop_
_space_group_symop_operation_xyz
x,y,z
-x,y,-z
-x,-y,-z
x,-y,z
1/2+x,1/2+y,z
1/2-x,1/2+y,-z
1/2-x,1/2-y,-z
1/2+x,1/2-y,z
loop_
_atom_site_type_symbol
_atom_site_label
_atom_site_fract_x
_atom_site_fract_y
_atom_site_fract_z
Si Si1 0.814166 0.336296 0.004626
Si Si2 0.657160 0.668513 0.603119
Si Si3 0.855331 0.667969 0.830738
Si Si4 0.782589 0.670790 0.239234
Si Si5 0.414685 0.334730 0.556160
Si Si6 0.469100 0.334813 0.370115
Si Si7 0.931802 0.665022 0.990290
Si Si8 0.392559 0.669343 0.214379
O O1 0.778206 0.500000 0.043375
O O2 0.732265 0.234213 0.108962
O O3 0.851855 0.293850 0.902521
O O4 0.896656 0.314101 0.961738
O O5 0.677347 0.500000 0.575268
O O6 0.750000 0.750000 0.500000
O O7 0.590822 0.722589 0.621133
O O8 0.611441 0.703546 0.712722
O O9 0.858093 0.500000 0.814647
O O10 0.942962 0.739706 0.713211
O O11 0.781394 0.500000 0.253436
O O12 0.683272 0.724783 0.322211
O O13 0.807899 0.754729 0.271958
O O14 0.853306 0.712557 0.115737
O O15 0.500000 0.257464 0.500000
O O16 0.418614 0.500000 0.571318
O O17 0.415502 0.316838 0.485784
O O18 0.497406 0.500000 0.329436
O O19 0.961023 0.500000 0.971770
O O20 0.017924 0.765537 0.908206
O O21 0.390352 0.500000 0.204266
#
# Coordination Sequence:
#
# PCOD8096309 Si02
#       8
#     8   8   8   8   8   8   8   8
#     4   9  19  35  54  79 110 145 186 232 280 328
#     4  10  22  38  58  86 114 150 192 235 288 343
#     4  10  20  33  52  80 113 146 183 227 280 338
#     4  10  21  38  60  85 113 147 197 247 284 336
#     4   9  19  35  59  87 110 140 187 241 289 330
#     4  10  20  35  57  81 109 143 185 230 280 337
#     4  10  21  36  59  86 112 149 197 243 286 332
#     4  11  23  38  57  84 121 156 189 232 290 352
#
# _framework density 20.184217
#
# number of rings (size 3 to 8) (size 9 to 14) (size 15 to 20)
#    0.000    2.125    0.000    2.625    1.750    5.500 
#    0.000    0.625    0.000    0.750    0.000    0.000 
#    0.000    0.000    0.000    0.000    0.000    0.000 
#
# Total GULP energy -396834.034549 kJ/mol
# GULP energy per Si atom -12401.063580 kJ/mol
# Density = 2.013828 g / cm^3
# Si number density = 20.184217 Si / 1000 Ang^3
#
#
#
# Elastic Constant Matrix: (Units=GPa)
#
#
# Indices 1 2 3 4 5 6 
#
# 1 97.3282 20.2052 35.7409 -0.0055 -12.3771 0.0061
# 2 20.2052 59.6105 41.0788 0.0149 -10.3624 -0.0035
# 3 35.7409 41.0788 116.2635 0.0045 -24.1301 -0.0018
# 4 -0.0055 0.0149 0.0045 26.5356 -0.0002 -2.9541
# 5 -12.3771 -10.3624 -24.1301 -0.0002 31.6261 -0.0011
# 6 0.0061 -0.0035 -0.0018 -2.9541 -0.0011 27.6320
#
#
#
# Elastic Compliance Matrix: (Units=1/GPa)
#
#
# Indices 1 2 3 4 5 6 
#
# 1 0.011869 -0.001910 -0.002542 0.000004 0.002080 -0.000003
# 2 -0.001910 0.022544 -0.007130 -0.000012 0.001200 0.000002
# 3 -0.002542 -0.007130 0.013320 0.000001 0.006832 0.000001
# 4 0.000004 -0.000012 0.000001 0.038139 -0.000001 0.004077
# 5 0.002080 0.001200 0.006832 -0.000001 0.038039 0.000002
# 6 -0.000003 0.000002 0.000001 0.004077 0.000002 0.036626
#
#
# Mechanical properties :
#
#
# Convention : Reuss Voigt Hill
#
# Bulk Modulus (GPa) = 40.69965 51.91689 46.30827
# Shear Modulus (GPa) = 26.05662 28.90390 27.48026
#
# Velocity S-wave (km/s) = 3.59686 3.78829 3.69382
# Velocity P-wave (km/s) = 6.12028 6.70166 6.41755
#
# Compressibility (1/GPa) = 0.02457023
#
# Stress axis : x y z
#
# Youngs Moduli (GPa) = 84.25312 44.35678 75.07714
#
# Poissons Ratio (x) = 0.08470 0.19088
# Poissons Ratio (y) = 0.16088 0.53526
# Poissons Ratio (z) = 0.21420 0.31624
#
# Static dielectric constant tensor:
#      x y z
#    x 3.875040 -0.000020 -0.055690 
#    y -0.000020 3.450390 0.000020 
#    z -0.055690 0.000020 3.650700 
# 
# 
# High freq. dielectric constant tensor:
#      x y z
#    x 1.798410 0.000000 -0.004480 
#    y 0.000000 1.762670 0.000000 
#    z -0.004480 0.000000 1.793450 
# 
# From -- ./inp_files/353387.got.cif
#   From: 2010.06.25/outbox.cif.g09.slc.cpg/sg12_177_cif.got.tgz:353387.got - 2010.06.28 00:19:55.
