data_PCOD8096277
_publ_section_title
;
Structure prediction by ZEFSAII (Michael W. Deem and Ramdas Pophale) SiO2 
 PCOD8096277
Probable space group: C 2/M
;
_chemical_formula_sum "Si O2"
_cell_formula_units_Z 56
_cell_length_a 26.204676
_cell_length_b 9.280961
_cell_length_c 13.447891
_cell_angle_alpha 90.000000
_cell_angle_beta 117.086273
_cell_angle_gamma 90.000000
_cell_volume 2911.876744
_symmetry_space_group_name_H-M "C 2/M"
_symmetry_group_IT_number 12
_symmetry_cell_setting 'monoclinic'
loop_
_space_group_symop_operation_xyz
x,y,z
-x,y,-z
-x,-y,-z
x,-y,z
1/2+x,1/2+y,z
1/2-x,1/2+y,-z
1/2-x,1/2-y,-z
1/2+x,1/2-y,z
loop_
_atom_site_type_symbol
_atom_site_label
_atom_site_fract_x
_atom_site_fract_y
_atom_site_fract_z
Si Si1 0.970508 0.668898 0.743530
Si Si2 0.283009 0.336917 0.612082
Si Si3 0.566829 0.157053 0.079258
Si Si4 0.211566 0.831430 0.684485
Si Si5 0.618116 0.337936 0.440656
Si Si6 0.199782 0.167049 0.901347
Si Si7 0.416747 0.669279 0.091922
O O1 0.982408 0.500000 0.738306
O O2 0.928445 0.697935 0.800514
O O3 0.937121 0.734142 0.618499
O O4 0.030832 0.749044 0.809637
O O5 0.259865 0.500000 0.598871
O O6 0.250000 0.250000 0.500000
O O7 0.269419 0.255613 0.704200
O O8 0.348962 0.335674 0.636621
O O9 0.595374 0.000000 0.083650
O O10 0.500000 0.144868 0.000000
O O11 0.594390 0.276115 0.031038
O O12 0.158248 0.784331 0.567081
O O13 0.196621 0.789091 0.783256
O O14 0.224266 0.000000 0.681705
O O15 0.596723 0.500000 0.444314
O O16 0.139125 0.207691 0.894746
O O17 0.213359 0.000000 0.926232
O O18 0.250000 0.250000 0.000000
O O19 0.430034 0.500000 0.100680
#
# Coordination Sequence:
#
# PCOD8096277 Si02
#       7
#     8   8   8   8   8   8   8
#     4  10  20  33  52  79 110 142 174 211 261 319
#     4   9  17  30  50  77 107 139 175 214 259 309
#     4   8  16  31  49  72 103 137 170 206 254 308
#     4   9  19  37  56  76 107 144 181 222 267 314
#     4   9  18  32  52  78 108 141 175 213 258 312
#     4  10  23  41  59  79 103 136 179 224 270 320
#     4  10  20  35  55  78 105 138 177 220 264 311
#
# _framework density 19.231583000000001
#
# number of rings (size 3 to 8) (size 9 to 14) (size 15 to 20)
#    0.000    2.714    0.000    3.000    0.000    8.857 
#    0.000    6.429    0.000    4.286    0.000    0.000 
#    0.000    0.000    0.000    0.000    0.000    0.000 
#
# Total GULP energy -347017.157341 kJ/mol
# GULP energy per Si atom -12393.469905 kJ/mol
# Density = 1.918781 g / cm^3
# Si number density = 19.231583 Si / 1000 Ang^3
#
#
#
# Elastic Constant Matrix: (Units=GPa)
#
#
# Indices 1 2 3 4 5 6 
#
# 1 96.8736 60.2949 50.4232 0.0000 -15.0798 0.0000
# 2 60.2949 110.5526 54.5517 0.0000 2.3776 0.0000
# 3 50.4232 54.5517 102.0799 0.0000 -1.3922 0.0000
# 4 0.0000 0.0000 0.0000 28.7458 0.0000 0.5734
# 5 -15.0798 2.3776 -1.3922 0.0000 24.9002 0.0000
# 6 0.0000 0.0000 0.0000 0.5734 0.0000 29.0811
#
#
#
# Elastic Compliance Matrix: (Units=1/GPa)
#
#
# Indices 1 2 3 4 5 6 
#
# 1 0.020667 -0.008969 -0.005237 0.000000 0.013080 0.000000
# 2 -0.008969 0.016236 -0.004345 0.000000 -0.007225 0.000000
# 3 -0.005237 -0.004345 0.014679 0.000000 -0.001936 0.000000
# 4 0.000000 0.000000 0.000000 0.034801 0.000000 -0.000686
# 5 0.013080 -0.007225 -0.001936 0.000000 0.048663 0.000000
# 6 0.000000 0.000000 0.000000 -0.000686 0.000000 0.034400
#
#
# Mechanical properties :
#
#
# Convention : Reuss Voigt Hill
#
# Bulk Modulus (GPa) = 69.06085 71.11617 70.08851
# Shear Modulus (GPa) = 23.65453 26.16119 24.90786
#
# Velocity S-wave (km/s) = 3.51092 3.69226 3.60273
# Velocity P-wave (km/s) = 7.24041 7.43210 7.33688
#
# Compressibility (1/GPa) = 0.01447998
#
# Stress axis : x y z
#
# Youngs Moduli (GPa) = 48.38628 61.59005 68.12464
#
# Poissons Ratio (x) = 0.55238 0.35680
# Poissons Ratio (y) = 0.43396 0.29601
# Poissons Ratio (z) = 0.25342 0.26762
#
# Static dielectric constant tensor:
#      x y z
#    x 3.704470 0.000000 -0.249060 
#    y 0.000000 3.660700 0.000000 
#    z -0.249060 0.000000 3.591000 
# 
# 
# High freq. dielectric constant tensor:
#      x y z
#    x 1.727190 0.000000 0.000190 
#    y 0.000000 1.753890 0.000000 
#    z 0.000190 0.000000 1.739220 
# 
# From -- ./inp_files/244322.got.cif
#   From: 2010.06.25/outbox.cif.g09.slc.cpg/sg12_123_cif.got.tgz:244322.got - 2010.06.28 00:19:55.
