data_PCOD8096528
_publ_section_title
;
Structure prediction by ZEFSAII (Michael W. Deem and Ramdas Pophale) SiO2 
 PCOD8096528
Probable space group: C 2/M
;
_chemical_formula_sum "Si O2"
_cell_formula_units_Z 64
_cell_length_a 28.876840
_cell_length_b 9.286767
_cell_length_c 17.150260
_cell_angle_alpha 90.000000
_cell_angle_beta 138.274175
_cell_angle_gamma 90.000000
_cell_volume 3061.093448
_symmetry_space_group_name_H-M "C 2/M"
_symmetry_group_IT_number 12
_symmetry_cell_setting 'monoclinic'
loop_
_space_group_symop_operation_xyz
x,y,z
-x,y,-z
-x,-y,-z
x,-y,z
1/2+x,1/2+y,z
1/2-x,1/2+y,-z
1/2-x,1/2-y,-z
1/2+x,1/2-y,z
loop_
_atom_site_type_symbol
_atom_site_label
_atom_site_fract_x
_atom_site_fract_y
_atom_site_fract_z
Si Si1 0.790947 0.171585 0.276954
Si Si2 0.843462 0.843869 0.616834
Si Si3 0.169367 0.831299 0.044651
Si Si4 0.579503 0.168836 0.616841
Si Si5 0.038555 0.337627 0.267922
Si Si6 0.719946 0.843181 0.346386
Si Si7 0.099035 0.663193 0.819441
Si Si8 0.030214 0.835134 0.952999
O O1 0.740034 0.244600 0.149861
O O2 0.868310 0.238240 0.370767
O O3 0.760712 0.215344 0.322995
O O4 0.794367 0.000000 0.268643
O O5 0.893246 0.751932 0.622405
O O6 0.770725 0.862323 0.483322
O O7 0.837742 0.769226 0.695600
O O8 0.876977 0.000000 0.674962
O O9 0.113037 0.803708 0.043541
O O10 0.186661 0.000000 0.057528
O O11 0.141179 0.774485 0.925924
O O12 0.500000 0.217630 0.500000
O O13 0.604619 0.203612 0.736140
O O14 0.587465 0.000000 0.607517
O O15 0.061401 0.500000 0.280524
O O16 0.983034 0.326142 0.266732
O O17 0.010699 0.272151 0.153137
O O18 0.686470 0.000000 0.285463
O O19 0.125221 0.500000 0.869152
O O20 0.016185 0.000000 0.911346
O O21 0.000000 0.802250 0.000000
#
# Coordination Sequence:
#
# PCOD8096528 Si02
#       8
#     8   8   8   8   8   8   8   8
#     4  11  24  41  62  90 124 159 197 249 306 359
#     4  10  20  35  56  81 113 155 200 242 288 346
#     4  10  21  38  61  89 120 159 204 248 299 355
#     4  10  23  43  67  94 121 154 199 247 301 363
#     4  10  20  33  54  84 115 152 194 236 292 350
#     4   9  21  39  55  80 116 154 197 242 292 351
#     4   9  20  40  62  87 120 157 198 247 298 355
#     4   9  19  35  54  81 116 153 198 245 290 344
#
# _framework density 20.907563
#
# number of rings (size 3 to 8) (size 9 to 14) (size 15 to 20)
#    0.000    2.250    0.000    1.500    3.500    4.000 
#    0.000    0.000    0.000    0.000    0.000    0.000 
#    0.000    0.000    0.000    0.000    0.000    0.000 
#
# Total GULP energy -396664.793242 kJ/mol
# GULP energy per Si atom -12395.774789 kJ/mol
# Density = 2.085998 g / cm^3
# Si number density = 20.907563 Si / 1000 Ang^3
#
#
#
# Elastic Constant Matrix: (Units=GPa)
#
#
# Indices 1 2 3 4 5 6 
#
# 1 72.8933 36.3050 21.3547 0.0000 -3.1386 0.0000
# 2 36.3050 118.0748 25.6892 0.0000 6.4905 0.0000
# 3 21.3547 25.6892 52.1843 0.0000 9.6228 0.0000
# 4 0.0000 0.0000 0.0000 28.8179 0.0000 5.7679
# 5 -3.1386 6.4905 9.6228 0.0000 30.3668 0.0000
# 6 0.0000 0.0000 0.0000 5.7679 0.0000 30.7305
#
#
#
# Elastic Compliance Matrix: (Units=1/GPa)
#
#
# Indices 1 2 3 4 5 6 
#
# 1 0.017898 -0.004457 -0.005997 0.000000 0.004703 0.000000
# 2 -0.004457 0.010605 -0.003073 0.000000 -0.001753 0.000000
# 3 -0.005997 -0.003073 0.024558 0.000000 -0.007745 0.000000
# 4 0.000000 0.000000 0.000000 0.036055 0.000000 -0.006767
# 5 0.004703 -0.001753 -0.007745 0.000000 0.036246 0.000000
# 6 0.000000 0.000000 0.000000 -0.006767 0.000000 0.033811
#
#
# Mechanical properties :
#
#
# Convention : Reuss Voigt Hill
#
# Bulk Modulus (GPa) = 38.45305 45.53891 41.99598
# Shear Modulus (GPa) = 25.65467 28.63661 27.14564
#
# Velocity S-wave (km/s) = 3.50673 3.70493 3.60719
# Velocity P-wave (km/s) = 5.90153 6.33485 6.12203
#
# Compressibility (1/GPa) = 0.02600574
#
# Stress axis : x y z
#
# Youngs Moduli (GPa) = 55.87240 94.29867 40.71967
#
# Poissons Ratio (x) = 0.42028 0.24421
# Poissons Ratio (y) = 0.24902 0.12514
# Poissons Ratio (z) = 0.33509 0.28980
#
# Static dielectric constant tensor:
#      x y z
#    x 3.878780 0.000000 0.172500 
#    y 0.000000 4.068970 0.000000 
#    z 0.172500 0.000000 3.554440 
# 
# 
# High freq. dielectric constant tensor:
#      x y z
#    x 1.821640 0.000000 0.008080 
#    y 0.000000 1.824960 0.000000 
#    z 0.008080 0.000000 1.803020 
# 
# From -- ./inp_files/295757.got.cif
#   From: 2010.06.25/outbox.cif.g09.slc.cpg/sg12_148_cif.got.tgz:295757.got - 2010.06.28 00:19:55.
