data_PCOD8096274
_publ_section_title
;
Structure prediction by ZEFSAII (Michael W. Deem and Ramdas Pophale) SiO2 
 PCOD8096274
Probable space group: C 2/M
;
_chemical_formula_sum "Si O2"
_cell_formula_units_Z 64
_cell_length_a 22.450661
_cell_length_b 19.461596
_cell_length_c 8.948021
_cell_angle_alpha 90.000000
_cell_angle_beta 66.511579
_cell_angle_gamma 90.000000
_cell_volume 3585.671651
_symmetry_space_group_name_H-M "C 2/M"
_symmetry_group_IT_number 12
_symmetry_cell_setting 'monoclinic'
loop_
_space_group_symop_operation_xyz
x,y,z
-x,y,-z
-x,-y,-z
x,-y,z
1/2+x,1/2+y,z
1/2-x,1/2+y,-z
1/2-x,1/2-y,-z
1/2+x,1/2-y,z
loop_
_atom_site_type_symbol
_atom_site_label
_atom_site_fract_x
_atom_site_fract_y
_atom_site_fract_z
Si Si1 0.687858 0.283532 0.985293
Si Si2 0.573283 0.206682 0.598343
Si Si3 0.621468 0.077673 0.703847
Si Si4 0.312142 0.716468 0.361009
Si Si5 0.121468 0.422327 0.053217
Si Si6 0.745009 0.423871 0.584969
Si Si7 0.573283 0.793318 0.255091
Si Si8 0.754991 0.076129 0.074987
O O1 0.620897 0.257964 0.121921
O O2 0.690135 0.366189 0.006153
O O3 0.750000 0.250000 0.000000
O O4 0.688886 0.262934 0.811114
O O5 0.575403 0.129839 0.662346
O O6 0.620897 0.257964 0.636285
O O7 0.500000 0.234493 0.689304
O O8 0.594914 0.203920 0.405086
O O9 0.614126 0.091415 0.885874
O O10 0.695725 0.091758 0.584633
O O11 0.600889 0.000000 0.682503
O O12 0.250000 0.750000 0.500000
O O13 0.309865 0.633811 0.386423
O O14 0.100889 0.500000 0.115719
O O15 0.195725 0.408242 0.023917
O O16 0.075403 0.370161 0.186848
O O17 0.715728 0.500000 0.582424
O O18 0.771313 0.419304 0.728687
O O19 0.784272 0.000000 0.013880
#
# Coordination Sequence:
#
# PCOD8096274 Si02
#       8
#     8   8   8   8   8   8   8   8
#     4  11  21  34  57  84 110 141 179 225 272 323
#     4  11  24  39  54  75 107 148 189 227 271 323
#     4  10  20  33  52  79 109 142 180 222 269 322
#     4  11  21  34  57  84 110 141 179 225 272 323
#     4  10  20  33  52  79 109 142 180 222 269 322
#     4   9  18  33  54  80 109 140 175 217 267 323
#     4  11  24  39  54  75 107 148 189 227 271 323
#     4   9  18  33  54  80 109 140 175 217 267 323
#
# _framework density 17.848817
#
# number of rings (size 3 to 8) (size 9 to 14) (size 15 to 20)
#    0.000    1.750    2.500    2.250    0.000    5.000 
#    0.000    2.500    0.000    0.750    0.000    5.250 
#    0.000    0.000    0.000    0.000    0.000    0.000 
#
# Total GULP energy -396795.867780 kJ/mol
# GULP energy per Si atom -12399.870868 kJ/mol
# Density = 1.780819 g / cm^3
# Si number density = 17.848817 Si / 1000 Ang^3
#
#
#
# Elastic Constant Matrix: (Units=GPa)
#
#
# Indices 1 2 3 4 5 6 
#
# 1 95.6492 51.2204 47.6488 0.0000 6.0751 0.0000
# 2 51.2204 105.3686 47.2598 0.0000 -2.8903 0.0000
# 3 47.6488 47.2598 108.3599 0.0000 3.2007 0.0000
# 4 0.0000 0.0000 0.0000 26.9159 0.0000 0.9238
# 5 6.0751 -2.8903 3.2007 0.0000 26.0649 0.0000
# 6 0.0000 0.0000 0.0000 0.9238 0.0000 25.6500
#
#
#
# Elastic Compliance Matrix: (Units=1/GPa)
#
#
# Indices 1 2 3 4 5 6 
#
# 1 0.016059 -0.005963 -0.004347 0.000000 -0.003871 0.000000
# 2 -0.005963 0.014112 -0.003633 0.000000 0.003401 0.000000
# 3 -0.004347 -0.003633 0.012753 0.000000 -0.000956 0.000000
# 4 0.000000 0.000000 0.000000 0.037199 0.000000 -0.001340
# 5 -0.003871 0.003401 -0.000956 0.000000 0.039762 0.000000
# 6 0.000000 0.000000 0.000000 -0.001340 0.000000 0.039035
#
#
# Mechanical properties :
#
#
# Convention : Reuss Voigt Hill
#
# Bulk Modulus (GPa) = 66.49735 66.84841 66.67288
# Shear Modulus (GPa) = 26.06634 26.60939 26.33786
#
# Velocity S-wave (km/s) = 3.82566 3.86530 3.84553
# Velocity P-wave (km/s) = 7.53996 7.57988 7.55995
#
# Compressibility (1/GPa) = 0.01503819
#
# Stress axis : x y z
#
# Youngs Moduli (GPa) = 62.26913 70.86161 78.41539
#
# Poissons Ratio (x) = 0.42256 0.34084
# Poissons Ratio (y) = 0.37132 0.28489
# Poissons Ratio (z) = 0.27066 0.25745
#
# Static dielectric constant tensor:
#      x y z
#    x 3.097410 0.000000 0.200040 
#    y 0.000000 3.651120 0.000000 
#    z 0.200040 0.000000 3.371530 
# 
# 
# High freq. dielectric constant tensor:
#      x y z
#    x 1.667060 0.000000 0.020960 
#    y 0.000000 1.698460 0.000000 
#    z 0.020960 0.000000 1.695780 
# 
# From -- ./inp_files/89568.got.cif
#   From: 2010.06.25/outbox.cif.g09.slc.cpg/sg12_45_cif.got.tgz:89568.got - 2010.06.28 00:19:55.
