data_PCOD8096571
_publ_section_title
;
Structure prediction by ZEFSAII (Michael W. Deem and Ramdas Pophale) SiO2 
 PCOD8096571
Probable space group: C 2/M
;
_chemical_formula_sum "Si O2"
_cell_formula_units_Z 64
_cell_length_a 29.047476
_cell_length_b 9.282056
_cell_length_c 12.901581
_cell_angle_alpha 90.000000
_cell_angle_beta 79.049384
_cell_angle_gamma 90.000000
_cell_volume 3415.188579
_symmetry_space_group_name_H-M "C 2/M"
_symmetry_group_IT_number 12
_symmetry_cell_setting 'monoclinic'
loop_
_space_group_symop_operation_xyz
x,y,z
-x,y,-z
-x,-y,-z
x,-y,z
1/2+x,1/2+y,z
1/2-x,1/2+y,-z
1/2-x,1/2-y,-z
1/2+x,1/2-y,z
loop_
_atom_site_type_symbol
_atom_site_label
_atom_site_fract_x
_atom_site_fract_y
_atom_site_fract_z
Si Si1 0.710801 0.165742 0.956041
Si Si2 0.202693 0.832030 0.542447
Si Si3 0.922602 0.161567 0.104089
Si Si4 0.893860 0.828997 0.506253
Si Si5 0.569134 0.670121 0.287771
Si Si6 0.537732 0.330009 0.700447
Si Si7 0.683846 0.659176 0.783121
Si Si8 0.894357 0.667685 0.924874
O O1 0.711826 0.225165 0.838799
O O2 0.724851 0.000000 0.947009
O O3 0.750000 0.250000 0.000000
O O4 0.660351 0.191709 0.028905
O O5 0.250000 0.750000 0.500000
O O6 0.160118 0.780163 0.486514
O O7 0.186924 0.792252 0.664111
O O8 0.212293 0.000000 0.523318
O O9 0.952318 0.229058 0.187245
O O10 0.869820 0.155267 0.163940
O O11 0.940082 0.000000 0.067108
O O12 0.926840 0.262073 0.000852
O O13 0.910695 0.774787 0.611195
O O14 0.927073 0.763741 0.401065
O O15 0.898038 0.000000 0.498784
O O16 0.576957 0.500000 0.268136
O O17 0.514581 0.711270 0.309703
O O18 0.596266 0.755052 0.187362
O O19 0.545770 0.500000 0.701866
O O20 0.705984 0.500000 0.790374
O O21 0.907229 0.500000 0.912469
#
# Coordination Sequence:
#
# PCOD8096571 Si02
#       8
#     8   8   8   8   8   8   8   8
#     4  10  21  36  56  79 102 136 180 224 270 323
#     4  10  20  34  53  79 109 141 178 220 273 324
#     4   9  16  31  57  80 101 135 180 226 266 310
#     4   9  17  33  55  80 110 141 177 225 274 316
#     4  10  20  33  55  84 111 142 181 222 266 322
#     4   9  16  30  56  86 108 134 179 230 273 313
#     4   9  17  32  53  75 103 139 176 219 268 317
#     4  10  22  38  52  73 111 147 176 217 272 325
#
# _framework density 18.739813000000002
#
# number of rings (size 3 to 8) (size 9 to 14) (size 15 to 20)
#    0.000    2.500    1.250    1.125    0.000    5.000 
#    0.000    6.250    0.000    3.000    0.000    0.000 
#    0.000    0.000    0.000    0.000    0.000    0.000 
#
# Total GULP energy -396740.629513 kJ/mol
# GULP energy per Si atom -12398.144672 kJ/mol
# Density = 1.869716 g / cm^3
# Si number density = 18.739813 Si / 1000 Ang^3
#
#
#
# Elastic Constant Matrix: (Units=GPa)
#
#
# Indices 1 2 3 4 5 6 
#
# 1 91.6932 44.5098 61.0181 0.0000 31.2098 0.0000
# 2 44.5098 72.7279 56.9388 0.0000 10.8650 0.0000
# 3 61.0181 56.9388 136.4950 0.0000 26.6295 0.0000
# 4 0.0000 0.0000 0.0000 19.6527 0.0000 -2.9912
# 5 31.2098 10.8650 26.6295 0.0000 33.1600 0.0000
# 6 0.0000 0.0000 0.0000 -2.9912 0.0000 20.7845
#
#
#
# Elastic Compliance Matrix: (Units=1/GPa)
#
#
# Indices 1 2 3 4 5 6 
#
# 1 0.022966 -0.009015 -0.003398 0.000000 -0.015933 0.000000
# 2 -0.009015 0.023958 -0.007219 0.000000 0.006432 0.000000
# 3 -0.003398 -0.007219 0.012772 0.000000 -0.004694 0.000000
# 4 0.000000 0.000000 0.000000 0.052023 0.000000 0.007487
# 5 -0.015933 0.006432 -0.004694 0.000000 0.046815 0.000000
# 6 0.000000 0.000000 0.000000 0.007487 0.000000 0.049190
#
#
# Mechanical properties :
#
#
# Convention : Reuss Voigt Hill
#
# Bulk Modulus (GPa) = 48.93991 69.53884 59.23937
# Shear Modulus (GPa) = 19.70064 23.94939 21.82501
#
# Velocity S-wave (km/s) = 3.24585 3.57878 3.41637
# Velocity P-wave (km/s) = 6.34189 7.36648 6.87330
#
# Compressibility (1/GPa) = 0.02043322
#
# Stress axis : x y z
#
# Youngs Moduli (GPa) = 43.54210 41.73984 78.29521
#
# Poissons Ratio (x) = 0.37629 0.26601
# Poissons Ratio (y) = 0.39254 0.56520
# Poissons Ratio (z) = 0.14794 0.30131
#
# Static dielectric constant tensor:
#      x y z
#    x 3.384330 0.000000 0.355330 
#    y 0.000000 3.265700 0.000000 
#    z 0.355330 0.000000 3.538080 
# 
# 
# High freq. dielectric constant tensor:
#      x y z
#    x 1.727850 0.000000 0.009480 
#    y 0.000000 1.692810 0.000000 
#    z 0.009480 0.000000 1.739130 
# 
# From -- ./inp_files/187583.got.cif
#   From: 2010.06.25/outbox.cif.g09.slc.cpg/sg12_94_cif.got.tgz:187583.got - 2010.06.28 00:19:55.
