data_PCOD8096549
_publ_section_title
;
Structure prediction by ZEFSAII (Michael W. Deem and Ramdas Pophale) SiO2 
 PCOD8096549
Probable space group: C 2/M
;
_chemical_formula_sum "Si O2"
_cell_formula_units_Z 56
_cell_length_a 11.814030
_cell_length_b 29.957489
_cell_length_c 8.383150
_cell_angle_alpha 90.000000
_cell_angle_beta 104.867394
_cell_angle_gamma 90.000000
_cell_volume 2867.626416
_symmetry_space_group_name_H-M "C 2/M"
_symmetry_group_IT_number 12
_symmetry_cell_setting 'monoclinic'
loop_
_space_group_symop_operation_xyz
x,y,z
-x,y,-z
-x,-y,-z
x,-y,z
1/2+x,1/2+y,z
1/2-x,1/2+y,-z
1/2-x,1/2-y,-z
1/2+x,1/2-y,z
loop_
_atom_site_type_symbol
_atom_site_label
_atom_site_fract_x
_atom_site_fract_y
_atom_site_fract_z
Si Si1 0.093702 0.617767 0.401275
Si Si2 0.708543 0.749474 0.803054
Si Si3 0.770446 0.158195 0.695511
Si Si4 0.024607 0.818145 0.826367
Si Si5 0.231490 0.121272 0.969105
Si Si6 0.598865 0.186509 0.149045
Si Si7 0.621851 0.051948 0.133676
O O1 0.214559 0.634463 0.523048
O O2 0.043389 0.657954 0.273539
O O3 0.118801 0.573793 0.307616
O O4 0.000000 0.605038 0.500000
O O5 0.695612 0.798191 0.721929
O O6 0.585421 0.722913 0.752648
O O7 0.813701 0.723878 0.747538
O O8 0.750000 0.750000 0.000000
O O9 0.902753 0.171345 0.694545
O O10 0.772479 0.122893 0.841002
O O11 0.106933 0.862258 0.853326
O O12 0.000000 0.803539 0.000000
O O13 0.331482 0.153477 0.940688
O O14 0.267735 0.071579 0.926660
O O15 0.500000 0.208664 0.000000
O O16 0.645049 0.000000 0.163983
O O17 0.500000 0.061829 0.000000
#
# Coordination Sequence:
#
# PCOD8096549 Si02
#       7
#     8   8   8   8   8   8   8
#     4  11  23  37  54  86 119 147 179 234 298 349
#     4  11  20  32  55  81 107 153 206 243 265 313
#     4  11  21  34  55  82 119 154 192 238 291 326
#     4   9  18  32  53  83 111 154 199 236 277 320
#     4   9  17  34  55  82 108 144 194 228 271 345
#     4  10  20  33  55  73 107 152 196 234 271 327
#     4  10  21  40  66  88 108 140 184 232 289 363
#
# _framework density 19.528345999999999
#
# number of rings (size 3 to 8) (size 9 to 14) (size 15 to 20)
#    0.000    1.857    4.286    3.429    2.000    0.857 
#    0.000    7.143    0.000    5.571    0.000    0.000 
#    0.000    0.000    0.000    0.000    0.000    0.000 
#
# Total GULP energy -347137.381066 kJ/mol
# GULP energy per Si atom -12397.763610 kJ/mol
# Density = 1.948390 g / cm^3
# Si number density = 19.528346 Si / 1000 Ang^3
#
#
#
# Elastic Constant Matrix: (Units=GPa)
#
#
# Indices 1 2 3 4 5 6 
#
# 1 119.9209 57.9008 42.2322 0.0000 10.5678 0.0000
# 2 57.9008 126.5863 50.4143 0.0000 0.3191 0.0000
# 3 42.2322 50.4143 86.3605 0.0000 11.2243 0.0000
# 4 0.0000 0.0000 0.0000 23.4245 0.0000 -2.9764
# 5 10.5678 0.3191 11.2243 0.0000 31.2670 0.0000
# 6 0.0000 0.0000 0.0000 -2.9764 0.0000 24.3133
#
#
#
# Elastic Compliance Matrix: (Units=1/GPa)
#
#
# Indices 1 2 3 4 5 6 
#
# 1 0.011611 -0.004156 -0.002882 0.000000 -0.002848 0.000000
# 2 -0.004156 0.011920 -0.005342 0.000000 0.003201 0.000000
# 3 -0.002882 -0.005342 0.016755 0.000000 -0.004986 0.000000
# 4 0.000000 0.000000 0.000000 0.043365 0.000000 0.005309
# 5 -0.002848 0.003201 -0.004986 0.000000 0.034702 0.000000
# 6 0.000000 0.000000 0.000000 0.005309 0.000000 0.041780
#
#
# Mechanical properties :
#
#
# Convention : Reuss Voigt Hill
#
# Bulk Modulus (GPa) = 64.40613 70.44026 67.42319
# Shear Modulus (GPa) = 26.30611 27.95566 27.13089
#
# Velocity S-wave (km/s) = 3.67423 3.78768 3.73139
# Velocity P-wave (km/s) = 7.14510 7.43490 7.29144
#
# Compressibility (1/GPa) = 0.01552647
#
# Stress axis : x y z
#
# Youngs Moduli (GPa) = 86.12250 83.89055 59.68233
#
# Poissons Ratio (x) = 0.34866 0.17200
# Poissons Ratio (y) = 0.35794 0.31884
# Poissons Ratio (z) = 0.24820 0.44816
#
# Static dielectric constant tensor:
#      x y z
#    x 3.998830 0.000000 -0.080670 
#    y 0.000000 3.728860 0.000000 
#    z -0.080670 0.000000 3.443370 
# 
# 
# High freq. dielectric constant tensor:
#      x y z
#    x 1.770090 0.000000 -0.002030 
#    y 0.000000 1.729640 0.000000 
#    z -0.002030 0.000000 1.741340 
# 
# From -- ./inp_files/54342.got.cif
#   From: 2010.06.25/outbox.cif.g09.slc.cpg/sg12_28_cif.got.tgz:54342.got - 2010.06.28 00:19:55.
