data_PCOD8096369
_publ_section_title
;
Structure prediction by ZEFSAII (Michael W. Deem and Ramdas Pophale) SiO2 
 PCOD8096369
Probable space group: C 2/M
;
_chemical_formula_sum "Si O2"
_cell_formula_units_Z 56
_cell_length_a 12.995345
_cell_length_b 13.343148
_cell_length_c 18.117077
_cell_angle_alpha 90.000000
_cell_angle_beta 122.119287
_cell_angle_gamma 90.000000
_cell_volume 2660.654154
_symmetry_space_group_name_H-M "C 2/M"
_symmetry_group_IT_number 12
_symmetry_cell_setting 'monoclinic'
loop_
_space_group_symop_operation_xyz
x,y,z
-x,y,-z
-x,-y,-z
x,-y,z
1/2+x,1/2+y,z
1/2-x,1/2+y,-z
1/2-x,1/2-y,-z
1/2+x,1/2-y,z
loop_
_atom_site_type_symbol
_atom_site_label
_atom_site_fract_x
_atom_site_fract_y
_atom_site_fract_z
Si Si1 0.802354 0.111419 0.192802
Si Si2 0.267289 0.113576 0.513315
Si Si3 0.094978 0.201339 0.909354
Si Si4 0.193142 0.255260 0.600188
Si Si5 0.685228 0.297567 0.204470
Si Si6 0.265926 0.117170 0.088434
Si Si7 0.016686 0.112023 0.612134
O O1 0.827542 0.134993 0.117782
O O2 0.697402 0.181790 0.185411
O O3 0.927561 0.127887 0.285402
O O4 0.751075 0.000000 0.181075
O O5 0.286947 0.176422 0.596399
O O6 0.344527 0.161173 0.475221
O O7 0.126663 0.125355 0.436218
O O8 0.309329 0.000000 0.542073
O O9 0.121378 0.319360 0.903215
O O10 0.955097 0.173827 0.847783
O O11 0.141903 0.164694 0.007200
O O12 0.257029 0.311842 0.692609
O O13 0.074362 0.192595 0.578364
O O14 0.757285 0.367782 0.173709
O O15 0.283336 0.000000 0.076896
O O16 0.049015 0.000000 0.594966
#
# Coordination Sequence:
#
# PCOD8096369 Si02
#       7
#     8   8   8   8   8   8   8
#     4   9  18  32  52  80 109 138 177 218 254 301
#     4  10  20  34  54  78 103 138 181 219 260 308
#     4  10  20  36  56  78 107 140 173 211 257 310
#     4  10  20  33  53  78 108 137 173 222 263 304
#     4  10  21  35  53  79 108 139 174 213 262 313
#     4  10  22  38  56  80 107 136 173 214 257 310
#     4   9  17  32  55  79 104 139 180 218 257 302
#
# _framework density 21.047456
#
# number of rings (size 3 to 8) (size 9 to 14) (size 15 to 20)
#    0.000    2.286    0.000    2.571    0.000    4.571 
#    0.000    0.000    0.000   12.857    0.000    0.000 
#    0.000    0.000    0.000    0.000    0.000    0.000 
#
# Total GULP energy -347119.901472 kJ/mol
# GULP energy per Si atom -12397.139338 kJ/mol
# Density = 2.099955 g / cm^3
# Si number density = 21.047456 Si / 1000 Ang^3
#
#
#
# Elastic Constant Matrix: (Units=GPa)
#
#
# Indices 1 2 3 4 5 6 
#
# 1 35.5192 4.7049 5.0126 0.0000 -7.7011 0.0000
# 2 4.7049 113.1562 10.8595 0.0000 -19.5829 0.0000
# 3 5.0126 10.8595 89.1864 0.0000 -21.5742 0.0000
# 4 0.0000 0.0000 0.0000 20.5809 0.0000 -3.4751
# 5 -7.7011 -19.5829 -21.5742 0.0000 30.4063 0.0000
# 6 0.0000 0.0000 0.0000 -3.4751 0.0000 21.5825
#
#
#
# Elastic Compliance Matrix: (Units=1/GPa)
#
#
# Indices 1 2 3 4 5 6 
#
# 1 0.029793 0.000081 0.000185 0.000000 0.007730 0.000000
# 2 0.000081 0.009958 0.000410 0.000000 0.006725 0.000000
# 3 0.000185 0.000410 0.013554 0.000000 0.009927 0.000000
# 4 0.000000 0.000000 0.000000 0.049947 0.000000 0.008042
# 5 0.007730 0.006725 0.009927 0.000000 0.046220 0.000000
# 6 0.000000 0.000000 0.000000 0.008042 0.000000 0.047629
#
#
# Mechanical properties :
#
#
# Convention : Reuss Voigt Hill
#
# Bulk Modulus (GPa) = 18.29583 31.00174 24.64878
# Shear Modulus (GPa) = 23.36804 28.99960 26.18382
#
# Velocity S-wave (km/s) = 3.33566 3.71593 3.53092
# Velocity P-wave (km/s) = 4.85253 5.75953 5.32538
#
# Compressibility (1/GPa) = 0.05465727
#
# Stress axis : x y z
#
# Youngs Moduli (GPa) = 33.56522 100.41706 73.78095
#
# Poissons Ratio (x) = -0.00815 -0.01368
# Poissons Ratio (y) = -0.00272 -0.03022
# Poissons Ratio (z) = -0.00622 -0.04113
#
# Static dielectric constant tensor:
#      x y z
#    x 3.434470 0.000000 -0.207400 
#    y 0.000000 3.863490 0.000000 
#    z -0.207400 0.000000 3.939490 
# 
# 
# High freq. dielectric constant tensor:
#      x y z
#    x 1.795860 0.000000 -0.021830 
#    y 0.000000 1.822480 0.000000 
#    z -0.021830 0.000000 1.832060 
# 
# From -- ./inp_files/262992.got.cif
#   From: 2010.06.25/outbox.cif.g09.slc.cpg/sg12_132_cif.got.tgz:262992.got - 2010.06.28 00:19:55.
