data_PCOD8096433
_publ_section_title
;
Structure prediction by ZEFSAII (Michael W. Deem and Ramdas Pophale) SiO2 
 PCOD8096433
Probable space group: C 2/M
;
_chemical_formula_sum "Si O2"
_cell_formula_units_Z 64
_cell_length_a 22.353142
_cell_length_b 9.518141
_cell_length_c 16.257755
_cell_angle_alpha 90.000000
_cell_angle_beta 94.129623
_cell_angle_gamma 90.000000
_cell_volume 3450.025092
_symmetry_space_group_name_H-M "C 2/M"
_symmetry_group_IT_number 12
_symmetry_cell_setting 'monoclinic'
loop_
_space_group_symop_operation_xyz
x,y,z
-x,y,-z
-x,-y,-z
x,-y,z
1/2+x,1/2+y,z
1/2-x,1/2+y,-z
1/2-x,1/2-y,-z
1/2+x,1/2-y,z
loop_
_atom_site_type_symbol
_atom_site_label
_atom_site_fract_x
_atom_site_fract_y
_atom_site_fract_z
Si Si1 0.363805 0.339693 0.319733
Si Si2 0.673361 0.161655 0.257598
Si Si3 0.084966 0.338015 0.815987
Si Si4 0.786226 0.837659 0.886266
Si Si5 0.961166 0.662156 0.728960
Si Si6 0.508603 0.339511 0.591677
Si Si7 0.748037 0.663163 0.583577
Si Si8 0.835760 0.340696 0.030003
O O1 0.353268 0.500000 0.291059
O O2 0.371125 0.249523 0.238247
O O3 0.421994 0.322392 0.381273
O O4 0.308322 0.284948 0.367950
O O5 0.711033 0.261671 0.201360
O O6 0.603094 0.196108 0.237633
O O7 0.692983 0.189643 0.354250
O O8 0.687555 0.000000 0.236147
O O9 0.095826 0.500000 0.794404
O O10 0.103666 0.309149 0.912323
O O11 0.014834 0.296844 0.797500
O O12 0.719613 0.818150 0.913813
O O13 0.804121 0.000000 0.878221
O O14 0.833372 0.765015 0.953321
O O15 0.965300 0.500000 0.704287
O O16 0.966578 0.750743 0.646928
O O17 0.500000 0.279116 0.500000
O O18 0.486979 0.500000 0.595931
O O19 0.741408 0.500000 0.558975
O O20 0.750000 0.750000 0.500000
O O21 0.835793 0.500000 0.995663
#
# Coordination Sequence:
#
# PCOD8096433 Si02
#       8
#     8   8   8   8   8   8   8   8
#     4   9  18  32  48  70  99 128 163 206 254 301
#     4  10  21  37  53  72 105 140 169 206 255 305
#     4   9  17  32  54  77  99 129 169 210 250 295
#     4  10  20  33  53  82 106 133 170 205 250 304
#     4   9  19  34  51  73  99 132 172 209 249 300
#     4   9  18  31  49  71  95 126 165 210 257 300
#     4  10  22  36  51  73 100 133 170 208 252 302
#     4   9  18  33  54  79 107 132 164 210 255 299
#
# _framework density 18.550588999999999
#
# number of rings (size 3 to 8) (size 9 to 14) (size 15 to 20)
#    0.000    2.625    0.000    1.125    1.750    2.750 
#    0.000    0.625    0.000    3.750    0.000    0.000 
#    0.000    0.000    0.000    0.000    0.000    0.000 
#
# Total GULP energy -396804.823913 kJ/mol
# GULP energy per Si atom -12400.150747 kJ/mol
# Density = 1.850837 g / cm^3
# Si number density = 18.550589 Si / 1000 Ang^3
#
#
#
# Elastic Constant Matrix: (Units=GPa)
#
#
# Indices 1 2 3 4 5 6 
#
# 1 63.5049 27.8668 23.2023 0.0000 2.1568 0.0000
# 2 27.8668 74.6538 47.5808 0.0000 1.7813 0.0000
# 3 23.2023 47.5808 89.8449 0.0000 13.7072 0.0000
# 4 0.0000 0.0000 0.0000 38.9130 0.0000 -2.6849
# 5 2.1568 1.7813 13.7072 0.0000 21.6719 0.0000
# 6 0.0000 0.0000 0.0000 -2.6849 0.0000 21.6755
#
#
#
# Elastic Compliance Matrix: (Units=1/GPa)
#
#
# Indices 1 2 3 4 5 6 
#
# 1 0.019012 -0.006027 -0.001666 0.000000 -0.000343 0.000000
# 2 -0.006027 0.022777 -0.011413 0.000000 0.005947 0.000000
# 3 -0.001666 -0.011413 0.019299 0.000000 -0.011102 0.000000
# 4 0.000000 0.000000 0.000000 0.025920 0.000000 0.003211
# 5 -0.000343 0.005947 -0.011102 0.000000 0.052710 0.000000
# 6 0.000000 0.000000 0.000000 0.003211 0.000000 0.046533
#
#
# Mechanical properties :
#
#
# Convention : Reuss Voigt Hill
#
# Bulk Modulus (GPa) = 43.71420 47.25595 45.48507
# Shear Modulus (GPa) = 21.54354 25.07564 23.30959
#
# Velocity S-wave (km/s) = 3.41154 3.68059 3.54862
# Velocity P-wave (km/s) = 6.25573 6.60241 6.43140
#
# Compressibility (1/GPa) = 0.02287586
#
# Stress axis : x y z
#
# Youngs Moduli (GPa) = 52.59909 43.90307 51.81694
#
# Poissons Ratio (x) = 0.26460 0.08631
# Poissons Ratio (y) = 0.31701 0.59141
# Poissons Ratio (z) = 0.08761 0.50109
#
# Static dielectric constant tensor:
#      x y z
#    x 3.473570 0.000000 0.207250 
#    y 0.000000 3.445470 0.000000 
#    z 0.207250 0.000000 3.322200 
# 
# 
# High freq. dielectric constant tensor:
#      x y z
#    x 1.716760 0.000000 0.017530 
#    y 0.000000 1.716340 0.000000 
#    z 0.017530 0.000000 1.712060 
# 
# From -- ./inp_files/281277.got.cif
#   From: 2010.06.25/outbox.cif.g09.slc.cpg/sg12_141_cif.got.tgz:281277.got - 2010.06.28 00:19:55.
