data_PCOD8096356
_publ_section_title
;
Structure prediction by ZEFSAII (Michael W. Deem and Ramdas Pophale) SiO2 
 PCOD8096356
Probable space group: C 2/M
;
_chemical_formula_sum "Si O2"
_cell_formula_units_Z 56
_cell_length_a 19.164369
_cell_length_b 9.052909
_cell_length_c 28.428051
_cell_angle_alpha 90.000000
_cell_angle_beta 39.475083
_cell_angle_gamma 90.000000
_cell_volume 3135.530822
_symmetry_space_group_name_H-M "C 2/M"
_symmetry_group_IT_number 12
_symmetry_cell_setting 'monoclinic'
loop_
_space_group_symop_operation_xyz
x,y,z
-x,y,-z
-x,-y,-z
x,-y,z
1/2+x,1/2+y,z
1/2-x,1/2+y,-z
1/2-x,1/2-y,-z
1/2+x,1/2-y,z
loop_
_atom_site_type_symbol
_atom_site_label
_atom_site_fract_x
_atom_site_fract_y
_atom_site_fract_z
Si Si1 0.907565 0.328627 0.436353
Si Si2 0.939132 0.326169 0.984426
Si Si3 0.183308 0.172204 0.603307
Si Si4 0.011528 0.173991 0.850454
Si Si5 0.284278 0.669251 0.936077
Si Si6 0.816981 0.328982 0.300427
Si Si7 0.438818 0.669203 0.579104
O O1 0.911770 0.500000 0.420717
O O2 0.895954 0.233689 0.395508
O O3 0.808873 0.294256 0.523909
O O4 0.020316 0.276879 0.401124
O O5 0.961905 0.500000 0.965552
O O6 0.986036 0.239806 0.915112
O O7 0.805807 0.293845 0.058048
O O8 0.000000 0.269399 0.000000
O O9 0.150071 0.254491 0.667921
O O10 0.161277 0.000000 0.621612
O O11 0.120399 0.251471 0.774890
O O12 0.913981 0.206532 0.862160
O O13 0.032074 0.000000 0.845319
O O14 0.273432 0.500000 0.954478
O O15 0.250000 0.750000 0.000000
O O16 0.849196 0.500000 0.285657
O O17 0.689267 0.304989 0.358466
O O18 0.500000 0.717662 0.500000
O O19 0.467996 0.500000 0.576324
#
# Coordination Sequence:
#
# PCOD8096356 Si02
#       7
#     8   8   8   8   8   8   8
#     4  10  20  33  53  78 103 131 171 221 270 322
#     4   9  17  32  56  83 108 136 173 214 257 311
#     4  10  20  34  53  76 103 135 172 217 268 320
#     4  10  20  34  52  76 108 142 176 216 263 316
#     4   8  15  29  50  75 101 132 169 207 248 298
#     4  11  22  36  55  77 105 141 182 227 276 327
#     4  10  20  35  54  76 103 138 181 229 279 329
#
# _framework density 17.859815000000001
#
# number of rings (size 3 to 8) (size 9 to 14) (size 15 to 20)
#    0.000    2.286    1.429    1.714    0.000    3.429 
#    0.000    1.429    0.000    6.857    0.000    0.000 
#    0.000    0.000    0.000    0.000    0.000    0.000 
#
# Total GULP energy -347013.713848 kJ/mol
# GULP energy per Si atom -12393.346923 kJ/mol
# Density = 1.781916 g / cm^3
# Si number density = 17.859815 Si / 1000 Ang^3
#
#
#
# Elastic Constant Matrix: (Units=GPa)
#
#
# Indices 1 2 3 4 5 6 
#
# 1 123.3140 52.2956 47.1115 -0.0001 -1.6716 -0.0001
# 2 52.2956 80.2337 47.9431 -0.0004 1.2478 -0.0010
# 3 47.1115 47.9431 86.0061 0.0000 1.6260 -0.0001
# 4 -0.0001 -0.0004 0.0000 26.7791 0.0000 2.8476
# 5 -1.6716 1.2478 1.6260 0.0000 19.4467 0.0000
# 6 -0.0001 -0.0010 -0.0001 2.8476 0.0000 30.9963
#
#
#
# Elastic Compliance Matrix: (Units=1/GPa)
#
#
# Indices 1 2 3 4 5 6 
#
# 1 0.011840 -0.005771 -0.003300 0.000000 0.001664 0.000000
# 2 -0.005771 0.021504 -0.008804 0.000000 -0.001140 0.000001
# 3 -0.003300 -0.008804 0.018366 0.000000 -0.001254 0.000000
# 4 0.000000 0.000000 0.000000 0.037711 0.000000 -0.003464
# 5 0.001664 -0.001140 -0.001254 0.000000 0.051744 0.000000
# 6 0.000000 0.000001 0.000000 -0.003464 0.000000 0.032580
#
#
# Mechanical properties :
#
#
# Convention : Reuss Voigt Hill
#
# Bulk Modulus (GPa) = 62.65942 64.91714 63.78828
# Shear Modulus (GPa) = 23.27574 24.92467 24.10020
#
# Velocity S-wave (km/s) = 3.61397 3.73979 3.67742
# Velocity P-wave (km/s) = 7.25083 7.42126 7.33654
#
# Compressibility (1/GPa) = 0.01595929
#
# Stress axis : x y z
#
# Youngs Moduli (GPa) = 84.45793 46.50314 54.44768
#
# Poissons Ratio (x) = 0.26838 0.17968
# Poissons Ratio (y) = 0.48743 0.47937
# Poissons Ratio (z) = 0.27871 0.40942
#
# Static dielectric constant tensor:
#      x y z
#    x 3.584410 0.000000 -0.262670 
#    y 0.000000 3.505700 0.000010 
#    z -0.262670 0.000010 3.275810 
# 
# 
# High freq. dielectric constant tensor:
#      x y z
#    x 1.695430 0.000000 -0.012960 
#    y 0.000000 1.701430 0.000000 
#    z -0.012960 0.000000 1.664020 
# 
# From -- ./inp_files/313278.got.cif
#   From: 2010.06.25/outbox.cif.g09.slc.cpg/sg12_157_cif.got.tgz:313278.got - 2010.06.28 00:19:55.
