data_PCOD8096575
_publ_section_title
;
Structure prediction by ZEFSAII (Michael W. Deem and Ramdas Pophale) SiO2 
 PCOD8096575
Probable space group: C 2/M
;
_chemical_formula_sum "Si O2"
_cell_formula_units_Z 48
_cell_length_a 10.518264
_cell_length_b 13.835818
_cell_length_c 22.280771
_cell_angle_alpha 90.000000
_cell_angle_beta 43.086626
_cell_angle_gamma 90.000000
_cell_volume 2214.958119
_symmetry_space_group_name_H-M "C 2/M"
_symmetry_group_IT_number 12
_symmetry_cell_setting 'monoclinic'
loop_
_space_group_symop_operation_xyz
x,y,z
-x,y,-z
-x,-y,-z
x,-y,z
1/2+x,1/2+y,z
1/2-x,1/2+y,-z
1/2-x,1/2-y,-z
1/2+x,1/2-y,z
loop_
_atom_site_type_symbol
_atom_site_label
_atom_site_fract_x
_atom_site_fract_y
_atom_site_fract_z
Si Si1 0.782891 0.111666 0.572207
Si Si2 0.993784 0.388100 0.571594
Si Si3 0.763856 0.106029 0.028222
Si Si4 0.210235 0.206872 0.105578
Si Si5 0.333203 0.895016 0.175486
Si Si6 0.807633 0.260652 0.287971
O O1 0.691685 0.130224 0.537599
O O2 0.675948 0.176971 0.657121
O O3 0.000000 0.141185 0.500000
O O4 0.758336 0.000000 0.599104
O O5 0.937476 0.500000 0.595277
O O6 0.833450 0.328177 0.659272
O O7 0.000000 0.354922 0.500000
O O8 0.819411 0.191808 0.055080
O O9 0.547608 0.093454 0.116388
O O10 0.858398 0.000000 0.007331
O O11 0.813831 0.140857 0.944571
O O12 0.336569 0.151058 0.108757
O O13 0.008731 0.218870 0.204266
O O14 0.233045 0.828633 0.259646
O O15 0.233788 0.000000 0.209867
#
# Coordination Sequence:
#
# PCOD8096575 Si02
#       6
#     8   8   8   8   8   8
#     4  10  22  41  64  87 114 153 199 243 291 354
#     4  10  23  42  61  85 120 158 194 239 298 355
#     4   9  19  36  56  78 109 151 196 240 286 338
#     4  10  20  33  55  84 113 146 192 240 290 346
#     4  10  20  35  57  83 112 149 192 240 287 336
#     4  11  22  36  57  86 118 149 188 239 294 350
#
# _framework density 21.670839999999998
#
# number of rings (size 3 to 8) (size 9 to 14) (size 15 to 20)
#    0.000    2.000    0.000    3.000    0.000    7.333 
#    0.000    2.500    0.000   14.000    0.000    0.000 
#    0.000    0.000    0.000    0.000    0.000    0.000 
#
# Total GULP energy -297498.003220 kJ/mol
# GULP energy per Si atom -12395.750134 kJ/mol
# Density = 2.162152 g / cm^3
# Si number density = 21.670840 Si / 1000 Ang^3
#
#
#
# Elastic Constant Matrix: (Units=GPa)
#
#
# Indices 1 2 3 4 5 6 
#
# 1 93.4520 26.2423 31.7073 0.0000 18.2236 0.0000
# 2 26.2423 130.4832 46.8934 0.0001 10.2676 -0.0001
# 3 31.7073 46.8934 106.3208 -0.0005 14.1288 0.0003
# 4 0.0000 0.0001 -0.0005 34.6747 0.0002 5.4282
# 5 18.2236 10.2676 14.1288 0.0002 29.5123 0.0000
# 6 0.0000 -0.0001 0.0003 5.4282 0.0000 17.7071
#
#
#
# Elastic Compliance Matrix: (Units=1/GPa)
#
#
# Indices 1 2 3 4 5 6 
#
# 1 0.013169 -0.001231 -0.002521 0.000000 -0.006496 0.000000
# 2 -0.001231 0.009272 -0.003625 0.000000 -0.000730 0.000000
# 3 -0.002521 -0.003625 0.012155 0.000000 -0.003001 0.000000
# 4 0.000000 0.000000 0.000000 0.030293 0.000000 -0.009286
# 5 -0.006496 -0.000730 -0.003001 0.000000 0.039586 0.000000
# 6 0.000000 0.000000 0.000000 -0.009286 0.000000 0.059321
#
#
# Mechanical properties :
#
#
# Convention : Reuss Voigt Hill
#
# Bulk Modulus (GPa) = 50.40138 59.99356 55.19747
# Shear Modulus (GPa) = 27.00307 31.40635 29.20471
#
# Velocity S-wave (km/s) = 3.53378 3.81102 3.67502
# Velocity P-wave (km/s) = 6.32126 6.86362 6.59802
#
# Compressibility (1/GPa) = 0.01984073
#
# Stress axis : x y z
#
# Youngs Moduli (GPa) = 75.93857 107.85505 82.27074
#
# Poissons Ratio (x) = 0.13280 0.20739
# Poissons Ratio (y) = 0.09350 0.29824
# Poissons Ratio (z) = 0.19143 0.39099
#
# Static dielectric constant tensor:
#      x y z
#    x 3.783130 0.000000 0.190860 
#    y 0.000000 4.635850 0.000000 
#    z 0.190860 0.000000 3.765040 
# 
# 
# High freq. dielectric constant tensor:
#      x y z
#    x 1.837400 0.000000 0.010710 
#    y 0.000000 1.874810 0.000000 
#    z 0.010710 0.000000 1.846420 
# 
# From -- ./inp_files/251500.got.cif
#   From: 2010.06.25/outbox.cif.g09.slc.cpg/sg12_126_cif.got.tgz:251500.got - 2010.06.28 00:19:55.
