data_PCOD8096610
_publ_section_title
;
Structure prediction by ZEFSAII (Michael W. Deem and Ramdas Pophale) SiO2 
 PCOD8096610
Probable space group: C 2/M
;
_chemical_formula_sum "Si O2"
_cell_formula_units_Z 64
_cell_length_a 18.178878
_cell_length_b 14.193788
_cell_length_c 24.555347
_cell_angle_alpha 90.000000
_cell_angle_beta 149.276538
_cell_angle_gamma 90.000000
_cell_volume 3237.002959
_symmetry_space_group_name_H-M "C 2/M"
_symmetry_group_IT_number 12
_symmetry_cell_setting 'monoclinic'
loop_
_space_group_symop_operation_xyz
x,y,z
-x,y,-z
-x,-y,-z
x,-y,z
1/2+x,1/2+y,z
1/2-x,1/2+y,-z
1/2-x,1/2-y,-z
1/2+x,1/2-y,z
loop_
_atom_site_type_symbol
_atom_site_label
_atom_site_fract_x
_atom_site_fract_y
_atom_site_fract_z
Si Si1 0.067412 0.889364 0.102729
Si Si2 0.555314 0.729539 0.475486
Si Si3 0.676930 0.731630 0.010692
Si Si4 0.179105 0.893520 0.710624
Si Si5 0.407078 0.892647 0.323723
Si Si6 0.147980 0.391907 0.071685
Si Si7 0.585608 0.894403 0.793395
Si Si8 0.700327 0.889870 0.328661
O O1 0.237510 0.860098 0.216178
O O2 0.978581 0.822262 0.088746
O O3 0.050096 0.000000 0.106653
O O4 0.000000 0.869813 0.000000
O O5 0.500000 0.709972 0.500000
O O6 0.464934 0.666202 0.376805
O O7 0.519396 0.836498 0.434510
O O8 0.716773 0.687061 0.580118
O O9 0.750000 0.750000 0.000000
O O10 0.680184 0.835343 0.037993
O O11 0.776866 0.669100 0.112126
O O12 0.245203 0.874400 0.811033
O O13 0.281131 0.866556 0.723886
O O14 0.131618 0.000000 0.672811
O O15 0.472430 0.880914 0.304895
O O16 0.415156 0.000000 0.349054
O O17 0.139104 0.500000 0.047880
O O18 0.000000 0.352589 0.000000
O O19 0.464990 0.871840 0.761559
O O20 0.643051 0.000000 0.837184
O O21 0.743153 0.000000 0.368538
#
# Coordination Sequence:
#
# PCOD8096610 Si02
#       8
#     8   8   8   8   8   8   8   8
#     4  10  20  39  64  86 110 150 201 245 283 335
#     4  10  20  33  56  83 111 144 190 244 291 350
#     4  12  25  35  57  87 121 155 192 239 294 349
#     4   9  18  34  57  81 108 148 192 234 281 342
#     4  10  21  37  59  83 110 148 195 244 289 342
#     4  10  23  39  56  82 117 157 193 230 284 351
#     4  10  21  38  57  83 115 150 196 245 293 344
#     4   9  19  35  57  84 116 148 188 242 296 347
#
# _framework density 19.771374999999999
#
# number of rings (size 3 to 8) (size 9 to 14) (size 15 to 20)
#    0.000    2.000    1.250    1.875    3.500    4.250 
#    0.000    0.000    0.000    0.750    0.000    0.000 
#    0.000    0.000    0.000    0.000    0.000    0.000 
#
# Total GULP energy -396466.882874 kJ/mol
# GULP energy per Si atom -12389.590090 kJ/mol
# Density = 1.972637 g / cm^3
# Si number density = 19.771375 Si / 1000 Ang^3
#
#
#
# Elastic Constant Matrix: (Units=GPa)
#
#
# Indices 1 2 3 4 5 6 
#
# 1 98.7709 46.3015 44.0216 -0.0008 -19.5560 -0.0007
# 2 46.3015 93.9891 64.2876 -0.0009 -20.7123 -0.0005
# 3 44.0216 64.2876 160.4072 -0.0025 -74.5647 -0.0024
# 4 -0.0008 -0.0009 -0.0025 44.8403 0.0017 12.1319
# 5 -19.5560 -20.7123 -74.5647 0.0017 59.6366 0.0012
# 6 -0.0007 -0.0005 -0.0024 12.1319 0.0012 42.2530
#
#
#
# Elastic Compliance Matrix: (Units=1/GPa)
#
#
# Indices 1 2 3 4 5 6 
#
# 1 0.013462 -0.005879 -0.000562 0.000000 0.001670 0.000000
# 2 -0.005879 0.017986 -0.008566 0.000000 -0.006391 0.000000
# 3 -0.000562 -0.008566 0.019945 0.000000 0.021778 0.000000
# 4 0.000000 0.000000 0.000000 0.024180 0.000000 -0.006943
# 5 0.001670 -0.006391 0.021778 0.000000 0.042326 0.000000
# 6 0.000000 0.000000 0.000000 -0.006943 0.000000 0.025660
#
#
# Mechanical properties :
#
#
# Convention : Reuss Voigt Hill
#
# Bulk Modulus (GPa) = 46.77572 73.59874 60.18723
# Shear Modulus (GPa) = 27.67028 42.58308 35.12668
#
# Velocity S-wave (km/s) = 3.74506 4.64591 4.21960
# Velocity P-wave (km/s) = 6.51232 8.12927 7.36530
#
# Compressibility (1/GPa) = 0.02137861
#
# Stress axis : x y z
#
# Youngs Moduli (GPa) = 74.28586 55.59728 50.13801
#
# Poissons Ratio (x) = 0.32687 0.02817
# Poissons Ratio (y) = 0.43674 0.42949
# Poissons Ratio (z) = 0.04173 0.47626
#
# Static dielectric constant tensor:
#      x y z
#    x 3.468640 0.000000 0.093880 
#    y 0.000000 3.759020 0.000000 
#    z 0.093880 0.000000 3.659710 
# 
# 
# High freq. dielectric constant tensor:
#      x y z
#    x 1.756240 0.000000 0.000910 
#    y 0.000000 1.781560 0.000000 
#    z 0.000910 0.000000 1.757920 
# 
# From -- ./inp_files/183746.got.cif
#   From: 2010.06.25/outbox.cif.g09.slc.cpg/sg12_92_cif.got.tgz:183746.got - 2010.06.28 00:19:55.
