data_PCOD8096440
_publ_section_title
;
Structure prediction by ZEFSAII (Michael W. Deem and Ramdas Pophale) SiO2 
 PCOD8096440
Probable space group: C 2/M
;
_chemical_formula_sum "Si O2"
_cell_formula_units_Z 56
_cell_length_a 23.074273
_cell_length_b 8.793230
_cell_length_c 15.187808
_cell_angle_alpha 90.000000
_cell_angle_beta 87.349405
_cell_angle_gamma 90.000000
_cell_volume 3078.269698
_symmetry_space_group_name_H-M "C 2/M"
_symmetry_group_IT_number 12
_symmetry_cell_setting 'monoclinic'
loop_
_space_group_symop_operation_xyz
x,y,z
-x,y,-z
-x,-y,-z
x,-y,z
1/2+x,1/2+y,z
1/2-x,1/2+y,-z
1/2-x,1/2-y,-z
1/2+x,1/2-y,z
loop_
_atom_site_type_symbol
_atom_site_label
_atom_site_fract_x
_atom_site_fract_y
_atom_site_fract_z
Si Si1 0.132561 0.178073 0.326917
Si Si2 0.629626 0.678674 0.643916
Si Si3 0.567113 0.822666 0.485619
Si Si4 0.953616 0.822205 0.192377
Si Si5 0.246009 0.322115 0.596023
Si Si6 0.078236 0.679941 0.169783
Si Si7 0.067769 0.667498 0.977567
O O1 0.086272 0.271137 0.387662
O O2 0.197353 0.219130 0.351764
O O3 0.124323 0.232896 0.227369
O O4 0.119477 0.000000 0.336649
O O5 0.639468 0.500000 0.642632
O O6 0.603590 0.726927 0.552594
O O7 0.587355 0.730037 0.725091
O O8 0.691575 0.757583 0.653913
O O9 0.500000 0.783094 0.500000
O O10 0.579696 0.000000 0.499122
O O11 0.920206 0.783000 0.103370
O O12 0.013089 0.730903 0.197884
O O13 0.967482 0.000000 0.194436
O O14 0.238598 0.500000 0.583576
O O15 0.250000 0.250000 0.500000
O O16 0.081988 0.500000 0.184103
O O17 0.095721 0.723811 0.067874
O O18 0.091632 0.500000 0.950263
O O19 0.000000 0.655536 0.000000
#
# Coordination Sequence:
#
# PCOD8096440 Si02
#       7
#     8   8   8   8   8   8   8
#     4  11  23  37  55  79 106 138 177 224 271 317
#     4  11  23  37  54  78 108 142 180 223 268 316
#     4  11  23  36  53  78 107 142 178 214 265 323
#     4  10  20  33  53  82 113 144 178 220 269 318
#     4  11  23  39  59  79 102 138 184 228 271 318
#     4  10  20  34  54  81 112 145 179 217 266 324
#     4   8  16  31  51  77 109 143 178 216 262 320
#
# _framework density 18.192039999999999
#
# number of rings (size 3 to 8) (size 9 to 14) (size 15 to 20)
#    0.000    1.714    1.429    4.286    0.000   10.571 
#    0.000    0.000    0.000    0.857    0.000    0.000 
#    0.000    0.000    0.000    0.000    0.000    0.000 
#
# Total GULP energy -347259.830677 kJ/mol
# GULP energy per Si atom -12402.136810 kJ/mol
# Density = 1.815063 g / cm^3
# Si number density = 18.192040 Si / 1000 Ang^3
#
#
#
# Elastic Constant Matrix: (Units=GPa)
#
#
# Indices 1 2 3 4 5 6 
#
# 1 77.7213 33.7528 26.2693 0.0000 17.9979 0.0000
# 2 33.7528 57.9833 18.1361 0.0000 7.9449 0.0000
# 3 26.2693 18.1361 90.9830 0.0000 24.1546 0.0000
# 4 0.0000 0.0000 0.0000 34.3891 0.0000 1.3621
# 5 17.9979 7.9449 24.1546 0.0000 22.3993 0.0000
# 6 0.0000 0.0000 0.0000 1.3621 0.0000 27.4017
#
#
#
# Elastic Compliance Matrix: (Units=1/GPa)
#
#
# Indices 1 2 3 4 5 6 
#
# 1 0.020157 -0.009884 -0.000673 0.000000 -0.011964 0.000000
# 2 -0.009884 0.023449 -0.002411 0.000000 0.002224 0.000000
# 3 -0.000673 -0.002411 0.015826 0.000000 -0.015670 0.000000
# 4 0.000000 0.000000 0.000000 0.029136 0.000000 -0.001448
# 5 -0.011964 0.002224 -0.015670 0.000000 0.070367 0.000000
# 6 0.000000 0.000000 0.000000 -0.001448 0.000000 0.036566
#
#
# Mechanical properties :
#
#
# Convention : Reuss Voigt Hill
#
# Bulk Modulus (GPa) = 29.85405 42.55598 36.20501
# Shear Modulus (GPa) = 21.49584 26.73999 24.11791
#
# Velocity S-wave (km/s) = 3.44118 3.83805 3.64502
# Velocity P-wave (km/s) = 5.67760 6.56386 6.13675
#
# Compressibility (1/GPa) = 0.03349630
#
# Stress axis : x y z
#
# Youngs Moduli (GPa) = 49.61081 42.64562 63.18593
#
# Poissons Ratio (x) = 0.42149 0.04255
# Poissons Ratio (y) = 0.49033 0.15234
# Poissons Ratio (z) = 0.03341 0.10282
#
# Static dielectric constant tensor:
#      x y z
#    x 3.366930 0.000000 0.151560 
#    y 0.000000 3.430360 0.000000 
#    z 0.151560 0.000000 3.740960 
# 
# 
# High freq. dielectric constant tensor:
#      x y z
#    x 1.680670 0.000000 0.009440 
#    y 0.000000 1.717960 0.000000 
#    z 0.009440 0.000000 1.710900 
# 
# From -- ./inp_files/230935.got.cif
#   From: 2010.06.25/outbox.cif.g09.slc.cpg/sg12_116_cif.got.tgz:230935.got - 2010.06.28 00:19:55.
