data_PCOD8096326
_publ_section_title
;
Structure prediction by ZEFSAII (Michael W. Deem and Ramdas Pophale) SiO2 
 PCOD8096326
Probable space group: C 2/M
;
_chemical_formula_sum "Si O2"
_cell_formula_units_Z 56
_cell_length_a 20.105187
_cell_length_b 8.828575
_cell_length_c 29.230592
_cell_angle_alpha 90.000000
_cell_angle_beta 39.186202
_cell_angle_gamma 90.000000
_cell_volume 3278.274267
_symmetry_space_group_name_H-M "C 2/M"
_symmetry_group_IT_number 12
_symmetry_cell_setting 'monoclinic'
loop_
_space_group_symop_operation_xyz
x,y,z
-x,y,-z
-x,-y,-z
x,-y,z
1/2+x,1/2+y,z
1/2-x,1/2+y,-z
1/2-x,1/2-y,-z
1/2+x,1/2-y,z
loop_
_atom_site_type_symbol
_atom_site_label
_atom_site_fract_x
_atom_site_fract_y
_atom_site_fract_z
Si Si1 0.188844 0.328128 0.710438
Si Si2 0.418813 0.327572 0.579979
Si Si3 0.982736 0.822199 0.800136
Si Si4 0.862801 0.678725 0.946353
Si Si5 0.818136 0.821108 0.810395
Si Si6 0.602369 0.820651 0.970127
Si Si7 0.180328 0.321346 0.288102
O O1 0.149294 0.500000 0.738939
O O2 0.299203 0.324106 0.623205
O O3 0.212809 0.253843 0.747805
O O4 0.102333 0.233123 0.728402
O O5 0.500000 0.256796 0.500000
O O6 0.452181 0.500000 0.573922
O O7 0.419010 0.229726 0.626911
O O8 0.944159 0.739132 0.866097
O O9 0.912157 0.776230 0.794536
O O10 0.977964 0.000000 0.811035
O O11 0.851807 0.500000 0.948167
O O12 0.750000 0.750000 0.000000
O O13 0.904460 0.729189 0.973680
O O14 0.709173 0.759218 0.889891
O O15 0.840701 0.736474 0.751393
O O16 0.814485 0.000000 0.803586
O O17 0.603153 0.000000 0.965233
O O18 0.500000 0.750469 0.000000
O O19 0.192457 0.500000 0.281896
#
# Coordination Sequence:
#
# PCOD8096326 Si02
#       7
#     8   8   8   8   8   8   8
#     4   9  19  35  55  81 107 141 179 214 263 320
#     4   8  16  33  57  83 110 141 176 213 260 320
#     4  11  22  36  54  78 109 143 182 230 274 319
#     4  11  21  36  55  76 101 138 181 226 278 329
#     4  10  20  36  53  72 105 146 180 216 270 325
#     4   9  19  34  52  73  96 130 178 223 269 323
#     4  10  20  33  52  82 112 137 173 220 264 309
#
# _framework density 17.082158
#
# number of rings (size 3 to 8) (size 9 to 14) (size 15 to 20)
#    0.857    1.429    1.429    2.143    2.000    1.429 
#    0.000    0.000    0.000    3.000    0.000    0.000 
#    0.000    0.000    0.000    0.000    0.000    0.000 
#
# Total GULP energy -347041.729037 kJ/mol
# GULP energy per Si atom -12394.347466 kJ/mol
# Density = 1.704328 g / cm^3
# Si number density = 17.082158 Si / 1000 Ang^3
#
#
#
# Elastic Constant Matrix: (Units=GPa)
#
#
# Indices 1 2 3 4 5 6 
#
# 1 135.7368 47.9165 60.9673 -0.0005 4.9018 -0.0033
# 2 47.9165 72.5450 37.5742 0.0000 7.9476 0.0042
# 3 60.9673 37.5742 103.3624 -0.0001 3.3374 -0.0002
# 4 -0.0005 0.0000 -0.0001 22.6698 0.0001 -1.6079
# 5 4.9018 7.9476 3.3374 0.0001 21.7877 0.0000
# 6 -0.0033 0.0042 -0.0002 -1.6079 0.0000 27.0609
#
#
#
# Elastic Compliance Matrix: (Units=1/GPa)
#
#
# Indices 1 2 3 4 5 6 
#
# 1 0.011298 -0.004942 -0.004868 0.000000 0.000006 0.000002
# 2 -0.004942 0.019769 -0.004095 0.000000 -0.005472 -0.000004
# 3 -0.004868 -0.004095 0.014020 0.000000 0.000441 0.000000
# 4 0.000000 0.000000 0.000000 0.044298 0.000000 0.002632
# 5 0.000006 -0.005472 0.000441 0.000000 0.047825 0.000001
# 6 0.000002 -0.000004 0.000000 0.002632 0.000001 0.037110
#
#
# Mechanical properties :
#
#
# Convention : Reuss Voigt Hill
#
# Bulk Modulus (GPa) = 57.87592 67.17334 62.52463
# Shear Modulus (GPa) = 24.05138 25.31608 24.68373
#
# Velocity S-wave (km/s) = 3.75638 3.85388 3.80544
# Velocity P-wave (km/s) = 7.26418 7.69495 7.48266
#
# Compressibility (1/GPa) = 0.01727834
#
# Stress axis : x y z
#
# Youngs Moduli (GPa) = 88.51245 50.58404 71.32584
#
# Poissons Ratio (x) = 0.24998 0.34719
# Poissons Ratio (y) = 0.43741 0.29207
# Poissons Ratio (z) = 0.43085 0.20713
#
# Static dielectric constant tensor:
#      x y z
#    x 3.217490 -0.000010 -0.062810 
#    y -0.000010 3.075650 0.000000 
#    z -0.062810 0.000000 3.013070 
# 
# 
# High freq. dielectric constant tensor:
#      x y z
#    x 1.651930 0.000000 -0.003340 
#    y 0.000000 1.654190 0.000000 
#    z -0.003340 0.000000 1.645780 
# 
# From -- ./inp_files/342333.got.cif
#   From: 2010.06.25/outbox.cif.g09.slc.cpg/sg12_172_cif.got.tgz:342333.got - 2010.06.28 00:19:55.
