data_PCOD8096763
_publ_section_title
;
Structure prediction by ZEFSAII (Michael W. Deem and Ramdas Pophale) SiO2 
 PCOD8096763
Probable space group: C 2/M
;
_chemical_formula_sum "Si O2"
_cell_formula_units_Z 60
_cell_length_a 9.213875
_cell_length_b 20.906523
_cell_length_c 19.744938
_cell_angle_alpha 90.000000
_cell_angle_beta 46.936396
_cell_angle_gamma 90.000000
_cell_volume 2778.799995
_symmetry_space_group_name_H-M "C 2/M"
_symmetry_group_IT_number 12
_symmetry_cell_setting 'monoclinic'
loop_
_space_group_symop_operation_xyz
x,y,z
-x,y,-z
-x,-y,-z
x,-y,z
1/2+x,1/2+y,z
1/2-x,1/2+y,-z
1/2-x,1/2-y,-z
1/2+x,1/2-y,z
loop_
_atom_site_type_symbol
_atom_site_label
_atom_site_fract_x
_atom_site_fract_y
_atom_site_fract_z
Si Si1 0.500000 0.754410 0.500000
Si Si2 0.317425 0.302860 0.783068
Si Si3 0.286065 0.610194 0.092633
Si Si4 0.922825 0.300497 0.379077
Si Si5 0.368932 0.233531 0.894635
Si Si6 0.622904 0.929106 0.282926
Si Si7 0.671877 0.927085 0.989008
Si Si8 0.972461 0.927700 0.779289
O O1 0.306496 0.709618 0.567797
O O2 0.466971 0.799295 0.445173
O O3 0.446800 0.254973 0.696527
O O4 0.374904 0.295208 0.844510
O O5 0.385388 0.377347 0.751512
O O6 0.087813 0.293398 0.838838
O O7 0.262535 0.686175 0.112799
O O8 0.214148 0.568968 0.178280
O O9 0.500000 0.586003 0.000000
O O10 0.152584 0.605602 0.067759
O O11 0.965976 0.371910 0.338410
O O12 0.250000 0.250000 0.000000
O O13 0.792974 0.917134 0.284757
O O14 0.527808 0.000000 0.324794
O O15 0.879849 0.918892 0.884113
O O16 0.615729 0.000000 0.019789
O O17 0.500000 0.893112 0.000000
O O18 0.927809 0.000000 0.767079
#
# Coordination Sequence:
#
# PCOD8096763 Si02
#       8
#     4   8   8   8   8   8   8   8
#     4  10  24  46  78  98 126 152 206 270 352 436
#     4  12  23  41  67  92 133 172 221 278 320 388
#     4  12  22  36  57  88 131 183 235 264 313 363
#     4  11  23  45  72 103 124 163 210 268 343 411
#     4  12  25  37  56  93 134 183 225 274 321 364
#     4  11  23  40  65  99 138 174 221 272 321 386
#     4  10  20  34  50  73 116 174 231 268 301 348
#     4  10  21  37  58  88 127 177 223 270 315 366
#
# _framework density 21.592054000000001
#
# number of rings (size 3 to 8) (size 9 to 14) (size 15 to 20)
#    0.000    0.933    2.667    5.600    0.000    0.533 
#    0.000    1.333    0.000    3.200    0.000    0.000 
#    0.000    0.000    0.000    0.000    0.000    0.000 
#
# Total GULP energy -371848.620823 kJ/mol
# GULP energy per Si atom -12394.954027 kJ/mol
# Density = 2.154291 g / cm^3
# Si number density = 21.592054 Si / 1000 Ang^3
#
#
#
# Elastic Constant Matrix: (Units=GPa)
#
#
# Indices 1 2 3 4 5 6 
#
# 1 90.1976 23.3514 28.2552 -0.0001 -10.1572 0.0001
# 2 23.3514 130.9473 38.7135 0.0000 -10.0691 0.0000
# 3 28.2552 38.7135 89.0451 -0.0001 -12.7875 0.0001
# 4 -0.0001 0.0000 -0.0001 21.5320 0.0001 -1.8068
# 5 -10.1572 -10.0691 -12.7875 0.0001 33.2007 -0.0001
# 6 0.0001 0.0000 0.0001 -1.8068 -0.0001 26.2788
#
#
#
# Elastic Compliance Matrix: (Units=1/GPa)
#
#
# Indices 1 2 3 4 5 6 
#
# 1 0.012637 -0.001135 -0.003187 0.000000 0.002294 0.000000
# 2 -0.001135 0.008915 -0.003363 0.000000 0.001061 0.000000
# 3 -0.003187 -0.003363 0.014203 0.000000 0.003475 0.000000
# 4 0.000000 0.000000 0.000000 0.046712 0.000000 0.003212
# 5 0.002294 0.001061 0.003475 0.000000 0.032482 0.000000
# 6 0.000000 0.000000 0.000000 0.003212 0.000000 0.038274
#
#
# Mechanical properties :
#
#
# Convention : Reuss Voigt Hill
#
# Bulk Modulus (GPa) = 49.05699 54.53672 51.79685
# Shear Modulus (GPa) = 28.50802 30.86031 29.68417
#
# Velocity S-wave (km/s) = 3.63754 3.78464 3.71182
# Velocity P-wave (km/s) = 6.35700 6.66412 6.51237
#
# Compressibility (1/GPa) = 0.02038446
#
# Stress axis : x y z
#
# Youngs Moduli (GPa) = 79.13052 112.17049 70.40805
#
# Poissons Ratio (x) = 0.12730 0.22440
# Poissons Ratio (y) = 0.08981 0.23681
# Poissons Ratio (z) = 0.25220 0.37728
#
# Static dielectric constant tensor:
#      x y z
#    x 4.034630 0.000000 0.012260 
#    y 0.000000 4.122480 0.000000 
#    z 0.012260 0.000000 3.755200 
# 
# 
# High freq. dielectric constant tensor:
#      x y z
#    x 1.851930 0.000000 -0.005580 
#    y 0.000000 1.860560 0.000000 
#    z -0.005580 0.000000 1.814970 
# 
# From -- ./inp_files/301881.got.cif
#   From: 2010.06.25/outbox.cif.g09.slc.cpg/sg12_151_cif.got.tgz:301881.got - 2010.06.28 00:19:55.
