data_PCOD8096511
_publ_section_title
;
Structure prediction by ZEFSAII (Michael W. Deem and Ramdas Pophale) SiO2 
 PCOD8096511
Probable space group: C 2/M
;
_chemical_formula_sum "Si O2"
_cell_formula_units_Z 56
_cell_length_a 19.406416
_cell_length_b 8.738896
_cell_length_c 26.749978
_cell_angle_alpha 90.000000
_cell_angle_beta 140.588891
_cell_angle_gamma 90.000000
_cell_volume 2880.163920
_symmetry_space_group_name_H-M "C 2/M"
_symmetry_group_IT_number 12
_symmetry_cell_setting 'monoclinic'
loop_
_space_group_symop_operation_xyz
x,y,z
-x,y,-z
-x,-y,-z
x,-y,z
1/2+x,1/2+y,z
1/2-x,1/2+y,-z
1/2-x,1/2-y,-z
1/2+x,1/2-y,z
loop_
_atom_site_type_symbol
_atom_site_label
_atom_site_fract_x
_atom_site_fract_y
_atom_site_fract_z
Si Si1 0.681133 0.676117 0.004529
Si Si2 0.300324 0.318294 0.761600
Si Si3 0.415027 0.180452 0.313793
Si Si4 0.089020 0.180349 0.278202
Si Si5 0.375655 0.824504 0.181747
Si Si6 0.645648 0.818486 0.415737
Si Si7 0.026322 0.680589 0.070626
O O1 0.653323 0.500000 0.977153
O O2 0.753321 0.693921 0.094537
O O3 0.750000 0.750000 0.000000
O O4 0.571456 0.770542 0.948181
O O5 0.309631 0.500000 0.770589
O O6 0.173580 0.261922 0.695134
O O7 0.345210 0.260383 0.733555
O O8 0.364976 0.251739 0.845332
O O9 0.373580 0.237398 0.236787
O O10 0.540098 0.236973 0.389359
O O11 0.415920 0.000000 0.316168
O O12 0.137166 0.262145 0.354036
O O13 0.962758 0.224708 0.199157
O O14 0.101782 0.000000 0.291998
O O15 0.415249 0.000000 0.200716
O O16 0.750000 0.750000 0.500000
O O17 0.654365 0.000000 0.420015
O O18 0.038977 0.500000 0.077172
O O19 0.000000 0.743095 0.000000
#
# Coordination Sequence:
#
# PCOD8096511 Si02
#       7
#     8   8   8   8   8   8   8
#     4  11  22  35  53  76 104 141 185 234 285 334
#     4  10  20  36  57  79 105 141 186 229 271 326
#     4   8  16  33  56  78  99 131 176 217 255 308
#     4  10  20  33  54  83 110 138 174 218 269 323
#     4   9  18  33  52  72  98 136 180 223 266 317
#     4  10  20  37  61  85 111 141 174 214 259 315
#     4  11  24  38  52  76 111 149 190 238 288 333
#
# _framework density 19.443338000000001
#
# number of rings (size 3 to 8) (size 9 to 14) (size 15 to 20)
#    0.000    2.143    0.000    4.286    0.000    6.857 
#    0.000    5.714    0.000    4.286    0.000    0.000 
#    0.000    0.000    0.000    0.000    0.000    0.000 
#
# Total GULP energy -347060.154435 kJ/mol
# GULP energy per Si atom -12395.005516 kJ/mol
# Density = 1.939908 g / cm^3
# Si number density = 19.443338 Si / 1000 Ang^3
#
#
#
# Elastic Constant Matrix: (Units=GPa)
#
#
# Indices 1 2 3 4 5 6 
#
# 1 126.0140 21.1717 39.0947 0.0000 21.6826 0.0000
# 2 21.1717 48.6291 24.7239 0.0000 0.5846 0.0001
# 3 39.0947 24.7239 89.5595 0.0000 18.0172 0.0000
# 4 0.0000 0.0000 0.0000 31.1022 0.0000 -0.0786
# 5 21.6826 0.5846 18.0172 0.0000 28.5795 0.0000
# 6 0.0000 0.0001 0.0000 -0.0786 0.0000 25.6922
#
#
#
# Elastic Compliance Matrix: (Units=1/GPa)
#
#
# Indices 1 2 3 4 5 6 
#
# 1 0.010278 -0.003209 -0.002342 0.000000 -0.006255 0.000000
# 2 -0.003209 0.025373 -0.006859 0.000000 0.006239 0.000000
# 3 -0.002342 -0.006859 0.015685 0.000000 -0.007971 0.000000
# 4 0.000000 0.000000 0.000000 0.032152 0.000000 0.000098
# 5 -0.006255 0.006239 -0.007971 0.000000 0.044633 0.000000
# 6 0.000000 0.000000 0.000000 0.000098 0.000000 0.038923
#
#
# Mechanical properties :
#
#
# Convention : Reuss Voigt Hill
#
# Bulk Modulus (GPa) = 37.71291 48.24260 42.97775
# Shear Modulus (GPa) = 24.91245 29.02226 26.96736
#
# Velocity S-wave (km/s) = 3.58339 3.86768 3.72825
# Velocity P-wave (km/s) = 6.04643 6.69411 6.37849
#
# Compressibility (1/GPa) = 0.02651612
#
# Stress axis : x y z
#
# Youngs Moduli (GPa) = 97.29834 39.41197 63.75376
#
# Poissons Ratio (x) = 0.12645 0.14933
# Poissons Ratio (y) = 0.31219 0.43729
# Poissons Ratio (z) = 0.22790 0.27033
#
# Static dielectric constant tensor:
#      x y z
#    x 3.930150 0.000000 0.302080 
#    y 0.000000 3.447610 0.000000 
#    z 0.302080 0.000000 3.891520 
# 
# 
# High freq. dielectric constant tensor:
#      x y z
#    x 1.764950 0.000000 0.012720 
#    y 0.000000 1.744490 0.000000 
#    z 0.012720 0.000000 1.747420 
# 
# From -- ./inp_files/342316.got.cif
#   From: 2010.06.25/outbox.cif.g09.slc.cpg/sg12_172_cif.got.tgz:342316.got - 2010.06.28 00:19:55.
