data_PCOD8096738
_publ_section_title
;
Structure prediction by ZEFSAII (Michael W. Deem and Ramdas Pophale) SiO2 
 PCOD8096738
Probable space group: C 2/M
;
_chemical_formula_sum "Si O2"
_cell_formula_units_Z 48
_cell_length_a 27.912929
_cell_length_b 8.750763
_cell_length_c 20.041479
_cell_angle_alpha 90.000000
_cell_angle_beta 146.073167
_cell_angle_gamma 90.000000
_cell_volume 2732.243462
_symmetry_space_group_name_H-M "C 2/M"
_symmetry_group_IT_number 12
_symmetry_cell_setting 'monoclinic'
loop_
_space_group_symop_operation_xyz
x,y,z
-x,y,-z
-x,-y,-z
x,-y,z
1/2+x,1/2+y,z
1/2-x,1/2+y,-z
1/2-x,1/2-y,-z
1/2+x,1/2-y,z
loop_
_atom_site_type_symbol
_atom_site_label
_atom_site_fract_x
_atom_site_fract_y
_atom_site_fract_z
Si Si1 0.937500 0.832003 0.865457
Si Si2 0.842882 0.318963 0.097014
Si Si3 0.804641 0.322049 0.794840
Si Si4 0.946114 0.680650 0.342478
Si Si5 0.626680 0.818920 0.601970
Si Si6 0.403726 0.319633 0.031024
O O1 0.860686 0.715318 0.793234
O O2 0.997450 0.776828 0.873292
O O3 0.898293 0.000000 0.805198
O O4 0.000000 0.844758 0.000000
O O5 0.835790 0.500000 0.092015
O O6 0.904284 0.254058 0.226636
O O7 0.882703 0.269676 0.073432
O O8 0.750000 0.250000 0.000000
O O9 0.810760 0.500000 0.817418
O O10 0.707867 0.271995 0.667508
O O11 0.838290 0.229599 0.897539
O O12 0.945367 0.500000 0.341525
O O13 0.890219 0.734300 0.341391
O O14 0.044999 0.733613 0.463220
O O15 0.642798 0.000000 0.615801
O O16 0.392391 0.500000 0.028493
#
# Coordination Sequence:
#
# PCOD8096738 Si02
#       6
#     8   8   8   8   8   8
#     4   8  16  31  49  68  93 127 164 200 241 290
#     4  11  21  33  50  75 104 132 163 198 240 289
#     4  11  20  29  47  77 104 125 156 201 250 293
#     4   8  17  32  51  72  94 127 167 200 234 283
#     4   9  16  32  54  71  93 128 166 200 236 285
#     4  10  20  34  50  70  98 133 168 200 240 289
#
# _framework density 17.567981
#
# number of rings (size 3 to 8) (size 9 to 14) (size 15 to 20)
#    0.000    2.500    0.000    5.500    0.000    5.000 
#    0.000    4.167    0.000    1.000    0.000    0.000 
#    0.000    0.000    0.000    0.000    0.000    0.000 
#
# Total GULP energy -297514.234742 kJ/mol
# GULP energy per Si atom -12396.426448 kJ/mol
# Density = 1.752800 g / cm^3
# Si number density = 17.567981 Si / 1000 Ang^3
#
#
#
# Elastic Constant Matrix: (Units=GPa)
#
#
# Indices 1 2 3 4 5 6 
#
# 1 114.0736 28.5259 59.4938 0.0000 13.8188 0.0000
# 2 28.5259 59.7319 30.3212 0.0000 8.7578 0.0000
# 3 59.4938 30.3212 107.2872 0.0000 11.8803 0.0000
# 4 0.0000 0.0000 0.0000 19.1067 0.0000 2.0758
# 5 13.8188 8.7578 11.8803 0.0000 30.0896 0.0000
# 6 0.0000 0.0000 0.0000 2.0758 0.0000 24.0585
#
#
#
# Elastic Compliance Matrix: (Units=1/GPa)
#
#
# Indices 1 2 3 4 5 6 
#
# 1 0.012966 -0.002677 -0.006128 0.000000 -0.002756 0.000000
# 2 -0.002677 0.020493 -0.003956 0.000000 -0.003173 0.000000
# 3 -0.006128 -0.003956 0.014010 0.000000 -0.001566 0.000000
# 4 0.000000 0.000000 0.000000 0.052833 0.000000 -0.004558
# 5 -0.002756 -0.003173 -0.001566 0.000000 0.036042 0.000000
# 6 0.000000 0.000000 0.000000 -0.004558 0.000000 0.041959
#
#
# Mechanical properties :
#
#
# Convention : Reuss Voigt Hill
#
# Bulk Modulus (GPa) = 45.56377 57.53053 51.54715
# Shear Modulus (GPa) = 23.68096 25.50109 24.59102
#
# Velocity S-wave (km/s) = 3.67544 3.81408 3.74540
# Velocity P-wave (km/s) = 6.63354 7.22597 6.93608
#
# Compressibility (1/GPa) = 0.02194726
#
# Stress axis : x y z
#
# Youngs Moduli (GPa) = 77.12740 48.79637 71.37592
#
# Poissons Ratio (x) = 0.13064 0.43739
# Poissons Ratio (y) = 0.20648 0.28235
# Poissons Ratio (z) = 0.47264 0.19303
#
# Static dielectric constant tensor:
#      x y z
#    x 3.580440 0.000000 0.130310 
#    y 0.000000 3.101030 0.000000 
#    z 0.130310 0.000000 3.400190 
# 
# 
# High freq. dielectric constant tensor:
#      x y z
#    x 1.677120 0.000000 0.021480 
#    y 0.000000 1.667640 0.000000 
#    z 0.021480 0.000000 1.661890 
# 
# From -- ./inp_files/323869.got.cif
#   From: 2010.06.25/outbox.cif.g09.slc.cpg/sg12_162_cif.got.tgz:323869.got - 2010.06.28 00:19:55.
