data_PCOD8096780
_publ_section_title
;
Structure prediction by ZEFSAII (Michael W. Deem and Ramdas Pophale) SiO2 
 PCOD8096780
Probable space group: C 2/M
;
_chemical_formula_sum "Si O2"
_cell_formula_units_Z 48
_cell_length_a 28.991608
_cell_length_b 12.754189
_cell_length_c 13.222668
_cell_angle_alpha 90.000000
_cell_angle_beta 150.402495
_cell_angle_gamma 90.000000
_cell_volume 2414.831276
_symmetry_space_group_name_H-M "C 2/M"
_symmetry_group_IT_number 12
_symmetry_cell_setting 'monoclinic'
loop_
_space_group_symop_operation_xyz
x,y,z
-x,y,-z
-x,-y,-z
x,-y,z
1/2+x,1/2+y,z
1/2-x,1/2+y,-z
1/2-x,1/2-y,-z
1/2+x,1/2-y,z
loop_
_atom_site_type_symbol
_atom_site_label
_atom_site_fract_x
_atom_site_fract_y
_atom_site_fract_z
Si Si1 0.822060 0.622841 0.414532
Si Si2 0.588800 0.379426 0.739637
Si Si3 0.748009 0.884623 0.081912
Si Si4 0.998917 0.378842 0.879767
Si Si5 0.647302 0.255026 0.040270
Si Si6 0.088921 0.384122 0.618887
O O1 0.805320 0.500000 0.369849
O O2 0.718838 0.670477 0.239084
O O3 0.866719 0.670505 0.395660
O O4 0.894592 0.648835 0.642446
O O5 0.500000 0.371107 0.500000
O O6 0.612794 0.500000 0.812228
O O7 0.670886 0.326201 0.828297
O O8 0.585253 0.317280 0.838821
O O9 0.719069 0.826391 0.127772
O O10 0.785713 0.000000 0.185506
O O11 0.660659 0.897181 0.844277
O O12 0.023395 0.500000 0.901140
O O13 0.075806 0.303769 0.976820
O O14 0.000000 0.356820 0.000000
O O15 0.053351 0.500000 0.515873
O O16 0.000000 0.322000 0.500000
#
# Coordination Sequence:
#
# PCOD8096780 Si02
#       6
#     8   8   8   8   8   8
#     4  10  21  38  60  85 115 154 195 243 298 351
#     4  10  22  37  53  80 126 168 190 222 279 344
#     4  10  20  34  50  82 123 154 188 229 276 339
#     4  10  24  45  64  85 115 149 192 254 318 360
#     4  12  22  34  63  89 113 151 206 242 286 348
#     4   9  16  28  48  76 112 150 187 225 270 330
#
# _framework density 19.877165000000002
#
# number of rings (size 3 to 8) (size 9 to 14) (size 15 to 20)
#    0.000    1.833    1.667    2.500    2.333    4.000 
#    0.000    0.000    0.000    2.500    0.000    0.000 
#    0.000    0.000    0.000    0.000    0.000    0.000 
#
# Total GULP energy -297486.934423 kJ/mol
# GULP energy per Si atom -12395.288934 kJ/mol
# Density = 1.983192 g / cm^3
# Si number density = 19.877165 Si / 1000 Ang^3
#
#
#
# Elastic Constant Matrix: (Units=GPa)
#
#
# Indices 1 2 3 4 5 6 
#
# 1 101.3230 50.9706 58.9997 0.0000 5.4221 0.0000
# 2 50.9706 70.7455 32.6890 0.0000 -1.1570 0.0000
# 3 58.9997 32.6890 130.6136 0.0000 12.7012 0.0000
# 4 0.0000 0.0000 0.0000 27.0223 0.0000 6.0901
# 5 5.4221 -1.1570 12.7012 0.0000 30.0664 0.0000
# 6 0.0000 0.0000 0.0000 6.0901 0.0000 32.7927
#
#
#
# Elastic Compliance Matrix: (Units=1/GPa)
#
#
# Indices 1 2 3 4 5 6 
#
# 1 0.018673 -0.010905 -0.005566 0.000000 -0.001436 0.000000
# 2 -0.010905 0.022521 -0.001028 0.000000 0.003267 0.000000
# 3 -0.005566 -0.001028 0.010777 0.000000 -0.003588 0.000000
# 4 0.000000 0.000000 0.000000 0.038623 0.000000 -0.007173
# 5 -0.001436 0.003267 -0.003588 0.000000 0.035160 0.000000
# 6 0.000000 0.000000 0.000000 -0.007173 0.000000 0.031827
#
#
# Mechanical properties :
#
#
# Convention : Reuss Voigt Hill
#
# Bulk Modulus (GPa) = 58.92087 65.33342 62.12715
# Shear Modulus (GPa) = 25.22241 28.64445 26.93343
#
# Velocity S-wave (km/s) = 3.56605 3.80027 3.68502
# Velocity P-wave (km/s) = 6.83099 7.22468 7.03059
#
# Compressibility (1/GPa) = 0.01697192
#
# Stress axis : x y z
#
# Youngs Moduli (GPa) = 53.55264 44.40373 92.79359
#
# Poissons Ratio (x) = 0.48424 0.51649
# Poissons Ratio (y) = 0.58401 0.09539
# Poissons Ratio (z) = 0.29807 0.04565
#
# Static dielectric constant tensor:
#      x y z
#    x 3.297250 0.000000 0.079980 
#    y 0.000000 4.357850 0.000000 
#    z 0.079980 0.000000 3.570600 
# 
# 
# High freq. dielectric constant tensor:
#      x y z
#    x 1.740480 0.000000 0.016880 
#    y 0.000000 1.786730 0.000000 
#    z 0.016880 0.000000 1.781000 
# 
# From -- ./inp_files/142874.got.cif
#   From: 2010.06.25/outbox.cif.g09.slc.cpg/sg12_72_cif.got.tgz:142874.got - 2010.06.28 00:19:55.
