data_PCOD8096684
_publ_section_title
;
Structure prediction by ZEFSAII (Michael W. Deem and Ramdas Pophale) SiO2 
 PCOD8096684
Probable space group: C 2/M
;
_chemical_formula_sum "Si O2"
_cell_formula_units_Z 64
_cell_length_a 17.488243
_cell_length_b 13.646669
_cell_length_c 13.065734
_cell_angle_alpha 90.000000
_cell_angle_beta 91.560276
_cell_angle_gamma 90.000000
_cell_volume 3117.063126
_symmetry_space_group_name_H-M "C 2/M"
_symmetry_group_IT_number 12
_symmetry_cell_setting 'monoclinic'
loop_
_space_group_symop_operation_xyz
x,y,z
-x,y,-z
-x,-y,-z
x,-y,z
1/2+x,1/2+y,z
1/2-x,1/2+y,-z
1/2-x,1/2-y,-z
1/2+x,1/2-y,z
loop_
_atom_site_type_symbol
_atom_site_label
_atom_site_fract_x
_atom_site_fract_y
_atom_site_fract_z
Si Si1 0.417904 0.390968 0.785770
Si Si2 0.174535 0.223452 0.375546
Si Si3 0.209060 0.763558 0.891658
Si Si4 0.752900 0.887597 0.271956
Si Si5 0.430277 0.609013 0.303782
Si Si6 0.313713 0.883905 0.294531
Si Si7 0.586741 0.612222 0.987774
Si Si8 0.073762 0.277545 0.557842
O O1 0.395526 0.500000 0.743971
O O2 0.389057 0.306954 0.709158
O O3 0.511999 0.385361 0.792403
O O4 0.379312 0.377312 0.895442
O O5 0.205979 0.333319 0.358029
O O6 0.243369 0.145071 0.367028
O O7 0.139224 0.232305 0.486538
O O8 0.267587 0.839418 0.837937
O O9 0.195451 0.668694 0.817545
O O10 0.250000 0.750000 0.000000
O O11 0.127395 0.814689 0.910864
O O12 0.843080 0.860845 0.278865
O O13 0.731562 0.000000 0.277235
O O14 0.430629 0.500000 0.350471
O O15 0.463232 0.683451 0.388388
O O16 0.390902 0.852193 0.357257
O O17 0.315169 0.000000 0.275417
O O18 0.596592 0.500000 0.948424
O O19 0.500000 0.643348 0.000000
O O20 0.000000 0.328457 0.500000
#
# Coordination Sequence:
#
# PCOD8096684 Si02
#       8
#     8   8   8   8   8   8   8   8
#     4  10  20  35  57  91 127 158 196 246 310 375
#     4  11  22  38  63  89 120 161 201 252 310 364
#     4  11  22  39  64  91 123 164 201 251 313 373
#     4  10  21  38  61  88 122 158 200 250 303 363
#     4  10  20  37  61  89 124 158 194 250 312 363
#     4  11  26  45  63  89 127 169 213 260 305 366
#     4  10  20  33  59  94 124 155 195 249 315 373
#     4  12  24  42  65  91 124 165 212 255 309 371
#
# _framework density 20.532146999999998
#
# number of rings (size 3 to 8) (size 9 to 14) (size 15 to 20)
#    0.000    1.375    3.750    3.375    0.000    6.000 
#    0.000    0.000    0.000    0.375    0.000    0.000 
#    0.000    0.000    0.000    0.000    0.000    0.000 
#
# Total GULP energy -396490.590444 kJ/mol
# GULP energy per Si atom -12390.330951 kJ/mol
# Density = 2.048542 g / cm^3
# Si number density = 20.532147 Si / 1000 Ang^3
#
#
#
# Elastic Constant Matrix: (Units=GPa)
#
#
# Indices 1 2 3 4 5 6 
#
# 1 75.6435 33.9672 28.6477 0.0000 -2.1382 0.0000
# 2 33.9672 131.1310 44.1232 0.0000 -6.7717 0.0000
# 3 28.6477 44.1232 92.2377 0.0000 -6.1256 0.0000
# 4 0.0000 0.0000 0.0000 22.9891 0.0000 -0.8704
# 5 -2.1382 -6.7717 -6.1256 0.0000 40.1334 0.0000
# 6 0.0000 0.0000 0.0000 -0.8704 0.0000 24.7209
#
#
#
# Elastic Compliance Matrix: (Units=1/GPa)
#
#
# Indices 1 2 3 4 5 6 
#
# 1 0.015871 -0.002930 -0.003540 0.000000 -0.000189 0.000000
# 2 -0.002930 0.009660 -0.003650 0.000000 0.000917 0.000000
# 3 -0.003540 -0.003650 0.013774 0.000000 0.001298 0.000000
# 4 0.000000 0.000000 0.000000 0.043557 0.000000 0.001534
# 5 -0.000189 0.000917 0.001298 0.000000 0.025260 0.000000
# 6 0.000000 0.000000 0.000000 0.001534 0.000000 0.040506
#
#
# Mechanical properties :
#
#
# Convention : Reuss Voigt Hill
#
# Bulk Modulus (GPa) = 52.45477 56.94317 54.69897
# Shear Modulus (GPa) = 28.53511 30.38695 29.46103
#
# Velocity S-wave (km/s) = 3.73202 3.85121 3.79208
# Velocity P-wave (km/s) = 6.64633 6.89707 6.77286
#
# Compressibility (1/GPa) = 0.01906404
#
# Stress axis : x y z
#
# Youngs Moduli (GPa) = 63.00842 103.51461 72.60263
#
# Poissons Ratio (x) = 0.30325 0.25705
# Poissons Ratio (y) = 0.18459 0.26503
# Poissons Ratio (z) = 0.22308 0.37788
#
# Static dielectric constant tensor:
#      x y z
#    x 3.788100 0.000000 -0.079450 
#    y 0.000000 3.610310 0.000000 
#    z -0.079450 0.000000 3.904290 
# 
# 
# High freq. dielectric constant tensor:
#      x y z
#    x 1.801290 0.000000 -0.004750 
#    y 0.000000 1.784910 0.000000 
#    z -0.004750 0.000000 1.814780 
# 
# From -- ./inp_files/156621.got.cif
#   From: 2010.06.25/outbox.cif.g09.slc.cpg/sg12_79_cif.got.tgz:156621.got - 2010.06.28 00:19:55.
