data_PCOD8096135
_publ_section_title
;
Structure prediction by ZEFSAII (Michael W. Deem and Ramdas Pophale) SiO2 
 PCOD8096135
Probable space group: C 2/M
;
_chemical_formula_sum "Si O2"
_cell_formula_units_Z 56
_cell_length_a 15.137162
_cell_length_b 16.942957
_cell_length_c 14.163102
_cell_angle_alpha 90.000000
_cell_angle_beta 57.697434
_cell_angle_gamma 90.000000
_cell_volume 3070.230724
_symmetry_space_group_name_H-M "C 2/M"
_symmetry_group_IT_number 12
_symmetry_cell_setting 'monoclinic'
loop_
_space_group_symop_operation_xyz
x,y,z
-x,y,-z
-x,-y,-z
x,-y,z
1/2+x,1/2+y,z
1/2-x,1/2+y,-z
1/2-x,1/2-y,-z
1/2+x,1/2-y,z
loop_
_atom_site_type_symbol
_atom_site_label
_atom_site_fract_x
_atom_site_fract_y
_atom_site_fract_z
Si Si1 0.767140 0.801339 0.298894
Si Si2 0.654491 0.733740 0.191013
Si Si3 0.479526 0.912544 0.907233
Si Si4 0.113245 0.912545 0.907230
Si Si5 0.254979 0.870197 0.990043
Si Si6 0.566038 0.198660 0.701104
Si Si7 0.395200 0.908711 0.500002
O O1 0.700274 0.742569 0.270540
O O2 0.847432 0.850400 0.190755
O O3 0.830122 0.749999 0.339750
O O4 0.694729 0.864547 0.391758
O O5 0.703589 0.796689 0.092817
O O6 0.529181 0.742568 0.270537
O O7 0.688594 0.651295 0.122812
O O8 0.355653 0.920159 0.961620
O O9 0.538191 0.850408 0.809236
O O10 0.527376 0.000000 0.865019
O O11 0.500000 0.880736 0.000000
O O12 0.182730 0.920159 0.961619
O O13 0.107624 0.000000 0.865004
O O14 0.000000 0.880747 0.000000
O O15 0.586493 0.135458 0.608232
O O16 0.500000 0.905521 0.500000
O O17 0.363021 0.000000 0.499999
#
# Coordination Sequence:
#
# PCOD8096135 Si02
#       7
#     8   8   8   8   8   8   8
#     4  11  21  36  57  82 113 147 188 241 291 339
#     4   9  18  31  49  78 107 139 187 221 279 329
#     4  10  20  33  51  79 112 149 190 229 280 341
#     4  10  20  33  51  79 112 149 190 229 280 341
#     4   9  17  30  48  72 107 147 180 226 270 325
#     4  11  21  36  57  82 113 147 188 241 291 339
#     4  11  23  40  60  83 113 147 191 243 295 344
#
# _framework density 18.239671999999999
#
# number of rings (size 3 to 8) (size 9 to 14) (size 15 to 20)
#    0.000    1.857    1.429    3.429    0.000    2.857 
#    0.000    0.000    0.000    0.000    0.000    1.000 
#    0.000    0.000    0.000    0.000    0.000    0.000 
#
# Total GULP energy -347149.748371 kJ/mol
# GULP energy per Si atom -12398.205299 kJ/mol
# Density = 1.819816 g / cm^3
# Si number density = 18.239672 Si / 1000 Ang^3
#
#
#
# Elastic Constant Matrix: (Units=GPa)
#
#
# Indices 1 2 3 4 5 6 
#
# 1 107.8288 25.7433 38.0164 0.0000 1.0434 0.0000
# 2 25.7433 77.2252 38.4025 0.0000 -0.8563 0.0000
# 3 38.0164 38.4025 82.7094 0.0000 0.6601 0.0000
# 4 0.0000 0.0000 0.0000 39.5014 0.0000 -0.2805
# 5 1.0434 -0.8563 0.6601 0.0000 27.2278 0.0000
# 6 0.0000 0.0000 0.0000 -0.2805 0.0000 35.3817
#
#
#
# Elastic Compliance Matrix: (Units=1/GPa)
#
#
# Indices 1 2 3 4 5 6 
#
# 1 0.011208 -0.001534 -0.004436 0.000000 -0.000370 0.000000
# 2 -0.001534 0.017061 -0.007222 0.000000 0.000770 0.000000
# 3 -0.004436 -0.007222 0.017487 0.000000 -0.000481 0.000000
# 4 0.000000 0.000000 0.000000 0.025317 0.000000 0.000201
# 5 -0.000370 0.000770 -0.000481 0.000000 0.036777 0.000000
# 6 0.000000 0.000000 0.000000 0.000201 0.000000 0.028265
#
#
# Mechanical properties :
#
#
# Convention : Reuss Voigt Hill
#
# Bulk Modulus (GPa) = 51.62701 52.45419 52.04060
# Shear Modulus (GPa) = 29.59342 31.46227 30.52784
#
# Velocity S-wave (km/s) = 4.03237 4.15774 4.09553
# Velocity P-wave (km/s) = 7.07433 7.20207 7.13849
#
# Compressibility (1/GPa) = 0.01936971
#
# Stress axis : x y z
#
# Youngs Moduli (GPa) = 89.22283 58.61450 57.18599
#
# Poissons Ratio (x) = 0.08993 0.25369
# Poissons Ratio (y) = 0.13689 0.41301
# Poissons Ratio (z) = 0.39582 0.42333
#
# Static dielectric constant tensor:
#      x y z
#    x 3.501300 0.000000 0.005130 
#    y 0.000000 3.254780 0.000000 
#    z 0.005130 0.000000 3.426290 
# 
# 
# High freq. dielectric constant tensor:
#      x y z
#    x 1.715020 0.000000 0.001150 
#    y 0.000000 1.698660 0.000000 
#    z 0.001150 0.000000 1.697970 
# 
# From -- ./inp_files/146034.got.cif
#   From: 2010.06.25/outbox.cif.g09.slc.cpg/sg12_74_cif.got.tgz:146034.got - 2010.06.28 00:19:55.
