data_PCOD8096302
_publ_section_title
;
Structure prediction by ZEFSAII (Michael W. Deem and Ramdas Pophale) SiO2 
 PCOD8096302
Probable space group: C 2/M
;
_chemical_formula_sum "Si O2"
_cell_formula_units_Z 48
_cell_length_a 23.458131
_cell_length_b 8.902146
_cell_length_c 17.223827
_cell_angle_alpha 90.000000
_cell_angle_beta 46.838120
_cell_angle_gamma 90.000000
_cell_volume 2623.600886
_symmetry_space_group_name_H-M "C 2/M"
_symmetry_group_IT_number 12
_symmetry_cell_setting 'monoclinic'
loop_
_space_group_symop_operation_xyz
x,y,z
-x,y,-z
-x,-y,-z
x,-y,z
1/2+x,1/2+y,z
1/2-x,1/2+y,-z
1/2-x,1/2-y,-z
1/2+x,1/2-y,z
loop_
_atom_site_type_symbol
_atom_site_label
_atom_site_fract_x
_atom_site_fract_y
_atom_site_fract_z
Si Si1 0.308314 0.322903 0.884336
Si Si2 0.631835 0.175988 0.622849
Si Si3 0.239646 0.827332 0.801936
Si Si4 0.956735 0.323564 0.813108
Si Si5 0.248389 0.676257 0.383108
Si Si6 0.438320 0.327746 0.992488
O O1 0.304575 0.500000 0.899123
O O2 0.283971 0.279421 0.820420
O O3 0.395648 0.266301 0.817640
O O4 0.250000 0.250000 0.000000
O O5 0.541728 0.224189 0.702423
O O6 0.672006 0.250828 0.659891
O O7 0.674487 0.228649 0.503794
O O8 0.639941 0.000000 0.627240
O O9 0.267170 0.775251 0.690909
O O10 0.262675 0.000000 0.797504
O O11 0.147135 0.805452 0.892767
O O12 0.941208 0.500000 0.818548
O O13 0.948573 0.281050 0.910387
O O14 0.261819 0.500000 0.375125
O O15 0.452066 0.500000 0.953600
O O16 0.500000 0.278431 0.000000
#
# Coordination Sequence:
#
# PCOD8096302 Si02
#       6
#     8   8   8   8   8   8
#     4  12  24  39  58  79 107 145 186 229 277 331
#     4   9  19  35  56  84 115 147 185 226 271 323
#     4  10  20  35  56  81 110 144 184 227 272 326
#     4  11  22  36  55  80 111 147 185 227 273 325
#     4   9  18  35  59  84 112 148 185 224 273 325
#     4  10  20  33  52  80 111 142 178 224 275 330
#
# _framework density 18.295466000000001
#
# number of rings (size 3 to 8) (size 9 to 14) (size 15 to 20)
#    0.000    1.833    1.667    3.000    0.000    3.667 
#    0.000    0.833    0.000    5.000    0.000    0.000 
#    0.000    0.000    0.000    0.000    0.000    0.000 
#
# Total GULP energy -297688.276682 kJ/mol
# GULP energy per Si atom -12403.678195 kJ/mol
# Density = 1.825382 g / cm^3
# Si number density = 18.295466 Si / 1000 Ang^3
#
#
#
# Elastic Constant Matrix: (Units=GPa)
#
#
# Indices 1 2 3 4 5 6 
#
# 1 116.7238 34.0686 46.5481 -0.0031 -0.3718 -0.0025
# 2 34.0686 64.2732 31.8489 0.0042 -2.8235 -0.0024
# 3 46.5481 31.8489 93.2175 0.0000 2.1556 -0.0029
# 4 -0.0031 0.0042 0.0000 20.9766 -0.0004 2.9058
# 5 -0.3718 -2.8235 2.1556 -0.0004 30.3653 -0.0002
# 6 -0.0025 -0.0024 -0.0029 2.9058 -0.0002 35.2161
#
#
#
# Elastic Compliance Matrix: (Units=1/GPa)
#
#
# Indices 1 2 3 4 5 6 
#
# 1 0.011455 -0.003891 -0.004393 0.000002 0.000090 0.000000
# 2 -0.003891 0.020199 -0.005009 -0.000005 0.002186 0.000001
# 3 -0.004393 -0.005009 0.014668 0.000000 -0.001561 0.000000
# 4 0.000002 -0.000005 0.000000 0.048223 0.000000 -0.003979
# 5 0.000090 0.002186 -0.001561 0.000000 0.033247 0.000000
# 6 0.000000 0.000001 0.000000 -0.003979 0.000000 0.028724
#
#
# Mechanical properties :
#
#
# Convention : Reuss Voigt Hill
#
# Bulk Modulus (GPa) = 50.66535 55.46066 53.06301
# Shear Modulus (GPa) = 26.35987 28.09486 27.22736
#
# Velocity S-wave (km/s) = 3.79989 3.92295 3.86191
# Velocity P-wave (km/s) = 6.85603 7.13436 6.99658
#
# Compressibility (1/GPa) = 0.01973736
#
# Stress axis : x y z
#
# Youngs Moduli (GPa) = 87.29807 49.50702 68.17337
#
# Poissons Ratio (x) = 0.19264 0.29946
# Poissons Ratio (y) = 0.33969 0.34147
# Poissons Ratio (z) = 0.38347 0.24797
#
# Static dielectric constant tensor:
#      x y z
#    x 3.473630 0.000000 -0.009020 
#    y 0.000000 3.350430 0.000020 
#    z -0.009020 0.000020 3.660790 
# 
# 
# High freq. dielectric constant tensor:
#      x y z
#    x 1.711820 0.000000 -0.001120 
#    y 0.000000 1.707290 0.000000 
#    z -0.001120 0.000000 1.710210 
# 
# From -- ./inp_files/280805.got.cif
#   From: 2010.06.25/outbox.cif.g09.slc.cpg/sg12_141_cif.got.tgz:280805.got - 2010.06.28 00:19:55.
