data_PCOD8096452
_publ_section_title
;
Structure prediction by ZEFSAII (Michael W. Deem and Ramdas Pophale) SiO2 
 PCOD8096452
Probable space group: C 2/M
;
_chemical_formula_sum "Si O2"
_cell_formula_units_Z 48
_cell_length_a 14.697839
_cell_length_b 14.158176
_cell_length_c 11.693062
_cell_angle_alpha 90.000000
_cell_angle_beta 100.063802
_cell_angle_gamma 90.000000
_cell_volume 2395.824229
_symmetry_space_group_name_H-M "C 2/M"
_symmetry_group_IT_number 12
_symmetry_cell_setting 'monoclinic'
loop_
_space_group_symop_operation_xyz
x,y,z
-x,y,-z
-x,-y,-z
x,-y,z
1/2+x,1/2+y,z
1/2-x,1/2+y,-z
1/2-x,1/2-y,-z
1/2+x,1/2-y,z
loop_
_atom_site_type_symbol
_atom_site_label
_atom_site_fract_x
_atom_site_fract_y
_atom_site_fract_z
Si Si1 0.617488 0.893424 0.226229
Si Si2 0.256961 0.107733 0.536904
Si Si3 0.652641 0.232920 0.031152
Si Si4 0.559967 0.397558 0.125193
Si Si5 0.108774 0.743621 0.555118
Si Si6 0.459197 0.752267 0.219687
O O1 0.707664 0.887935 0.325392
O O2 0.538591 0.828324 0.265281
O O3 0.579626 0.000000 0.210594
O O4 0.647461 0.861084 0.106115
O O5 0.161299 0.166896 0.509318
O O6 0.337137 0.149641 0.472212
O O7 0.237523 0.000000 0.494065
O O8 0.579306 0.220812 0.913573
O O9 0.750000 0.250000 0.000000
O O10 0.638808 0.322513 0.111608
O O11 0.600100 0.500000 0.172373
O O12 0.500771 0.353787 0.217212
O O13 0.500000 0.413144 0.000000
O O14 0.115492 0.747503 0.695130
O O15 0.000000 0.744314 0.500000
#
# Coordination Sequence:
#
# PCOD8096452 Si02
#       6
#     8   8   8   8   8   8
#     4  10  20  37  59  83 114 151 195 243 294 354
#     4  10  23  41  63  91 119 155 205 250 295 361
#     4  10  20  33  53  82 117 149 189 240 295 353
#     4   8  16  32  53  76 103 140 186 230 279 342
#     4  11  22  40  65  87 121 162 200 249 302 350
#     4  10  20  35  57  84 112 153 196 240 294 354
#
# _framework density 20.034859000000001
#
# number of rings (size 3 to 8) (size 9 to 14) (size 15 to 20)
#    0.000    2.167    1.667    2.500    0.000    4.000 
#    0.000    3.333    0.000    0.000    0.000    0.000 
#    0.000    0.000    0.000    0.000    0.000    0.000 
#
# Total GULP energy -297483.519161 kJ/mol
# GULP energy per Si atom -12395.146632 kJ/mol
# Density = 1.998926 g / cm^3
# Si number density = 20.034859 Si / 1000 Ang^3
#
#
#
# Elastic Constant Matrix: (Units=GPa)
#
#
# Indices 1 2 3 4 5 6 
#
# 1 94.4874 38.7823 18.3326 0.0000 -20.7775 0.0000
# 2 38.7823 150.1972 31.6039 0.0000 -12.7368 0.0000
# 3 18.3326 31.6039 85.6645 0.0000 -26.1247 0.0000
# 4 0.0000 0.0000 0.0000 7.4118 0.0000 -16.9052
# 5 -20.7775 -12.7368 -26.1247 0.0000 31.0960 0.0000
# 6 0.0000 0.0000 0.0000 -16.9052 0.0000 -4.8547
#
#
#
# Elastic Compliance Matrix: (Units=1/GPa)
#
#
# Indices 1 2 3 4 5 6 
#
# 1 0.013498 -0.002930 0.000776 0.000000 0.008471 0.000000
# 2 -0.002930 0.007876 -0.002544 0.000000 -0.000869 0.000000
# 3 0.000776 -0.002544 0.016518 0.000000 0.013354 0.000000
# 4 0.000000 0.000000 0.000000 0.015088 0.000000 -0.052538
# 5 0.008471 -0.000869 0.013354 0.000000 0.048681 0.000000
# 6 0.000000 0.000000 0.000000 -0.052538 0.000000 -0.023035
#
#
# Mechanical properties :
#
#
# Convention : Reuss Voigt Hill
#
# Bulk Modulus (GPa) = 35.09234 56.42074 45.75654
# Shear Modulus (GPa) = 51.27025 22.83932 37.05479
#
# Velocity S-wave (km/s) = 5.06420 3.38002 4.30527
# Velocity P-wave (km/s) = 7.19364 6.59205 6.89941
#
# Compressibility (1/GPa) = 0.02849625
#
# Stress axis : x y z
#
# Youngs Moduli (GPa) = 74.08322 126.96696 60.53872
#
# Poissons Ratio (x) = 0.37205 -0.04695
# Poissons Ratio (y) = 0.21708 0.15398
# Poissons Ratio (z) = -0.05746 0.32295
#
# Static dielectric constant tensor:
#      x y z
#    x 3.207510 0.000000 -0.691220 
#    y 0.000000 3.800950 0.000000 
#    z -0.691220 0.000000 2.895220 
# 
# 
# High freq. dielectric constant tensor:
#      x y z
#    x 1.770960 0.000000 -0.009510 
#    y 0.000000 1.781200 0.000000 
#    z -0.009510 0.000000 1.782530 
# 
# From -- ./inp_files/142999.got.cif
#   From: 2010.06.25/outbox.cif.g09.slc.cpg/sg12_72_cif.got.tgz:142999.got - 2010.06.28 00:19:55.
