data_PCOD8096386
_publ_section_title
;
Structure prediction by ZEFSAII (Michael W. Deem and Ramdas Pophale) SiO2 
 PCOD8096386
Probable space group: C 2/M
;
_chemical_formula_sum "Si O2"
_cell_formula_units_Z 64
_cell_length_a 20.318864
_cell_length_b 8.669707
_cell_length_c 20.194290
_cell_angle_alpha 90.000000
_cell_angle_beta 96.482083
_cell_angle_gamma 90.000000
_cell_volume 3534.656095
_symmetry_space_group_name_H-M "C 2/M"
_symmetry_group_IT_number 12
_symmetry_cell_setting 'monoclinic'
loop_
_space_group_symop_operation_xyz
x,y,z
-x,y,-z
-x,-y,-z
x,-y,z
1/2+x,1/2+y,z
1/2-x,1/2+y,-z
1/2-x,1/2-y,-z
1/2+x,1/2-y,z
loop_
_atom_site_type_symbol
_atom_site_label
_atom_site_fract_x
_atom_site_fract_y
_atom_site_fract_z
Si Si1 0.925985 0.677944 0.299744
Si Si2 0.901591 0.820161 0.167215
Si Si3 0.558704 0.182572 0.553341
Si Si4 0.801418 0.319955 0.955060
Si Si5 0.258380 0.818070 0.175972
Si Si6 0.298684 0.676487 0.453240
Si Si7 0.439701 0.179275 0.038198
Si Si8 0.288484 0.677317 0.305581
O O1 0.940375 0.500000 0.286055
O O2 0.946531 0.776292 0.237052
O O3 0.960518 0.729935 0.372928
O O4 0.848574 0.704734 0.302985
O O5 0.832086 0.729189 0.160712
O O6 0.941761 0.774423 0.106465
O O7 0.886140 0.000000 0.165490
O O8 0.500000 0.245659 0.500000
O O9 0.628387 0.251019 0.537523
O O10 0.565777 0.000000 0.548810
O O11 0.786992 0.500000 0.945145
O O12 0.794757 0.236453 0.883864
O O13 0.750000 0.250000 0.000000
O O14 0.874090 0.285322 0.989670
O O15 0.237422 0.733308 0.242928
O O16 0.254521 0.000000 0.184175
O O17 0.308144 0.500000 0.473152
O O18 0.250000 0.750000 0.500000
O O19 0.262509 0.695715 0.377549
O O20 0.446117 0.000000 0.057115
O O21 0.500000 0.236545 0.000000
O O22 0.310375 0.500000 0.295230
#
# Coordination Sequence:
#
# PCOD8096386 Si02
#       8
#     8   8   8   8   8   8   8   8
#     4   9  16  28  49  75 103 134 171 214 258 307
#     4  11  20  31  51  77 105 135 171 216 259 307
#     4   9  18  33  54  80 108 138 176 219 263 311
#     4  11  21  34  55  81 107 134 170 215 260 307
#     4  11  20  31  51  78 107 136 170 216 262 307
#     4  10  20  33  53  79 108 142 178 218 263 316
#     4  10  22  39  57  76 102 137 175 211 254 313
#     4   9  17  30  48  74 104 134 173 216 260 307
#
# _framework density 18.10643
#
# number of rings (size 3 to 8) (size 9 to 14) (size 15 to 20)
#    0.000    2.000    1.250    5.250    0.000    3.000 
#    0.000    0.000    2.750    0.000    0.000    0.000 
#    0.000    0.000    0.000    0.000    0.000    0.000 
#
# Total GULP energy -396638.503925 kJ/mol
# GULP energy per Si atom -12394.953248 kJ/mol
# Density = 1.806522 g / cm^3
# Si number density = 18.106430 Si / 1000 Ang^3
#
#
#
# Elastic Constant Matrix: (Units=GPa)
#
#
# Indices 1 2 3 4 5 6 
#
# 1 72.2276 35.2161 57.6818 0.0000 -3.6500 0.0000
# 2 35.2161 81.9922 58.5942 0.0000 -0.3175 0.0000
# 3 57.6818 58.5942 173.1549 0.0000 3.8379 0.0000
# 4 0.0000 0.0000 0.0000 32.3241 0.0000 -0.8009
# 5 -3.6500 -0.3175 3.8379 0.0000 26.2106 0.0000
# 6 0.0000 0.0000 0.0000 -0.8009 0.0000 19.1373
#
#
#
# Elastic Compliance Matrix: (Units=1/GPa)
#
#
# Indices 1 2 3 4 5 6 
#
# 1 0.020719 -0.005138 -0.005243 0.000000 0.003591 0.000000
# 2 -0.005138 0.017387 -0.004174 0.000000 0.000106 0.000000
# 3 -0.005243 -0.004174 0.008981 0.000000 -0.002096 0.000000
# 4 0.000000 0.000000 0.000000 0.030969 0.000000 0.001296
# 5 0.003591 0.000106 -0.002096 0.000000 0.038961 0.000000
# 6 0.000000 0.000000 0.000000 0.001296 0.000000 0.052308
#
#
# Mechanical properties :
#
#
# Convention : Reuss Voigt Hill
#
# Bulk Modulus (GPa) = 55.63092 70.03987 62.83540
# Shear Modulus (GPa) = 24.45875 27.25991 25.85933
#
# Velocity S-wave (km/s) = 3.67935 3.88434 3.78323
# Velocity P-wave (km/s) = 6.98866 7.67357 7.33911
#
# Compressibility (1/GPa) = 0.01797562
#
# Stress axis : x y z
#
# Youngs Moduli (GPa) = 48.26548 57.51552 111.35116
#
# Poissons Ratio (x) = 0.29553 0.58378
# Poissons Ratio (y) = 0.24800 0.46480
# Poissons Ratio (z) = 0.25304 0.24008
#
# Static dielectric constant tensor:
#      x y z
#    x 2.891310 0.000000 0.187410 
#    y 0.000000 3.388490 0.000000 
#    z 0.187410 0.000000 3.941510 
# 
# 
# High freq. dielectric constant tensor:
#      x y z
#    x 1.643900 0.000000 0.008930 
#    y 0.000000 1.712290 0.000000 
#    z 0.008930 0.000000 1.727790 
# 
# From -- ./inp_files/314110.got.cif
#   From: 2010.06.25/outbox.cif.g09.slc.cpg/sg12_158_cif.got.tgz:314110.got - 2010.06.28 00:19:55.
