data_PCOD8096080
_publ_section_title
;
Structure prediction by ZEFSAII (Michael W. Deem and Ramdas Pophale) SiO2 
 PCOD8096080
Probable space group: C 2/M
;
_chemical_formula_sum "Si O2"
_cell_formula_units_Z 56
_cell_length_a 20.588760
_cell_length_b 9.356128
_cell_length_c 17.673622
_cell_angle_alpha 90.000000
_cell_angle_beta 63.789498
_cell_angle_gamma 90.000000
_cell_volume 3054.430496
_symmetry_space_group_name_H-M "C 2/M"
_symmetry_group_IT_number 12
_symmetry_cell_setting 'monoclinic'
loop_
_space_group_symop_operation_xyz
x,y,z
-x,y,-z
-x,-y,-z
x,-y,z
1/2+x,1/2+y,z
1/2-x,1/2+y,-z
1/2-x,1/2-y,-z
1/2+x,1/2-y,z
loop_
_atom_site_type_symbol
_atom_site_label
_atom_site_fract_x
_atom_site_fract_y
_atom_site_fract_z
Si Si1 0.609408 0.334642 0.229721
Si Si2 0.353680 0.330498 0.244308
Si Si3 0.574781 0.166931 0.500309
Si Si4 0.310004 0.167626 0.685156
Si Si5 0.444683 0.669339 0.340076
Si Si6 0.823935 0.166047 0.965289
Si Si7 0.580199 0.670367 0.945159
O O1 0.618521 0.500000 0.246361
O O2 0.663875 0.245188 0.252876
O O3 0.527489 0.283478 0.285581
O O4 0.627756 0.305588 0.133260
O O5 0.358334 0.500000 0.240011
O O6 0.270689 0.279702 0.292925
O O7 0.398060 0.272897 0.293385
O O8 0.389251 0.268248 0.149529
O O9 0.500000 0.214145 0.500000
O O10 0.639788 0.208168 0.411198
O O11 0.587447 0.256049 0.569459
O O12 0.573917 0.000000 0.520968
O O13 0.312564 0.000000 0.701130
O O14 0.437354 0.500000 0.353089
O O15 0.805344 0.000000 0.984071
O O16 0.750000 0.250000 0.000000
O O17 0.868632 0.224543 0.013752
O O18 0.577993 0.500000 0.945185
O O19 0.500000 0.732123 0.000000
#
# Coordination Sequence:
#
# PCOD8096080 Si02
#       7
#     8   8   8   8   8   8   8
#     4  10  20  33  51  77 106 133 168 215 260 300
#     4   9  18  32  50  75 102 132 170 210 252 300
#     4  10  20  35  53  76 104 135 172 210 250 304
#     4  10  20  35  55  75 102 138 174 210 252 306
#     4  10  20  34  54  78 104 132 168 214 260 303
#     4  10  20  33  51  77 105 135 171 212 256 301
#     4   9  16  29  51  75 101 133 170 209 250 299
#
# _framework density 18.334022999999998
#
# number of rings (size 3 to 8) (size 9 to 14) (size 15 to 20)
#    0.000    2.286    1.429    1.714    0.000    6.571 
#    0.000    0.714    0.000    1.286    0.000    0.000 
#    0.000    0.000    0.000    0.000    0.000    0.000 
#
# Total GULP energy -347280.951875 kJ/mol
# GULP energy per Si atom -12402.891138 kJ/mol
# Density = 1.829229 g / cm^3
# Si number density = 18.334023 Si / 1000 Ang^3
#
#
#
# Elastic Constant Matrix: (Units=GPa)
#
#
# Indices 1 2 3 4 5 6 
#
# 1 150.5446 27.5437 70.0058 0.0000 6.3120 0.0000
# 2 27.5437 25.2506 30.6845 0.0000 6.0577 -0.0001
# 3 70.0058 30.6845 137.5139 0.0000 8.1435 0.0000
# 4 0.0000 0.0000 0.0000 17.1079 0.0000 4.9134
# 5 6.3120 6.0577 8.1435 0.0000 41.2805 0.0000
# 6 0.0000 -0.0001 0.0000 4.9134 0.0000 19.9466
#
#
#
# Elastic Compliance Matrix: (Units=1/GPa)
#
#
# Indices 1 2 3 4 5 6 
#
# 1 0.009331 -0.006076 -0.003402 0.000000 0.000136 0.000000
# 2 -0.006076 0.059627 -0.009864 0.000000 -0.005875 0.000000
# 3 -0.003402 -0.009864 0.011220 0.000000 -0.000246 0.000000
# 4 0.000000 0.000000 0.000000 0.062903 0.000000 -0.015495
# 5 0.000136 -0.005875 -0.000246 0.000000 0.025114 0.000000
# 6 0.000000 0.000000 0.000000 -0.015495 0.000000 0.053951
#
#
# Mechanical properties :
#
#
# Convention : Reuss Voigt Hill
#
# Bulk Modulus (GPa) = 24.10065 63.30856 43.70461
# Shear Modulus (GPa) = 18.20428 28.00533 23.10481
#
# Velocity S-wave (km/s) = 3.15449 3.91257 3.55380
# Velocity P-wave (km/s) = 5.14214 7.41732 6.38193
#
# Compressibility (1/GPa) = 0.04149265
#
# Stress axis : x y z
#
# Youngs Moduli (GPa) = 107.17336 16.77089 89.12991
#
# Poissons Ratio (x) = 0.10190 0.30325
# Poissons Ratio (y) = 0.65121 0.87916
# Poissons Ratio (z) = 0.36464 0.16543
#
# Static dielectric constant tensor:
#      x y z
#    x 3.137120 -0.000010 0.818690 
#    y -0.000010 3.036780 0.000010 
#    z 0.818690 0.000010 1.891140 
# 
# 
# High freq. dielectric constant tensor:
#      x y z
#    x 1.722490 0.000000 -0.001390 
#    y 0.000000 1.669530 0.000000 
#    z -0.001390 0.000000 1.727460 
# 
# From -- ./inp_files/223177.got.cif
#   From: 2010.06.25/outbox.cif.g09.slc.cpg/sg12_112_cif.got.tgz:223177.got - 2010.06.28 00:19:55.
