data_PCOD8096619
_publ_section_title
;
Structure prediction by ZEFSAII (Michael W. Deem and Ramdas Pophale) SiO2 
 PCOD8096619
Probable space group: C 2/M
;
_chemical_formula_sum "Si O2"
_cell_formula_units_Z 48
_cell_length_a 10.204748
_cell_length_b 27.307850
_cell_length_c 7.605619
_cell_angle_alpha 90.000000
_cell_angle_beta 84.942585
_cell_angle_gamma 90.000000
_cell_volume 2111.204439
_symmetry_space_group_name_H-M "C 2/M"
_symmetry_group_IT_number 12
_symmetry_cell_setting 'monoclinic'
loop_
_space_group_symop_operation_xyz
x,y,z
-x,y,-z
-x,-y,-z
x,-y,z
1/2+x,1/2+y,z
1/2-x,1/2+y,-z
1/2-x,1/2-y,-z
1/2+x,1/2-y,z
loop_
_atom_site_type_symbol
_atom_site_label
_atom_site_fract_x
_atom_site_fract_y
_atom_site_fract_z
Si Si1 0.228260 0.698218 0.191991
Si Si2 0.114705 0.153758 0.112084
Si Si3 0.998277 0.765661 0.303229
Si Si4 0.400519 0.944529 0.306961
Si Si5 0.821649 0.595961 0.664935
Si Si6 0.792341 0.054575 0.977197
O O1 0.093945 0.728838 0.184158
O O2 0.349556 0.732310 0.245017
O O3 0.212774 0.653412 0.331442
O O4 0.252123 0.674235 0.995111
O O5 0.074651 0.181084 0.297003
O O6 0.111171 0.094615 0.124459
O O7 0.000000 0.173167 0.000000
O O8 0.000000 0.745668 0.500000
O O9 0.527225 0.910274 0.296207
O O10 0.299194 0.925277 0.470395
O O11 0.341168 0.941943 0.119412
O O12 0.441789 0.000000 0.347076
O O13 0.731692 0.566697 0.815726
O O14 0.853743 0.000000 0.953819
#
# Coordination Sequence:
#
# PCOD8096619 Si02
#       6
#     8   8   8   8   8   8
#     4  10  23  40  60  89 117 164 199 253 305 372
#     4   9  21  41  59  84 119 160 202 251 307 361
#     4  11  23  39  63  86 121 155 206 253 306 362
#     4  10  20  33  56  86 124 161 199 253 303 359
#     4  10  20  35  57  84 123 155 201 249 306 359
#     4  10  20  35  59  87 118 159 206 246 304 367
#
# _framework density 22.735835999999999
#
# number of rings (size 3 to 8) (size 9 to 14) (size 15 to 20)
#    0.000    2.000    0.000    3.500    4.667    3.000 
#    0.000    5.000    0.000    0.500    0.000    0.000 
#    0.000    0.000    0.000    0.000    0.000    0.000 
#
# Total GULP energy -297365.909008 kJ/mol
# GULP energy per Si atom -12390.246209 kJ/mol
# Density = 2.268409 g / cm^3
# Si number density = 22.735836 Si / 1000 Ang^3
#
#
#
# Elastic Constant Matrix: (Units=GPa)
#
#
# Indices 1 2 3 4 5 6 
#
# 1 78.0534 41.2980 7.7434 0.0000 -9.0842 0.0000
# 2 41.2980 126.8754 15.3871 0.0000 -12.8668 0.0000
# 3 7.7434 15.3871 44.9516 0.0000 -8.5448 0.0000
# 4 0.0000 0.0000 0.0000 18.0937 0.0000 1.1930
# 5 -9.0842 -12.8668 -8.5448 0.0000 23.1412 0.0000
# 6 0.0000 0.0000 0.0000 1.1930 0.0000 31.5245
#
#
#
# Elastic Compliance Matrix: (Units=1/GPa)
#
#
# Indices 1 2 3 4 5 6 
#
# 1 0.015753 -0.004729 -0.000451 0.000000 0.003388 0.000000
# 2 -0.004729 0.009966 -0.002039 0.000000 0.002932 0.000000
# 3 -0.000451 -0.002039 0.024492 0.000000 0.007733 0.000000
# 4 0.000000 0.000000 0.000000 0.055406 0.000000 -0.002097
# 5 0.003388 0.002932 0.007733 0.000000 0.049028 0.000000
# 6 0.000000 0.000000 0.000000 -0.002097 0.000000 0.031801
#
#
# Mechanical properties :
#
#
# Convention : Reuss Voigt Hill
#
# Bulk Modulus (GPa) = 27.95510 42.08191 35.01851
# Shear Modulus (GPa) = 23.49529 26.91533 25.20531
#
# Velocity S-wave (km/s) = 3.21815 3.44441 3.33320
# Velocity P-wave (km/s) = 5.11184 5.86241 5.49995
#
# Compressibility (1/GPa) = 0.03577165
#
# Stress axis : x y z
#
# Youngs Moduli (GPa) = 63.47966 100.34324 40.83001
#
# Poissons Ratio (x) = 0.47456 0.01840
# Poissons Ratio (y) = 0.30022 0.08327
# Poissons Ratio (z) = 0.02861 0.20464
#
# Static dielectric constant tensor:
#      x y z
#    x 3.820030 0.000000 -0.264670 
#    y 0.000000 4.223410 0.000000 
#    z -0.264670 0.000000 4.224240 
# 
# 
# High freq. dielectric constant tensor:
#      x y z
#    x 1.871150 0.000000 -0.013230 
#    y 0.000000 1.905210 0.000000 
#    z -0.013230 0.000000 1.888760 
# 
# From -- ./inp_files/50598.got.cif
#   From: 2010.06.25/outbox.cif.g09.slc.cpg/sg12_26_cif.got.tgz:50598.got - 2010.06.28 00:19:55.
