data_PCOD8096521
_publ_section_title
;
Structure prediction by ZEFSAII (Michael W. Deem and Ramdas Pophale) SiO2 
 PCOD8096521
Probable space group: C 2/M
;
_chemical_formula_sum "Si O2"
_cell_formula_units_Z 32
_cell_length_a 5.069553
_cell_length_b 24.638786
_cell_length_c 13.697550
_cell_angle_alpha 90.000000
_cell_angle_beta 79.641907
_cell_angle_gamma 90.000000
_cell_volume 1683.045940
_symmetry_space_group_name_H-M "C 2/M"
_symmetry_group_IT_number 12
_symmetry_cell_setting 'monoclinic'
loop_
_space_group_symop_operation_xyz
x,y,z
-x,y,-z
-x,-y,-z
x,-y,z
1/2+x,1/2+y,z
1/2-x,1/2+y,-z
1/2-x,1/2-y,-z
1/2+x,1/2-y,z
loop_
_atom_site_type_symbol
_atom_site_label
_atom_site_fract_x
_atom_site_fract_y
_atom_site_fract_z
Si Si1 0.581307 0.106201 0.782260
Si Si2 0.031563 0.063099 0.886732
Si Si3 0.225812 0.714268 0.693798
Si Si4 0.224097 0.382259 0.563998
O O1 0.267487 0.096970 0.820651
O O2 0.638023 0.171172 0.783721
O O3 0.658186 0.084722 0.668174
O O4 0.752601 0.074328 0.850931
O O5 0.104474 0.000000 0.876211
O O6 0.000000 0.082252 0.000000
O O7 0.518422 0.736394 0.701259
O O8 0.239751 0.682116 0.589444
O O9 0.500000 0.403319 0.500000
O O10 0.000000 0.393865 0.500000
#
# Coordination Sequence:
#
# PCOD8096521 Si02
#       4
#     8   8   8   8
#     4  10  22  37  57  86 120 148 172 248 280 326
#     4  11  22  40  66  88 103 134 190 246 297 338
#     4  10  20  33  54  83 117 155 191 223 268 322
#     4  10  20  33  54  83 117 155 191 223 268 322
#
# _framework density 19.013145999999999
#
# number of rings (size 3 to 8) (size 9 to 14) (size 15 to 20)
#    1.500    0.250    0.000    6.000    0.000    5.000 
#    0.000    0.000    0.000   30.000    0.000    0.000 
#    0.000    0.000    0.000    0.000    0.000    0.000 
#
# Total GULP energy -198354.510447 kJ/mol
# GULP energy per Si atom -12397.156903 kJ/mol
# Density = 1.896987 g / cm^3
# Si number density = 19.013146 Si / 1000 Ang^3
#
#
#
# Elastic Constant Matrix: (Units=GPa)
#
#
# Indices 1 2 3 4 5 6 
#
# 1 97.2887 10.5853 30.8823 0.0000 -2.2471 0.0000
# 2 10.5853 15.1114 29.2969 0.0000 4.8143 0.0000
# 3 30.8823 29.2969 114.5366 0.0000 5.3048 0.0000
# 4 0.0000 0.0000 0.0000 41.6872 0.0000 2.9182
# 5 -2.2471 4.8143 5.3048 0.0000 31.8236 0.0000
# 6 0.0000 0.0000 0.0000 2.9182 0.0000 27.7749
#
#
#
# Elastic Compliance Matrix: (Units=1/GPa)
#
#
# Indices 1 2 3 4 5 6 
#
# 1 0.011466 -0.004892 -0.001927 0.000000 0.001871 0.000000
# 2 -0.004892 0.140227 -0.033812 0.000000 -0.015923 0.000000
# 3 -0.001927 -0.033812 0.017806 0.000000 0.002011 0.000000
# 4 0.000000 0.000000 0.000000 0.024166 0.000000 -0.002539
# 5 0.001871 -0.015923 0.002011 0.000000 0.033629 0.000000
# 6 0.000000 0.000000 0.000000 -0.002539 0.000000 0.036271
#
#
# Mechanical properties :
#
#
# Convention : Reuss Voigt Hill
#
# Bulk Modulus (GPa) = 11.33306 40.94064 26.13685
# Shear Modulus (GPa) = 13.36050 30.66861 22.01455
#
# Velocity S-wave (km/s) = 2.65372 4.02060 3.40643
# Velocity P-wave (km/s) = 3.91960 6.56759 5.40816
#
# Compressibility (1/GPa) = 0.08823744
#
# Stress axis : x y z
#
# Youngs Moduli (GPa) = 87.21588 7.13130 56.16140
#
# Poissons Ratio (x) = 0.03489 0.10821
# Poissons Ratio (y) = 0.42666 1.89891
# Poissons Ratio (z) = 0.16805 0.24112
#
# Static dielectric constant tensor:
#      x y z
#    x 3.147470 0.000000 -0.010170 
#    y 0.000000 3.174600 0.000000 
#    z -0.010170 0.000000 3.383350 
# 
# 
# High freq. dielectric constant tensor:
#      x y z
#    x 1.755500 0.000000 0.000240 
#    y 0.000000 1.713780 0.000000 
#    z 0.000240 0.000000 1.731750 
# 
# From -- ./inp_files/114826.got.cif
#   From: 2010.06.25/outbox.cif.g09.slc.cpg/sg12_58_cif.got.tgz:114826.got - 2010.06.28 00:19:55.
