data_PCOD8096008
_publ_section_title
;
Structure prediction by ZEFSAII (Michael W. Deem and Ramdas Pophale) SiO2 
 PCOD8096008
Probable space group: C 2/M
;
_chemical_formula_sum "Si O2"
_cell_formula_units_Z 64
_cell_length_a 30.048338
_cell_length_b 23.229959
_cell_length_c 9.354446
_cell_angle_alpha 90.000000
_cell_angle_beta 31.251433
_cell_angle_gamma 90.000000
_cell_volume 3387.524553
_symmetry_space_group_name_H-M "C 2/M"
_symmetry_group_IT_number 12
_symmetry_cell_setting 'monoclinic'
loop_
_space_group_symop_operation_xyz
x,y,z
-x,y,-z
-x,-y,-z
x,-y,z
1/2+x,1/2+y,z
1/2-x,1/2+y,-z
1/2-x,1/2-y,-z
1/2+x,1/2-y,z
loop_
_atom_site_type_symbol
_atom_site_label
_atom_site_fract_x
_atom_site_fract_y
_atom_site_fract_z
Si Si1 0.662904 0.249987 0.328618
Si Si2 0.688073 0.935711 0.078315
Si Si3 0.098124 0.678273 0.266554
Si Si4 0.844610 0.934909 0.433460
Si Si5 0.221257 0.241172 0.740432
Si Si6 0.824516 0.934561 0.925780
Si Si7 0.062843 0.868950 0.589950
Si Si8 0.137009 0.124180 0.904743
O O1 0.605214 0.202902 0.407989
O O2 0.689672 0.234638 0.416751
O O3 0.610119 0.308632 0.481298
O O4 0.750000 0.250000 0.000000
O O5 0.617101 0.889783 0.225714
O O6 0.732015 0.917879 0.109800
O O7 0.647101 0.000000 0.200036
O O8 0.760834 0.934572 0.759320
O O9 0.000000 0.687948 0.500000
O O10 0.160726 0.709080 0.977442
O O11 0.922749 0.908751 0.310685
O O12 0.824834 0.893826 0.352974
O O13 0.868608 0.000000 0.319586
O O14 0.250000 0.250000 0.500000
O O15 0.172018 0.181524 0.881040
O O16 0.831357 0.926622 0.076865
O O17 0.842919 0.000000 0.832809
O O18 0.900189 0.896637 0.654195
O O19 0.962874 0.864053 0.838794
#
# Coordination Sequence:
#
# PCOD8096008 Si02
#       8
#     8   8   8   8   8   8   8   8
#     4  10  20  36  56  75 104 144 181 218 266 323
#     4   9  19  38  58  76 103 138 177 217 262 320
#     4  11  21  36  58  84 110 137 177 226 277 322
#     4  10  21  36  53  73 104 146 181 210 254 316
#     4  11  22  37  57  78 106 143 183 220 264 324
#     4  10  20  33  51  75 104 139 175 211 255 312
#     4  11  21  34  50  73 106 138 173 216 263 310
#     4  12  22  32  50  78 106 132 173 222 265 308
#
# _framework density 18.892852000000001
#
# number of rings (size 3 to 8) (size 9 to 14) (size 15 to 20)
#    0.000    1.500    0.000    9.750    0.000    3.250 
#    0.000    1.875    0.000    0.000    0.000    0.000 
#    0.000   10.000    0.000    0.000    0.000    0.000 
#
# Total GULP energy -396612.541959 kJ/mol
# GULP energy per Si atom -12394.141936 kJ/mol
# Density = 1.884985 g / cm^3
# Si number density = 18.892852 Si / 1000 Ang^3
#
#
#
# Elastic Constant Matrix: (Units=GPa)
#
#
# Indices 1 2 3 4 5 6 
#
# 1 142.1350 48.3062 44.5948 0.0000 4.7868 0.0000
# 2 48.3062 110.8305 24.5503 0.0000 -10.1237 0.0000
# 3 44.5948 24.5503 43.6762 0.0000 -2.0111 0.0000
# 4 0.0000 0.0000 0.0000 10.1445 0.0000 7.9595
# 5 4.7868 -10.1237 -2.0111 0.0000 32.6177 0.0000
# 6 0.0000 0.0000 0.0000 7.9595 0.0000 32.0944
#
#
#
# Elastic Compliance Matrix: (Units=1/GPa)
#
#
# Indices 1 2 3 4 5 6 
#
# 1 0.011302 -0.003004 -0.009998 0.000000 -0.003207 0.000000
# 2 -0.003004 0.011376 -0.003153 0.000000 0.003777 0.000000
# 3 -0.009998 -0.003153 0.034999 0.000000 0.002647 0.000000
# 4 0.000000 0.000000 0.000000 0.122391 0.000000 -0.030353
# 5 -0.003207 0.003777 0.002647 0.000000 0.032464 0.000000
# 6 0.000000 0.000000 0.000000 -0.030353 0.000000 0.038686
#
#
# Mechanical properties :
#
#
# Convention : Reuss Voigt Hill
#
# Bulk Modulus (GPa) = 39.42470 59.06048 49.24259
# Shear Modulus (GPa) = 17.12433 26.91736 22.02085
#
# Velocity S-wave (km/s) = 3.01390 3.77866 3.41774
# Velocity P-wave (km/s) = 5.74668 7.09693 6.45719
#
# Compressibility (1/GPa) = 0.02536481
#
# Stress axis : x y z
#
# Youngs Moduli (GPa) = 88.48359 87.90756 28.57261
#
# Poissons Ratio (x) = 0.26408 0.28568
# Poissons Ratio (y) = 0.26581 0.09009
# Poissons Ratio (z) = 0.88469 0.27717
#
# Static dielectric constant tensor:
#      x y z
#    x 4.005340 0.000000 0.106110 
#    y 0.000000 3.663250 0.000000 
#    z 0.106110 0.000000 3.150730 
# 
# 
# High freq. dielectric constant tensor:
#      x y z
#    x 1.751890 0.000000 0.007850 
#    y 0.000000 1.745660 0.000000 
#    z 0.007850 0.000000 1.699700 
# 
# From -- ./inp_files/113630.got.cif
#   From: 2010.06.25/outbox.cif.g09.slc.cpg/sg12_57_cif.got.tgz:113630.got - 2010.06.28 00:19:55.
