data_PCOD8096313
_publ_section_title
;
Structure prediction by ZEFSAII (Michael W. Deem and Ramdas Pophale) SiO2 
 PCOD8096313
Probable space group: C 2/M
;
_chemical_formula_sum "Si O2"
_cell_formula_units_Z 56
_cell_length_a 30.268261
_cell_length_b 9.395803
_cell_length_c 13.353763
_cell_angle_alpha 90.000000
_cell_angle_beta 52.443715
_cell_angle_gamma 90.000000
_cell_volume 3010.675798
_symmetry_space_group_name_H-M "C 2/M"
_symmetry_group_IT_number 12
_symmetry_cell_setting 'monoclinic'
loop_
_space_group_symop_operation_xyz
x,y,z
-x,y,-z
-x,-y,-z
x,-y,z
1/2+x,1/2+y,z
1/2-x,1/2+y,-z
1/2-x,1/2-y,-z
1/2+x,1/2-y,z
loop_
_atom_site_type_symbol
_atom_site_label
_atom_site_fract_x
_atom_site_fract_y
_atom_site_fract_z
Si Si1 0.911316 0.661890 0.884160
Si Si2 0.779770 0.163229 0.584928
Si Si3 0.940560 0.343991 0.624049
Si Si4 0.439512 0.331633 0.041794
Si Si5 0.195268 0.338508 0.082645
Si Si6 0.674274 0.333179 0.692601
Si Si7 0.145193 0.163873 0.328716
O O1 0.926402 0.500000 0.893161
O O2 0.941747 0.707642 0.738711
O O3 0.844239 0.676611 0.960578
O O4 0.931237 0.764271 0.944622
O O5 0.723805 0.253309 0.683745
O O6 0.815040 0.208241 0.438096
O O7 0.822034 0.190699 0.615747
O O8 0.760887 0.000000 0.603831
O O9 0.908791 0.500000 0.667053
O O10 0.918008 0.220778 0.578195
O O11 0.000000 0.375276 0.500000
O O12 0.439179 0.500000 0.029087
O O13 0.387793 0.284552 0.186167
O O14 0.500000 0.281320 0.000000
O O15 0.213238 0.500000 0.075189
O O16 0.163654 0.276514 0.220558
O O17 0.250000 0.250000 0.000000
O O18 0.681481 0.500000 0.701791
O O19 0.149456 0.000000 0.288364
#
# Coordination Sequence:
#
# PCOD8096313 Si02
#       7
#     8   8   8   8   8   8   8
#     4   9  20  37  55  78 108 141 179 224 271 322
#     4   9  19  35  54  78 109 140 178 230 279 328
#     4   9  19  37  57  78 108 145 183 226 273 327
#     4  10  22  38  56  80 110 145 186 231 278 332
#     4  10  21  36  54  79 111 145 179 220 271 330
#     4   9  19  36  55  76 104 142 184 226 278 332
#     4  10  20  33  52  81 111 139 176 222 273 331
#
# _framework density 18.600474999999999
#
# number of rings (size 3 to 8) (size 9 to 14) (size 15 to 20)
#    0.000    2.571    0.000    1.714    2.000    6.286 
#    0.000    1.429    0.000    0.000    0.000    0.000 
#    0.000    0.000    0.000    0.000    0.000    0.000 
#
# Total GULP energy -346891.296352 kJ/mol
# GULP energy per Si atom -12388.974870 kJ/mol
# Density = 1.855814 g / cm^3
# Si number density = 18.600475 Si / 1000 Ang^3
#
#
#
# Elastic Constant Matrix: (Units=GPa)
#
#
# Indices 1 2 3 4 5 6 
#
# 1 115.1718 64.5913 66.4450 0.0000 1.3037 0.0000
# 2 64.5913 85.1135 41.5038 0.0000 4.5351 0.0000
# 3 66.4450 41.5038 83.7304 0.0000 -8.6208 0.0000
# 4 0.0000 0.0000 0.0000 25.1559 0.0000 1.8551
# 5 1.3037 4.5351 -8.6208 0.0000 29.5288 0.0000
# 6 0.0000 0.0000 0.0000 1.8551 0.0000 26.2273
#
#
#
# Elastic Compliance Matrix: (Units=1/GPa)
#
#
# Indices 1 2 3 4 5 6 
#
# 1 0.021559 -0.010164 -0.012380 0.000000 -0.003005 0.000000
# 2 -0.010164 0.020965 -0.002692 0.000000 -0.003557 0.000000
# 3 -0.012380 -0.002692 0.023919 0.000000 0.007943 0.000000
# 4 0.000000 0.000000 0.000000 0.039961 0.000000 -0.002826
# 5 -0.003005 -0.003557 0.007943 0.000000 0.036863 0.000000
# 6 0.000000 0.000000 0.000000 -0.002826 0.000000 0.038328
#
#
# Mechanical properties :
#
#
# Convention : Reuss Voigt Hill
#
# Bulk Modulus (GPa) = 62.61268 69.89954 66.25611
# Shear Modulus (GPa) = 21.06232 23.61409 22.33821
#
# Velocity S-wave (km/s) = 3.36870 3.56693 3.46923
# Velocity P-wave (km/s) = 6.99041 7.39087 7.19343
#
# Compressibility (1/GPa) = 0.01597121
#
# Stress axis : x y z
#
# Youngs Moduli (GPa) = 46.38439 47.69909 41.80705
#
# Poissons Ratio (x) = 0.48481 0.51755
# Poissons Ratio (y) = 0.47145 0.11256
# Poissons Ratio (z) = 0.57422 0.12842
#
# Static dielectric constant tensor:
#      x y z
#    x 3.339960 0.000000 0.040730 
#    y 0.000000 3.412710 0.000000 
#    z 0.040730 0.000000 3.404350 
# 
# 
# High freq. dielectric constant tensor:
#      x y z
#    x 1.720080 0.000000 -0.007110 
#    y 0.000000 1.726700 0.000000 
#    z -0.007110 0.000000 1.718430 
# 
# From -- ./inp_files/187203.got.cif
#   From: 2010.06.25/outbox.cif.g09.slc.cpg/sg12_94_cif.got.tgz:187203.got - 2010.06.28 00:19:55.
