data_PCOD8096336
_publ_section_title
;
Structure prediction by ZEFSAII (Michael W. Deem and Ramdas Pophale) SiO2 
 PCOD8096336
Probable space group: C 2/M
;
_chemical_formula_sum "Si O2"
_cell_formula_units_Z 56
_cell_length_a 18.440442
_cell_length_b 27.813926
_cell_length_c 7.245371
_cell_angle_alpha 90.000000
_cell_angle_beta 130.878776
_cell_angle_gamma 90.000000
_cell_volume 2809.772533
_symmetry_space_group_name_H-M "C 2/M"
_symmetry_group_IT_number 12
_symmetry_cell_setting 'monoclinic'
loop_
_space_group_symop_operation_xyz
x,y,z
-x,y,-z
-x,-y,-z
x,-y,z
1/2+x,1/2+y,z
1/2-x,1/2+y,-z
1/2-x,1/2-y,-z
1/2+x,1/2-y,z
loop_
_atom_site_type_symbol
_atom_site_label
_atom_site_fract_x
_atom_site_fract_y
_atom_site_fract_z
Si Si1 0.290640 0.881869 0.824563
Si Si2 0.603644 0.726667 0.743008
Si Si3 0.395916 0.385757 0.274125
Si Si4 0.907699 0.053449 0.948427
Si Si5 0.271939 0.230521 0.744727
Si Si6 0.111819 0.445377 0.719711
Si Si7 0.204009 0.552429 0.487591
O O1 0.181156 0.896056 0.693715
O O2 0.296751 0.825686 0.791567
O O3 0.331417 0.907621 0.711900
O O4 0.359757 0.901758 0.098901
O O5 0.500000 0.746148 0.500000
O O6 0.599690 0.670060 0.764042
O O7 0.678346 0.742741 0.709884
O O8 0.635761 0.745655 0.999661
O O9 0.500000 0.405964 0.500000
O O10 0.366967 0.413759 0.043166
O O11 0.819135 0.050502 0.661553
O O12 0.935176 0.000000 0.066930
O O13 0.000000 0.076705 0.000000
O O14 0.250000 0.250000 0.500000
O O15 0.138465 0.500000 0.833612
O O16 0.168578 0.433361 0.629411
O O17 0.000000 0.441906 0.500000
O O18 0.161824 0.500000 0.362946
#
# Coordination Sequence:
#
# PCOD8096336 Si02
#       7
#     8   8   8   8   8   8   8
#     4  11  22  37  62  87 116 156 197 245 304 361
#     4   9  21  42  61  84 118 155 202 249 300 364
#     4  10  20  36  57  85 115 157 196 235 290 356
#     4  10  20  33  52  85 123 155 188 234 288 345
#     4  10  23  39  61  90 118 155 198 256 311 360
#     4  10  22  41  62  85 116 157 203 250 299 353
#     4  10  21  36  57  85 118 153 191 241 292 351
#
# _framework density 19.930437999999999
#
# number of rings (size 3 to 8) (size 9 to 14) (size 15 to 20)
#    0.000    2.000    1.429    1.286    2.000    3.714 
#    0.000    3.571    0.000    0.000    0.000    0.000 
#    0.000    0.000    0.000    0.000    0.000    0.000 
#
# Total GULP energy -347000.029673 kJ/mol
# GULP energy per Si atom -12392.858203 kJ/mol
# Density = 1.988508 g / cm^3
# Si number density = 19.930438 Si / 1000 Ang^3
#
#
#
# Elastic Constant Matrix: (Units=GPa)
#
#
# Indices 1 2 3 4 5 6 
#
# 1 74.8466 35.7018 44.6656 0.0000 5.0375 0.0000
# 2 35.7018 89.9096 63.0457 0.0000 -14.4881 0.0000
# 3 44.6656 63.0457 131.1093 0.0000 -6.2672 0.0000
# 4 0.0000 0.0000 0.0000 20.2250 0.0000 21.8960
# 5 5.0375 -14.4881 -6.2672 0.0000 32.8277 0.0000
# 6 0.0000 0.0000 0.0000 21.8960 0.0000 -17.1892
#
#
#
# Elastic Compliance Matrix: (Units=1/GPa)
#
#
# Indices 1 2 3 4 5 6 
#
# 1 0.018870 -0.005692 -0.003986 0.000000 -0.006169 0.000000
# 2 -0.005692 0.019720 -0.007151 0.000000 0.008211 0.000000
# 3 -0.003986 -0.007151 0.012416 0.000000 -0.000174 0.000000
# 4 0.000000 0.000000 0.000000 0.020783 0.000000 0.026474
# 5 -0.006169 0.008211 -0.000174 0.000000 0.034999 0.000000
# 6 0.000000 0.000000 0.000000 0.026474 0.000000 -0.024453
#
#
# Mechanical properties :
#
#
# Convention : Reuss Voigt Hill
#
# Bulk Modulus (GPa) = 57.64649 64.74351 61.19500
# Shear Modulus (GPa) = 41.05947 17.33621 29.19784
#
# Velocity S-wave (km/s) = 4.54380 2.95250 3.83167
# Velocity P-wave (km/s) = 7.51763 6.64667 7.09553
#
# Compressibility (1/GPa) = 0.01734711
#
# Stress axis : x y z
#
# Youngs Moduli (GPa) = 52.99520 50.71015 80.54330
#
# Poissons Ratio (x) = 0.28862 0.32108
# Poissons Ratio (y) = 0.30162 0.57597
# Poissons Ratio (z) = 0.21126 0.36263
#
# Static dielectric constant tensor:
#      x y z
#    x 3.679460 0.000000 0.075840 
#    y 0.000000 3.617190 0.000000 
#    z 0.075840 0.000000 3.478820 
# 
# 
# High freq. dielectric constant tensor:
#      x y z
#    x 1.779470 0.000000 0.003010 
#    y 0.000000 1.774130 0.000000 
#    z 0.003010 0.000000 1.771280 
# 
# From -- ./inp_files/18380.got.cif
#   From: 2010.06.25/outbox.cif.g09.slc.cpg/sg12_10_cif.got.tgz:18380.got - 2010.06.28 00:19:55.
