data_PCOD8096782
_publ_section_title
;
Structure prediction by ZEFSAII (Michael W. Deem and Ramdas Pophale) SiO2 
 PCOD8096782
Probable space group: C 2/M
;
_chemical_formula_sum "Si O2"
_cell_formula_units_Z 64
_cell_length_a 28.574362
_cell_length_b 8.543500
_cell_length_c 32.675344
_cell_angle_alpha 90.000000
_cell_angle_beta 151.181367
_cell_angle_gamma 90.000000
_cell_volume 3845.159665
_symmetry_space_group_name_H-M "C 2/M"
_symmetry_group_IT_number 12
_symmetry_cell_setting 'monoclinic'
loop_
_space_group_symop_operation_xyz
x,y,z
-x,y,-z
-x,-y,-z
x,-y,z
1/2+x,1/2+y,z
1/2-x,1/2+y,-z
1/2-x,1/2-y,-z
1/2+x,1/2-y,z
loop_
_atom_site_type_symbol
_atom_site_label
_atom_site_fract_x
_atom_site_fract_y
_atom_site_fract_z
Si Si1 0.698432 0.181963 0.402660
Si Si2 0.729774 0.316335 0.340707
Si Si3 0.939886 0.817903 0.494053
Si Si4 0.452561 0.816910 0.346809
Si Si5 0.870502 0.812657 0.818017
Si Si6 0.444305 0.671518 0.999894
Si Si7 0.399517 0.318374 0.598138
Si Si8 0.233844 0.186721 0.181527
O O1 0.686020 0.227684 0.346137
O O2 0.619927 0.275438 0.369545
O O3 0.806569 0.228431 0.499608
O O4 0.679104 0.000000 0.394450
O O5 0.716032 0.500000 0.336662
O O6 0.842586 0.282854 0.420012
O O7 0.668678 0.251865 0.255349
O O8 0.000000 0.770873 0.500000
O O9 0.003353 0.781144 0.582314
O O10 0.911666 0.000000 0.472772
O O11 0.510445 0.781971 0.349511
O O12 0.342657 0.757937 0.255545
O O13 0.456448 0.000000 0.360539
O O14 0.797148 0.752566 0.797164
O O15 0.980347 0.744877 0.910658
O O16 0.873725 0.000000 0.821316
O O17 0.421173 0.500000 0.000223
O O18 0.500000 0.653985 0.000000
O O19 0.340814 0.756398 0.910520
O O20 0.424596 0.500000 0.613435
O O21 0.225093 0.000000 0.173592
#
# Coordination Sequence:
#
# PCOD8096782 Si02
#       8
#     8   8   8   8   8   8   8   8
#     4  10  20  34  51  68  90 118 153 193 235 278
#     4  11  20  30  47  70  95 122 155 192 232 275
#     4  11  23  35  44  59  90 131 167 193 223 265
#     4  11  20  30  47  70  95 122 155 192 232 275
#     4   8  14  24  40  65  95 125 156 189 225 267
#     4   7  10  20  38  60  90 123 152 187 228 265
#     4  10  20  34  51  68  90 118 153 193 235 278
#     4   8  14  24  40  65  95 125 156 189 225 267
#
# _framework density 16.644303000000001
#
# number of rings (size 3 to 8) (size 9 to 14) (size 15 to 20)
#    0.000    2.500    1.250    4.125    0.000    3.000 
#    0.000    0.000    0.000    0.000    0.000    4.375 
#    0.000   14.000    0.000    0.000    0.000    0.000 
#
# Total GULP energy -396613.287165 kJ/mol
# GULP energy per Si atom -12394.165224 kJ/mol
# Density = 1.660642 g / cm^3
# Si number density = 16.644303 Si / 1000 Ang^3
#
#
#
# Elastic Constant Matrix: (Units=GPa)
#
#
# Indices 1 2 3 4 5 6 
#
# 1 98.5185 11.0520 57.4200 -0.0006 -4.2246 0.0004
# 2 11.0520 21.8890 8.3035 -0.0022 -0.2242 0.0061
# 3 57.4200 8.3035 130.2253 -0.0002 5.7041 0.0005
# 4 -0.0006 -0.0022 -0.0002 5.4677 -0.0015 -5.0660
# 5 -4.2246 -0.2242 5.7041 -0.0015 13.1321 -0.0003
# 6 0.0004 0.0061 0.0005 -5.0660 -0.0003 21.9342
#
#
#
# Elastic Compliance Matrix: (Units=1/GPa)
#
#
# Indices 1 2 3 4 5 6 
#
# 1 0.014854 -0.004932 -0.006566 0.000004 0.007546 0.000002
# 2 -0.004932 0.048514 -0.000903 0.000009 -0.000366 -0.000011
# 3 -0.006566 -0.000903 0.010933 -0.000003 -0.006876 -0.000001
# 4 0.000004 0.000009 -0.000003 0.232686 0.000031 0.053742
# 5 0.007546 -0.000366 -0.006876 0.000031 0.081557 0.000008
# 6 0.000002 -0.000011 -0.000001 0.053742 0.000008 0.058003
#
#
# Mechanical properties :
#
#
# Convention : Reuss Voigt Hill
#
# Bulk Modulus (GPa) = 20.20201 44.90929 32.55565
# Shear Modulus (GPa) = 10.24910 19.69729 14.97320
#
# Velocity S-wave (km/s) = 2.48417 3.44383 3.00259
# Velocity P-wave (km/s) = 4.51575 6.54627 5.62341
#
# Compressibility (1/GPa) = 0.04950003
#
# Stress axis : x y z
#
# Youngs Moduli (GPa) = 67.32246 20.61267 91.46879
#
# Poissons Ratio (x) = 0.10166 0.60054
# Poissons Ratio (y) = 0.33203 0.08257
# Poissons Ratio (z) = 0.44201 0.01861
#
# Static dielectric constant tensor:
#      x y z
#    x 3.075040 -0.000010 0.053320 
#    y -0.000010 2.842540 0.000000 
#    z 0.053320 0.000000 3.487540 
# 
# 
# High freq. dielectric constant tensor:
#      x y z
#    x 1.622690 0.000000 0.001290 
#    y 0.000000 1.617840 0.000000 
#    z 0.001290 0.000000 1.635300 
# 
# From -- ./inp_files/384623.got.cif
#   From: 2010.06.25/outbox.cif.g09.slc.cpg/sg12_193_cif.got.tgz:384623.got - 2010.06.28 00:19:55.
