data_PCOD8096193
_publ_section_title
;
Structure prediction by ZEFSAII (Michael W. Deem and Ramdas Pophale) SiO2 
 PCOD8096193
Probable space group: C 2/M
;
_chemical_formula_sum "Si O2"
_cell_formula_units_Z 56
_cell_length_a 19.746080
_cell_length_b 8.957847
_cell_length_c 24.685083
_cell_angle_alpha 90.000000
_cell_angle_beta 136.030755
_cell_angle_gamma 90.000000
_cell_volume 3031.439228
_symmetry_space_group_name_H-M "C 2/M"
_symmetry_group_IT_number 12
_symmetry_cell_setting 'monoclinic'
loop_
_space_group_symop_operation_xyz
x,y,z
-x,y,-z
-x,-y,-z
x,-y,z
1/2+x,1/2+y,z
1/2-x,1/2+y,-z
1/2-x,1/2-y,-z
1/2+x,1/2-y,z
loop_
_atom_site_type_symbol
_atom_site_label
_atom_site_fract_x
_atom_site_fract_y
_atom_site_fract_z
Si Si1 0.004930 0.822529 0.063044
Si Si2 0.795246 0.174913 0.974503
Si Si3 0.838709 0.325004 0.520667
Si Si4 0.461991 0.322682 0.673150
Si Si5 0.204433 0.177908 0.226890
Si Si6 0.166035 0.323849 0.797798
Si Si7 0.285985 0.674143 0.647536
O O1 0.099319 0.758254 0.148139
O O2 0.012142 0.000000 0.063762
O O3 0.000000 0.755384 0.000000
O O4 0.907356 0.772020 0.037605
O O5 0.740876 0.222022 0.888102
O O6 0.787692 0.000000 0.977875
O O7 0.750000 0.250000 0.000000
O O8 0.843484 0.500000 0.536307
O O9 0.750000 0.250000 0.500000
O O10 0.937066 0.246393 0.599137
O O11 0.815600 0.296814 0.443564
O O12 0.462439 0.500000 0.668742
O O13 0.566655 0.264197 0.751898
O O14 0.380975 0.264174 0.669802
O O15 0.287706 0.229879 0.232723
O O16 0.225112 0.244695 0.298852
O O17 0.202158 0.000000 0.225911
O O18 0.144962 0.500000 0.785476
O O19 0.304727 0.500000 0.665087
#
# Coordination Sequence:
#
# PCOD8096193 Si02
#       7
#     8   8   8   8   8   8   8
#     4   9  15  28  50  74  98 130 171 210 247 292
#     4  10  21  34  51  77 105 134 169 208 254 306
#     4   9  16  30  51  76 106 135 169 211 256 304
#     4  10  20  33  52  77 104 135 171 208 254 310
#     4   9  16  29  50  74 100 128 168 217 254 292
#     4  10  20  34  51  74 104 134 166 210 261 304
#     4   8  16  29  49  77  99 124 168 214 250 292
#
# _framework density 18.473074
#
# number of rings (size 3 to 8) (size 9 to 14) (size 15 to 20)
#    0.000    2.714    1.429    1.714    2.000    0.571 
#    0.000    0.714    0.000   10.714    0.000    0.000 
#    0.000    0.000    0.000    0.000    0.000    0.000 
#
# Total GULP energy -347003.636375 kJ/mol
# GULP energy per Si atom -12392.987013 kJ/mol
# Density = 1.843103 g / cm^3
# Si number density = 18.473074 Si / 1000 Ang^3
#
#
#
# Elastic Constant Matrix: (Units=GPa)
#
#
# Indices 1 2 3 4 5 6 
#
# 1 99.7229 19.1991 35.9660 0.0000 -17.0158 0.0000
# 2 19.1991 38.2023 26.2478 0.0000 -1.7763 0.0000
# 3 35.9660 26.2478 84.9852 0.0000 -18.6242 0.0000
# 4 0.0000 0.0000 0.0000 23.8466 0.0000 3.2821
# 5 -17.0158 -1.7763 -18.6242 0.0000 34.2640 0.0000
# 6 0.0000 0.0000 0.0000 3.2821 0.0000 20.6332
#
#
#
# Elastic Compliance Matrix: (Units=1/GPa)
#
#
# Indices 1 2 3 4 5 6 
#
# 1 0.012688 -0.003988 -0.003181 0.000000 0.004365 0.000000
# 2 -0.003988 0.035069 -0.010420 0.000000 -0.005826 0.000000
# 3 -0.003181 -0.010420 0.018012 0.000000 0.007671 0.000000
# 4 0.000000 0.000000 0.000000 0.042873 0.000000 -0.006820
# 5 0.004365 -0.005826 0.007671 0.000000 0.035220 0.000000
# 6 0.000000 0.000000 0.000000 -0.006820 0.000000 0.049550
#
#
# Mechanical properties :
#
#
# Convention : Reuss Voigt Hill
#
# Bulk Modulus (GPa) = 32.68979 42.85956 37.77468
# Shear Modulus (GPa) = 20.93907 25.18195 23.06051
#
# Velocity S-wave (km/s) = 3.37039 3.69612 3.53701
# Velocity P-wave (km/s) = 5.73414 6.43945 6.09700
#
# Compressibility (1/GPa) = 0.03059059
#
# Stress axis : x y z
#
# Youngs Moduli (GPa) = 78.81683 28.51518 55.51729
#
# Poissons Ratio (x) = 0.11371 0.17662
# Poissons Ratio (y) = 0.31429 0.57851
# Poissons Ratio (z) = 0.25074 0.29714
#
# Static dielectric constant tensor:
#      x y z
#    x 3.395260 0.000000 -0.148100 
#    y 0.000000 3.028290 0.000000 
#    z -0.148100 0.000000 3.974110 
# 
# 
# High freq. dielectric constant tensor:
#      x y z
#    x 1.703860 0.000000 -0.003420 
#    y 0.000000 1.671260 0.000000 
#    z -0.003420 0.000000 1.733710 
# 
# From -- ./inp_files/342538.got.cif
#   From: 2010.06.25/outbox.cif.g09.slc.cpg/sg12_172_cif.got.tgz:342538.got - 2010.06.28 00:19:55.
