data_PCOD8096827
_publ_section_title
;
Structure prediction by ZEFSAII (Michael W. Deem and Ramdas Pophale) SiO2 
 PCOD8096827
Probable space group: C 2/M
;
_chemical_formula_sum "Si O2"
_cell_formula_units_Z 48
_cell_length_a 14.036979
_cell_length_b 9.299054
_cell_length_c 20.951479
_cell_angle_alpha 90.000000
_cell_angle_beta 93.397687
_cell_angle_gamma 90.000000
_cell_volume 2730.002473
_symmetry_space_group_name_H-M "C 2/M"
_symmetry_group_IT_number 12
_symmetry_cell_setting 'monoclinic'
loop_
_space_group_symop_operation_xyz
x,y,z
-x,y,-z
-x,-y,-z
x,-y,z
1/2+x,1/2+y,z
1/2-x,1/2+y,-z
1/2-x,1/2-y,-z
1/2+x,1/2-y,z
loop_
_atom_site_type_symbol
_atom_site_label
_atom_site_fract_x
_atom_site_fract_y
_atom_site_fract_z
Si Si1 0.764490 0.168175 0.435097
Si Si2 0.766053 0.166451 0.761417
Si Si3 0.107003 0.667056 0.652926
Si Si4 0.393886 0.834179 0.674888
Si Si5 0.393979 0.332512 0.010567
Si Si6 0.734423 0.167708 0.902928
O O1 0.750000 0.250000 0.500000
O O2 0.855900 0.235930 0.403666
O O3 0.670204 0.194945 0.389645
O O4 0.783119 0.000000 0.448042
O O5 0.669645 0.195151 0.718270
O O6 0.855326 0.247649 0.733978
O O7 0.750139 0.225351 0.832040
O O8 0.793730 0.000000 0.763706
O O9 0.110634 0.500000 0.632301
O O10 0.000232 0.718385 0.663623
O O11 0.392952 0.000000 0.694531
O O12 0.393435 0.500000 0.027510
O O13 0.355674 0.249398 0.070831
O O14 0.500000 0.277027 0.000000
O O15 0.329661 0.297798 0.946479
O O16 0.709590 0.000000 0.902184
#
# Coordination Sequence:
#
# PCOD8096827 Si02
#       6
#     8   8   8   8   8   8
#     4  10  20  34  51  72  97 125 157 193 232 275
#     4   9  18  32  50  71  96 124 155 195 238 278
#     4   9  18  34  52  70  95 126 157 191 234 281
#     4   9  19  34  51  71  96 125 157 192 231 279
#     4   9  18  32  48  67  94 127 160 194 234 280
#     4   9  18  32  48  69  96 124 157 196 236 278
#
# _framework density 17.582401000000001
#
# number of rings (size 3 to 8) (size 9 to 14) (size 15 to 20)
#    0.000    2.833    0.000    0.500    0.000    4.333 
#    0.000    3.333    0.000    0.000    0.000    0.000 
#    0.000    0.000    0.000    0.000    0.000    0.000 
#
# Total GULP energy -297669.327802 kJ/mol
# GULP energy per Si atom -12402.888658 kJ/mol
# Density = 1.754238 g / cm^3
# Si number density = 17.582401 Si / 1000 Ang^3
#
#
#
# Elastic Constant Matrix: (Units=GPa)
#
#
# Indices 1 2 3 4 5 6 
#
# 1 155.4176 59.6051 71.0843 0.0000 -30.9745 0.0000
# 2 59.6051 71.5660 67.6620 0.0000 -19.2565 0.0000
# 3 71.0843 67.6620 151.8979 0.0000 -32.3115 0.0000
# 4 0.0000 0.0000 0.0000 31.6220 0.0000 -8.7164
# 5 -30.9745 -19.2565 -32.3115 0.0000 21.4645 0.0000
# 6 0.0000 0.0000 0.0000 -8.7164 0.0000 29.9002
#
#
#
# Elastic Compliance Matrix: (Units=1/GPa)
#
#
# Indices 1 2 3 4 5 6 
#
# 1 0.010866 -0.006185 -0.000257 0.000000 0.009744 0.000000
# 2 -0.006185 0.028643 -0.009263 0.000000 0.002827 0.000000
# 3 -0.000257 -0.009263 0.013215 0.000000 0.011212 0.000000
# 4 0.000000 0.000000 0.000000 0.034387 0.000000 0.010024
# 5 0.009744 0.002827 0.011212 0.000000 0.080064 0.000000
# 6 0.000000 0.000000 0.000000 0.010024 0.000000 0.036367
#
#
# Mechanical properties :
#
#
# Convention : Reuss Voigt Hill
#
# Bulk Modulus (GPa) = 46.91858 86.17603 66.54730
# Shear Modulus (GPa) = 20.65643 28.63268 24.64455
#
# Velocity S-wave (km/s) = 3.43131 4.03983 3.74794
# Velocity P-wave (km/s) = 6.51470 8.41899 7.52731
#
# Compressibility (1/GPa) = 0.02131352
#
# Stress axis : x y z
#
# Youngs Moduli (GPa) = 92.03093 34.91302 75.67293
#
# Poissons Ratio (x) = 0.21593 0.01946
# Poissons Ratio (y) = 0.56919 0.70095
# Poissons Ratio (z) = 0.02367 0.32340
#
# Static dielectric constant tensor:
#      x y z
#    x 3.357110 0.000000 -0.056980 
#    y 0.000000 3.244600 0.000000 
#    z -0.056980 0.000000 3.303150 
# 
# 
# High freq. dielectric constant tensor:
#      x y z
#    x 1.680860 0.000000 -0.005210 
#    y 0.000000 1.676930 0.000000 
#    z -0.005210 0.000000 1.680610 
# 
# From -- ./inp_files/307992.got.cif
#   From: 2010.06.25/outbox.cif.g09.slc.cpg/sg12_154_cif.got.tgz:307992.got - 2010.06.28 00:19:55.
