data_PCOD8096011
_publ_section_title
;
Structure prediction by ZEFSAII (Michael W. Deem and Ramdas Pophale) SiO2 
 PCOD8096011
Probable space group: C 2/M
;
_chemical_formula_sum "Si O2"
_cell_formula_units_Z 48
_cell_length_a 9.179964
_cell_length_b 18.203147
_cell_length_c 20.849859
_cell_angle_alpha 90.000000
_cell_angle_beta 140.635740
_cell_angle_gamma 90.000000
_cell_volume 2209.784581
_symmetry_space_group_name_H-M "C 2/M"
_symmetry_group_IT_number 12
_symmetry_cell_setting 'monoclinic'
loop_
_space_group_symop_operation_xyz
x,y,z
-x,y,-z
-x,-y,-z
x,-y,z
1/2+x,1/2+y,z
1/2-x,1/2+y,-z
1/2-x,1/2-y,-z
1/2+x,1/2-y,z
loop_
_atom_site_type_symbol
_atom_site_label
_atom_site_fract_x
_atom_site_fract_y
_atom_site_fract_z
Si Si1 0.249260 0.916375 0.438336
Si Si2 0.370976 0.419290 0.742677
Si Si3 0.610312 0.267419 0.201989
Si Si4 0.572946 0.688513 0.591995
Si Si5 0.268265 0.668922 0.884439
Si Si6 0.975914 0.579989 0.699250
O O1 0.500000 0.891459 0.500000
O O2 0.093984 0.916026 0.321439
O O3 0.139064 0.857580 0.449973
O O4 0.252610 0.000000 0.468388
O O5 0.463051 0.500000 0.798443
O O6 0.495801 0.348175 0.816127
O O7 0.099927 0.413433 0.671779
O O8 0.819465 0.246821 0.321678
O O9 0.708017 0.270729 0.163782
O O10 0.414346 0.206081 0.130240
O O11 0.500000 0.728362 0.500000
O O12 0.768813 0.634546 0.634788
O O13 0.168255 0.594564 0.819703
O O14 0.500000 0.649518 0.000000
O O15 0.872663 0.500000 0.675654
#
# Coordination Sequence:
#
# PCOD8096011 Si02
#       6
#     8   8   8   8   8   8
#     4  10  20  33  51  75 104 144 190 225 263 321
#     4   9  18  35  55  73 101 140 180 227 276 321
#     4  10  21  37  56  83 111 142 187 232 276 335
#     4  11  22  35  54  80 114 153 188 229 278 326
#     4  10  20  36  59  83 111 147 183 230 287 333
#     4   9  19  35  55  82 113 146 189 231 271 328
#
# _framework density 21.721575000000001
#
# number of rings (size 3 to 8) (size 9 to 14) (size 15 to 20)
#    0.000    2.167    0.000    3.000    0.000    3.667 
#    0.000    9.167    0.000    0.500    0.000    0.000 
#    0.000    0.000    0.000    0.000    0.000    0.000 
#
# Total GULP energy -297373.545521 kJ/mol
# GULP energy per Si atom -12390.564397 kJ/mol
# Density = 2.167214 g / cm^3
# Si number density = 21.721575 Si / 1000 Ang^3
#
#
#
# Elastic Constant Matrix: (Units=GPa)
#
#
# Indices 1 2 3 4 5 6 
#
# 1 66.7998 9.2809 13.7540 0.0006 -9.4788 0.0005
# 2 9.2809 59.7344 -3.4515 0.0001 -6.1804 0.0001
# 3 13.7540 -3.4515 80.3743 0.0008 -2.5868 0.0008
# 4 0.0006 0.0001 0.0008 15.4792 0.0007 -2.6602
# 5 -9.4788 -6.1804 -2.5868 0.0007 24.2197 0.0005
# 6 0.0005 0.0001 0.0008 -2.6602 0.0005 13.9644
#
#
#
# Elastic Compliance Matrix: (Units=1/GPa)
#
#
# Indices 1 2 3 4 5 6 
#
# 1 0.016642 -0.002159 -0.002758 -0.000001 0.005668 -0.000001
# 2 -0.002159 0.017537 0.001244 0.000000 0.003763 0.000000
# 3 -0.002758 0.001244 0.012987 -0.000001 0.000625 -0.000001
# 4 -0.000001 0.000000 -0.000001 0.066789 -0.000003 0.012723
# 5 0.005668 0.003763 0.000625 -0.000003 0.044534 -0.000003
# 6 -0.000001 0.000000 -0.000001 0.012723 -0.000003 0.074034
#
#
# Mechanical properties :
#
#
# Convention : Reuss Voigt Hill
#
# Bulk Modulus (GPa) = 25.11271 27.34170 26.22721
# Shear Modulus (GPa) = 19.75159 23.22101 21.48630
#
# Velocity S-wave (km/s) = 3.01874 3.27315 3.14852
# Velocity P-wave (km/s) = 4.87203 5.18646 5.03170
#
# Compressibility (1/GPa) = 0.03982047
#
# Stress axis : x y z
#
# Youngs Moduli (GPa) = 60.08835 57.02109 76.99831
#
# Poissons Ratio (x) = 0.12309 0.21237
# Poissons Ratio (y) = 0.12971 -0.09576
# Poissons Ratio (z) = 0.16573 -0.07091
#
# Static dielectric constant tensor:
#      x y z
#    x 3.973680 0.000000 -0.157350 
#    y 0.000000 4.008430 0.000000 
#    z -0.157350 0.000000 3.656600 
# 
# 
# High freq. dielectric constant tensor:
#      x y z
#    x 1.857880 0.000000 -0.013830 
#    y 0.000000 1.857430 0.000000 
#    z -0.013830 0.000000 1.814080 
# 
# From -- ./inp_files/301818.got.cif
#   From: 2010.06.25/outbox.cif.g09.slc.cpg/sg12_151_cif.got.tgz:301818.got - 2010.06.28 00:19:55.
