data_PCOD8096445
_publ_section_title
;
Structure prediction by ZEFSAII (Michael W. Deem and Ramdas Pophale) SiO2 
 PCOD8096445
Probable space group: C 2/M
;
_chemical_formula_sum "Si O2"
_cell_formula_units_Z 48
_cell_length_a 16.887788
_cell_length_b 13.240992
_cell_length_c 11.572852
_cell_angle_alpha 90.000000
_cell_angle_beta 93.795089
_cell_angle_gamma 90.000000
_cell_volume 2582.143061
_symmetry_space_group_name_H-M "C 2/M"
_symmetry_group_IT_number 12
_symmetry_cell_setting 'monoclinic'
loop_
_space_group_symop_operation_xyz
x,y,z
-x,y,-z
-x,-y,-z
x,-y,z
1/2+x,1/2+y,z
1/2-x,1/2+y,-z
1/2-x,1/2-y,-z
1/2+x,1/2-y,z
loop_
_atom_site_type_symbol
_atom_site_label
_atom_site_fract_x
_atom_site_fract_y
_atom_site_fract_z
Si Si1 0.741598 0.614112 0.544326
Si Si2 0.125326 0.385609 0.260730
Si Si3 0.694232 0.880927 0.683655
Si Si4 0.745792 0.724043 0.866655
Si Si5 0.880354 0.118483 0.281912
Si Si6 0.475898 0.792495 0.363498
O O1 0.714134 0.500000 0.520637
O O2 0.824581 0.616023 0.617839
O O3 0.755204 0.665845 0.420717
O O4 0.672029 0.662139 0.615148
O O5 0.113329 0.500000 0.214931
O O6 0.170403 0.323970 0.164307
O O7 0.041494 0.338175 0.285317
O O8 0.729253 0.829192 0.800243
O O9 0.601137 0.862264 0.657263
O O10 0.708069 0.000000 0.694529
O O11 0.672101 0.646680 0.835976
O O12 0.750000 0.750000 0.000000
O O13 0.961242 0.180887 0.306015
O O14 0.898738 0.000000 0.283878
O O15 0.500000 0.785605 0.500000
#
# Coordination Sequence:
#
# PCOD8096445 Si02
#       6
#     8   8   8   8   8   8
#     4   8  15  30  53  78 104 141 178 218 277 333
#     4  10  20  35  57  84 115 147 180 224 283 337
#     4  10  20  33  53  82 115 142 181 234 279 328
#     4  10  22  38  59  80 102 145 201 237 270 323
#     4   9  20  37  56  79 113 151 186 228 280 332
#     4  11  21  31  55  87 121 151 176 218 278 348
#
# _framework density 18.589210000000001
#
# number of rings (size 3 to 8) (size 9 to 14) (size 15 to 20)
#    0.000    2.333    1.667    2.000    2.333    4.333 
#    0.000    4.167    0.000    6.000    0.000    0.000 
#    0.000    0.000    0.000    0.000    0.000    0.000 
#
# Total GULP energy -297474.618067 kJ/mol
# GULP energy per Si atom -12394.775753 kJ/mol
# Density = 1.854690 g / cm^3
# Si number density = 18.589210 Si / 1000 Ang^3
#
#
#
# Elastic Constant Matrix: (Units=GPa)
#
#
# Indices 1 2 3 4 5 6 
#
# 1 101.5911 46.1246 47.5621 0.0000 -5.2391 0.0000
# 2 46.1246 105.4045 49.2011 0.0000 -1.0178 0.0000
# 3 47.5621 49.2011 137.4992 0.0000 -8.6984 0.0000
# 4 0.0000 0.0000 0.0000 23.5763 0.0000 -0.4705
# 5 -5.2391 -1.0178 -8.6984 0.0000 14.6396 0.0000
# 6 0.0000 0.0000 0.0000 -0.4705 0.0000 29.6774
#
#
#
# Elastic Compliance Matrix: (Units=1/GPa)
#
#
# Indices 1 2 3 4 5 6 
#
# 1 0.013354 -0.004493 -0.002836 0.000000 0.002782 0.000000
# 2 -0.004493 0.012942 -0.003243 0.000000 -0.002635 0.000000
# 3 -0.002836 -0.003243 0.009700 0.000000 0.004523 0.000000
# 4 0.000000 0.000000 0.000000 0.042429 0.000000 0.000673
# 5 0.002782 -0.002635 0.004523 0.000000 0.071808 0.000000
# 6 0.000000 0.000000 0.000000 0.000673 0.000000 0.033706
#
#
# Mechanical properties :
#
#
# Convention : Reuss Voigt Hill
#
# Bulk Modulus (GPa) = 67.33059 70.03003 68.68031
# Shear Modulus (GPa) = 23.80547 27.01913 25.41230
#
# Velocity S-wave (km/s) = 3.58244 3.81660 3.70137
# Velocity P-wave (km/s) = 7.30826 7.56148 7.43595
#
# Compressibility (1/GPa) = 0.01485209
#
# Stress axis : x y z
#
# Youngs Moduli (GPa) = 74.88118 77.26713 103.08881
#
# Poissons Ratio (x) = 0.34719 0.29231
# Poissons Ratio (y) = 0.33647 0.33436
# Poissons Ratio (z) = 0.21233 0.25061
#
# Static dielectric constant tensor:
#      x y z
#    x 3.382430 0.000000 -0.075260 
#    y 0.000000 3.532980 0.000000 
#    z -0.075260 0.000000 3.171090 
# 
# 
# High freq. dielectric constant tensor:
#      x y z
#    x 1.711620 0.000000 -0.005420 
#    y 0.000000 1.742160 0.000000 
#    z -0.005420 0.000000 1.692210 
# 
# From -- ./inp_files/142863.got.cif
#   From: 2010.06.25/outbox.cif.g09.slc.cpg/sg12_72_cif.got.tgz:142863.got - 2010.06.28 00:19:55.
