data_PCOD8096322
_publ_section_title
;
Structure prediction by ZEFSAII (Michael W. Deem and Ramdas Pophale) SiO2 
 PCOD8096322
Probable space group: C 2/M
;
_chemical_formula_sum "Si O2"
_cell_formula_units_Z 56
_cell_length_a 23.384888
_cell_length_b 13.721338
_cell_length_c 8.892673
_cell_angle_alpha 90.000000
_cell_angle_beta 90.217957
_cell_angle_gamma 90.000000
_cell_volume 2853.388701
_symmetry_space_group_name_H-M "C 2/M"
_symmetry_group_IT_number 12
_symmetry_cell_setting 'monoclinic'
loop_
_space_group_symop_operation_xyz
x,y,z
-x,y,-z
-x,-y,-z
x,-y,z
1/2+x,1/2+y,z
1/2-x,1/2+y,-z
1/2-x,1/2-y,-z
1/2+x,1/2-y,z
loop_
_atom_site_type_symbol
_atom_site_label
_atom_site_fract_x
_atom_site_fract_y
_atom_site_fract_z
Si Si1 0.167306 0.390455 0.823383
Si Si2 0.781295 0.115482 0.668524
Si Si3 0.324185 0.109891 0.831188
Si Si4 0.102968 0.203401 0.830206
Si Si5 0.789670 0.115298 0.331718
Si Si6 0.387169 0.296612 0.824149
Si Si7 0.494573 0.611046 0.677156
O O1 0.148041 0.500000 0.778610
O O2 0.217930 0.350038 0.717271
O O3 0.112975 0.319134 0.804787
O O4 0.191300 0.388138 0.993015
O O5 0.794478 0.156028 0.501692
O O6 0.827535 0.151854 0.787695
O O7 0.782736 0.000000 0.672079
O O8 0.269426 0.153007 0.742193
O O9 0.378401 0.180140 0.799564
O O10 0.340103 0.000000 0.779252
O O11 0.156457 0.145556 0.765676
O O12 0.045501 0.172662 0.748029
O O13 0.095857 0.178673 0.005304
O O14 0.787857 0.000000 0.333292
O O15 0.435537 0.336323 0.714962
O O16 0.500000 0.610713 0.500000
O O17 0.495223 0.500000 0.738683
#
# Coordination Sequence:
#
# PCOD8096322 Si02
#       7
#     8   8   8   8   8   8   8
#     4   9  19  36  56  80 111 144 179 220 265 316
#     4  10  20  33  52  81 115 148 180 218 268 321
#     4   9  19  36  56  80 111 144 179 220 265 316
#     4  11  22  36  57  82 107 141 183 224 268 316
#     4  10  20  33  52  81 115 148 180 218 268 321
#     4  11  22  36  57  82 107 141 183 224 268 316
#     4  11  25  43  60  79 106 140 177 219 268 321
#
# _framework density 19.625786999999999
#
# number of rings (size 3 to 8) (size 9 to 14) (size 15 to 20)
#    0.000    1.857    0.000    3.857    0.000   12.000 
#    0.000    0.714    0.000    4.286    0.000    0.000 
#    0.000    0.000    0.000    0.000    0.000    0.000 
#
# Total GULP energy -347254.058943 kJ/mol
# GULP energy per Si atom -12401.930677 kJ/mol
# Density = 1.958112 g / cm^3
# Si number density = 19.625787 Si / 1000 Ang^3
#
#
#
# Elastic Constant Matrix: (Units=GPa)
#
#
# Indices 1 2 3 4 5 6 
#
# 1 61.7508 41.2489 11.3740 0.0000 -11.6140 0.0000
# 2 41.2489 53.6083 24.0936 0.0000 -9.4729 0.0000
# 3 11.3740 24.0936 63.6343 0.0000 -7.0891 0.0000
# 4 0.0000 0.0000 0.0000 23.5910 0.0000 -1.5099
# 5 -11.6140 -9.4729 -7.0891 0.0000 32.8959 0.0000
# 6 0.0000 0.0000 0.0000 -1.5099 0.0000 29.1233
#
#
#
# Elastic Compliance Matrix: (Units=1/GPa)
#
#
# Indices 1 2 3 4 5 6 
#
# 1 0.035303 -0.028500 0.005077 0.000000 0.005351 0.000000
# 2 -0.028500 0.046237 -0.012346 0.000000 0.000592 0.000000
# 3 0.005077 -0.012346 0.019760 0.000000 0.002495 0.000000
# 4 0.000000 0.000000 0.000000 0.042530 0.000000 0.002205
# 5 0.005351 0.000592 0.002495 0.000000 0.032996 0.000000
# 6 0.000000 0.000000 0.000000 0.002205 0.000000 0.034451
#
#
# Mechanical properties :
#
#
# Convention : Reuss Voigt Hill
#
# Bulk Modulus (GPa) = 33.60141 36.93625 35.26883
# Shear Modulus (GPa) = 17.08014 23.94050 20.51032
#
# Velocity S-wave (km/s) = 2.95327 3.49642 3.23626
# Velocity P-wave (km/s) = 5.36538 5.92968 5.65457
#
# Compressibility (1/GPa) = 0.02976065
#
# Stress axis : x y z
#
# Youngs Moduli (GPa) = 28.32596 21.62774 50.60731
#
# Poissons Ratio (x) = 0.61640 -0.25693
# Poissons Ratio (y) = 0.80730 0.62482
# Poissons Ratio (z) = -0.14381 0.26702
#
# Static dielectric constant tensor:
#      x y z
#    x 3.399650 0.000000 -0.002810 
#    y 0.000000 3.881800 0.000000 
#    z -0.002810 0.000000 3.763190 
# 
# 
# High freq. dielectric constant tensor:
#      x y z
#    x 1.742280 0.000000 -0.000010 
#    y 0.000000 1.780650 0.000000 
#    z -0.000010 0.000000 1.773090 
# 
# From -- ./inp_files/86324.got.cif
#   From: 2010.06.25/outbox.cif.g09.slc.cpg/sg12_44_cif.got.tgz:86324.got - 2010.06.28 00:19:55.
