data_PCOD8096148
_publ_section_title
;
Structure prediction by ZEFSAII (Michael W. Deem and Ramdas Pophale) SiO2 
 PCOD8096148
Probable space group: C 2/M
;
_chemical_formula_sum "Si O2"
_cell_formula_units_Z 56
_cell_length_a 24.226719
_cell_length_b 9.188981
_cell_length_c 12.939476
_cell_angle_alpha 90.000000
_cell_angle_beta 67.079702
_cell_angle_gamma 90.000000
_cell_volume 2653.143073
_symmetry_space_group_name_H-M "C 2/M"
_symmetry_group_IT_number 12
_symmetry_cell_setting 'monoclinic'
loop_
_space_group_symop_operation_xyz
x,y,z
-x,y,-z
-x,-y,-z
x,-y,z
1/2+x,1/2+y,z
1/2-x,1/2+y,-z
1/2-x,1/2-y,-z
1/2+x,1/2-y,z
loop_
_atom_site_type_symbol
_atom_site_label
_atom_site_fract_x
_atom_site_fract_y
_atom_site_fract_z
Si Si1 0.087414 0.158746 0.140731
Si Si2 0.988099 0.671719 0.667870
Si Si3 0.768031 0.675604 0.594231
Si Si4 0.671112 0.163186 0.798223
Si Si5 0.902692 0.328719 0.546415
Si Si6 0.191990 0.339900 0.025046
Si Si7 0.563978 0.661060 0.926489
O O1 0.024747 0.236903 0.218315
O O2 0.092591 0.000000 0.190349
O O3 0.141246 0.265649 0.133374
O O4 0.095571 0.138731 0.013071
O O5 0.985295 0.500000 0.691182
O O6 0.934790 0.723698 0.628477
O O7 0.053546 0.718791 0.579545
O O8 0.763664 0.500000 0.589896
O O9 0.750000 0.750000 0.500000
O O10 0.722960 0.735487 0.713812
O O11 0.835205 0.729323 0.576894
O O12 0.678011 0.150068 0.914840
O O13 0.605973 0.237636 0.823543
O O14 0.672058 0.000000 0.748088
O O15 0.900820 0.500000 0.551032
O O16 0.200796 0.500000 0.065329
O O17 0.250000 0.250000 0.000000
O O18 0.554750 0.500000 0.881498
O O19 0.500000 0.735201 0.000000
#
# Coordination Sequence:
#
# PCOD8096148 Si02
#       7
#     8   8   8   8   8   8   8
#     4  10  20  33  51  81 114 142 180 226 277 336
#     4   9  17  35  59  82 108 142 186 236 288 345
#     4  11  23  40  60  84 114 154 198 241 290 345
#     4  10  22  39  57  83 115 148 188 236 283 336
#     4   8  18  36  58  81 107 143 189 236 288 345
#     4  10  21  36  55  81 113 147 184 224 276 337
#     4   9  19  37  58  80 111 151 190 230 280 338
#
# _framework density 21.107040999999999
#
# number of rings (size 3 to 8) (size 9 to 14) (size 15 to 20)
#    0.000    2.429    0.000    2.571    2.000    3.714 
#    0.000    6.429    0.000    0.000    0.000    0.000 
#    0.000    0.000    0.000    0.000    0.000    0.000 
#
# Total GULP energy -346937.279319 kJ/mol
# GULP energy per Si atom -12390.617119 kJ/mol
# Density = 2.105900 g / cm^3
# Si number density = 21.107041 Si / 1000 Ang^3
#
#
#
# Elastic Constant Matrix: (Units=GPa)
#
#
# Indices 1 2 3 4 5 6 
#
# 1 96.2272 37.6638 20.0383 0.0000 -44.3890 0.0000
# 2 37.6638 136.5829 45.9353 0.0000 -29.8501 0.0000
# 3 20.0383 45.9353 80.9513 0.0000 -37.9492 0.0000
# 4 0.0000 0.0000 0.0000 29.4816 0.0000 -4.5874
# 5 -44.3890 -29.8501 -37.9492 0.0000 41.7433 0.0000
# 6 0.0000 0.0000 0.0000 -4.5874 0.0000 22.4302
#
#
#
# Elastic Compliance Matrix: (Units=1/GPa)
#
#
# Indices 1 2 3 4 5 6 
#
# 1 0.026123 -0.003433 0.012814 0.000000 0.036973 0.000000
# 2 -0.003433 0.009742 -0.005444 0.000000 -0.001633 0.000000
# 3 0.012814 -0.005444 0.029335 0.000000 0.036403 0.000000
# 4 0.000000 0.000000 0.000000 0.035034 0.000000 0.007165
# 5 0.036973 -0.001633 0.036403 0.000000 0.095199 0.000000
# 6 0.000000 0.000000 0.000000 0.007165 0.000000 0.046048
#
#
# Mechanical properties :
#
#
# Convention : Reuss Voigt Hill
#
# Bulk Modulus (GPa) = 13.68441 57.89290 35.78866
# Shear Modulus (GPa) = 19.38244 32.73929 26.06086
#
# Velocity S-wave (km/s) = 3.03362 3.94268 3.51764
# Velocity P-wave (km/s) = 4.33219 6.94364 5.78714
#
# Compressibility (1/GPa) = 0.07307585
#
# Stress axis : x y z
#
# Youngs Moduli (GPa) = 38.28070 102.64647 34.08843
#
# Poissons Ratio (x) = 0.35236 -0.43682
# Poissons Ratio (y) = 0.13141 0.18557
# Poissons Ratio (z) = -0.49054 0.55880
#
# Static dielectric constant tensor:
#      x y z
#    x 3.697880 0.000000 -0.463170 
#    y 0.000000 4.002650 0.000000 
#    z -0.463170 0.000000 3.613960 
# 
# 
# High freq. dielectric constant tensor:
#      x y z
#    x 1.818490 0.000000 -0.022440 
#    y 0.000000 1.821720 0.000000 
#    z -0.022440 0.000000 1.823450 
# 
# From -- ./inp_files/243686.got.cif
#   From: 2010.06.25/outbox.cif.g09.slc.cpg/sg12_122_cif.got.tgz:243686.got - 2010.06.28 00:19:55.
