data_PCOD8096496
_publ_section_title
;
Structure prediction by ZEFSAII (Michael W. Deem and Ramdas Pophale) SiO2 
 PCOD8096496
Probable space group: C 2/M
;
_chemical_formula_sum "Si O2"
_cell_formula_units_Z 40
_cell_length_a 25.157099
_cell_length_b 8.714662
_cell_length_c 16.132602
_cell_angle_alpha 90.000000
_cell_angle_beta 143.162270
_cell_angle_gamma 90.000000
_cell_volume 2120.515661
_symmetry_space_group_name_H-M "C 2/M"
_symmetry_group_IT_number 12
_symmetry_cell_setting 'monoclinic'
loop_
_space_group_symop_operation_xyz
x,y,z
-x,y,-z
-x,-y,-z
x,-y,z
1/2+x,1/2+y,z
1/2-x,1/2+y,-z
1/2-x,1/2-y,-z
1/2+x,1/2-y,z
loop_
_atom_site_type_symbol
_atom_site_label
_atom_site_fract_x
_atom_site_fract_y
_atom_site_fract_z
Si Si1 0.366933 0.319565 0.830439
Si Si2 0.181302 0.180711 0.620064
Si Si3 0.412067 0.668992 0.336364
Si Si4 0.486629 0.822908 0.671499
Si Si5 0.504113 0.820669 0.883311
O O1 0.376618 0.500000 0.854250
O O2 0.265122 0.273864 0.691671
O O3 0.419459 0.268544 0.813905
O O4 0.406468 0.235462 0.960475
O O5 0.164024 0.227304 0.695100
O O6 0.098049 0.222434 0.458676
O O7 0.198396 0.000000 0.633745
O O8 0.500000 0.657426 0.500000
O O9 0.387970 0.500000 0.271494
O O10 0.427837 0.782889 0.278951
O O11 0.513528 0.783499 0.798487
O O12 0.462156 0.000000 0.628986
O O13 0.490674 0.000000 0.883399
#
# Coordination Sequence:
#
# PCOD8096496 Si02
#       5
#     8   8   8   8   8
#     4  11  22  36  56  79 102 134 177 219 259 305
#     4  10  20  35  55  78 107 141 173 210 259 309
#     4   8  16  31  51  75 104 139 172 206 256 309
#     4  10  20  33  54  82 107 135 173 215 256 303
#     4  10  21  38  56  75 105 141 172 208 262 317
#
# _framework density 18.863336
#
# number of rings (size 3 to 8) (size 9 to 14) (size 15 to 20)
#    0.000    2.200    0.000    6.000    0.000    8.400 
#    0.000    1.000    0.000    0.000    0.000    0.000 
#    0.000    0.000    0.000    0.000    0.000    0.000 
#
# Total GULP energy -247982.276350 kJ/mol
# GULP energy per Si atom -12399.113817 kJ/mol
# Density = 1.882040 g / cm^3
# Si number density = 18.863336 Si / 1000 Ang^3
#
#
#
# Elastic Constant Matrix: (Units=GPa)
#
#
# Indices 1 2 3 4 5 6 
#
# 1 55.1145 31.1048 14.5130 0.0000 -23.7755 0.0000
# 2 31.1048 79.9449 21.5297 0.0000 -11.8092 0.0000
# 3 14.5130 21.5297 33.8733 0.0000 -17.0045 0.0000
# 4 0.0000 0.0000 0.0000 26.9160 0.0000 -0.5414
# 5 -23.7755 -11.8092 -17.0045 0.0000 32.1118 0.0000
# 6 0.0000 0.0000 0.0000 -0.5414 0.0000 34.8319
#
#
#
# Elastic Compliance Matrix: (Units=1/GPa)
#
#
# Indices 1 2 3 4 5 6 
#
# 1 0.032693 -0.010457 0.003896 0.000000 0.022423 0.000000
# 2 -0.010457 0.018446 -0.010523 0.000000 -0.006531 0.000000
# 3 0.003896 -0.010523 0.046374 0.000000 0.023571 0.000000
# 4 0.000000 0.000000 0.000000 0.037164 0.000000 0.000578
# 5 0.022423 -0.006531 0.023571 0.000000 0.057823 0.000000
# 6 0.000000 0.000000 0.000000 0.000578 0.000000 0.028718
#
#
# Mechanical properties :
#
#
# Convention : Reuss Voigt Hill
#
# Bulk Modulus (GPa) = 15.78659 33.69195 24.73927
# Shear Modulus (GPa) = 18.08312 25.55763 21.82038
#
# Velocity S-wave (km/s) = 3.09955 3.68487 3.40481
# Velocity P-wave (km/s) = 4.60399 6.00035 5.34794
#
# Compressibility (1/GPa) = 0.06334489
#
# Stress axis : x y z
#
# Youngs Moduli (GPa) = 30.58794 54.21154 21.56396
#
# Poissons Ratio (x) = 0.56688 -0.08400
# Poissons Ratio (y) = 0.31985 0.22691
# Poissons Ratio (z) = -0.11916 0.57044
#
# Static dielectric constant tensor:
#      x y z
#    x 3.778880 0.000000 -0.032570 
#    y 0.000000 3.536700 0.000000 
#    z -0.032570 0.000000 3.147880 
# 
# 
# High freq. dielectric constant tensor:
#      x y z
#    x 1.742110 0.000000 -0.003720 
#    y 0.000000 1.743190 0.000000 
#    z -0.003720 0.000000 1.701650 
# 
# From -- ./inp_files/230600.got.cif
#   From: 2010.06.25/outbox.cif.g09.slc.cpg/sg12_116_cif.got.tgz:230600.got - 2010.06.28 00:19:55.
