data_PCOD8096203
_publ_section_title
;
Structure prediction by ZEFSAII (Michael W. Deem and Ramdas Pophale) SiO2 
 PCOD8096203
Probable space group: C 2/M
;
_chemical_formula_sum "Si O2"
_cell_formula_units_Z 64
_cell_length_a 27.266060
_cell_length_b 13.750944
_cell_length_c 9.999204
_cell_angle_alpha 90.000000
_cell_angle_beta 58.182017
_cell_angle_gamma 90.000000
_cell_volume 3185.663349
_symmetry_space_group_name_H-M "C 2/M"
_symmetry_group_IT_number 12
_symmetry_cell_setting 'monoclinic'
loop_
_space_group_symop_operation_xyz
x,y,z
-x,y,-z
-x,-y,-z
x,-y,z
1/2+x,1/2+y,z
1/2-x,1/2+y,-z
1/2-x,1/2-y,-z
1/2+x,1/2-y,z
loop_
_atom_site_type_symbol
_atom_site_label
_atom_site_fract_x
_atom_site_fract_y
_atom_site_fract_z
Si Si1 0.779587 0.111312 0.382196
Si Si2 0.661565 0.800972 0.621550
Si Si3 0.912300 0.762134 0.821784
Si Si4 0.366246 0.885448 0.073602
Si Si5 0.873848 0.217461 0.580700
Si Si6 0.193442 0.889831 0.952853
Si Si7 0.760403 0.113309 0.834365
Si Si8 0.983918 0.106567 0.370149
O O1 0.719299 0.134280 0.540402
O O2 0.827422 0.186182 0.367038
O O3 0.772071 0.126862 0.233751
O O4 0.797624 0.000000 0.389617
O O5 0.620832 0.846519 0.795145
O O6 0.631235 0.805946 0.519199
O O7 0.898433 0.742410 0.685627
O O8 0.973821 0.813735 0.756890
O O9 0.911657 0.660373 0.903159
O O10 0.864627 0.828908 0.959300
O O11 0.301565 0.849623 0.127106
O O12 0.373713 0.000000 0.054304
O O13 0.810965 0.168965 0.684358
O O14 0.917774 0.139559 0.454359
O O15 0.172314 0.000000 0.999550
O O16 0.236799 0.863000 0.011296
O O17 0.768226 0.000000 0.792766
O O18 0.000000 0.095495 0.500000
O O19 0.990451 0.000000 0.291755
#
# Coordination Sequence:
#
# PCOD8096203 Si02
#       8
#     8   8   8   8   8   8   8   8
#     4  10  20  33  52  77 116 159 190 225 276 337
#     4  11  22  36  51  80 115 155 188 229 277 337
#     4  10  20  36  59  84 112 146 187 231 280 331
#     4  11  23  39  57  79 113 153 191 232 283 339
#     4  10  21  33  59  85 115 146 184 231 278 334
#     4   9  17  30  52  83 114 146 182 227 277 332
#     4   9  18  31  52  84 117 147 183 224 276 335
#     4   9  18  36  62  91 118 145 181 228 282 335
#
# _framework density 20.090008000000001
#
# number of rings (size 3 to 8) (size 9 to 14) (size 15 to 20)
#    0.000    2.125    1.250    2.625    1.750    6.000 
#    0.000    1.250    0.000    6.375    0.000    0.000 
#    0.000    0.000    0.000    0.000    0.000    0.000 
#
# Total GULP energy -396763.866697 kJ/mol
# GULP energy per Si atom -12398.870834 kJ/mol
# Density = 2.004428 g / cm^3
# Si number density = 20.090008 Si / 1000 Ang^3
#
#
#
# Elastic Constant Matrix: (Units=GPa)
#
#
# Indices 1 2 3 4 5 6 
#
# 1 34.5650 25.5002 28.0503 0.0000 -6.7766 0.0000
# 2 25.5002 105.1470 55.9290 0.0000 -8.2101 0.0000
# 3 28.0503 55.9290 111.9487 0.0000 5.2034 0.0000
# 4 0.0000 0.0000 0.0000 32.3374 0.0000 -2.9428
# 5 -6.7766 -8.2101 5.2034 0.0000 22.6380 0.0000
# 6 0.0000 0.0000 0.0000 -2.9428 0.0000 11.5332
#
#
#
# Elastic Compliance Matrix: (Units=1/GPa)
#
#
# Indices 1 2 3 4 5 6 
#
# 1 0.041978 -0.004424 -0.008913 0.000000 0.013010 0.000000
# 2 -0.004424 0.014357 -0.006312 0.000000 0.005334 0.000000
# 3 -0.008913 -0.006312 0.014707 0.000000 -0.008338 0.000000
# 4 0.000000 0.000000 0.000000 0.031659 0.000000 0.008078
# 5 0.013010 0.005334 -0.008338 0.000000 0.051919 0.000000
# 6 0.000000 0.000000 0.000000 0.008078 0.000000 0.088768
#
#
# Mechanical properties :
#
#
# Convention : Reuss Voigt Hill
#
# Bulk Modulus (GPa) = 31.50129 52.29108 41.89618
# Shear Modulus (GPa) = 17.04923 22.78045 19.91484
#
# Velocity S-wave (km/s) = 2.91631 3.37103 3.15188
# Velocity P-wave (km/s) = 5.20134 6.42158 5.84340
#
# Compressibility (1/GPa) = 0.03174474
#
# Stress axis : x y z
#
# Youngs Moduli (GPa) = 23.82183 69.65019 67.99441
#
# Poissons Ratio (x) = 0.30812 0.60603
# Poissons Ratio (y) = 0.10538 0.42921
# Poissons Ratio (z) = 0.21232 0.43966
#
# Static dielectric constant tensor:
#      x y z
#    x 3.437270 0.000000 0.125930 
#    y 0.000000 3.651580 0.000000 
#    z 0.125930 0.000000 3.842340 
# 
# 
# High freq. dielectric constant tensor:
#      x y z
#    x 1.744960 0.000000 0.013100 
#    y 0.000000 1.780450 0.000000 
#    z 0.013100 0.000000 1.789330 
# 
# From -- ./inp_files/111611.got.cif
#   From: 2010.06.25/outbox.cif.g09.slc.cpg/sg12_56_cif.got.tgz:111611.got - 2010.06.28 00:19:55.
