data_PCOD8096951
_publ_section_title
;
Structure prediction by ZEFSAII (Michael W. Deem and Ramdas Pophale) SiO2 
 PCOD8096951
Probable space group: C 2/M
;
_chemical_formula_sum "Si O2"
_cell_formula_units_Z 56
_cell_length_a 8.868908
_cell_length_b 19.026630
_cell_length_c 22.413502
_cell_angle_alpha 90.000000
_cell_angle_beta 126.408781
_cell_angle_gamma 90.000000
_cell_volume 3043.906039
_symmetry_space_group_name_H-M "C 2/M"
_symmetry_group_IT_number 12
_symmetry_cell_setting 'monoclinic'
loop_
_space_group_symop_operation_xyz
x,y,z
-x,y,-z
-x,-y,-z
x,-y,z
1/2+x,1/2+y,z
1/2-x,1/2+y,-z
1/2-x,1/2-y,-z
1/2+x,1/2-y,z
loop_
_atom_site_type_symbol
_atom_site_label
_atom_site_fract_x
_atom_site_fract_y
_atom_site_fract_z
Si Si1 0.684331 0.325228 0.575858
Si Si2 0.473834 0.079664 0.863656
Si Si3 0.245203 0.419718 0.712792
Si Si4 0.882868 0.079664 0.136344
Si Si5 0.820841 0.673428 0.000000
Si Si6 0.543243 0.825228 0.575858
Si Si7 0.106829 0.580282 0.287209
O O1 0.500000 0.355731 0.500000
O O2 0.640391 0.250000 0.593593
O O3 0.851713 0.319404 0.567808
O O4 0.733074 0.376091 0.641915
O O5 0.291003 0.080321 0.860669
O O6 0.419673 0.108877 0.785904
O O7 0.554285 0.000000 0.878277
O O8 0.629811 0.130596 0.928395
O O9 0.267268 0.500000 0.697381
O O10 0.438037 0.391123 0.785905
O O11 0.192670 0.376092 0.641915
O O12 0.090071 0.410613 0.726715
O O13 0.844626 0.130595 0.071604
O O14 0.919455 0.000000 0.121723
O O15 0.750000 0.750000 0.000000
O O16 0.000000 0.680284 0.000000
O O17 0.500000 0.855732 0.500000
O O18 0.175129 0.500000 0.302621
#
# Coordination Sequence:
#
# PCOD8096951 Si02
#       7
#     8   8   8   8   8   8   8
#     4  10  20  34  52  73 100 133 167 204 246 294
#     4   9  18  34  55  75  97 130 169 206 245 291
#     4   9  19  35  53  75 102 130 163 205 250 294
#     4   9  18  34  55  75  97 130 169 206 245 291
#     4  10  21  35  51  75 105 132 164 206 248 292
#     4  10  20  34  52  73 100 133 167 204 246 294
#     4   9  19  35  53  75 102 130 163 205 250 294
#
# _framework density 18.397414999999999
#
# number of rings (size 3 to 8) (size 9 to 14) (size 15 to 20)
#    0.000    2.571    0.000    2.143    0.000    6.857 
#    0.000    5.714    0.000    4.286    0.000    0.000 
#    0.000    0.000    0.000    0.000    0.000    0.000 
#
# Total GULP energy -347220.855575 kJ/mol
# GULP energy per Si atom -12400.744842 kJ/mol
# Density = 1.835554 g / cm^3
# Si number density = 18.397415 Si / 1000 Ang^3
#
#
#
# Elastic Constant Matrix: (Units=GPa)
#
#
# Indices 1 2 3 4 5 6 
#
# 1 42.2856 33.1428 47.8496 0.0000 -3.9162 0.0000
# 2 33.1428 104.0563 104.2262 0.0000 -3.7435 0.0000
# 3 47.8496 104.2262 199.0466 0.0000 -4.3393 0.0000
# 4 0.0000 0.0000 0.0000 29.3405 0.0000 -0.1092
# 5 -3.9162 -3.7435 -4.3393 0.0000 34.4212 0.0000
# 6 0.0000 0.0000 0.0000 -0.1092 0.0000 27.2603
#
#
#
# Elastic Compliance Matrix: (Units=1/GPa)
#
#
# Indices 1 2 3 4 5 6 
#
# 1 0.034178 -0.005508 -0.005275 0.000000 0.002625 0.000000
# 2 -0.005508 0.021123 -0.009727 0.000000 0.000444 0.000000
# 3 -0.005275 -0.009727 0.011380 0.000000 -0.000223 0.000000
# 4 0.000000 0.000000 0.000000 0.034083 0.000000 0.000137
# 5 0.002625 0.000444 -0.000223 0.000000 0.029371 0.000000
# 6 0.000000 0.000000 0.000000 0.000137 0.000000 0.036684
#
#
# Mechanical properties :
#
#
# Convention : Reuss Voigt Hill
#
# Bulk Modulus (GPa) = 38.96834 79.53617 59.25226
# Shear Modulus (GPa) = 23.10613 28.88239 25.99426
#
# Velocity S-wave (km/s) = 3.54778 3.96651 3.76297
# Velocity P-wave (km/s) = 6.16520 8.01896 7.15239
#
# Compressibility (1/GPa) = 0.02566186
#
# Stress axis : x y z
#
# Youngs Moduli (GPa) = 29.25885 47.34083 87.87060
#
# Poissons Ratio (x) = 0.26076 0.46349
# Poissons Ratio (y) = 0.16116 0.85471
# Poissons Ratio (z) = 0.15433 0.46048
#
# Static dielectric constant tensor:
#      x y z
#    x 3.278320 0.000000 -0.019260 
#    y 0.000000 3.414890 0.000000 
#    z -0.019260 0.000000 3.644050 
# 
# 
# High freq. dielectric constant tensor:
#      x y z
#    x 1.707020 0.000000 -0.001080 
#    y 0.000000 1.707350 0.000000 
#    z -0.001080 0.000000 1.727520 
# 
# From -- ./inp_files/314387.got.cif
#   From: 2010.06.25/outbox.cif.g09.slc.cpg/sg12_158_cif.got.tgz:314387.got - 2010.06.28 00:19:55.
