data_PCOD8096939
_publ_section_title
;
Structure prediction by ZEFSAII (Michael W. Deem and Ramdas Pophale) SiO2 
 PCOD8096939
Probable space group: C 2/M
;
_chemical_formula_sum "Si O2"
_cell_formula_units_Z 48
_cell_length_a 22.624236
_cell_length_b 9.167861
_cell_length_c 34.063197
_cell_angle_alpha 90.000000
_cell_angle_beta 156.873539
_cell_angle_gamma 90.000000
_cell_volume 2774.959672
_symmetry_space_group_name_H-M "C 2/M"
_symmetry_group_IT_number 12
_symmetry_cell_setting 'monoclinic'
loop_
_space_group_symop_operation_xyz
x,y,z
-x,y,-z
-x,-y,-z
x,-y,z
1/2+x,1/2+y,z
1/2-x,1/2+y,-z
1/2-x,1/2-y,-z
1/2+x,1/2-y,z
loop_
_atom_site_type_symbol
_atom_site_label
_atom_site_fract_x
_atom_site_fract_y
_atom_site_fract_z
Si Si1 0.918054 0.829872 0.559802
Si Si2 0.103681 0.669411 0.828741
Si Si3 0.584643 0.829097 0.591600
Si Si4 0.390315 0.834078 0.771169
Si Si5 0.428723 0.830783 0.644629
Si Si6 0.324489 0.832577 0.009781
O O1 0.741776 0.797602 0.446631
O O2 0.976336 0.764737 0.636460
O O3 0.004505 0.754091 0.577594
O O4 0.955368 0.000000 0.581987
O O5 0.144477 0.500000 0.854850
O O6 0.983093 0.707340 0.788808
O O7 0.036237 0.716240 0.745840
O O8 0.259816 0.758464 0.930591
O O9 0.500000 0.788481 0.500000
O O10 0.756030 0.778746 0.693134
O O11 0.580155 0.000000 0.597601
O O12 0.495241 0.819265 0.874296
O O13 0.329426 0.000000 0.730476
O O14 0.447466 0.000000 0.645144
O O15 0.273851 0.000000 0.979689
O O16 0.250000 0.750000 0.000000
#
# Coordination Sequence:
#
# PCOD8096939 Si02
#       6
#     8   8   8   8   8   8
#     4  10  20  34  52  72  97 131 165 198 240 286
#     4   9  17  30  50  75 101 129 161 198 242 289
#     4  11  23  35  49  72 100 129 162 200 241 287
#     4   9  18  32  49  71 100 132 163 196 239 289
#     4   9  18  33  52  74 100 128 161 201 240 284
#     4   9  17  29  46  70  99 128 161 201 242 286
#
# _framework density 17.297550000000001
#
# number of rings (size 3 to 8) (size 9 to 14) (size 15 to 20)
#    0.000    2.500    0.000    3.500    0.000    7.333 
#    0.000    0.000    0.000    1.000    0.000    7.000 
#    0.000    0.000    0.000    0.000    0.000    0.000 
#
# Total GULP energy -297566.309817 kJ/mol
# GULP energy per Si atom -12398.596242 kJ/mol
# Density = 1.725818 g / cm^3
# Si number density = 17.297550 Si / 1000 Ang^3
#
#
#
# Elastic Constant Matrix: (Units=GPa)
#
#
# Indices 1 2 3 4 5 6 
#
# 1 97.4681 59.1294 57.2442 -0.0009 -17.1141 0.0023
# 2 59.1294 95.6601 65.1602 -0.0026 -13.9822 0.0036
# 3 57.2442 65.1602 115.4601 0.0121 -27.1035 -0.0106
# 4 -0.0009 -0.0026 0.0121 29.0224 -0.0009 6.2703
# 5 -17.1141 -13.9822 -27.1035 -0.0009 26.6835 0.0006
# 6 0.0023 0.0036 -0.0106 6.2703 0.0006 16.4519
#
#
#
# Elastic Compliance Matrix: (Units=1/GPa)
#
#
# Indices 1 2 3 4 5 6 
#
# 1 0.017867 -0.008223 -0.003334 0.000002 0.003764 -0.000004
# 2 -0.008223 0.020790 -0.008321 0.000007 -0.002832 -0.000012
# 3 -0.003334 -0.008321 0.017707 -0.000012 0.011486 0.000018
# 4 0.000002 0.000007 -0.000012 0.037548 -0.000005 -0.014311
# 5 0.003764 -0.002832 0.011486 -0.000005 0.050074 0.000008
# 6 -0.000004 -0.000012 0.000018 -0.014311 0.000008 0.066237
#
#
# Mechanical properties :
#
#
# Convention : Reuss Voigt Hill
#
# Bulk Modulus (GPa) = 60.21220 74.62842 67.42031
# Shear Modulus (GPa) = 19.56824 22.90187 21.23506
#
# Velocity S-wave (km/s) = 3.36709 3.64262 3.50756
# Velocity P-wave (km/s) = 7.07118 7.80571 7.44751
#
# Compressibility (1/GPa) = 0.01660793
#
# Stress axis : x y z
#
# Youngs Moduli (GPa) = 55.96803 48.09900 56.47626
#
# Poissons Ratio (x) = 0.39550 0.18831
# Poissons Ratio (y) = 0.46021 0.46994
# Poissons Ratio (z) = 0.18662 0.40024
#
# Static dielectric constant tensor:
#      x y z
#    x 3.094460 0.000000 -0.378040 
#    y 0.000000 3.353310 -0.000010 
#    z -0.378040 -0.000010 3.736720 
# 
# 
# High freq. dielectric constant tensor:
#      x y z
#    x 1.640180 0.000000 -0.019590 
#    y 0.000000 1.677810 0.000000 
#    z -0.019590 0.000000 1.671270 
# 
# From -- ./inp_files/244857.got.cif
#   From: 2010.06.25/outbox.cif.g09.slc.cpg/sg12_123_cif.got.tgz:244857.got - 2010.06.28 00:19:55.
