data_PCOD8096240
_publ_section_title
;
Structure prediction by ZEFSAII (Michael W. Deem and Ramdas Pophale) SiO2 
 PCOD8096240
Probable space group: C 2/M
;
_chemical_formula_sum "Si O2"
_cell_formula_units_Z 64
_cell_length_a 29.907038
_cell_length_b 9.422605
_cell_length_c 15.815346
_cell_angle_alpha 90.000000
_cell_angle_beta 132.324908
_cell_angle_gamma 90.000000
_cell_volume 3295.083146
_symmetry_space_group_name_H-M "C 2/M"
_symmetry_group_IT_number 12
_symmetry_cell_setting 'monoclinic'
loop_
_space_group_symop_operation_xyz
x,y,z
-x,y,-z
-x,-y,-z
x,-y,z
1/2+x,1/2+y,z
1/2-x,1/2+y,-z
1/2-x,1/2-y,-z
1/2+x,1/2-y,z
loop_
_atom_site_type_symbol
_atom_site_label
_atom_site_fract_x
_atom_site_fract_y
_atom_site_fract_z
Si Si1 0.344024 0.330917 0.779440
Si Si2 0.836638 0.836955 0.310054
Si Si3 0.993050 0.663204 0.251789
Si Si4 0.120254 0.337299 0.334777
Si Si5 0.455746 0.333621 0.368594
Si Si6 0.794890 0.662992 0.406014
Si Si7 0.613481 0.835657 0.005805
Si Si8 0.770833 0.661228 0.947963
O O1 0.350760 0.500000 0.788910
O O2 0.377761 0.268864 0.741035
O O3 0.274035 0.282594 0.686510
O O4 0.376980 0.266470 0.902773
O O5 0.888455 0.787653 0.310993
O O6 0.838421 0.748545 0.398410
O O7 0.771970 0.809078 0.186039
O O8 0.847174 0.000000 0.348391
O O9 0.986035 0.500000 0.270028
O O10 0.972627 0.756272 0.304306
O O11 0.061563 0.700799 0.315314
O O12 0.952041 0.694886 0.117199
O O13 0.116676 0.500000 0.297847
O O14 0.179929 0.314329 0.467609
O O15 0.500000 0.286432 0.500000
O O16 0.460469 0.500000 0.356485
O O17 0.798653 0.500000 0.383289
O O18 0.661861 0.797581 0.994529
O O19 0.620960 0.000000 0.043736
O O20 0.766392 0.500000 0.972043
O O21 0.750000 0.750000 0.000000
#
# Coordination Sequence:
#
# PCOD8096240 Si02
#       8
#     8   8   8   8   8   8   8   8
#     4  11  23  38  59  88 114 145 190 236 287 342
#     4  10  20  34  54  81 112 149 187 224 279 338
#     4  10  22  39  60  85 112 150 198 236 277 336
#     4  10  22  40  60  83 113 149 188 236 288 339
#     4  10  21  36  55  83 119 155 190 231 282 337
#     4  10  21  37  58  86 116 145 186 236 286 339
#     4  10  21  39  59  81 114 152 188 232 284 336
#     4  10  20  33  52  78 107 143 183 224 272 324
#
# _framework density 19.422878000000001
#
# number of rings (size 3 to 8) (size 9 to 14) (size 15 to 20)
#    0.000    1.875    1.250    2.250    0.000    4.250 
#    0.000    2.500    0.000    0.000    0.000    0.000 
#    0.000    0.000    0.000    0.000    0.000    0.000 
#
# Total GULP energy -396931.989733 kJ/mol
# GULP energy per Si atom -12404.124679 kJ/mol
# Density = 1.937867 g / cm^3
# Si number density = 19.422878 Si / 1000 Ang^3
#
#
#
# Elastic Constant Matrix: (Units=GPa)
#
#
# Indices 1 2 3 4 5 6 
#
# 1 81.2106 48.3544 40.0146 0.0000 -9.6119 0.0000
# 2 48.3544 75.3123 41.6345 0.0000 -18.1957 0.0000
# 3 40.0146 41.6345 76.6660 0.0000 -5.5874 0.0000
# 4 0.0000 0.0000 0.0000 30.1572 0.0000 -10.1073
# 5 -9.6119 -18.1957 -5.5874 0.0000 35.7391 0.0000
# 6 0.0000 0.0000 0.0000 -10.1073 0.0000 38.5015
#
#
#
# Elastic Compliance Matrix: (Units=1/GPa)
#
#
# Indices 1 2 3 4 5 6 
#
# 1 0.021347 -0.010975 -0.005230 0.000000 -0.000664 0.000000
# 2 -0.010975 0.027289 -0.008390 0.000000 0.009630 0.000000
# 3 -0.005230 -0.008390 0.020145 0.000000 -0.002529 0.000000
# 4 0.000000 0.000000 0.000000 0.036359 0.000000 0.009545
# 5 -0.000664 0.009630 -0.002529 0.000000 0.032310 0.000000
# 6 0.000000 0.000000 0.000000 0.009545 0.000000 0.028479
#
#
# Mechanical properties :
#
#
# Convention : Reuss Voigt Hill
#
# Bulk Modulus (GPa) = 51.04132 54.79954 52.92043
# Shear Modulus (GPa) = 22.55831 27.75858 25.15845
#
# Velocity S-wave (km/s) = 3.41167 3.78454 3.60293
# Velocity P-wave (km/s) = 6.46957 6.88274 6.67935
#
# Compressibility (1/GPa) = 0.01959197
#
# Stress axis : x y z
#
# Youngs Moduli (GPa) = 46.84583 36.64442 49.63969
#
# Poissons Ratio (x) = 0.40217 0.25961
# Poissons Ratio (y) = 0.51413 0.41647
# Poissons Ratio (z) = 0.24500 0.30744
#
# Static dielectric constant tensor:
#      x y z
#    x 3.502970 0.000000 0.215860 
#    y 0.000000 3.484320 0.000000 
#    z 0.215860 0.000000 3.549400 
# 
# 
# High freq. dielectric constant tensor:
#      x y z
#    x 1.760530 0.000000 0.005980 
#    y 0.000000 1.749970 0.000000 
#    z 0.005980 0.000000 1.762820 
# 
# From -- ./inp_files/249879.got.cif
#   From: 2010.06.25/outbox.cif.g09.slc.cpg/sg12_125_cif.got.tgz:249879.got - 2010.06.28 00:19:55.
