data_PCOD8096060
_publ_section_title
;
Structure prediction by ZEFSAII (Michael W. Deem and Ramdas Pophale) SiO2 
 PCOD8096060
Probable space group: C 2/M
;
_chemical_formula_sum "Si O2"
_cell_formula_units_Z 40
_cell_length_a 27.736582
_cell_length_b 8.941500
_cell_length_c 25.324638
_cell_angle_alpha 90.000000
_cell_angle_beta 160.048118
_cell_angle_gamma 90.000000
_cell_volume 2143.161306
_symmetry_space_group_name_H-M "C 2/M"
_symmetry_group_IT_number 12
_symmetry_cell_setting 'monoclinic'
loop_
_space_group_symop_operation_xyz
x,y,z
-x,y,-z
-x,-y,-z
x,-y,z
1/2+x,1/2+y,z
1/2-x,1/2+y,-z
1/2-x,1/2-y,-z
1/2+x,1/2-y,z
loop_
_atom_site_type_symbol
_atom_site_label
_atom_site_fract_x
_atom_site_fract_y
_atom_site_fract_z
Si Si1 0.737100 0.327267 0.208174
Si Si2 0.438819 0.327834 0.340406
Si Si3 0.777525 0.325153 0.972870
Si Si4 0.762244 0.674711 0.680978
Si Si5 0.513180 0.326483 0.886862
O O1 0.753598 0.500000 0.240485
O O2 0.704742 0.233639 0.226795
O O3 0.881279 0.271993 0.329246
O O4 0.606502 0.299395 0.034894
O O5 0.416519 0.500000 0.333832
O O6 0.357184 0.289796 0.202548
O O7 0.601994 0.289497 0.499484
O O8 0.801337 0.500000 0.005264
O O9 0.750000 0.250000 0.000000
O O10 0.918389 0.256170 0.092562
O O11 0.796096 0.500000 0.714224
O O12 0.859053 0.758203 0.737981
O O13 0.499542 0.500000 0.858865
#
# Coordination Sequence:
#
# PCOD8096060 Si02
#       5
#     8   8   8   8   8
#     4  10  20  33  51  76 107 143 179 212 250 300
#     4   9  20  36  53  76 106 138 173 213 256 306
#     4  10  20  38  61  80 100 130 170 215 263 312
#     4  11  21  33  51  77 109 142 174 210 255 304
#     4  10  21  36  53  77 107 138 175 215 255 302
#
# _framework density 18.664016
#
# number of rings (size 3 to 8) (size 9 to 14) (size 15 to 20)
#    0.000    2.000    0.000    3.600    0.000    9.600 
#    0.000    1.000    0.000    0.000    0.000    0.000 
#    0.000    0.000    0.000    0.000    0.000    0.000 
#
# Total GULP energy -248113.133569 kJ/mol
# GULP energy per Si atom -12405.656678 kJ/mol
# Density = 1.862154 g / cm^3
# Si number density = 18.664016 Si / 1000 Ang^3
#
#
#
# Elastic Constant Matrix: (Units=GPa)
#
#
# Indices 1 2 3 4 5 6 
#
# 1 123.7723 57.5532 45.1553 0.0006 24.9463 0.0001
# 2 57.5532 104.1582 46.0038 0.0039 18.8601 0.0008
# 3 45.1553 46.0038 85.3464 0.0055 33.2325 0.0014
# 4 0.0006 0.0039 0.0055 28.5461 0.0014 7.3001
# 5 24.9463 18.8601 33.2325 0.0014 25.3094 0.0002
# 6 0.0001 0.0008 0.0014 7.3001 0.0002 38.9365
#
#
#
# Elastic Compliance Matrix: (Units=1/GPa)
#
#
# Indices 1 2 3 4 5 6 
#
# 1 0.012187 -0.005018 -0.001068 0.000001 -0.006871 0.000000
# 2 -0.005018 0.014679 -0.005983 -0.000001 0.001864 0.000000
# 3 -0.001068 -0.005983 0.027339 -0.000003 -0.030387 0.000000
# 4 0.000001 -0.000001 -0.000003 0.036795 0.000001 -0.006899
# 5 -0.006871 0.001864 -0.030387 0.000001 0.084794 0.000000
# 6 0.000000 0.000000 0.000000 -0.006899 0.000000 0.026976
#
#
# Mechanical properties :
#
#
# Convention : Reuss Voigt Hill
#
# Bulk Modulus (GPa) = 33.25892 67.85571 50.55732
# Shear Modulus (GPa) = 21.10334 29.52938 25.31636
#
# Velocity S-wave (km/s) = 3.36623 3.98195 3.68696
# Velocity P-wave (km/s) = 5.74171 7.58792 6.72844
#
# Compressibility (1/GPa) = 0.03006712
#
# Stress axis : x y z
#
# Youngs Moduli (GPa) = 82.05326 68.12593 36.57828
#
# Poissons Ratio (x) = 0.34189 0.03905
# Poissons Ratio (y) = 0.41178 0.21884
# Poissons Ratio (z) = 0.08759 0.40758
#
# Static dielectric constant tensor:
#      x y z
#    x 3.341930 0.000000 0.144130 
#    y 0.000000 3.564210 0.000000 
#    z 0.144130 0.000000 3.468330 
# 
# 
# High freq. dielectric constant tensor:
#      x y z
#    x 1.714240 0.000000 0.014760 
#    y 0.000000 1.739020 0.000000 
#    z 0.014760 0.000000 1.722080 
# 
# From -- ./inp_files/92723.got.cif
#   From: 2010.06.25/outbox.cif.g09.slc.cpg/sg12_47_cif.got.tgz:92723.got - 2010.06.28 00:19:55.
