data_PCOD8096546
_publ_section_title
;
Structure prediction by ZEFSAII (Michael W. Deem and Ramdas Pophale) SiO2 
 PCOD8096546
Probable space group: C 2/M
;
_chemical_formula_sum "Si O2"
_cell_formula_units_Z 48
_cell_length_a 23.265724
_cell_length_b 9.094485
_cell_length_c 23.959630
_cell_angle_alpha 90.000000
_cell_angle_beta 28.139504
_cell_angle_gamma 90.000000
_cell_volume 2390.930650
_symmetry_space_group_name_H-M "C 2/M"
_symmetry_group_IT_number 12
_symmetry_cell_setting 'monoclinic'
loop_
_space_group_symop_operation_xyz
x,y,z
-x,y,-z
-x,-y,-z
x,-y,z
1/2+x,1/2+y,z
1/2-x,1/2+y,-z
1/2-x,1/2-y,-z
1/2+x,1/2-y,z
loop_
_atom_site_type_symbol
_atom_site_label
_atom_site_fract_x
_atom_site_fract_y
_atom_site_fract_z
Si Si1 0.438992 0.826475 0.719057
Si Si2 0.665671 0.837122 0.830231
Si Si3 0.367587 0.675055 0.372451
Si Si4 0.580053 0.331889 0.797727
Si Si5 0.836382 0.832194 0.060844
Si Si6 0.950947 0.835147 0.599902
O O1 0.509503 0.739380 0.706481
O O2 0.296580 0.780801 0.846431
O O3 0.493047 0.773103 0.613336
O O4 0.460810 0.000000 0.706743
O O5 0.648047 0.760250 0.786321
O O6 0.608311 0.754929 0.933112
O O7 0.807324 0.841682 0.721214
O O8 0.609636 0.000000 0.875086
O O9 0.362489 0.500000 0.385467
O O10 0.250000 0.750000 0.500000
O O11 0.373106 0.718791 0.302696
O O12 0.615053 0.500000 0.778424
O O13 0.433195 0.310564 0.927943
O O14 0.825859 0.000000 0.089678
O O15 0.000000 0.768714 0.500000
O O16 0.004452 0.000000 0.563902
#
# Coordination Sequence:
#
# PCOD8096546 Si02
#       6
#     8   8   8   8   8   8
#     4  10  21  38  60  86 114 148 190 238 286 339
#     4  10  20  33  54  88 122 150 188 236 286 337
#     4  11  25  43  61  83 114 153 196 241 288 341
#     4  10  22  39  59  83 114 156 196 232 284 345
#     4   9  19  38  61  85 117 153 189 232 286 346
#     4   9  19  35  55  81 113 153 192 234 286 336
#
# _framework density 20.075863999999999
#
# number of rings (size 3 to 8) (size 9 to 14) (size 15 to 20)
#    0.000    2.167    0.000    2.000    2.333    6.333 
#    0.000    0.000    0.000    0.000    0.000    0.000 
#    0.000    0.000    0.000    0.000    0.000    0.000 
#
# Total GULP energy -297596.664502 kJ/mol
# GULP energy per Si atom -12399.861021 kJ/mol
# Density = 2.003017 g / cm^3
# Si number density = 20.075864 Si / 1000 Ang^3
#
#
#
# Elastic Constant Matrix: (Units=GPa)
#
#
# Indices 1 2 3 4 5 6 
#
# 1 123.0456 69.1380 44.4753 0.0007 11.9876 -0.0003
# 2 69.1380 104.6422 44.5116 0.0050 10.4092 -0.0036
# 3 44.4753 44.5116 90.6369 0.0005 25.6965 -0.0004
# 4 0.0007 0.0050 0.0005 25.3470 -0.0011 -0.7657
# 5 11.9876 10.4092 25.6965 -0.0011 29.1599 0.0005
# 6 -0.0003 -0.0036 -0.0004 -0.7657 0.0005 36.0302
#
#
#
# Elastic Compliance Matrix: (Units=1/GPa)
#
#
# Indices 1 2 3 4 5 6 
#
# 1 0.013481 -0.007712 -0.002715 0.000001 -0.000396 -0.000001
# 2 -0.007712 0.016525 -0.004742 -0.000003 0.001451 0.000001
# 3 -0.002715 -0.004742 0.018526 0.000000 -0.013517 0.000000
# 4 0.000001 -0.000003 0.000000 0.039478 0.000002 0.000839
# 5 -0.000396 0.001451 -0.013517 0.000002 0.045850 -0.000001
# 6 -0.000001 0.000001 0.000000 0.000839 -0.000001 0.027772
#
#
# Mechanical properties :
#
#
# Convention : Reuss Voigt Hill
#
# Bulk Modulus (GPa) = 54.96716 70.50828 62.73772
# Shear Modulus (GPa) = 25.24802 28.78741 27.01772
#
# Velocity S-wave (km/s) = 3.55016 3.79084 3.67247
# Velocity P-wave (km/s) = 6.65161 7.37277 7.02146
#
# Compressibility (1/GPa) = 0.01819268
#
# Stress axis : x y z
#
# Youngs Moduli (GPa) = 74.18100 60.51468 53.97737
#
# Poissons Ratio (x) = 0.46672 0.14655
# Poissons Ratio (y) = 0.57212 0.25597
# Poissons Ratio (z) = 0.20140 0.28697
#
# Static dielectric constant tensor:
#      x y z
#    x 3.597750 0.000000 0.051240 
#    y 0.000000 3.859720 0.000000 
#    z 0.051240 0.000000 3.749020 
# 
# 
# High freq. dielectric constant tensor:
#      x y z
#    x 1.776900 0.000000 -0.001720 
#    y 0.000000 1.786040 0.000000 
#    z -0.001720 0.000000 1.791540 
# 
# From -- ./inp_files/348767.got.cif
#   From: 2010.06.25/outbox.cif.g09.slc.cpg/sg12_175_cif.got.tgz:348767.got - 2010.06.28 00:19:55.
