data_PCOD8096883
_publ_section_title
;
Structure prediction by ZEFSAII (Michael W. Deem and Ramdas Pophale) SiO2 
 PCOD8096883
Probable space group: C 2/M
;
_chemical_formula_sum "Si O2"
_cell_formula_units_Z 48
_cell_length_a 25.027187
_cell_length_b 9.201534
_cell_length_c 11.526405
_cell_angle_alpha 90.000000
_cell_angle_beta 70.252457
_cell_angle_gamma 90.000000
_cell_volume 2498.294813
_symmetry_space_group_name_H-M "C 2/M"
_symmetry_group_IT_number 12
_symmetry_cell_setting 'monoclinic'
loop_
_space_group_symop_operation_xyz
x,y,z
-x,y,-z
-x,-y,-z
x,-y,z
1/2+x,1/2+y,z
1/2-x,1/2+y,-z
1/2-x,1/2-y,-z
1/2+x,1/2-y,z
loop_
_atom_site_type_symbol
_atom_site_label
_atom_site_fract_x
_atom_site_fract_y
_atom_site_fract_z
Si Si1 0.565040 0.171865 0.187949
Si Si2 0.876353 0.666273 0.087914
Si Si3 0.167211 0.169836 0.501155
Si Si4 0.032109 0.161237 0.856765
Si Si5 0.715174 0.833787 0.677231
Si Si6 0.436142 0.670685 0.580139
O O1 0.503879 0.241607 0.205387
O O2 0.586152 0.241769 0.291756
O O3 0.558322 0.000000 0.206317
O O4 0.610913 0.214164 0.053831
O O5 0.896692 0.500000 0.086707
O O6 0.908997 0.760745 0.159843
O O7 0.810037 0.686051 0.173065
O O8 0.218989 0.215590 0.376037
O O9 0.175709 0.246374 0.617342
O O10 0.106714 0.215589 0.491469
O O11 0.167973 0.000000 0.524263
O O12 0.042430 0.000000 0.794745
O O13 0.000000 0.144928 0.000000
O O14 0.710300 0.000000 0.641701
O O15 0.500000 0.717567 0.500000
O O16 0.432578 0.500000 0.610619
#
# Coordination Sequence:
#
# PCOD8096883 Si02
#       6
#     8   8   8   8   8   8
#     4  10  20  34  51  74 106 139 174 214 259 314
#     4   9  18  32  51  77 106 136 171 215 265 311
#     4   9  19  36  55  77 105 138 176 219 262 306
#     4   9  17  29  47  72 103 137 171 209 253 303
#     4   9  18  34  57  80 104 135 173 217 264 311
#     4  10  22  38  54  74 105 142 177 215 262 314
#
# _framework density 19.213104999999999
#
# number of rings (size 3 to 8) (size 9 to 14) (size 15 to 20)
#    0.000    2.667    0.000    1.000    2.333    4.333 
#    0.000    0.833    0.000    0.000    0.000    0.000 
#    0.000    0.000    0.000    0.000    0.000    0.000 
#
# Total GULP energy -297453.269972 kJ/mol
# GULP energy per Si atom -12393.886249 kJ/mol
# Density = 1.916937 g / cm^3
# Si number density = 19.213105 Si / 1000 Ang^3
#
#
#
# Elastic Constant Matrix: (Units=GPa)
#
#
# Indices 1 2 3 4 5 6 
#
# 1 102.0904 27.9801 45.6834 0.0000 -6.8243 0.0000
# 2 27.9801 60.4563 30.9275 0.0000 1.9570 0.0000
# 3 45.6834 30.9275 98.5513 0.0000 -15.4354 0.0000
# 4 0.0000 0.0000 0.0000 27.3430 0.0000 6.2593
# 5 -6.8243 1.9570 -15.4354 0.0000 27.5373 0.0000
# 6 0.0000 0.0000 0.0000 6.2593 0.0000 23.6269
#
#
#
# Elastic Compliance Matrix: (Units=1/GPa)
#
#
# Indices 1 2 3 4 5 6 
#
# 1 0.012961 -0.003592 -0.004755 0.000000 0.000802 0.000000
# 2 -0.003592 0.021441 -0.005966 0.000000 -0.005758 0.000000
# 3 -0.004755 -0.005966 0.015463 0.000000 0.007913 0.000000
# 4 0.000000 0.000000 0.000000 0.038934 0.000000 -0.010314
# 5 0.000802 -0.005758 0.007913 0.000000 0.041358 0.000000
# 6 0.000000 0.000000 0.000000 -0.010314 0.000000 0.045057
#
#
# Mechanical properties :
#
#
# Convention : Reuss Voigt Hill
#
# Bulk Modulus (GPa) = 47.08149 52.25335 49.66742
# Shear Modulus (GPa) = 23.70573 26.13523 24.92048
#
# Velocity S-wave (km/s) = 3.51640 3.69220 3.60537
# Velocity P-wave (km/s) = 6.40663 6.74034 6.57560
#
# Compressibility (1/GPa) = 0.02123977
#
# Stress axis : x y z
#
# Youngs Moduli (GPa) = 77.15338 46.63872 64.67137
#
# Poissons Ratio (x) = 0.16752 0.30754
# Poissons Ratio (y) = 0.27713 0.38580
# Poissons Ratio (z) = 0.36689 0.27823
#
# Static dielectric constant tensor:
#      x y z
#    x 3.468980 0.000000 -0.212980 
#    y 0.000000 3.568550 0.000000 
#    z -0.212980 0.000000 3.528600 
# 
# 
# High freq. dielectric constant tensor:
#      x y z
#    x 1.722110 0.000000 -0.018610 
#    y 0.000000 1.746340 0.000000 
#    z -0.018610 0.000000 1.750150 
# 
# From -- ./inp_files/172935.got.cif
#   From: 2010.06.25/outbox.cif.g09.slc.cpg/sg12_87_cif.got.tgz:172935.got - 2010.06.28 00:19:55.
