data_PCOD8096299
_publ_section_title
;
Structure prediction by ZEFSAII (Michael W. Deem and Ramdas Pophale) SiO2 
 PCOD8096299
Probable space group: C 2/M
;
_chemical_formula_sum "Si O2"
_cell_formula_units_Z 56
_cell_length_a 20.869285
_cell_length_b 9.320874
_cell_length_c 29.723514
_cell_angle_alpha 90.000000
_cell_angle_beta 150.625463
_cell_angle_gamma 90.000000
_cell_volume 2836.076902
_symmetry_space_group_name_H-M "C 2/M"
_symmetry_group_IT_number 12
_symmetry_cell_setting 'monoclinic'
loop_
_space_group_symop_operation_xyz
x,y,z
-x,y,-z
-x,-y,-z
x,-y,z
1/2+x,1/2+y,z
1/2-x,1/2+y,-z
1/2-x,1/2-y,-z
1/2+x,1/2-y,z
loop_
_atom_site_type_symbol
_atom_site_label
_atom_site_fract_x
_atom_site_fract_y
_atom_site_fract_z
Si Si1 0.378148 0.671875 0.795494
Si Si2 0.625150 0.669955 0.102594
Si Si3 0.161835 0.343999 0.502718
Si Si4 0.853658 0.332054 0.408887
Si Si5 0.063384 0.156509 0.372124
Si Si6 0.123915 0.335405 0.798068
Si Si7 0.874301 0.668271 0.094937
O O1 0.398942 0.500000 0.803166
O O2 0.371332 0.720194 0.843396
O O3 0.244037 0.726624 0.689462
O O4 0.496733 0.754206 0.844365
O O5 0.618952 0.500000 0.096745
O O6 0.751216 0.725203 0.152618
O O7 0.500000 0.735230 0.000000
O O8 0.092488 0.500000 0.465251
O O9 0.207211 0.291599 0.579764
O O10 0.054558 0.239065 0.414543
O O11 0.285425 0.360732 0.546640
O O12 0.864046 0.500000 0.406689
O O13 0.000000 0.264312 0.500000
O O14 0.999122 0.243993 0.292664
O O15 0.997816 0.000000 0.337115
O O16 0.098109 0.500000 0.769539
O O17 0.139552 0.314888 0.860315
O O18 0.874643 0.500000 0.081383
O O19 0.750000 0.750000 0.000000
#
# Coordination Sequence:
#
# PCOD8096299 Si02
#       7
#     8   8   8   8   8   8   8
#     4  10  20  36  60  87 117 153 193 244 297 344
#     4   9  18  34  57  84 112 145 190 237 280 334
#     4   9  18  33  52  74 107 143 183 231 274 329
#     4   9  18  31  53  83 109 143 196 243 281 329
#     4  10  20  33  52  80 109 142 181 228 285 336
#     4  10  21  36  58  85 110 144 191 235 279 335
#     4  11  23  39  61  88 118 152 192 239 292 354
#
# _framework density 19.745584999999998
#
# number of rings (size 3 to 8) (size 9 to 14) (size 15 to 20)
#    0.000    2.286    0.000    2.571    2.000    5.143 
#    0.000    1.429    0.000    2.571    0.000    0.000 
#    0.000    0.000    0.000    0.000    0.000    0.000 
#
# Total GULP energy -347025.740449 kJ/mol
# GULP energy per Si atom -12393.776445 kJ/mol
# Density = 1.970064 g / cm^3
# Si number density = 19.745585 Si / 1000 Ang^3
#
#
#
# Elastic Constant Matrix: (Units=GPa)
#
#
# Indices 1 2 3 4 5 6 
#
# 1 119.3360 39.6563 50.4632 0.0001 -11.2332 0.0000
# 2 39.6563 86.5625 57.8088 -0.0003 -10.0306 -0.0005
# 3 50.4632 57.8088 145.4549 -0.0014 -17.6579 0.0006
# 4 0.0001 -0.0003 -0.0014 24.9694 -0.0001 -2.5913
# 5 -11.2332 -10.0306 -17.6579 -0.0001 38.9042 0.0001
# 6 0.0000 -0.0005 0.0006 -2.5913 0.0001 18.0988
#
#
#
# Elastic Compliance Matrix: (Units=1/GPa)
#
#
# Indices 1 2 3 4 5 6 
#
# 1 0.010492 -0.003177 -0.002232 0.000000 0.001197 0.000000
# 2 -0.003177 0.016750 -0.005442 0.000000 0.000931 0.000001
# 3 -0.002232 -0.005442 0.010121 0.000000 0.002546 0.000000
# 4 0.000000 0.000000 0.000000 0.040653 0.000000 0.005821
# 5 0.001197 0.000931 0.002546 0.000000 0.027446 0.000000
# 6 0.000000 0.000001 0.000000 0.005821 0.000000 0.056086
#
#
# Mechanical properties :
#
#
# Convention : Reuss Voigt Hill
#
# Bulk Modulus (GPa) = 63.85158 71.91222 67.88190
# Shear Modulus (GPa) = 26.52945 29.95617 28.24281
#
# Velocity S-wave (km/s) = 3.66944 3.89923 3.78608
# Velocity P-wave (km/s) = 7.09651 7.53462 7.31884
#
# Compressibility (1/GPa) = 0.01566132
#
# Stress axis : x y z
#
# Youngs Moduli (GPa) = 95.31009 59.70162 98.80346
#
# Poissons Ratio (x) = 0.18970 0.22052
# Poissons Ratio (y) = 0.30284 0.53765
# Poissons Ratio (z) = 0.21272 0.32487
#
# Static dielectric constant tensor:
#      x y z
#    x 3.726660 0.000000 -0.048840 
#    y 0.000000 3.596530 0.000000 
#    z -0.048840 0.000000 3.781000 
# 
# 
# High freq. dielectric constant tensor:
#      x y z
#    x 1.775300 0.000000 -0.011100 
#    y 0.000000 1.736250 0.000000 
#    z -0.011100 0.000000 1.778420 
# 
# From -- ./inp_files/380799.got.cif
#   From: 2010.06.25/outbox.cif.g09.slc.cpg/sg12_191_cif.got.tgz:380799.got - 2010.06.28 00:19:55.
