data_PCOD8096789
_publ_section_title
;
Structure prediction by ZEFSAII (Michael W. Deem and Ramdas Pophale) SiO2 
 PCOD8096789
Probable space group: C 2/M
;
_chemical_formula_sum "Si O2"
_cell_formula_units_Z 56
_cell_length_a 26.640444
_cell_length_b 9.440461
_cell_length_c 14.567727
_cell_angle_alpha 90.000000
_cell_angle_beta 123.149652
_cell_angle_gamma 90.000000
_cell_volume 3067.461343
_symmetry_space_group_name_H-M "C 2/M"
_symmetry_group_IT_number 12
_symmetry_cell_setting 'monoclinic'
loop_
_space_group_symop_operation_xyz
x,y,z
-x,y,-z
-x,-y,-z
x,-y,z
1/2+x,1/2+y,z
1/2-x,1/2+y,-z
1/2-x,1/2-y,-z
1/2+x,1/2-y,z
loop_
_atom_site_type_symbol
_atom_site_label
_atom_site_fract_x
_atom_site_fract_y
_atom_site_fract_z
Si Si1 0.466721 0.835743 0.129031
Si Si2 0.966721 0.835743 0.304411
Si Si3 0.137920 0.332699 0.103507
Si Si4 0.362080 0.332699 0.327667
Si Si5 0.250000 0.669640 0.096310
Si Si6 0.605222 0.334764 0.444132
Si Si7 0.605222 0.165237 0.266313
O O1 0.444299 0.750001 0.194299
O O2 0.535618 0.803189 0.175472
O O3 0.456359 0.000000 0.140383
O O4 0.425539 0.785223 0.003234
O O5 0.925540 0.785223 0.347845
O O6 0.035618 0.803190 0.395763
O O7 0.956359 0.000000 0.272334
O O8 0.140930 0.500000 0.110720
O O9 0.192770 0.276698 0.097195
O O10 0.141231 0.279038 0.212543
O O11 0.359071 0.500000 0.328861
O O12 0.307230 0.276699 0.211655
O O13 0.358769 0.279038 0.430080
O O14 0.250000 0.500000 0.080345
O O15 0.250000 0.750000 0.000000
O O16 0.616094 0.500000 0.435771
O O17 0.628139 0.250000 0.378139
O O18 0.616094 0.000000 0.296416
#
# Coordination Sequence:
#
# PCOD8096789 Si02
#       7
#     8   8   8   8   8   8   8
#     4   9  16  27  45  68  92 118 148 183 223 266
#     4   9  16  27  45  68  92 118 148 183 223 266
#     4   9  17  30  48  67  89 121 154 181 218 269
#     4   9  17  30  48  67  89 121 154 181 218 269
#     4  10  20  34  51  70  92 118 149 184 221 264
#     4   9  17  30  47  67  91 118 150 186 222 263
#     4   9  17  30  47  67  91 118 150 186 222 263
#
# _framework density 18.256139000000001
#
# number of rings (size 3 to 8) (size 9 to 14) (size 15 to 20)
#    0.000    2.857    0.000    1.714    0.000    3.429 
#    0.000    3.571    0.000    6.857    0.000    0.000 
#    0.000    0.000    0.000    0.000    0.000    0.000 
#
# Total GULP energy -347065.320456 kJ/mol
# GULP energy per Si atom -12395.190016 kJ/mol
# Density = 1.821459 g / cm^3
# Si number density = 18.256139 Si / 1000 Ang^3
#
#
#
# Elastic Constant Matrix: (Units=GPa)
#
#
# Indices 1 2 3 4 5 6 
#
# 1 92.7881 28.2992 67.1574 0.0000 -26.6347 0.0000
# 2 28.2992 34.0940 41.2749 0.0000 -11.2375 0.0000
# 3 67.1574 41.2749 158.5254 0.0000 -30.2961 0.0000
# 4 0.0000 0.0000 0.0000 27.6085 0.0000 -8.0660
# 5 -26.6347 -11.2375 -30.2961 0.0000 31.3637 0.0000
# 6 0.0000 0.0000 0.0000 -8.0660 0.0000 18.2946
#
#
#
# Elastic Compliance Matrix: (Units=1/GPa)
#
#
# Indices 1 2 3 4 5 6 
#
# 1 0.018744 -0.007369 -0.004273 0.000000 0.009150 0.000000
# 2 -0.007369 0.046549 -0.008593 0.000000 0.002120 0.000000
# 3 -0.004273 -0.008593 0.011128 0.000000 0.004042 0.000000
# 4 0.000000 0.000000 0.000000 0.041576 0.000000 0.018331
# 5 0.009150 0.002120 0.004042 0.000000 0.044318 0.000000
# 6 0.000000 0.000000 0.000000 0.018331 0.000000 0.062743
#
#
# Mechanical properties :
#
#
# Convention : Reuss Voigt Hill
#
# Bulk Modulus (GPa) = 27.81613 62.09670 44.95642
# Shear Modulus (GPa) = 18.01729 25.36509 21.69119
#
# Velocity S-wave (km/s) = 3.14493 3.73151 3.45071
# Velocity P-wave (km/s) = 5.33452 7.25628 6.36831
#
# Compressibility (1/GPa) = 0.03595036
#
# Stress axis : x y z
#
# Youngs Moduli (GPa) = 53.35024 21.48296 89.86157
#
# Poissons Ratio (x) = 0.15831 0.38402
# Poissons Ratio (y) = 0.39313 0.77216
# Poissons Ratio (z) = 0.22799 0.18460
#
# Static dielectric constant tensor:
#      x y z
#    x 3.520270 0.000000 -0.122400 
#    y 0.000000 3.069270 0.000000 
#    z -0.122400 0.000000 3.661600 
# 
# 
# High freq. dielectric constant tensor:
#      x y z
#    x 1.701360 0.000000 -0.011980 
#    y 0.000000 1.667050 0.000000 
#    z -0.011980 0.000000 1.715190 
# 
# From -- ./inp_files/174491.got.cif
#   From: 2010.06.25/outbox.cif.g09.slc.cpg/sg12_88_cif.got.tgz:174491.got - 2010.06.28 00:19:55.
