data_PCOD8096853
_publ_section_title
;
Structure prediction by ZEFSAII (Michael W. Deem and Ramdas Pophale) SiO2 
 PCOD8096853
Probable space group: C 2/M
;
_chemical_formula_sum "Si O2"
_cell_formula_units_Z 56
_cell_length_a 18.947515
_cell_length_b 8.821087
_cell_length_c 20.159087
_cell_angle_alpha 90.000000
_cell_angle_beta 122.730283
_cell_angle_gamma 90.000000
_cell_volume 2834.375990
_symmetry_space_group_name_H-M "C 2/M"
_symmetry_group_IT_number 12
_symmetry_cell_setting 'monoclinic'
loop_
_space_group_symop_operation_xyz
x,y,z
-x,y,-z
-x,-y,-z
x,-y,z
1/2+x,1/2+y,z
1/2-x,1/2+y,-z
1/2-x,1/2-y,-z
1/2+x,1/2-y,z
loop_
_atom_site_type_symbol
_atom_site_label
_atom_site_fract_x
_atom_site_fract_y
_atom_site_fract_z
Si Si1 0.440274 0.327978 0.526650
Si Si2 0.317356 0.821370 0.082429
Si Si3 0.291745 0.173054 0.221763
Si Si4 0.019473 0.326365 0.684145
Si Si5 0.508610 0.678172 0.816812
Si Si6 0.248128 0.829176 0.569675
Si Si7 0.663244 0.179691 0.253992
O O1 0.500000 0.264791 0.500000
O O2 0.465050 0.500000 0.559219
O O3 0.450959 0.217967 0.594798
O O4 0.346452 0.320017 0.451332
O O5 0.290852 0.780373 0.143955
O O6 0.408141 0.753040 0.109929
O O7 0.322332 0.000000 0.074636
O O8 0.250000 0.750000 0.000000
O O9 0.386656 0.194956 0.296740
O O10 0.230020 0.280017 0.231194
O O11 0.262250 0.000000 0.216007
O O12 0.005627 0.500000 0.700391
O O13 0.003360 0.215704 0.736813
O O14 0.512285 0.500000 0.830718
O O15 0.425437 0.744598 0.809791
O O16 0.250000 0.750000 0.500000
O O17 0.306090 0.759027 0.657668
O O18 0.277137 0.000000 0.571788
O O19 0.653861 0.000000 0.251081
#
# Coordination Sequence:
#
# PCOD8096853 Si02
#       7
#     8   8   8   8   8   8   8
#     4  10  20  34  51  73 102 139 187 238 287 339
#     4  10  21  40  65  93 122 149 183 225 271 330
#     4   9  20  37  57  83 115 149 184 227 279 334
#     4  10  20  35  54  78 108 143 189 239 284 336
#     4  11  22  37  59  84 112 148 186 226 277 333
#     4  10  22  36  51  74 105 144 187 235 287 335
#     4  11  22  37  57  82 113 148 191 239 284 336
#
# _framework density 19.757434
#
# number of rings (size 3 to 8) (size 9 to 14) (size 15 to 20)
#    0.000    1.857    0.000    5.143    0.000    8.857 
#    0.000    0.714    0.000    4.286    0.000    0.000 
#    0.000    0.000    0.000    0.000    0.000    0.000 
#
# Total GULP energy -347220.174781 kJ/mol
# GULP energy per Si atom -12400.720528 kJ/mol
# Density = 1.971247 g / cm^3
# Si number density = 19.757434 Si / 1000 Ang^3
#
#
#
# Elastic Constant Matrix: (Units=GPa)
#
#
# Indices 1 2 3 4 5 6 
#
# 1 92.4789 38.8710 23.3651 0.0000 13.6286 0.0000
# 2 38.8710 96.2116 37.2305 0.0000 7.3844 0.0000
# 3 23.3651 37.2305 98.3430 0.0000 19.9092 0.0000
# 4 0.0000 0.0000 0.0000 31.8409 0.0000 1.8719
# 5 13.6286 7.3844 19.9092 0.0000 26.4219 0.0000
# 6 0.0000 0.0000 0.0000 1.8719 0.0000 34.5278
#
#
#
# Elastic Compliance Matrix: (Units=1/GPa)
#
#
# Indices 1 2 3 4 5 6 
#
# 1 0.013818 -0.005063 -0.000248 0.000000 -0.005526 0.000000
# 2 -0.005063 0.014033 -0.004536 0.000000 0.002108 0.000000
# 3 -0.000248 -0.004536 0.013761 0.000000 -0.008974 0.000000
# 4 0.000000 0.000000 0.000000 0.031507 0.000000 -0.001708
# 5 -0.005526 0.002108 -0.008974 0.000000 0.046871 0.000000
# 6 0.000000 0.000000 0.000000 -0.001708 0.000000 0.029055
#
#
# Mechanical properties :
#
#
# Convention : Reuss Voigt Hill
#
# Bulk Modulus (GPa) = 45.62289 53.99630 49.80960
# Shear Modulus (GPa) = 28.40192 31.06256 29.73224
#
# Velocity S-wave (km/s) = 3.79559 3.96939 3.88347
# Velocity P-wave (km/s) = 6.50771 6.95680 6.73600
#
# Compressibility (1/GPa) = 0.02191882
#
# Stress axis : x y z
#
# Youngs Moduli (GPa) = 72.36815 71.26128 72.66686
#
# Poissons Ratio (x) = 0.36078 0.01800
# Poissons Ratio (y) = 0.36639 0.32964
# Poissons Ratio (z) = 0.01792 0.32327
#
# Static dielectric constant tensor:
#      x y z
#    x 3.666860 0.000000 0.202200 
#    y 0.000000 3.543780 0.000000 
#    z 0.202200 0.000000 3.496080 
# 
# 
# High freq. dielectric constant tensor:
#      x y z
#    x 1.777950 0.000000 0.015430 
#    y 0.000000 1.770540 0.000000 
#    z 0.015430 0.000000 1.755540 
# 
# From -- ./inp_files/275567.got.cif
#   From: 2010.06.25/outbox.cif.g09.slc.cpg/sg12_138_cif.got.tgz:275567.got - 2010.06.28 00:19:55.
