data_PCOD8096078
_publ_section_title
;
Structure prediction by ZEFSAII (Michael W. Deem and Ramdas Pophale) SiO2 
 PCOD8096078
Probable space group: C 2/M
;
_chemical_formula_sum "Si O2"
_cell_formula_units_Z 64
_cell_length_a 19.647596
_cell_length_b 8.886380
_cell_length_c 19.790865
_cell_angle_alpha 90.000000
_cell_angle_beta 89.545606
_cell_angle_gamma 90.000000
_cell_volume 3455.297283
_symmetry_space_group_name_H-M "C 2/M"
_symmetry_group_IT_number 12
_symmetry_cell_setting 'monoclinic'
loop_
_space_group_symop_operation_xyz
x,y,z
-x,y,-z
-x,-y,-z
x,-y,z
1/2+x,1/2+y,z
1/2-x,1/2+y,-z
1/2-x,1/2-y,-z
1/2+x,1/2-y,z
loop_
_atom_site_type_symbol
_atom_site_label
_atom_site_fract_x
_atom_site_fract_y
_atom_site_fract_z
Si Si1 0.089084 0.822189 0.691156
Si Si2 0.812344 0.673680 0.911695
Si Si3 0.937881 0.823164 0.667840
Si Si4 0.682278 0.175255 0.582656
Si Si5 0.662348 0.676404 0.444586
Si Si6 0.579575 0.677814 0.181384
Si Si7 0.824940 0.327682 0.065358
Si Si8 0.559777 0.175376 0.830494
O O1 0.150337 0.756766 0.647157
O O2 0.093722 0.754902 0.765898
O O3 0.016833 0.777647 0.657391
O O4 0.096607 0.000000 0.696810
O O5 0.820591 0.500000 0.891684
O O6 0.854010 0.775148 0.859593
O O7 0.733670 0.719433 0.906034
O O8 0.839696 0.706429 0.986769
O O9 0.891338 0.754333 0.608724
O O10 0.912066 0.766911 0.741170
O O11 0.928445 0.000000 0.664237
O O12 0.649003 0.238899 0.514704
O O13 0.762468 0.209626 0.584032
O O14 0.666313 0.000000 0.587319
O O15 0.651511 0.500000 0.457992
O O16 0.568679 0.500000 0.178006
O O17 0.513359 0.756359 0.150130
O O18 0.800824 0.500000 0.074776
O O19 0.893557 0.293832 0.105060
O O20 0.552186 0.000000 0.814565
#
# Coordination Sequence:
#
# PCOD8096078 Si02
#       8
#     8   8   8   8   8   8   8   8
#     4  10  20  35  54  76 103 134 170 212 256 306
#     4  10  20  35  55  79 106 137 176 219 261 308
#     4   8  17  34  54  73  95 131 174 209 246 299
#     4  10  20  33  51  77 105 132 165 209 258 306
#     4   9  18  35  55  72  96 133 173 209 248 300
#     4  10  20  35  54  78 108 139 174 216 263 314
#     4   9  20  37  55  76 105 140 175 215 264 315
#     4  10  20  36  56  77 104 138 176 217 262 312
#
# _framework density 18.522285
#
# number of rings (size 3 to 8) (size 9 to 14) (size 15 to 20)
#    0.000    2.500    0.000    2.625    0.000    4.000 
#    0.000   11.250    0.000    0.000    0.000    0.000 
#    0.000    0.000    0.000    0.000    0.000    0.000 
#
# Total GULP energy -396860.472763 kJ/mol
# GULP energy per Si atom -12401.889774 kJ/mol
# Density = 1.848013 g / cm^3
# Si number density = 18.522285 Si / 1000 Ang^3
#
#
#
# Elastic Constant Matrix: (Units=GPa)
#
#
# Indices 1 2 3 4 5 6 
#
# 1 34.1072 16.1316 8.8565 0.0000 2.3558 0.0000
# 2 16.1316 63.1981 18.1394 0.0000 -3.0907 0.0000
# 3 8.8565 18.1394 35.8475 0.0000 0.4732 0.0000
# 4 0.0000 0.0000 0.0000 31.1280 0.0000 -5.3974
# 5 2.3558 -3.0907 0.4732 0.0000 37.9888 0.0000
# 6 0.0000 0.0000 0.0000 -5.3974 0.0000 31.6939
#
#
#
# Elastic Compliance Matrix: (Units=1/GPa)
#
#
# Indices 1 2 3 4 5 6 
#
# 1 0.034276 -0.007558 -0.004609 0.000000 -0.002683 0.000000
# 2 -0.007558 0.020279 -0.008424 0.000000 0.002223 0.000000
# 3 -0.004609 -0.008424 0.033308 0.000000 -0.000814 0.000000
# 4 0.000000 0.000000 0.000000 0.033103 0.000000 0.005637
# 5 -0.002683 0.002223 -0.000814 0.000000 0.026681 0.000000
# 6 0.000000 0.000000 0.000000 0.005637 0.000000 0.032512
#
#
# Mechanical properties :
#
#
# Convention : Reuss Voigt Hill
#
# Bulk Modulus (GPa) = 21.42106 24.37866 22.89986
# Shear Modulus (GPa) = 21.10608 26.16381 23.63495
#
# Velocity S-wave (km/s) = 3.37931 3.76248 3.57603
# Velocity P-wave (km/s) = 5.17846 5.66263 5.42595
#
# Compressibility (1/GPa) = 0.04668304
#
# Stress axis : x y z
#
# Youngs Moduli (GPa) = 29.17516 49.31236 30.02304
#
# Poissons Ratio (x) = 0.37268 0.13836
# Poissons Ratio (y) = 0.22049 0.25290
# Poissons Ratio (z) = 0.13445 0.41539
#
# Static dielectric constant tensor:
#      x y z
#    x 3.392220 0.000000 0.107500 
#    y 0.000000 3.374250 0.000000 
#    z 0.107500 0.000000 3.473290 
# 
# 
# High freq. dielectric constant tensor:
#      x y z
#    x 1.716770 0.000000 0.000810 
#    y 0.000000 1.717210 0.000000 
#    z 0.000810 0.000000 1.720190 
# 
# From -- ./inp_files/314081.got.cif
#   From: 2010.06.25/outbox.cif.g09.slc.cpg/sg12_158_cif.got.tgz:314081.got - 2010.06.28 00:19:55.
