data_PCOD8096716
_publ_section_title
;
Structure prediction by ZEFSAII (Michael W. Deem and Ramdas Pophale) SiO2 
 PCOD8096716
Probable space group: C 2/M
;
_chemical_formula_sum "Si O2"
_cell_formula_units_Z 56
_cell_length_a 12.985160
_cell_length_b 25.798168
_cell_length_c 10.820924
_cell_angle_alpha 90.000000
_cell_angle_beta 130.454251
_cell_angle_gamma 90.000000
_cell_volume 2758.302960
_symmetry_space_group_name_H-M "C 2/M"
_symmetry_group_IT_number 12
_symmetry_cell_setting 'monoclinic'
loop_
_space_group_symop_operation_xyz
x,y,z
-x,y,-z
-x,-y,-z
x,-y,z
1/2+x,1/2+y,z
1/2-x,1/2+y,-z
1/2-x,1/2-y,-z
1/2+x,1/2-y,z
loop_
_atom_site_type_symbol
_atom_site_label
_atom_site_fract_x
_atom_site_fract_y
_atom_site_fract_z
Si Si1 0.364628 0.442131 0.231867
Si Si2 0.246493 0.722890 0.234423
Si Si3 0.227594 0.335208 0.478687
Si Si4 0.823206 0.941387 0.479550
Si Si5 0.215595 0.846926 0.975993
Si Si6 0.034590 0.785838 0.177394
Si Si7 0.943515 0.296855 0.290406
O O1 0.344757 0.500000 0.166189
O O2 0.295741 0.436031 0.312109
O O3 0.521882 0.428731 0.368961
O O4 0.293680 0.405976 0.075644
O O5 0.232372 0.687855 0.344332
O O6 0.257219 0.687872 0.123049
O O7 0.114880 0.761749 0.120139
O O8 0.379369 0.760158 0.347546
O O9 0.235873 0.397763 0.481497
O O10 0.349672 0.308775 0.644116
O O11 0.086476 0.322548 0.439333
O O12 0.784880 0.000000 0.493117
O O13 0.074675 0.830963 0.934071
O O14 0.337114 0.841879 0.168501
O O15 0.959718 0.738334 0.182820
#
# Coordination Sequence:
#
# PCOD8096716 Si02
#       7
#     8   8   8   8   8   8   8
#     4   9  17  31  54  79  99 130 171 214 262 302
#     4  10  20  34  49  71 110 139 165 211 241 297
#     4  11  20  34  52  78 104 135 171 208 260 297
#     4   9  17  32  54  78 100 130 171 214 261 306
#     4  11  20  34  51  74 106 137 170 207 252 298
#     4  10  21  33  51  74  98 142 182 198 247 306
#     4  10  23  32  46  75 104 142 174 198 248 310
#
# _framework density 20.302337999999999
#
# number of rings (size 3 to 8) (size 9 to 14) (size 15 to 20)
#    0.000    2.000    2.857    4.286    0.000   10.286 
#    0.000    0.714    0.000    1.714    0.000    6.000 
#    0.000    0.000    0.000    0.000    0.000    0.000 
#
# Total GULP energy -347003.781408 kJ/mol
# GULP energy per Si atom -12392.992193 kJ/mol
# Density = 2.025613 g / cm^3
# Si number density = 20.302338 Si / 1000 Ang^3
#
#
#
# Elastic Constant Matrix: (Units=GPa)
#
#
# Indices 1 2 3 4 5 6 
#
# 1 70.0361 29.3870 4.5675 0.0000 22.5473 0.0000
# 2 29.3870 122.0975 25.0372 0.0000 10.7459 0.0000
# 3 4.5675 25.0372 69.9869 0.0000 16.5760 0.0000
# 4 0.0000 0.0000 0.0000 31.5920 0.0000 1.5138
# 5 22.5473 10.7459 16.5760 0.0000 27.4981 0.0000
# 6 0.0000 0.0000 0.0000 1.5138 0.0000 24.5398
#
#
#
# Elastic Compliance Matrix: (Units=1/GPa)
#
#
# Indices 1 2 3 4 5 6 
#
# 1 0.022064 -0.004597 0.004741 0.000000 -0.019153 0.000000
# 2 -0.004597 0.009874 -0.003746 0.000000 0.002169 0.000000
# 3 0.004741 -0.003746 0.018540 0.000000 -0.013600 0.000000
# 4 0.000000 0.000000 0.000000 0.031747 0.000000 -0.001958
# 5 -0.019153 0.002169 -0.013600 0.000000 0.059421 0.000000
# 6 0.000000 0.000000 0.000000 -0.001958 0.000000 0.040871
#
#
# Mechanical properties :
#
#
# Convention : Reuss Voigt Hill
#
# Bulk Modulus (GPa) = 23.10852 42.23376 32.67114
# Shear Modulus (GPa) = 24.49220 30.26790 27.38005
#
# Velocity S-wave (km/s) = 3.47706 3.86535 3.67633
# Velocity P-wave (km/s) = 5.24660 6.38505 5.84361
#
# Compressibility (1/GPa) = 0.04327408
#
# Stress axis : x y z
#
# Youngs Moduli (GPa) = 45.32226 101.27753 53.93724
#
# Poissons Ratio (x) = 0.46557 -0.25571
# Poissons Ratio (y) = 0.20835 0.20205
# Poissons Ratio (z) = -0.21487 0.37938
#
# Static dielectric constant tensor:
#      x y z
#    x 3.963130 0.000000 0.223140 
#    y 0.000000 3.736830 0.000000 
#    z 0.223140 0.000000 3.552010 
# 
# 
# High freq. dielectric constant tensor:
#      x y z
#    x 1.787040 0.000000 0.009190 
#    y 0.000000 1.776870 0.000000 
#    z 0.009190 0.000000 1.787400 
# 
# From -- ./inp_files/137014.got.cif
#   From: 2010.06.25/outbox.cif.g09.slc.cpg/sg12_69_cif.got.tgz:137014.got - 2010.06.28 00:19:55.
