data_PCOD8096963
_publ_section_title
;
Structure prediction by ZEFSAII (Michael W. Deem and Ramdas Pophale) SiO2 
 PCOD8096963
Probable space group: C 2/M
;
_chemical_formula_sum "Si O2"
_cell_formula_units_Z 64
_cell_length_a 19.752792
_cell_length_b 9.515864
_cell_length_c 24.948308
_cell_angle_alpha 90.000000
_cell_angle_beta 126.402621
_cell_angle_gamma 90.000000
_cell_volume 3774.346320
_symmetry_space_group_name_H-M "C 2/M"
_symmetry_group_IT_number 12
_symmetry_cell_setting 'monoclinic'
loop_
_space_group_symop_operation_xyz
x,y,z
-x,y,-z
-x,-y,-z
x,-y,z
1/2+x,1/2+y,z
1/2-x,1/2+y,-z
1/2-x,1/2-y,-z
1/2+x,1/2-y,z
loop_
_atom_site_type_symbol
_atom_site_label
_atom_site_fract_x
_atom_site_fract_y
_atom_site_fract_z
Si Si1 0.030345 0.338422 0.955166
Si Si2 0.452881 0.661439 0.194881
Si Si3 0.415389 0.161615 0.802390
Si Si4 0.335644 0.665138 0.041015
Si Si5 0.135561 0.658057 0.571992
Si Si6 0.023421 0.342037 0.425559
Si Si7 0.726700 0.664283 0.694810
Si Si8 0.073593 0.163709 0.696836
O O1 0.062144 0.500000 0.966004
O O2 0.105401 0.232005 0.976901
O O3 0.952251 0.311893 0.878805
O O4 0.000000 0.301448 0.000000
O O5 0.480926 0.500000 0.206325
O O6 0.534566 0.751024 0.218488
O O7 0.376791 0.689978 0.118381
O O8 0.420152 0.705678 0.238043
O O9 0.318622 0.210185 0.758065
O O10 0.423455 0.000000 0.789314
O O11 0.321359 0.500000 0.022395
O O12 0.250000 0.750000 0.000000
O O13 0.171618 0.500000 0.586581
O O14 0.055877 0.664279 0.572965
O O15 0.207253 0.759722 0.629127
O O16 0.105761 0.706094 0.498348
O O17 0.036704 0.500000 0.410307
O O18 0.006794 0.241054 0.367314
O O19 0.720928 0.500000 0.680730
O O20 0.661050 0.710156 0.710187
O O21 0.057379 0.000000 0.681235
#
# Coordination Sequence:
#
# PCOD8096963 Si02
#       8
#     8   8   8   8   8   8   8   8
#     4   9  18  33  53  74  96 126 161 195 237 288
#     4   9  19  34  50  68  93 126 157 187 228 276
#     4   9  18  32  49  69  94 124 156 189 227 275
#     4  10  20  34  52  73  98 127 160 198 238 282
#     4   8  14  25  41  62  90 121 150 183 226 275
#     4   8  14  25  41  63  91 120 149 184 228 273
#     4   9  17  28  44  68  94 118 149 191 232 269
#     4   9  17  29  46  69  94 119 151 190 230 272
#
# _framework density 16.956578
#
# number of rings (size 3 to 8) (size 9 to 14) (size 15 to 20)
#    0.000    3.125    0.000    1.125    0.000    3.250 
#    0.000    6.250    0.000    3.750    0.000    0.000 
#    0.000    0.000    0.000    0.000    0.000    0.000 
#
# Total GULP energy -396703.068549 kJ/mol
# GULP energy per Si atom -12396.970892 kJ/mol
# Density = 1.691798 g / cm^3
# Si number density = 16.956578 Si / 1000 Ang^3
#
#
#
# Elastic Constant Matrix: (Units=GPa)
#
#
# Indices 1 2 3 4 5 6 
#
# 1 87.3484 56.4310 72.6336 0.0000 3.0038 0.0000
# 2 56.4310 77.4172 63.8928 0.0000 2.1309 0.0000
# 3 72.6336 63.8928 114.9993 0.0000 2.6089 0.0000
# 4 0.0000 0.0000 0.0000 29.7960 0.0000 1.1295
# 5 3.0038 2.1309 2.6089 0.0000 22.0339 0.0000
# 6 0.0000 0.0000 0.0000 1.1295 0.0000 25.4764
#
#
#
# Elastic Compliance Matrix: (Units=1/GPa)
#
#
# Indices 1 2 3 4 5 6 
#
# 1 0.028366 -0.010856 -0.011853 0.000000 -0.001414 0.000000
# 2 -0.010856 0.028022 -0.008708 0.000000 -0.000199 0.000000
# 3 -0.011853 -0.008708 0.021021 0.000000 -0.000031 0.000000
# 4 0.000000 0.000000 0.000000 0.033618 0.000000 -0.001491
# 5 -0.001414 -0.000199 -0.000031 0.000000 0.045600 0.000000
# 6 0.000000 0.000000 0.000000 -0.001491 0.000000 0.039318
#
#
# Mechanical properties :
#
#
# Convention : Reuss Voigt Hill
#
# Bulk Modulus (GPa) = 68.60421 73.96440 71.28431
# Shear Modulus (GPa) = 18.96546 21.24843 20.10695
#
# Velocity S-wave (km/s) = 3.34799 3.54377 3.44727
# Velocity P-wave (km/s) = 7.44929 7.77554 7.61416
#
# Compressibility (1/GPa) = 0.01457636
#
# Stress axis : x y z
#
# Youngs Moduli (GPa) = 35.25303 35.68601 47.57230
#
# Poissons Ratio (x) = 0.38740 0.56386
# Poissons Ratio (y) = 0.38270 0.41425
# Poissons Ratio (z) = 0.41784 0.31075
#
# Static dielectric constant tensor:
#      x y z
#    x 2.960220 0.000000 0.005340 
#    y 0.000000 3.254190 0.000000 
#    z 0.005340 0.000000 3.455830 
# 
# 
# High freq. dielectric constant tensor:
#      x y z
#    x 1.622370 0.000000 0.000800 
#    y 0.000000 1.654320 0.000000 
#    z 0.000800 0.000000 1.661060 
# 
# From -- ./inp_files/341998.got.cif
#   From: 2010.06.25/outbox.cif.g09.slc.cpg/sg12_171_cif.got.tgz:341998.got - 2010.06.28 00:19:55.
