data_PCOD8096427
_publ_section_title
;
Structure prediction by ZEFSAII (Michael W. Deem and Ramdas Pophale) SiO2 
 PCOD8096427
Probable space group: C 2/M
;
_chemical_formula_sum "Si O2"
_cell_formula_units_Z 56
_cell_length_a 27.577198
_cell_length_b 9.695930
_cell_length_c 13.778278
_cell_angle_alpha 90.000000
_cell_angle_beta 127.410942
_cell_angle_gamma 90.000000
_cell_volume 2926.296690
_symmetry_space_group_name_H-M "C 2/M"
_symmetry_group_IT_number 12
_symmetry_cell_setting 'monoclinic'
loop_
_space_group_symop_operation_xyz
x,y,z
-x,y,-z
-x,-y,-z
x,-y,z
1/2+x,1/2+y,z
1/2-x,1/2+y,-z
1/2-x,1/2-y,-z
1/2+x,1/2-y,z
loop_
_atom_site_type_symbol
_atom_site_label
_atom_site_fract_x
_atom_site_fract_y
_atom_site_fract_z
Si Si1 0.378998 0.850404 0.770578
Si Si2 0.421793 0.840614 0.128704
Si Si3 0.803112 0.341380 0.867185
Si Si4 0.512916 0.650715 0.125628
Si Si5 0.188672 0.663432 0.698057
Si Si6 0.560719 0.837118 0.628009
Si Si7 0.291620 0.852701 0.494495
O O1 0.333789 0.798968 0.801233
O O2 0.424818 0.732525 0.796370
O O3 0.349006 0.878342 0.631299
O O4 0.407542 0.000000 0.838786
O O5 0.459568 0.742826 0.104644
O O6 0.436920 0.794040 0.256469
O O7 0.440850 0.000000 0.135639
O O8 0.350620 0.820681 0.013948
O O9 0.781169 0.500000 0.835631
O O10 0.744830 0.244023 0.817187
O O11 0.518125 0.500000 0.184508
O O12 0.500000 0.620582 0.000000
O O13 0.196592 0.500000 0.726936
O O14 0.123610 0.718533 0.657941
O O15 0.187909 0.704931 0.584289
O O16 0.500000 0.775824 0.500000
O O17 0.559296 0.000000 0.614614
O O18 0.250000 0.750000 0.500000
O O19 0.257599 0.000000 0.437374
#
# Coordination Sequence:
#
# PCOD8096427 Si02
#       7
#     8   8   8   8   8   8   8
#     4  10  20  34  53  80 115 151 189 230 277 340
#     4  10  21  38  61  84 111 151 197 237 279 337
#     4  10  20  35  56  84 115 149 187 230 280 338
#     4  11  23  36  54  84 119 150 184 230 289 341
#     4  10  21  36  57  86 113 146 190 236 284 332
#     4   9  20  39  62  85 110 144 192 243 284 333
#     4  10  20  33  53  81 113 146 185 227 280 339
#
# _framework density 19.136817000000001
#
# number of rings (size 3 to 8) (size 9 to 14) (size 15 to 20)
#    0.000    2.000    2.857    0.429    2.000    2.857 
#    0.000    0.714    0.000    0.857    0.000    0.000 
#    0.000    0.000    0.000    0.000    0.000    0.000 
#
# Total GULP energy -346951.298862 kJ/mol
# GULP energy per Si atom -12391.117817 kJ/mol
# Density = 1.909326 g / cm^3
# Si number density = 19.136817 Si / 1000 Ang^3
#
#
#
# Elastic Constant Matrix: (Units=GPa)
#
#
# Indices 1 2 3 4 5 6 
#
# 1 116.4812 58.6352 46.0168 0.0000 13.5753 0.0000
# 2 58.6352 91.9720 33.7990 0.0000 13.8679 0.0000
# 3 46.0168 33.7990 112.7622 0.0000 3.6394 0.0000
# 4 0.0000 0.0000 0.0000 24.2238 0.0000 6.8692
# 5 13.5753 13.8679 3.6394 0.0000 32.7082 0.0000
# 6 0.0000 0.0000 0.0000 6.8692 0.0000 32.0519
#
#
#
# Elastic Compliance Matrix: (Units=1/GPa)
#
#
# Indices 1 2 3 4 5 6 
#
# 1 0.013834 -0.007221 -0.003407 0.000000 -0.002301 0.000000
# 2 -0.007221 0.016784 -0.001958 0.000000 -0.003902 0.000000
# 3 -0.003407 -0.001958 0.010812 0.000000 0.001041 0.000000
# 4 0.000000 0.000000 0.000000 0.043953 0.000000 -0.009420
# 5 -0.002301 -0.003902 0.001041 0.000000 0.033067 0.000000
# 6 0.000000 0.000000 0.000000 -0.009420 0.000000 0.033218
#
#
# Mechanical properties :
#
#
# Convention : Reuss Voigt Hill
#
# Bulk Modulus (GPa) = 61.50652 66.45750 63.98201
# Shear Modulus (GPa) = 27.43347 29.98107 28.70727
#
# Velocity S-wave (km/s) = 3.79032 3.96241 3.87732
# Velocity P-wave (km/s) = 7.16698 7.46574 7.31788
#
# Compressibility (1/GPa) = 0.01625844
#
# Stress axis : x y z
#
# Youngs Moduli (GPa) = 72.28595 59.57985 92.49070
#
# Poissons Ratio (x) = 0.43020 0.31511
# Poissons Ratio (y) = 0.52195 0.18112
# Poissons Ratio (z) = 0.24627 0.11667
#
# Static dielectric constant tensor:
#      x y z
#    x 3.356790 0.000000 0.130530 
#    y 0.000000 3.722300 0.000000 
#    z 0.130530 0.000000 3.379560 
# 
# 
# High freq. dielectric constant tensor:
#      x y z
#    x 1.733140 0.000000 -0.001930 
#    y 0.000000 1.732190 0.000000 
#    z -0.001930 0.000000 1.747990 
# 
# From -- ./inp_files/238997.got.cif
#   From: 2010.06.25/outbox.cif.g09.slc.cpg/sg12_120_cif.got.tgz:238997.got - 2010.06.28 00:19:55.
