data_PCOD8096420
_publ_section_title
;
Structure prediction by ZEFSAII (Michael W. Deem and Ramdas Pophale) SiO2 
 PCOD8096420
Probable space group: C 2/M
;
_chemical_formula_sum "Si O2"
_cell_formula_units_Z 64
_cell_length_a 22.261787
_cell_length_b 18.214955
_cell_length_c 8.162611
_cell_angle_alpha 90.000000
_cell_angle_beta 90.000000
_cell_angle_gamma 90.000000
_cell_volume 3309.917933
_symmetry_space_group_name_H-M "C 2/M"
_symmetry_group_IT_number 12
_symmetry_cell_setting 'monoclinic'
loop_
_space_group_symop_operation_xyz
x,y,z
-x,y,-z
-x,-y,-z
x,-y,z
1/2+x,1/2+y,z
1/2-x,1/2+y,-z
1/2-x,1/2-y,-z
1/2+x,1/2-y,z
loop_
_atom_site_type_symbol
_atom_site_label
_atom_site_fract_x
_atom_site_fract_y
_atom_site_fract_z
Si Si1 0.125154 0.419001 0.810567
Si Si2 0.641850 0.413099 0.314561
Si Si3 0.358150 0.413099 0.314561
Si Si4 0.263068 0.830190 0.310069
Si Si5 0.125154 0.419001 0.189433
Si Si6 1.000000 0.586682 0.314417
Si Si7 0.236932 0.669810 0.310069
Si Si8 0.432337 0.587358 1.000000
O O1 0.133338 0.500000 0.724960
O O2 0.177444 0.363385 0.766587
O O3 0.061209 0.381964 0.764288
O O4 0.126374 0.432500 0.000000
O O5 0.645521 0.500000 0.308306
O O6 0.621076 0.388339 0.500000
O O7 0.707548 0.383211 0.273717
O O8 0.598336 0.383831 0.169261
O O9 0.354478 0.500000 0.308306
O O10 0.292452 0.383211 0.273717
O O11 0.401664 0.383831 0.169261
O O12 0.250000 0.750000 0.232822
O O13 0.276229 0.821463 0.500000
O O14 0.133338 0.500000 0.275040
O O15 0.061209 0.381964 0.235711
O O16 0.177444 0.363385 0.233413
O O17 1.000000 0.500000 0.287873
O O18 0.000000 0.611773 0.500000
O O19 0.431086 0.500000 1.000000
O O20 0.500000 0.617696 0.000000
#
# Coordination Sequence:
#
# PCOD8096420 Si02
#       8
#     8   8   8   8   8   8   8   8
#     4  10  20  33  53  81 110 140 176 221 270 320
#     4   9  18  33  54  79 107 137 174 221 267 316
#     4   9  18  33  54  79 107 137 174 221 267 316
#     4  10  21  36  54  76 106 142 179 219 266 318
#     4  10  20  33  53  81 110 140 176 221 270 320
#     4   9  17  31  53  79 107 139 176 219 264 315
#     4  10  21  36  54  76 106 142 179 219 266 318
#     4   9  18  32  53  80 106 133 171 220 270 320
#
# _framework density 19.335827999999999
#
# number of rings (size 3 to 8) (size 9 to 14) (size 15 to 20)
#    0.000    2.500    0.000    1.875    1.750    5.000 
#    0.000    2.500    2.750    0.000    0.000    0.000 
#    0.000    0.000    0.000    0.000    0.000    0.000 
#
# Total GULP energy -396584.451043 kJ/mol
# GULP energy per Si atom -12393.264095 kJ/mol
# Density = 1.929182 g / cm^3
# Si number density = 19.335828 Si / 1000 Ang^3
#
#
#
# Elastic Constant Matrix: (Units=GPa)
#
#
# Indices 1 2 3 4 5 6 
#
# 1 176.3293 46.4725 84.4490 0.0000 0.0000 0.0000
# 2 46.4725 44.1379 31.3075 0.0000 0.0000 0.0000
# 3 84.4490 31.3075 101.2871 0.0000 0.0000 0.0000
# 4 0.0000 0.0000 0.0000 14.5744 0.0000 0.0000
# 5 0.0000 0.0000 0.0000 0.0000 39.6610 0.0000
# 6 0.0000 0.0000 0.0000 0.0000 0.0000 6.9567
#
#
#
# Elastic Compliance Matrix: (Units=1/GPa)
#
#
# Indices 1 2 3 4 5 6 
#
# 1 0.010652 -0.006296 -0.006935 0.000000 0.000000 0.000000
# 2 -0.006296 0.032740 -0.004870 0.000000 0.000000 0.000000
# 3 -0.006935 -0.004870 0.017160 0.000000 0.000000 0.000000
# 4 0.000000 0.000000 0.000000 0.068613 0.000000 0.000000
# 5 0.000000 0.000000 0.000000 0.000000 0.025214 0.000000
# 6 0.000000 0.000000 0.000000 0.000000 0.000000 0.143747
#
#
# Mechanical properties :
#
#
# Convention : Reuss Voigt Hill
#
# Bulk Modulus (GPa) = 41.06877 71.80136 56.43506
# Shear Modulus (GPa) = 14.60084 22.87345 18.73714
#
# Velocity S-wave (km/s) = 2.75092 3.44314 3.11631
# Velocity P-wave (km/s) = 5.60142 7.28158 6.49605
#
# Compressibility (1/GPa) = 0.02434940
#
# Stress axis : x y z
#
# Youngs Moduli (GPa) = 93.87885 30.54353 58.27356
#
# Poissons Ratio (x) = 0.19231 0.40413
# Poissons Ratio (y) = 0.59109 0.28381
# Poissons Ratio (z) = 0.65105 0.14875
#
# Static dielectric constant tensor:
#      x y z
#    x 3.640180 0.000000 0.000000 
#    y 0.000000 0.688790 0.000000 
#    z 0.000000 0.000000 3.741320 
# 
# 
# High freq. dielectric constant tensor:
#      x y z
#    x 1.758020 0.000000 0.000000 
#    y 0.000000 1.714600 0.000000 
#    z 0.000000 0.000000 1.760050 
# 
# From -- ./inp_files/87988.got.cif
#   From: 2010.06.25/outbox.cif.g09.slc.cpg/sg12_44_cif.got.tgz:87988.got - 2010.06.28 00:19:55.
