data_PCOD8096661
_publ_section_title
;
Structure prediction by ZEFSAII (Michael W. Deem and Ramdas Pophale) SiO2 
 PCOD8096661
Probable space group: C 2/M
;
_chemical_formula_sum "Si O2"
_cell_formula_units_Z 64
_cell_length_a 8.650163
_cell_length_b 29.819220
_cell_length_c 17.342294
_cell_angle_alpha 90.000000
_cell_angle_beta 137.237144
_cell_angle_gamma 90.000000
_cell_volume 3037.209986
_symmetry_space_group_name_H-M "C 2/M"
_symmetry_group_IT_number 12
_symmetry_cell_setting 'monoclinic'
loop_
_space_group_symop_operation_xyz
x,y,z
-x,y,-z
-x,-y,-z
x,-y,z
1/2+x,1/2+y,z
1/2-x,1/2+y,-z
1/2-x,1/2-y,-z
1/2+x,1/2-y,z
loop_
_atom_site_type_symbol
_atom_site_label
_atom_site_fract_x
_atom_site_fract_y
_atom_site_fract_z
Si Si1 0.734380 0.395457 0.615185
Si Si2 0.977338 0.186073 0.834473
Si Si3 0.125398 0.050801 0.219689
Si Si4 0.128889 0.251761 0.769175
Si Si5 0.898766 0.551317 0.166800
Si Si6 0.831129 0.200254 0.369569
Si Si7 0.591029 0.127431 0.617934
Si Si8 0.282716 0.896014 0.972247
O O1 0.500000 0.417823 0.500000
O O2 0.670245 0.353344 0.646429
O O3 0.862861 0.434417 0.708035
O O4 0.878349 0.374450 0.597618
O O5 0.862794 0.219376 0.854973
O O6 0.770178 0.165495 0.708370
O O7 0.145219 0.215058 0.842545
O O8 0.129116 0.148136 0.931029
O O9 0.201239 0.056373 0.158162
O O10 0.283533 0.079191 0.334999
O O11 0.865049 0.067364 0.128704
O O12 0.141178 0.000000 0.254027
O O13 0.081395 0.225571 0.673138
O O14 0.924783 0.285950 0.705811
O O15 0.915122 0.500000 0.143708
O O16 0.851480 0.584750 0.079885
O O17 0.000000 0.213501 0.500000
O O18 0.500000 0.138730 0.500000
O O19 0.500000 0.884065 0.000000
#
# Coordination Sequence:
#
# PCOD8096661 Si02
#       8
#     8   8   8   8   8   8   8   8
#     4  10  22  37  59  92 129 165 201 243 301 362
#     4  10  23  41  60  87 123 159 204 256 305 362
#     4   9  20  41  63  90 121 159 208 249 298 368
#     4  10  21  38  60  83 121 158 204 255 303 361
#     4  10  22  42  68  91 120 163 207 247 296 367
#     4  10  20  33  57  89 120 160 205 247 299 356
#     4  10  21  36  58  89 127 165 201 250 305 359
#     4  11  24  40  64  92 121 153 199 259 316 355
#
# _framework density 21.07197
#
# number of rings (size 3 to 8) (size 9 to 14) (size 15 to 20)
#    0.000    2.000    1.250    1.125    5.250    5.500 
#    0.000    0.625    0.000    0.000    0.000    0.000 
#    0.000    0.000    0.000    0.000    0.000    0.000 
#
# Total GULP energy -396837.245270 kJ/mol
# GULP energy per Si atom -12401.163915 kJ/mol
# Density = 2.102401 g / cm^3
# Si number density = 21.071970 Si / 1000 Ang^3
#
#
#
# Elastic Constant Matrix: (Units=GPa)
#
#
# Indices 1 2 3 4 5 6 
#
# 1 68.7570 38.6692 40.1115 0.0000 8.1633 0.0000
# 2 38.6692 115.0389 46.4886 0.0000 3.0732 0.0000
# 3 40.1115 46.4886 94.5809 0.0000 8.9671 0.0000
# 4 0.0000 0.0000 0.0000 27.7862 0.0000 -2.0158
# 5 8.1633 3.0732 8.9671 0.0000 25.3744 0.0000
# 6 0.0000 0.0000 0.0000 -2.0158 0.0000 24.8404
#
#
#
# Elastic Compliance Matrix: (Units=1/GPa)
#
#
# Indices 1 2 3 4 5 6 
#
# 1 0.021289 -0.004435 -0.006467 0.000000 -0.004026 0.000000
# 2 -0.004435 0.011780 -0.004045 0.000000 0.001430 0.000000
# 3 -0.006467 -0.004045 0.015582 0.000000 -0.002936 0.000000
# 4 0.000000 0.000000 0.000000 0.036202 0.000000 0.002938
# 5 -0.004026 0.001430 -0.002936 0.000000 0.041570 0.000000
# 6 0.000000 0.000000 0.000000 0.002938 0.000000 0.040495
#
#
# Mechanical properties :
#
#
# Convention : Reuss Voigt Hill
#
# Bulk Modulus (GPa) = 53.31222 58.76838 56.04030
# Shear Modulus (GPa) = 24.62276 25.80736 25.21506
#
# Velocity S-wave (km/s) = 3.42205 3.50340 3.46297
# Velocity P-wave (km/s) = 6.40070 6.65695 6.53008
#
# Compressibility (1/GPa) = 0.01875742
#
# Stress axis : x y z
#
# Youngs Moduli (GPa) = 46.97249 84.89062 64.17674
#
# Poissons Ratio (x) = 0.37651 0.41502
# Poissons Ratio (y) = 0.20833 0.25957
# Poissons Ratio (z) = 0.30377 0.34335
#
# Static dielectric constant tensor:
#      x y z
#    x 3.838870 0.000000 0.187690 
#    y 0.000000 3.892410 0.000000 
#    z 0.187690 0.000000 3.616290 
# 
# 
# High freq. dielectric constant tensor:
#      x y z
#    x 1.821480 0.000000 0.016850 
#    y 0.000000 1.834630 0.000000 
#    z 0.016850 0.000000 1.814150 
# 
# From -- ./inp_files/260373.got.cif
#   From: 2010.06.25/outbox.cif.g09.slc.cpg/sg12_131_cif.got.tgz:260373.got - 2010.06.28 00:19:55.
