data_PCOD8096814
_publ_section_title
;
Structure prediction by ZEFSAII (Michael W. Deem and Ramdas Pophale) SiO2 
 PCOD8096814
Probable space group: C 2/M
;
_chemical_formula_sum "Si O2"
_cell_formula_units_Z 48
_cell_length_a 23.779747
_cell_length_b 9.201028
_cell_length_c 12.072997
_cell_angle_alpha 90.000000
_cell_angle_beta 100.325137
_cell_angle_gamma 90.000000
_cell_volume 2598.773094
_symmetry_space_group_name_H-M "C 2/M"
_symmetry_group_IT_number 12
_symmetry_cell_setting 'monoclinic'
loop_
_space_group_symop_operation_xyz
x,y,z
-x,y,-z
-x,-y,-z
x,-y,z
1/2+x,1/2+y,z
1/2-x,1/2+y,-z
1/2-x,1/2-y,-z
1/2+x,1/2-y,z
loop_
_atom_site_type_symbol
_atom_site_label
_atom_site_fract_x
_atom_site_fract_y
_atom_site_fract_z
Si Si1 0.590451 0.670650 0.845565
Si Si2 0.618144 0.829239 0.433922
Si Si3 0.535036 0.330613 0.251482
Si Si4 0.337329 0.329557 0.340905
Si Si5 0.625592 0.668806 0.095651
Si Si6 0.207224 0.330721 0.277698
O O1 0.582867 0.500000 0.859159
O O2 0.528367 0.732617 0.790609
O O3 0.636637 0.709840 0.768981
O O4 0.611878 0.735743 0.969988
O O5 0.561386 0.759441 0.362117
O O6 0.627743 0.759678 0.556515
O O7 0.672512 0.791752 0.376334
O O8 0.608767 0.000000 0.443290
O O9 0.534972 0.500000 0.284720
O O10 0.570491 0.303389 0.152263
O O11 0.343013 0.500000 0.369726
O O12 0.271808 0.277919 0.318495
O O13 0.641268 0.500000 0.094496
O O14 0.681032 0.748836 0.163239
O O15 0.204653 0.500000 0.249298
#
# Coordination Sequence:
#
# PCOD8096814 Si02
#       6
#     8   8   8   8   8   8
#     4   9  18  32  51  75 100 127 161 200 238 282
#     4  10  20  34  51  72  98 126 162 205 244 283
#     4   9  17  32  54  75  96 126 163 199 238 285
#     4  10  20  34  51  71  98 131 164 197 239 289
#     4   9  17  31  53  77  98 124 161 201 238 281
#     4   9  19  34  51  72  98 128 161 200 243 286
#
# _framework density 18.470255000000002
#
# number of rings (size 3 to 8) (size 9 to 14) (size 15 to 20)
#    0.000    2.667    0.000    1.500    0.000    4.667 
#    0.000    5.833    0.000    4.000    0.000    0.000 
#    0.000    0.000    0.000    0.000    0.000    0.000 
#
# Total GULP energy -297662.267800 kJ/mol
# GULP energy per Si atom -12402.594492 kJ/mol
# Density = 1.842822 g / cm^3
# Si number density = 18.470255 Si / 1000 Ang^3
#
#
#
# Elastic Constant Matrix: (Units=GPa)
#
#
# Indices 1 2 3 4 5 6 
#
# 1 41.1897 17.0606 27.1314 0.0000 7.1989 0.0000
# 2 17.0606 44.7350 40.7162 0.0000 4.8444 0.0000
# 3 27.1314 40.7162 114.1620 0.0000 15.2351 0.0000
# 4 0.0000 0.0000 0.0000 26.9747 0.0000 6.2420
# 5 7.1989 4.8444 15.2351 0.0000 21.6907 0.0000
# 6 0.0000 0.0000 0.0000 6.2420 0.0000 21.4354
#
#
#
# Elastic Compliance Matrix: (Units=1/GPa)
#
#
# Indices 1 2 3 4 5 6 
#
# 1 0.031025 -0.007697 -0.003844 0.000000 -0.005878 0.000000
# 2 -0.007697 0.035027 -0.010990 0.000000 0.002451 0.000000
# 3 -0.003844 -0.010990 0.014449 0.000000 -0.006419 0.000000
# 4 0.000000 0.000000 0.000000 0.039750 0.000000 -0.011575
# 5 -0.005878 0.002451 -0.006419 0.000000 0.052014 0.000000
# 6 0.000000 0.000000 0.000000 -0.011575 0.000000 0.050022
#
#
# Mechanical properties :
#
#
# Convention : Reuss Voigt Hill
#
# Bulk Modulus (GPa) = 28.21741 41.10033 34.65887
# Shear Modulus (GPa) = 17.91066 21.69874 19.80470
#
# Velocity S-wave (km/s) = 3.11738 3.43125 3.27807
# Velocity P-wave (km/s) = 5.31675 6.16428 5.75614
#
# Compressibility (1/GPa) = 0.03543911
#
# Stress axis : x y z
#
# Youngs Moduli (GPa) = 32.23194 28.54957 69.20780
#
# Poissons Ratio (x) = 0.21975 0.26601
# Poissons Ratio (y) = 0.24809 0.76061
# Poissons Ratio (z) = 0.12389 0.31377
#
# Static dielectric constant tensor:
#      x y z
#    x 3.421490 0.000000 0.102030 
#    y 0.000000 3.161280 0.000000 
#    z 0.102030 0.000000 3.474480 
# 
# 
# High freq. dielectric constant tensor:
#      x y z
#    x 1.716550 0.000000 0.007460 
#    y 0.000000 1.691220 0.000000 
#    z 0.007460 0.000000 1.724590 
# 
# From -- ./inp_files/94520.got.cif
#   From: 2010.06.25/outbox.cif.g09.slc.cpg/sg12_48_cif.got.tgz:94520.got - 2010.06.28 00:19:55.
