data_PCOD8096396
_publ_section_title
;
Structure prediction by ZEFSAII (Michael W. Deem and Ramdas Pophale) SiO2 
 PCOD8096396
Probable space group: C 2/M
;
_chemical_formula_sum "Si O2"
_cell_formula_units_Z 64
_cell_length_a 15.587821
_cell_length_b 9.473277
_cell_length_c 23.650381
_cell_angle_alpha 90.000000
_cell_angle_beta 90.211873
_cell_angle_gamma 90.000000
_cell_volume 3492.374580
_symmetry_space_group_name_H-M "C 2/M"
_symmetry_group_IT_number 12
_symmetry_cell_setting 'monoclinic'
loop_
_space_group_symop_operation_xyz
x,y,z
-x,y,-z
-x,-y,-z
x,-y,z
1/2+x,1/2+y,z
1/2-x,1/2+y,-z
1/2-x,1/2-y,-z
1/2+x,1/2-y,z
loop_
_atom_site_type_symbol
_atom_site_label
_atom_site_fract_x
_atom_site_fract_y
_atom_site_fract_z
Si Si1 0.652207 0.338124 0.376367
Si Si2 0.496466 0.166222 0.565518
Si Si3 0.583495 0.164530 0.744380
Si Si4 0.838553 0.333054 0.368180
Si Si5 0.754899 0.333560 0.057700
Si Si6 0.421301 0.341996 0.741524
Si Si7 0.092262 0.163968 0.131359
Si Si8 0.421208 0.165711 0.128692
O O1 0.638048 0.500000 0.395680
O O2 0.584909 0.240875 0.407496
O O3 0.747278 0.280206 0.392177
O O4 0.648752 0.328062 0.307928
O O5 0.500000 0.204793 0.500000
O O6 0.583085 0.227480 0.594413
O O7 0.486414 0.000000 0.575737
O O8 0.653322 0.211914 0.697976
O O9 0.495815 0.236021 0.725474
O O10 0.609967 0.207438 0.808036
O O11 0.565607 0.000000 0.740524
O O12 0.839595 0.500000 0.372809
O O13 0.752823 0.500000 0.046062
O O14 0.673975 0.286677 0.095382
O O15 0.843783 0.289574 0.087812
O O16 0.750000 0.250000 0.000000
O O17 0.459709 0.500000 0.743365
O O18 0.382426 0.306049 0.803193
O O19 0.007856 0.251143 0.112502
O O20 0.071836 0.000000 0.120658
O O21 0.441488 0.000000 0.124092
#
# Coordination Sequence:
#
# PCOD8096396 Si02
#       8
#     8   8   8   8   8   8   8   8
#     4  10  20  33  53  80 106 135 173 216 262 312
#     4  10  21  38  56  74 104 144 181 217 258 308
#     4   9  16  30  54  77 103 137 173 211 257 314
#     4   9  18  32  52  78 105 137 173 210 259 314
#     4  10  22  38  55  77 106 141 180 217 258 312
#     4   9  17  30  51  78 107 133 165 213 264 311
#     4   9  19  35  54  77 106 138 171 211 264 317
#     4   9  19  34  54  80 105 134 175 220 261 304
#
# _framework density 18.325638999999999
#
# number of rings (size 3 to 8) (size 9 to 14) (size 15 to 20)
#    0.000    2.625    1.250    0.000    1.750    2.250 
#    0.000    3.750    0.000    0.000    0.000    0.000 
#    0.000    0.000    0.000    0.000    0.000    0.000 
#
# Total GULP energy -396645.793370 kJ/mol
# GULP energy per Si atom -12395.181043 kJ/mol
# Density = 1.828393 g / cm^3
# Si number density = 18.325639 Si / 1000 Ang^3
#
#
#
# Elastic Constant Matrix: (Units=GPa)
#
#
# Indices 1 2 3 4 5 6 
#
# 1 151.9331 41.6367 78.6214 0.0000 -7.4657 0.0000
# 2 41.6367 33.8365 41.6392 0.0000 -2.0537 0.0000
# 3 78.6214 41.6392 109.7816 0.0000 -8.1308 0.0000
# 4 0.0000 0.0000 0.0000 24.0089 0.0000 -3.0024
# 5 -7.4657 -2.0537 -8.1308 0.0000 23.5127 0.0000
# 6 0.0000 0.0000 0.0000 -3.0024 0.0000 28.5078
#
#
#
# Elastic Compliance Matrix: (Units=1/GPa)
#
#
# Indices 1 2 3 4 5 6 
#
# 1 0.011408 -0.007537 -0.005226 0.000000 0.001157 0.000000
# 2 -0.007537 0.060545 -0.017808 0.000000 -0.003263 0.000000
# 3 -0.005226 -0.017808 0.019877 0.000000 0.003659 0.000000
# 4 0.000000 0.000000 0.000000 0.042207 0.000000 0.004445
# 5 0.001157 -0.003263 0.003659 0.000000 0.043878 0.000000
# 6 0.000000 0.000000 0.000000 0.004445 0.000000 0.035546
#
#
# Mechanical properties :
#
#
# Convention : Reuss Voigt Hill
#
# Bulk Modulus (GPa) = 32.58558 68.81621 50.70090
# Shear Modulus (GPa) = 17.55410 24.11614 20.83512
#
# Velocity S-wave (km/s) = 3.09835 3.63158 3.37551
# Velocity P-wave (km/s) = 5.53351 7.43087 6.55124
#
# Compressibility (1/GPa) = 0.03068842
#
# Stress axis : x y z
#
# Youngs Moduli (GPa) = 87.65398 16.51653 50.30966
#
# Poissons Ratio (x) = 0.12449 0.26291
# Poissons Ratio (y) = 0.66068 0.89591
# Poissons Ratio (z) = 0.45806 0.29413
#
# Static dielectric constant tensor:
#      x y z
#    x 3.480560 0.000000 0.047240 
#    y 0.000000 3.226980 0.000000 
#    z 0.047240 0.000000 3.533200 
# 
# 
# High freq. dielectric constant tensor:
#      x y z
#    x 1.710080 0.000000 0.000550 
#    y 0.000000 1.689620 0.000000 
#    z 0.000550 0.000000 1.714910 
# 
# From -- ./inp_files/338761.got.cif
#   From: 2010.06.25/outbox.cif.g09.slc.cpg/sg12_170_cif.got.tgz:338761.got - 2010.06.28 00:19:55.
