data_PCOD8096765
_publ_section_title
;
Structure prediction by ZEFSAII (Michael W. Deem and Ramdas Pophale) SiO2 
 PCOD8096765
Probable space group: C 2/M
;
_chemical_formula_sum "Si O2"
_cell_formula_units_Z 52
_cell_length_a 27.842610
_cell_length_b 9.621334
_cell_length_c 27.517150
_cell_angle_alpha 90.000000
_cell_angle_beta 22.366167
_cell_angle_gamma 90.000000
_cell_volume 2804.988984
_symmetry_space_group_name_H-M "C 2/M"
_symmetry_group_IT_number 12
_symmetry_cell_setting 'monoclinic'
loop_
_space_group_symop_operation_xyz
x,y,z
-x,y,-z
-x,-y,-z
x,-y,z
1/2+x,1/2+y,z
1/2-x,1/2+y,-z
1/2-x,1/2-y,-z
1/2+x,1/2-y,z
loop_
_atom_site_type_symbol
_atom_site_label
_atom_site_fract_x
_atom_site_fract_y
_atom_site_fract_z
Si Si1 0.113144 0.157990 0.674690
Si Si2 0.664565 0.662512 0.892916
Si Si3 0.093154 0.661750 0.604655
Si Si4 0.560419 0.840848 0.341136
Si Si5 0.000000 0.768810 0.500000
Si Si6 0.576977 0.339788 0.817031
Si Si7 0.779351 0.343567 0.248961
O O1 0.050558 0.257473 0.693120
O O2 0.260844 0.188546 0.542610
O O3 0.049776 0.189137 0.785954
O O4 0.089241 0.000000 0.680616
O O5 0.668429 0.500000 0.873749
O O6 0.794685 0.709168 0.796847
O O7 0.648780 0.754513 0.859506
O O8 0.552323 0.694767 0.034476
O O9 0.063555 0.500000 0.640800
O O10 0.018822 0.730239 0.628246
O O11 0.501792 0.821851 0.449450
O O12 0.551831 0.000000 0.336317
O O13 0.871439 0.857664 0.618133
O O14 0.619869 0.500000 0.784691
O O15 0.687777 0.237405 0.731953
O O16 0.833848 0.500000 0.199047
#
# Coordination Sequence:
#
# PCOD8096765 Si02
#       7
#     8   8   8   8   4   8   8
#     4   9  18  32  50  72  97 127 164 205 248 295
#     4   9  19  35  53  73  99 133 170 206 245 291
#     4   9  17  31  50  73  99 126 160 204 252 295
#     4   9  17  31  53  77 100 130 168 208 246 289
#     4  10  20  34  50  74 105 134 165 200 245 298
#     4  10  20  35  54  74  98 131 172 210 243 289
#     4  11  22  34  50  74 105 135 163 202 251 299
#
# _framework density 18.538397
#
# number of rings (size 3 to 8) (size 9 to 14) (size 15 to 20)
#    0.000    2.462    0.000    2.308    0.000    6.154 
#    0.000    7.692    0.000    0.000    0.000    0.000 
#    0.000    0.000    0.000    0.000    0.000    0.000 
#
# Total GULP energy -322302.912628 kJ/mol
# GULP energy per Si atom -12396.265870 kJ/mol
# Density = 1.849620 g / cm^3
# Si number density = 18.538397 Si / 1000 Ang^3
#
#
#
# Elastic Constant Matrix: (Units=GPa)
#
#
# Indices 1 2 3 4 5 6 
#
# 1 134.9947 43.8074 39.8850 0.0288 16.5083 -0.0050
# 2 43.8074 55.0373 31.4357 0.0065 4.3185 -0.0019
# 3 39.8850 31.4357 84.4225 0.0194 15.0327 -0.0052
# 4 0.0288 0.0065 0.0194 16.8372 -0.0215 2.5683
# 5 16.5083 4.3185 15.0327 -0.0215 21.7450 0.0068
# 6 -0.0050 -0.0019 -0.0052 2.5683 0.0068 21.3243
#
#
#
# Elastic Compliance Matrix: (Units=1/GPa)
#
#
# Indices 1 2 3 4 5 6 
#
# 1 0.010957 -0.007496 -0.001333 -0.000023 -0.005908 0.000006
# 2 -0.007496 0.028252 -0.007974 0.000019 0.005593 -0.000005
# 3 -0.001333 -0.007974 0.017085 -0.000027 -0.009216 0.000009
# 4 -0.000023 0.000019 -0.000027 0.060504 0.000095 -0.007287
# 5 -0.005908 0.005593 -0.009216 0.000095 0.055733 -0.000032
# 6 0.000006 -0.000005 0.000009 -0.007287 -0.000032 0.047773
#
#
# Mechanical properties :
#
#
# Convention : Reuss Voigt Hill
#
# Bulk Modulus (GPa) = 44.07865 56.07898 50.07881
# Shear Modulus (GPa) = 19.12247 22.60306 20.86276
#
# Velocity S-wave (km/s) = 3.21519 3.49557 3.35831
# Velocity P-wave (km/s) = 6.13285 6.82700 6.48921
#
# Compressibility (1/GPa) = 0.02268672
#
# Stress axis : x y z
#
# Youngs Moduli (GPa) = 91.26941 35.39595 58.52950
#
# Poissons Ratio (x) = 0.26533 0.07803
# Poissons Ratio (y) = 0.68415 0.46674
# Poissons Ratio (z) = 0.12168 0.28226
#
# Static dielectric constant tensor:
#      x y z
#    x 3.679720 -0.000010 0.019540 
#    y -0.000010 3.224840 0.000010 
#    z 0.019540 0.000010 3.332140 
# 
# 
# High freq. dielectric constant tensor:
#      x y z
#    x 1.721880 0.000000 0.003620 
#    y 0.000000 1.699510 0.000000 
#    z 0.003620 0.000000 1.709970 
# 
# From -- ./inp_files/351244.got.cif
#   From: 2010.06.25/outbox.cif.g09.slc.cpg/sg12_176_cif.got.tgz:351244.got - 2010.06.28 00:19:55.
