data_PCOD8096611
_publ_section_title
;
Structure prediction by ZEFSAII (Michael W. Deem and Ramdas Pophale) SiO2 
 PCOD8096611
Probable space group: C 2/M
;
_chemical_formula_sum "Si O2"
_cell_formula_units_Z 56
_cell_length_a 17.684639
_cell_length_b 18.631199
_cell_length_c 16.909357
_cell_angle_alpha 90.000000
_cell_angle_beta 148.062693
_cell_angle_gamma 90.000000
_cell_volume 2947.218883
_symmetry_space_group_name_H-M "C 2/M"
_symmetry_group_IT_number 12
_symmetry_cell_setting 'monoclinic'
loop_
_space_group_symop_operation_xyz
x,y,z
-x,y,-z
-x,-y,-z
x,-y,z
1/2+x,1/2+y,z
1/2-x,1/2+y,-z
1/2-x,1/2-y,-z
1/2+x,1/2-y,z
loop_
_atom_site_type_symbol
_atom_site_label
_atom_site_fract_x
_atom_site_fract_y
_atom_site_fract_z
Si Si1 0.863799 0.748037 0.484638
Si Si2 0.770268 0.136469 0.516521
Si Si3 0.973600 0.420387 0.204131
Si Si4 0.442443 0.580079 0.178335
Si Si5 0.773229 0.310815 0.954843
Si Si6 0.258221 0.420598 0.868668
Si Si7 0.189513 0.723084 0.738974
O O1 0.843282 0.825486 0.505865
O O2 0.777138 0.691695 0.459077
O O3 0.797536 0.751359 0.338254
O O4 0.028427 0.725395 0.628608
O O5 0.639692 0.089091 0.370163
O O6 0.887766 0.086012 0.661838
O O7 0.953505 0.500000 0.148583
O O8 0.883909 0.415247 0.204832
O O9 0.917987 0.356937 0.097032
O O10 0.392949 0.500000 0.158163
O O11 0.362130 0.635858 0.164156
O O12 0.396369 0.594311 0.046440
O O13 0.785847 0.273676 0.880526
O O14 0.750000 0.250000 0.000000
O O15 0.268565 0.500000 0.838136
O O16 0.247446 0.359047 0.792647
#
# Coordination Sequence:
#
# PCOD8096611 Si02
#       7
#     8   8   8   8   8   8   8
#     4  10  23  33  57  84 113 141 189 231 273 323
#     4  11  20  38  55  83 111 146 183 234 275 319
#     4  10  20  34  57  84 112 146 185 223 273 330
#     4  10  20  33  56  83 112 147 185 222 273 330
#     4  11  18  33  60  85 107 147 185 227 267 327
#     4   9  18  34  55  83 113 147 184 221 266 337
#     4  11  19  38  56  85 111 148 185 228 272 328
#
# _framework density 19.000965000000001
#
# number of rings (size 3 to 8) (size 9 to 14) (size 15 to 20)
#    0.000    1.714    5.714    1.714    2.000    0.000 
#    0.000    5.714    0.000    6.857    0.000    0.000 
#    0.000    0.000    0.000    0.000    0.000    0.000 
#
# Total GULP energy -347137.331933 kJ/mol
# GULP energy per Si atom -12397.761855 kJ/mol
# Density = 1.895772 g / cm^3
# Si number density = 19.000965 Si / 1000 Ang^3
#
#
#
# Elastic Constant Matrix: (Units=GPa)
#
#
# Indices 1 2 3 4 5 6 
#
# 1 54.0872 23.6521 35.4125 -0.0038 -10.3767 -0.0005
# 2 23.6521 114.5337 50.3004 -0.0065 -6.3532 -0.0032
# 3 35.4125 50.3004 125.3409 -0.0070 10.3126 -0.0040
# 4 -0.0038 -0.0065 -0.0070 26.6760 -0.0059 -0.6273
# 5 -10.3767 -6.3532 10.3126 -0.0059 31.3107 -0.0021
# 6 -0.0005 -0.0032 -0.0040 -0.6273 -0.0021 7.8499
#
#
#
# Elastic Compliance Matrix: (Units=1/GPa)
#
#
# Indices 1 2 3 4 5 6 
#
# 1 0.026300 -0.001410 -0.007769 0.000004 0.010989 0.000001
# 2 -0.001410 0.011097 -0.004319 0.000002 0.003207 0.000003
# 3 -0.007769 -0.004319 0.012530 -0.000001 -0.007578 0.000002
# 4 0.000004 0.000002 -0.000001 0.037557 0.000009 0.003001
# 5 0.010989 0.003207 -0.007578 0.000009 0.038726 0.000009
# 6 0.000001 0.000003 0.000002 0.003001 0.000009 0.127631
#
#
# Mechanical properties :
#
#
# Convention : Reuss Voigt Hill
#
# Bulk Modulus (GPa) = 43.60775 56.96577 50.28676
# Shear Modulus (GPa) = 17.33226 25.47376 21.40301
#
# Velocity S-wave (km/s) = 3.02350 3.66547 3.35985
# Velocity P-wave (km/s) = 5.93202 6.92530 6.44782
#
# Compressibility (1/GPa) = 0.02293170
#
# Stress axis : x y z
#
# Youngs Moduli (GPa) = 38.02307 90.11627 79.80938
#
# Poissons Ratio (x) = 0.12703 0.62003
# Poissons Ratio (y) = 0.05360 0.34468
# Poissons Ratio (z) = 0.29540 0.38920
#
# Static dielectric constant tensor:
#      x y z
#    x 3.095260 0.000000 0.067400 
#    y 0.000000 3.743040 0.000000 
#    z 0.067400 0.000000 3.620430 
# 
# 
# High freq. dielectric constant tensor:
#      x y z
#    x 1.690370 0.000000 0.011230 
#    y 0.000000 1.751200 0.000000 
#    z 0.011230 0.000000 1.748340 
# 
# From -- ./inp_files/285011.got.cif
#   From: 2010.06.25/outbox.cif.g09.slc.cpg/sg12_143_cif.got.tgz:285011.got - 2010.06.28 00:19:55.
