data_PCOD8096802
_publ_section_title
;
Structure prediction by ZEFSAII (Michael W. Deem and Ramdas Pophale) SiO2 
 PCOD8096802
Probable space group: C 2/M
;
_chemical_formula_sum "Si O2"
_cell_formula_units_Z 64
_cell_length_a 20.588390
_cell_length_b 8.979710
_cell_length_c 20.437960
_cell_angle_alpha 90.000000
_cell_angle_beta 106.734439
_cell_angle_gamma 90.000000
_cell_volume 3618.502465
_symmetry_space_group_name_H-M "C 2/M"
_symmetry_group_IT_number 12
_symmetry_cell_setting 'monoclinic'
loop_
_space_group_symop_operation_xyz
x,y,z
-x,y,-z
-x,-y,-z
x,-y,z
1/2+x,1/2+y,z
1/2-x,1/2+y,-z
1/2-x,1/2-y,-z
1/2+x,1/2-y,z
loop_
_atom_site_type_symbol
_atom_site_label
_atom_site_fract_x
_atom_site_fract_y
_atom_site_fract_z
Si Si1 0.381515 0.173443 0.280173
Si Si2 0.537142 0.671092 0.154816
Si Si3 0.978668 0.170666 0.704705
Si Si4 0.706987 0.823184 0.861323
Si Si5 0.417231 0.174305 0.429226
Si Si6 0.857680 0.825168 0.924031
Si Si7 0.403925 0.175975 0.067125
Si Si8 0.440145 0.673829 0.556608
O O1 0.453089 0.235888 0.278097
O O2 0.321525 0.237749 0.216800
O O3 0.366312 0.203957 0.353182
O O4 0.387541 0.000000 0.268181
O O5 0.515296 0.500000 0.136878
O O6 0.558030 0.699107 0.236598
O O7 0.602623 0.711932 0.131092
O O8 0.474679 0.775106 0.118417
O O9 0.926393 0.209575 0.629694
O O10 0.001151 0.000000 0.703245
O O11 0.781980 0.757772 0.894931
O O12 0.657644 0.767933 0.904874
O O13 0.711515 0.000000 0.861281
O O14 0.483893 0.269434 0.433679
O O15 0.389885 0.236461 0.491740
O O16 0.434310 0.000000 0.440024
O O17 0.856067 0.000000 0.938176
O O18 0.896714 0.746388 0.993936
O O19 0.403553 0.000000 0.060284
O O20 0.433201 0.500000 0.539043
#
# Coordination Sequence:
#
# PCOD8096802 Si02
#       8
#     8   8   8   8   8   8   8   8
#     4   9  16  28  45  65  90 119 152 188 227 270
#     4  10  20  34  51  71  94 123 158 193 231 276
#     4   9  17  28  43  65  90 118 153 189 225 268
#     4   9  18  33  51  71  93 122 157 192 233 275
#     4   9  15  22  36  59  87 116 146 181 220 266
#     4  10  21  36  52  69  94 124 155 193 234 278
#     4  11  21  34  53  73  94 120 153 194 237 282
#     4   9  15  23  36  56  87 119 145 179 222 266
#
# _framework density 17.686874
#
# number of rings (size 3 to 8) (size 9 to 14) (size 15 to 20)
#    0.000    2.500    1.250    2.625    0.000    3.000 
#    0.000    1.250    0.000    0.000    0.000    0.875 
#    0.000    0.000    0.000    0.000    0.000    0.000 
#
# Total GULP energy -396503.657116 kJ/mol
# GULP energy per Si atom -12390.739285 kJ/mol
# Density = 1.764662 g / cm^3
# Si number density = 17.686874 Si / 1000 Ang^3
#
#
#
# Elastic Constant Matrix: (Units=GPa)
#
#
# Indices 1 2 3 4 5 6 
#
# 1 62.5115 18.0510 30.9889 0.0000 -13.8991 0.0000
# 2 18.0510 39.3477 34.7426 0.0000 -5.3365 0.0000
# 3 30.9889 34.7426 159.1270 0.0000 -17.7521 0.0000
# 4 0.0000 0.0000 0.0000 17.4812 0.0000 -2.8807
# 5 -13.8991 -5.3365 -17.7521 0.0000 12.1589 0.0000
# 6 0.0000 0.0000 0.0000 -2.8807 0.0000 13.5887
#
#
#
# Elastic Compliance Matrix: (Units=1/GPa)
#
#
# Indices 1 2 3 4 5 6 
#
# 1 0.023403 -0.007259 -0.000411 0.000000 0.022968 0.000000
# 2 -0.007259 0.033945 -0.006285 0.000000 -0.002576 0.000000
# 3 -0.000411 -0.006285 0.008812 0.000000 0.009637 0.000000
# 4 0.000000 0.000000 0.000000 0.059275 0.000000 0.012566
# 5 0.022968 -0.002576 0.009637 0.000000 0.121439 0.000000
# 6 0.000000 0.000000 0.000000 0.012566 0.000000 0.076254
#
#
# Mechanical properties :
#
#
# Convention : Reuss Voigt Hill
#
# Bulk Modulus (GPa) = 26.14335 47.61680 36.88007
# Shear Modulus (GPa) = 13.74431 20.45934 17.10182
#
# Velocity S-wave (km/s) = 2.79066 3.40480 3.11291
# Velocity P-wave (km/s) = 5.01966 6.51440 5.81526
#
# Compressibility (1/GPa) = 0.03825064
#
# Stress axis : x y z
#
# Youngs Moduli (GPa) = 42.72883 29.45974 113.48722
#
# Poissons Ratio (x) = 0.21385 0.04659
# Poissons Ratio (y) = 0.31017 0.71326
# Poissons Ratio (z) = 0.01754 0.18515
#
# Static dielectric constant tensor:
#      x y z
#    x 2.946690 0.000000 -0.017390 
#    y 0.000000 3.203430 0.000000 
#    z -0.017390 0.000000 4.267380 
# 
# 
# High freq. dielectric constant tensor:
#      x y z
#    x 1.623220 0.000000 -0.003540 
#    y 0.000000 1.675650 0.000000 
#    z -0.003540 0.000000 1.716760 
# 
# From -- ./inp_files/319253.got.cif
#   From: 2010.06.25/outbox.cif.g09.slc.cpg/sg12_160_cif.got.tgz:319253.got - 2010.06.28 00:19:55.
