data_PCOD8096651
_publ_section_title
;
Structure prediction by ZEFSAII (Michael W. Deem and Ramdas Pophale) SiO2 
 PCOD8096651
Probable space group: C 2/M
;
_chemical_formula_sum "Si O2"
_cell_formula_units_Z 56
_cell_length_a 14.012896
_cell_length_b 23.583022
_cell_length_c 14.230468
_cell_angle_alpha 90.000000
_cell_angle_beta 142.238779
_cell_angle_gamma 90.000000
_cell_volume 2879.797482
_symmetry_space_group_name_H-M "C 2/M"
_symmetry_group_IT_number 12
_symmetry_cell_setting 'monoclinic'
loop_
_space_group_symop_operation_xyz
x,y,z
-x,y,-z
-x,-y,-z
x,-y,z
1/2+x,1/2+y,z
1/2-x,1/2+y,-z
1/2-x,1/2-y,-z
1/2+x,1/2-y,z
loop_
_atom_site_type_symbol
_atom_site_label
_atom_site_fract_x
_atom_site_fract_y
_atom_site_fract_z
Si Si1 0.532482 0.123239 0.134547
Si Si2 0.285161 0.437243 0.583485
Si Si3 0.429864 0.667385 0.799887
Si Si4 0.422444 0.229372 0.155895
Si Si5 0.250348 0.661306 0.839361
Si Si6 0.442468 0.065523 0.249538
Si Si7 0.839226 0.936345 0.415990
O O1 0.486961 0.187909 0.124093
O O2 0.439475 0.083551 0.136666
O O3 0.714580 0.110901 0.289945
O O4 0.500000 0.109971 0.000000
O O5 0.294857 0.500000 0.638431
O O6 0.378827 0.391779 0.716610
O O7 0.369333 0.439065 0.549638
O O8 0.106213 0.419749 0.426623
O O9 0.452657 0.718568 0.741799
O O10 0.296610 0.683340 0.772264
O O11 0.597998 0.662114 0.977689
O O12 0.398868 0.197371 0.237227
O O13 0.250000 0.250000 0.000000
O O14 0.190715 0.596510 0.793289
O O15 0.403869 0.000000 0.223926
O O16 0.000000 0.914776 0.500000
O O17 0.791358 0.000000 0.343149
#
# Coordination Sequence:
#
# PCOD8096651 Si02
#       7
#     8   8   8   8   8   8   8
#     4  10  20  33  57  85 108 144 195 230 274 338
#     4   9  19  36  57  79 109 149 186 222 276 335
#     4  10  20  36  58  80 110 144 186 230 275 329
#     4   9  20  36  55  79 111 146 181 233 285 329
#     4   9  20  36  54  81 109 143 185 230 277 323
#     4   9  19  37  55  78 116 147 177 226 275 327
#     4   9  19  36  54  79 119 154 182 229 285 334
#
# _framework density 19.445812
#
# number of rings (size 3 to 8) (size 9 to 14) (size 15 to 20)
#    0.000    2.714    0.000    1.286    4.000    6.286 
#    0.000   10.714    0.000    0.000    0.000    0.000 
#    0.000    0.000    0.000    0.000    0.000    0.000 
#
# Total GULP energy -346877.718095 kJ/mol
# GULP energy per Si atom -12388.489932 kJ/mol
# Density = 1.940155 g / cm^3
# Si number density = 19.445812 Si / 1000 Ang^3
#
#
#
# Elastic Constant Matrix: (Units=GPa)
#
#
# Indices 1 2 3 4 5 6 
#
# 1 126.4477 61.0254 38.5762 0.0000 17.2022 0.0000
# 2 61.0254 125.5624 39.0087 0.0000 6.9687 0.0000
# 3 38.5762 39.0087 40.2469 0.0000 -5.5662 0.0000
# 4 0.0000 0.0000 0.0000 25.5469 0.0000 11.2591
# 5 17.2022 6.9687 -5.5662 0.0000 19.3851 0.0000
# 6 0.0000 0.0000 0.0000 11.2591 0.0000 31.5258
#
#
#
# Elastic Compliance Matrix: (Units=1/GPa)
#
#
# Indices 1 2 3 4 5 6 
#
# 1 0.016328 -0.001779 -0.016497 0.000000 -0.018587 0.000000
# 2 -0.001779 0.012766 -0.011542 0.000000 -0.006325 0.000000
# 3 -0.016497 -0.011542 0.056696 0.000000 0.035068 0.000000
# 4 0.000000 0.000000 0.000000 0.046456 0.000000 -0.016591
# 5 -0.018587 -0.006325 0.035068 0.000000 0.080423 0.000000
# 6 0.000000 0.000000 0.000000 -0.016591 0.000000 0.037645
#
#
# Mechanical properties :
#
#
# Convention : Reuss Voigt Hill
#
# Bulk Modulus (GPa) = 38.23599 63.27528 50.75564
# Shear Modulus (GPa) = 15.69026 25.53467 20.61247
#
# Velocity S-wave (km/s) = 2.84363 3.62763 3.25929
# Velocity P-wave (km/s) = 5.52152 7.08210 6.34994
#
# Compressibility (1/GPa) = 0.02615337
#
# Stress axis : x y z
#
# Youngs Moduli (GPa) = 61.24267 78.33417 17.63796
#
# Poissons Ratio (x) = 0.13938 0.29097
# Poissons Ratio (y) = 0.10897 0.20358
# Poissons Ratio (z) = 1.01031 0.90417
#
# Static dielectric constant tensor:
#      x y z
#    x 4.149050 0.000000 0.133940 
#    y 0.000000 3.840220 0.000000 
#    z 0.133940 0.000000 3.179830 
# 
# 
# High freq. dielectric constant tensor:
#      x y z
#    x 1.771000 0.000000 0.010650 
#    y 0.000000 1.762320 0.000000 
#    z 0.010650 0.000000 1.717680 
# 
# From -- ./inp_files/218296.got.cif
#   From: 2010.06.25/outbox.cif.g09.slc.cpg/sg12_110_cif.got.tgz:218296.got - 2010.06.28 00:19:55.
