data_PCOD8096321
_publ_section_title
;
Structure prediction by ZEFSAII (Michael W. Deem and Ramdas Pophale) SiO2 
 PCOD8096321
Probable space group: C 2/M
;
_chemical_formula_sum "Si O2"
_cell_formula_units_Z 56
_cell_length_a 29.719777
_cell_length_b 9.831883
_cell_length_c 21.494666
_cell_angle_alpha 90.000000
_cell_angle_beta 28.011085
_cell_angle_gamma 90.000000
_cell_volume 2949.716159
_symmetry_space_group_name_H-M "C 2/M"
_symmetry_group_IT_number 12
_symmetry_cell_setting 'monoclinic'
loop_
_space_group_symop_operation_xyz
x,y,z
-x,y,-z
-x,-y,-z
x,-y,z
1/2+x,1/2+y,z
1/2-x,1/2+y,-z
1/2-x,1/2-y,-z
1/2+x,1/2-y,z
loop_
_atom_site_type_symbol
_atom_site_label
_atom_site_fract_x
_atom_site_fract_y
_atom_site_fract_z
Si Si1 0.736769 0.843293 0.576938
Si Si2 0.202947 0.150256 0.835428
Si Si3 0.627827 0.346009 0.178857
Si Si4 0.389994 0.159358 0.150999
Si Si5 0.239310 0.842688 0.921122
Si Si6 0.590015 0.651485 0.544244
Si Si7 0.582574 0.150805 0.442283
O O1 0.750000 0.750000 0.500000
O O2 0.646937 0.803568 0.733532
O O3 0.835856 0.821264 0.491382
O O4 0.723393 0.000000 0.572116
O O5 0.175633 0.260561 0.817741
O O6 0.169990 0.188578 0.945675
O O7 0.315748 0.142186 0.715566
O O8 0.166516 0.000000 0.858057
O O9 0.654105 0.500000 0.165442
O O10 0.664168 0.249525 0.190890
O O11 0.516218 0.329122 0.300998
O O12 0.674002 0.299504 0.058249
O O13 0.373030 0.000000 0.160333
O O14 0.500000 0.199159 0.000000
O O15 0.269959 0.000000 0.885973
O O16 0.605934 0.500000 0.497485
O O17 0.608153 0.760044 0.469733
O O18 0.500000 0.217882 0.500000
O O19 0.547616 0.000000 0.505386
#
# Coordination Sequence:
#
# PCOD8096321 Si02
#       7
#     8   8   8   8   8   8   8
#     4  10  22  40  61  85 113 147 190 242 297 350
#     4  10  20  34  55  82 110 143 184 229 280 335
#     4   9  18  32  51  76 107 144 185 225 271 330
#     4  10  22  41  62  84 114 150 190 241 296 351
#     4   9  18  33  51  75 110 146 181 224 273 329
#     4  10  20  35  54  78 107 141 182 227 276 332
#     4  10  20  33  52  81 114 145 180 222 271 329
#
# _framework density 18.984878999999999
#
# number of rings (size 3 to 8) (size 9 to 14) (size 15 to 20)
#    0.000    2.286    1.429    0.857    0.000    5.143 
#    0.000    1.429    0.000    0.000    0.000    0.000 
#    0.000    0.000    0.000    0.000    0.000    0.000 
#
# Total GULP energy -346898.092160 kJ/mol
# GULP energy per Si atom -12389.217577 kJ/mol
# Density = 1.894167 g / cm^3
# Si number density = 18.984879 Si / 1000 Ang^3
#
#
#
# Elastic Constant Matrix: (Units=GPa)
#
#
# Indices 1 2 3 4 5 6 
#
# 1 94.9609 56.0621 41.6681 -0.0008 9.3272 0.0018
# 2 56.0621 77.3495 34.8423 -0.0030 10.8844 0.0012
# 3 41.6681 34.8423 86.0492 0.0033 0.1018 -0.0018
# 4 -0.0008 -0.0030 0.0033 23.9815 -0.0016 1.8712
# 5 9.3272 10.8844 0.1018 -0.0016 30.7468 0.0005
# 6 0.0018 0.0012 -0.0018 1.8712 0.0005 36.5330
#
#
#
# Elastic Compliance Matrix: (Units=1/GPa)
#
#
# Indices 1 2 3 4 5 6 
#
# 1 0.019892 -0.012025 -0.004761 0.000000 -0.001762 -0.000001
# 2 -0.012025 0.024099 -0.003929 0.000003 -0.004870 0.000000
# 3 -0.004761 -0.003929 0.015515 -0.000003 0.002784 0.000001
# 4 0.000000 0.000003 -0.000003 0.041866 0.000001 -0.002144
# 5 -0.001762 -0.004870 0.002784 0.000001 0.034773 0.000000
# 6 -0.000001 0.000000 0.000001 -0.002144 0.000000 0.027482
#
#
# Mechanical properties :
#
#
# Convention : Reuss Voigt Hill
#
# Bulk Modulus (GPa) = 55.32616 58.16717 56.74666
# Shear Modulus (GPa) = 23.68729 26.63806 25.16268
#
# Velocity S-wave (km/s) = 3.53610 3.74989 3.64456
# Velocity P-wave (km/s) = 6.77329 7.03236 6.90404
#
# Compressibility (1/GPa) = 0.01807463
#
# Stress axis : x y z
#
# Youngs Moduli (GPa) = 50.27132 41.49515 64.45527
#
# Poissons Ratio (x) = 0.49897 0.30689
# Poissons Ratio (y) = 0.60451 0.25327
# Poissons Ratio (z) = 0.23936 0.16305
#
# Static dielectric constant tensor:
#      x y z
#    x 3.429700 0.000000 -0.073860 
#    y 0.000000 3.526740 0.000010 
#    z -0.073860 0.000010 3.841540 
# 
# 
# High freq. dielectric constant tensor:
#      x y z
#    x 1.727140 0.000000 0.003160 
#    y 0.000000 1.737630 0.000000 
#    z 0.003160 0.000000 1.744220 
# 
# From -- ./inp_files/329502.got.cif
#   From: 2010.06.25/outbox.cif.g09.slc.cpg/sg12_165_cif.got.tgz:329502.got - 2010.06.28 00:19:55.
