data_PCOD8096241
_publ_section_title
;
Structure prediction by ZEFSAII (Michael W. Deem and Ramdas Pophale) SiO2 
 PCOD8096241
Probable space group: C 2/M
;
_chemical_formula_sum "Si O2"
_cell_formula_units_Z 56
_cell_length_a 18.101066
_cell_length_b 29.753602
_cell_length_c 8.298747
_cell_angle_alpha 90.000000
_cell_angle_beta 42.449761
_cell_angle_gamma 90.000000
_cell_volume 3016.641006
_symmetry_space_group_name_H-M "C 2/M"
_symmetry_group_IT_number 12
_symmetry_cell_setting 'monoclinic'
loop_
_space_group_symop_operation_xyz
x,y,z
-x,y,-z
-x,-y,-z
x,-y,z
1/2+x,1/2+y,z
1/2-x,1/2+y,-z
1/2-x,1/2-y,-z
1/2+x,1/2-y,z
loop_
_atom_site_type_symbol
_atom_site_label
_atom_site_fract_x
_atom_site_fract_y
_atom_site_fract_z
Si Si1 0.665979 0.948775 0.844224
Si Si2 0.925482 0.551741 0.355639
Si Si3 0.653111 0.698757 0.538859
Si Si4 0.748873 0.788481 0.275824
Si Si5 0.065874 0.812074 0.250382
Si Si6 0.220326 0.129164 0.191045
Si Si7 0.881721 0.633204 0.647401
O O1 0.646893 0.938820 0.686298
O O2 0.769288 0.920493 0.747593
O O3 0.699489 0.000000 0.817205
O O4 0.552873 0.937595 0.118475
O O5 0.911250 0.500000 0.433225
O O6 0.882769 0.583501 0.567520
O O7 0.671816 0.745169 0.410690
O O8 0.678409 0.705653 0.683214
O O9 0.527460 0.680506 0.734435
O O10 0.731705 0.663165 0.323573
O O11 0.674302 0.832495 0.385850
O O12 0.832357 0.784527 0.988630
O O13 0.111267 0.858793 0.260532
O O14 0.000000 0.785679 0.500000
O O15 0.323302 0.133745 0.911513
O O16 0.000000 0.651743 0.500000
#
# Coordination Sequence:
#
# PCOD8096241 Si02
#       7
#     8   8   8   8   8   8   8
#     4   9  17  32  53  77 108 145 185 222 266 325
#     4   9  18  32  51  76 111 151 179 215 273 328
#     4  10  21  39  57  76 105 141 185 231 267 320
#     4  10  22  37  57  80 102 141 189 223 270 323
#     4   9  20  36  56  77 104 136 172 220 274 319
#     4  10  20  33  52  78 107 144 180 214 275 327
#     4  11  21  32  48  79 114 143 175 221 268 326
#
# _framework density 18.563694999999999
#
# number of rings (size 3 to 8) (size 9 to 14) (size 15 to 20)
#    0.000    2.286    1.429    2.143    0.000    8.857 
#    0.000    1.429    0.000    3.857    0.000    0.000 
#    0.000   38.857    0.000    0.000    0.000    0.000 
#
# Total GULP energy -346872.021738 kJ/mol
# GULP energy per Si atom -12388.286491 kJ/mol
# Density = 1.852144 g / cm^3
# Si number density = 18.563695 Si / 1000 Ang^3
#
#
#
# Elastic Constant Matrix: (Units=GPa)
#
#
# Indices 1 2 3 4 5 6 
#
# 1 84.3566 38.4428 27.6420 0.0000 -17.7897 0.0000
# 2 38.4428 103.3069 32.1046 0.0000 -7.6599 0.0000
# 3 27.6420 32.1046 92.3266 0.0000 0.6764 0.0000
# 4 0.0000 0.0000 0.0000 22.2397 0.0000 3.6327
# 5 -17.7897 -7.6599 0.6764 0.0000 21.8284 0.0000
# 6 0.0000 0.0000 0.0000 3.6327 0.0000 29.2990
#
#
#
# Elastic Compliance Matrix: (Units=1/GPa)
#
#
# Indices 1 2 3 4 5 6 
#
# 1 0.017964 -0.004491 -0.003913 0.000000 0.013186 0.000000
# 2 -0.004491 0.012323 -0.002946 0.000000 0.000755 0.000000
# 3 -0.003913 -0.002946 0.013061 0.000000 -0.004628 0.000000
# 4 0.000000 0.000000 0.000000 0.045894 0.000000 -0.005690
# 5 0.013186 0.000755 -0.004628 0.000000 0.056966 0.000000
# 6 0.000000 0.000000 0.000000 -0.005690 0.000000 0.034836
#
#
# Mechanical properties :
#
#
# Convention : Reuss Voigt Hill
#
# Bulk Modulus (GPa) = 48.43248 52.92989 50.68118
# Shear Modulus (GPa) = 23.73866 26.79348 25.26607
#
# Velocity S-wave (km/s) = 3.57987 3.80324 3.69324
# Velocity P-wave (km/s) = 6.57524 6.91814 6.74887
#
# Compressibility (1/GPa) = 0.02064730
#
# Stress axis : x y z
#
# Youngs Moduli (GPa) = 55.66686 81.15170 76.56388
#
# Poissons Ratio (x) = 0.36445 0.29961
# Poissons Ratio (y) = 0.25000 0.22555
# Poissons Ratio (z) = 0.21784 0.23906
#
# Static dielectric constant tensor:
#      x y z
#    x 3.569970 0.000000 0.004360 
#    y 0.000000 3.398870 0.000000 
#    z 0.004360 0.000000 3.453300 
# 
# 
# High freq. dielectric constant tensor:
#      x y z
#    x 1.729780 0.000000 0.013180 
#    y 0.000000 1.702540 0.000000 
#    z 0.013180 0.000000 1.713750 
# 
# From -- ./inp_files/54793.got.cif
#   From: 2010.06.25/outbox.cif.g09.slc.cpg/sg12_28_cif.got.tgz:54793.got - 2010.06.28 00:19:55.
