data_PCOD8096583
_publ_section_title
;
Structure prediction by ZEFSAII (Michael W. Deem and Ramdas Pophale) SiO2 
 PCOD8096583
Probable space group: C 2/M
;
_chemical_formula_sum "Si O2"
_cell_formula_units_Z 64
_cell_length_a 25.847883
_cell_length_b 19.193278
_cell_length_c 19.326054
_cell_angle_alpha 90.000000
_cell_angle_beta 18.345242
_cell_angle_gamma 90.000000
_cell_volume 3017.672353
_symmetry_space_group_name_H-M "C 2/M"
_symmetry_group_IT_number 12
_symmetry_cell_setting 'monoclinic'
loop_
_space_group_symop_operation_xyz
x,y,z
-x,y,-z
-x,-y,-z
x,-y,z
1/2+x,1/2+y,z
1/2-x,1/2+y,-z
1/2-x,1/2-y,-z
1/2+x,1/2-y,z
loop_
_atom_site_type_symbol
_atom_site_label
_atom_site_fract_x
_atom_site_fract_y
_atom_site_fract_z
Si Si1 0.725545 0.205301 0.158609
Si Si2 0.642018 0.202168 0.764848
Si Si3 0.954290 0.580190 0.359687
Si Si4 0.804585 0.076917 0.974314
Si Si5 0.637373 0.804287 0.427478
Si Si6 0.847203 0.075692 0.520871
Si Si7 0.454766 0.175640 0.873214
Si Si8 0.679961 0.577890 0.285223
O O1 0.548683 0.221157 0.349092
O O2 0.729002 0.202886 0.237957
O O3 0.791171 0.129707 0.054619
O O4 0.846112 0.264354 0.974304
O O5 0.771325 0.258141 0.630337
O O6 0.736155 0.131797 0.623974
O O7 0.562115 0.220226 0.792276
O O8 0.500000 0.188549 0.000000
O O9 0.889797 0.500000 0.432001
O O10 0.927360 0.631338 0.327877
O O11 0.865450 0.616022 0.539198
O O12 0.149892 0.580658 0.119992
O O13 0.960584 0.094615 0.728671
O O14 0.817468 0.000000 0.991370
O O15 0.791946 0.074723 0.669584
O O16 0.813049 0.000000 0.530249
O O17 0.327113 0.123452 0.070404
O O18 0.500000 0.611837 0.500000
O O19 0.686310 0.500000 0.244120
#
# Coordination Sequence:
#
# PCOD8096583 Si02
#       8
#     8   8   8   8   8   8   8   8
#     4  10  22  39  67  97 119 162 213 257 316 370
#     4  12  24  41  59  87 128 168 207 257 308 368
#     4  10  23  42  66  95 126 164 209 263 316 369
#     4   9  20  40  64  95 128 157 203 262 315 369
#     4  10  23  42  65  92 126 163 211 262 310 375
#     4  10  21  36  57  84 120 163 201 246 305 371
#     4  12  24  37  61  90 126 164 204 258 306 375
#     4  10  20  33  55  85 118 159 203 247 301 367
#
# _framework density 21.208399
#
# number of rings (size 3 to 8) (size 9 to 14) (size 15 to 20)
#    0.000    1.625    2.500    1.125    7.000    5.250 
#    0.000    2.500    0.000    0.375    0.000    0.000 
#    0.000    0.000    0.000    0.000    0.000    0.000 
#
# Total GULP energy -396604.454040 kJ/mol
# GULP energy per Si atom -12393.889189 kJ/mol
# Density = 2.116013 g / cm^3
# Si number density = 21.208399 Si / 1000 Ang^3
#
#
#
# Elastic Constant Matrix: (Units=GPa)
#
#
# Indices 1 2 3 4 5 6 
#
# 1 79.4518 42.6502 10.6970 -0.0235 -4.7307 0.0259
# 2 42.6502 124.2145 36.7576 -0.0020 -1.9570 -0.0175
# 3 10.6970 36.7576 48.3825 -0.0202 -2.8917 -0.0091
# 4 -0.0235 -0.0020 -0.0202 20.0702 0.0089 14.9957
# 5 -4.7307 -1.9570 -2.8917 0.0089 22.6797 -0.0101
# 6 0.0259 -0.0175 -0.0091 14.9957 -0.0101 13.8455
#
#
#
# Elastic Compliance Matrix: (Units=1/GPa)
#
#
# Indices 1 2 3 4 5 6 
#
# 1 0.015641 -0.005615 0.000982 0.000223 0.002903 -0.000275
# 2 -0.005615 0.012402 -0.008249 -0.000147 -0.001153 0.000179
# 3 0.000982 -0.008249 0.026894 0.000107 0.002922 -0.000109
# 4 0.000223 -0.000147 0.000107 0.261176 -0.000182 -0.282872
# 5 0.002903 -0.001153 0.002922 -0.000182 0.044971 0.000225
# 6 -0.000275 0.000179 -0.000109 -0.282872 0.000225 0.378596
#
#
# Mechanical properties :
#
#
# Convention : Reuss Voigt Hill
#
# Bulk Modulus (GPa) = 34.28148 48.02873 41.15510
# Shear Modulus (GPa) = 6.45020 22.11536 14.28278
#
# Velocity S-wave (km/s) = 1.74584 3.23269 2.59791
# Velocity P-wave (km/s) = 4.50146 6.05219 5.33348
#
# Compressibility (1/GPa) = 0.02917027
#
# Stress axis : x y z
#
# Youngs Moduli (GPa) = 63.93253 80.63410 37.18366
#
# Poissons Ratio (x) = 0.45279 -0.03650
# Poissons Ratio (y) = 0.35901 0.30674
# Poissons Ratio (z) = -0.06275 0.66518
#
# Static dielectric constant tensor:
#      x y z
#    x 3.731270 -0.000090 -0.030700 
#    y -0.000090 4.171430 0.000120 
#    z -0.030700 0.000120 3.795350 
# 
# 
# High freq. dielectric constant tensor:
#      x y z
#    x 1.816480 -0.000010 0.000630 
#    y -0.000010 1.836760 0.000010 
#    z 0.000630 0.000010 1.821290 
# 
# From -- ./inp_files/290923.got.cif
#   From: 2010.06.25/outbox.cif.g09.slc.cpg/sg12_146_cif.got.tgz:290923.got - 2010.06.28 00:19:55.
