data_PCOD8096407
_publ_section_title
;
Structure prediction by ZEFSAII (Michael W. Deem and Ramdas Pophale) SiO2 
 PCOD8096407
Probable space group: C 2/M
;
_chemical_formula_sum "Si O2"
_cell_formula_units_Z 64
_cell_length_a 32.452497
_cell_length_b 9.452851
_cell_length_c 18.653436
_cell_angle_alpha 90.000000
_cell_angle_beta 34.545650
_cell_angle_gamma 90.000000
_cell_volume 3244.896384
_symmetry_space_group_name_H-M "C 2/M"
_symmetry_group_IT_number 12
_symmetry_cell_setting 'monoclinic'
loop_
_space_group_symop_operation_xyz
x,y,z
-x,y,-z
-x,-y,-z
x,-y,z
1/2+x,1/2+y,z
1/2-x,1/2+y,-z
1/2-x,1/2-y,-z
1/2+x,1/2-y,z
loop_
_atom_site_type_symbol
_atom_site_label
_atom_site_fract_x
_atom_site_fract_y
_atom_site_fract_z
Si Si1 0.549065 0.167604 0.865150
Si Si2 0.789619 0.839138 0.802773
Si Si3 0.542333 0.159203 0.590830
Si Si4 0.713830 0.833426 0.617089
Si Si5 0.576839 0.659765 0.299704
Si Si6 0.339911 0.662242 0.967022
Si Si7 0.459436 0.158975 0.858372
Si Si8 0.815162 0.161008 0.605020
O O1 0.631885 0.223644 0.747540
O O2 0.512814 0.217397 0.842982
O O3 0.551280 0.000000 0.868398
O O4 0.500000 0.230994 0.000000
O O5 0.873708 0.803926 0.701961
O O6 0.776925 0.818734 0.736554
O O7 0.772193 0.000000 0.851847
O O8 0.738852 0.733765 0.919731
O O9 0.493195 0.238868 0.601937
O O10 0.501398 0.160417 0.724212
O O11 0.617775 0.234741 0.496921
O O12 0.556232 0.000000 0.543731
O O13 0.750000 0.750000 0.500000
O O14 0.757246 0.799444 0.627375
O O15 0.714566 0.000000 0.597632
O O16 0.546720 0.500000 0.346656
O O17 0.627857 0.680387 0.157853
O O18 0.332663 0.500000 0.000247
O O19 0.389784 0.740047 0.954478
O O20 0.432605 0.000000 0.915328
O O21 0.842946 0.000000 0.556062
#
# Coordination Sequence:
#
# PCOD8096407 Si02
#       8
#     8   8   8   8   8   8   8   8
#     4   9  18  32  56  85 110 139 182 236 281 326
#     4  10  21  36  55  79 108 145 186 227 272 326
#     4  10  20  35  56  81 108 142 186 229 272 326
#     4  10  21  38  60  86 113 148 191 233 285 342
#     4   9  19  36  56  79 109 144 183 227 274 327
#     4  10  20  33  53  80 110 144 179 222 276 329
#     4   9  18  33  55  79 104 140 181 222 269 328
#     4  10  22  37  56  81 109 144 184 227 276 330
#
# _framework density 19.723279999999999
#
# number of rings (size 3 to 8) (size 9 to 14) (size 15 to 20)
#    0.000    2.375    0.000    1.875    1.750    4.000 
#    0.000    3.125    0.000    0.750    0.000    0.000 
#    0.000    0.000    0.000    0.000    0.000    0.000 
#
# Total GULP energy -396835.469934 kJ/mol
# GULP energy per Si atom -12401.108435 kJ/mol
# Density = 1.967839 g / cm^3
# Si number density = 19.723280 Si / 1000 Ang^3
#
#
#
# Elastic Constant Matrix: (Units=GPa)
#
#
# Indices 1 2 3 4 5 6 
#
# 1 128.5815 46.6447 35.4880 -0.0035 -14.4505 -0.0023
# 2 46.6447 92.7900 33.7976 -0.0147 -16.0448 0.0047
# 3 35.4880 33.7976 71.2248 -0.0192 -18.5462 0.0030
# 4 -0.0035 -0.0147 -0.0192 25.9932 0.0126 -10.7337
# 5 -14.4505 -16.0448 -18.5462 0.0126 26.1053 -0.0029
# 6 -0.0023 0.0047 0.0030 -10.7337 -0.0029 23.2742
#
#
#
# Elastic Compliance Matrix: (Units=1/GPa)
#
#
# Indices 1 2 3 4 5 6 
#
# 1 0.010096 -0.003810 -0.002917 -0.000003 0.001175 0.000001
# 2 -0.003810 0.014899 -0.004094 0.000002 0.004140 -0.000001
# 3 -0.002917 -0.004094 0.020074 0.000008 0.010131 0.000003
# 4 -0.000003 0.000002 0.000008 0.047522 -0.000015 0.021916
# 5 0.001175 0.004140 0.010131 -0.000015 0.048699 -0.000003
# 6 0.000001 -0.000001 0.000003 0.021916 -0.000003 0.053073
#
#
# Mechanical properties :
#
#
# Convention : Reuss Voigt Hill
#
# Bulk Modulus (GPa) = 42.68239 58.27296 50.47767
# Shear Modulus (GPa) = 22.34009 26.85227 24.59618
#
# Velocity S-wave (km/s) = 3.36918 3.69379 3.53521
# Velocity P-wave (km/s) = 6.06817 6.91386 6.50478
#
# Compressibility (1/GPa) = 0.02342887
#
# Stress axis : x y z
#
# Youngs Moduli (GPa) = 99.04649 67.11819 49.81625
#
# Poissons Ratio (x) = 0.25570 0.14530
# Poissons Ratio (y) = 0.37734 0.20393
# Poissons Ratio (z) = 0.28889 0.27476
#
# Static dielectric constant tensor:
#      x y z
#    x 3.779940 -0.000010 -0.044430 
#    y -0.000010 3.584240 0.000020 
#    z -0.044430 0.000020 3.475380 
# 
# 
# High freq. dielectric constant tensor:
#      x y z
#    x 1.781580 0.000000 -0.005740 
#    y 0.000000 1.750770 0.000000 
#    z -0.005740 0.000000 1.762970 
# 
# From -- ./inp_files/295628.got.cif
#   From: 2010.06.25/outbox.cif.g09.slc.cpg/sg12_148_cif.got.tgz:295628.got - 2010.06.28 00:19:55.
