data_PCOD8096037
_publ_section_title
;
Structure prediction by ZEFSAII (Michael W. Deem and Ramdas Pophale) SiO2 
 PCOD8096037
Probable space group: C 2/M
;
_chemical_formula_sum "Si O2"
_cell_formula_units_Z 48
_cell_length_a 14.172450
_cell_length_b 9.318922
_cell_length_c 18.888099
_cell_angle_alpha 90.000000
_cell_angle_beta 91.511895
_cell_angle_gamma 90.000000
_cell_volume 2493.719738
_symmetry_space_group_name_H-M "C 2/M"
_symmetry_group_IT_number 12
_symmetry_cell_setting 'monoclinic'
loop_
_space_group_symop_operation_xyz
x,y,z
-x,y,-z
-x,-y,-z
x,-y,z
1/2+x,1/2+y,z
1/2-x,1/2+y,-z
1/2-x,1/2-y,-z
1/2+x,1/2-y,z
loop_
_atom_site_type_symbol
_atom_site_label
_atom_site_fract_x
_atom_site_fract_y
_atom_site_fract_z
Si Si1 0.112352 0.158288 0.496179
Si Si2 0.562843 0.665629 0.346380
Si Si3 0.893185 0.666676 0.011534
Si Si4 0.225642 0.163739 0.247673
Si Si5 0.123801 0.666821 0.629239
Si Si6 0.760633 0.832662 0.107718
O O1 0.131901 0.202725 0.414776
O O2 0.156474 0.267594 0.554087
O O3 0.000000 0.159652 0.500000
O O4 0.153442 0.000000 0.513020
O O5 0.530052 0.500000 0.353219
O O6 0.620461 0.689678 0.275336
O O7 0.471772 0.765137 0.342551
O O8 0.889286 0.500000 0.032584
O O9 0.832597 0.698415 0.940193
O O10 0.851916 0.756689 0.075921
O O11 0.000000 0.717392 0.000000
O O12 0.297475 0.198821 0.311579
O O13 0.242873 0.272296 0.184798
O O14 0.237580 0.000000 0.221374
O O15 0.106749 0.500000 0.616446
O O16 0.783050 0.000000 0.113404
#
# Coordination Sequence:
#
# PCOD8096037 Si02
#       6
#     8   8   8   8   8   8
#     4   8  15  30  51  72  98 134 175 220 268 316
#     4   9  19  36  54  72 100 141 181 216 264 321
#     4   9  19  38  62  84 109 141 171 205 255 307
#     4  10  22  38  53  73 108 147 175 209 263 316
#     4  10  20  33  51  76 103 134 176 224 270 312
#     4  10  21  36  56  84 112 137 173 215 251 301
#
# _framework density 19.248355
#
# number of rings (size 3 to 8) (size 9 to 14) (size 15 to 20)
#    0.000    2.667    0.000    2.000    0.000    8.000 
#    0.000    5.000    0.000    0.000    0.000    0.000 
#    0.000    0.000    0.000    0.000    0.000    0.000 
#
# Total GULP energy -297580.380258 kJ/mol
# GULP energy per Si atom -12399.182511 kJ/mol
# Density = 1.920454 g / cm^3
# Si number density = 19.248355 Si / 1000 Ang^3
#
#
#
# Elastic Constant Matrix: (Units=GPa)
#
#
# Indices 1 2 3 4 5 6 
#
# 1 60.3376 29.2862 19.4614 0.0000 -5.5667 0.0000
# 2 29.2862 82.7547 42.4612 0.0000 -4.9531 0.0000
# 3 19.4614 42.4612 83.1055 0.0000 -20.4559 0.0000
# 4 0.0000 0.0000 0.0000 35.6853 0.0000 4.2998
# 5 -5.5667 -4.9531 -20.4559 0.0000 20.5728 0.0000
# 6 0.0000 0.0000 0.0000 4.2998 0.0000 21.0486
#
#
#
# Elastic Compliance Matrix: (Units=1/GPa)
#
#
# Indices 1 2 3 4 5 6 
#
# 1 0.020312 -0.006741 -0.000476 0.000000 0.003400 0.000000
# 2 -0.006741 0.019153 -0.009959 0.000000 -0.007115 0.000000
# 3 -0.000476 -0.009959 0.021994 0.000000 0.019342 0.000000
# 4 0.000000 0.000000 0.000000 0.028730 0.000000 -0.005869
# 5 0.003400 -0.007115 0.019342 0.000000 0.067047 0.000000
# 6 0.000000 0.000000 0.000000 -0.005869 0.000000 0.048708
#
#
# Mechanical properties :
#
#
# Convention : Reuss Voigt Hill
#
# Bulk Modulus (GPa) = 36.88840 45.40171 41.14506
# Shear Modulus (GPa) = 20.05363 24.46059 22.25711
#
# Velocity S-wave (km/s) = 3.23125 3.56868 3.40415
# Velocity P-wave (km/s) = 5.75564 6.37332 6.07234
#
# Compressibility (1/GPa) = 0.02710879
#
# Stress axis : x y z
#
# Youngs Moduli (GPa) = 49.23113 52.20992 45.46791
#
# Poissons Ratio (x) = 0.35194 0.02163
# Poissons Ratio (y) = 0.33186 0.45281
# Poissons Ratio (z) = 0.02342 0.51995
#
# Static dielectric constant tensor:
#      x y z
#    x 3.447980 0.000000 -0.188480 
#    y 0.000000 3.506220 0.000000 
#    z -0.188480 0.000000 3.799570 
# 
# 
# High freq. dielectric constant tensor:
#      x y z
#    x 1.743160 0.000000 -0.007990 
#    y 0.000000 1.747930 0.000000 
#    z -0.007990 0.000000 1.749150 
# 
# From -- ./inp_files/267641.got.cif
#   From: 2010.06.25/outbox.cif.g09.slc.cpg/sg12_134_cif.got.tgz:267641.got - 2010.06.28 00:19:55.
