data_PCOD8096612
_publ_section_title
;
Structure prediction by ZEFSAII (Michael W. Deem and Ramdas Pophale) SiO2 
 PCOD8096612
Probable space group: C 2/M
;
_chemical_formula_sum "Si O2"
_cell_formula_units_Z 48
_cell_length_a 11.283853
_cell_length_b 18.563273
_cell_length_c 16.402742
_cell_angle_alpha 90.000000
_cell_angle_beta 45.187097
_cell_angle_gamma 90.000000
_cell_volume 2437.400957
_symmetry_space_group_name_H-M "C 2/M"
_symmetry_group_IT_number 12
_symmetry_cell_setting 'monoclinic'
loop_
_space_group_symop_operation_xyz
x,y,z
-x,y,-z
-x,-y,-z
x,-y,z
1/2+x,1/2+y,z
1/2-x,1/2+y,-z
1/2-x,1/2-y,-z
1/2+x,1/2-y,z
loop_
_atom_site_type_symbol
_atom_site_label
_atom_site_fract_x
_atom_site_fract_y
_atom_site_fract_z
Si Si1 0.833635 0.705341 0.033182
Si Si2 0.191075 0.831787 0.540379
Si Si3 0.185444 0.823800 0.268714
Si Si4 0.662651 0.183027 0.370200
Si Si5 0.486597 0.917795 0.333044
Si Si6 0.494083 0.081950 0.144133
O O1 0.689545 0.694280 0.170197
O O2 0.750000 0.750000 0.000000
O O3 0.000000 0.738132 0.000000
O O4 0.885287 0.628164 0.971565
O O5 0.250000 0.750000 0.500000
O O6 0.209832 0.851941 0.627040
O O7 0.302413 0.882988 0.429440
O O8 0.999018 0.843838 0.611467
O O9 0.245686 0.752826 0.288372
O O10 0.304467 0.890240 0.230964
O O11 0.500000 0.207350 0.500000
O O12 0.619916 0.123537 0.323713
O O13 0.553210 0.912131 0.208838
O O14 0.475727 0.000000 0.367787
O O15 0.500477 0.000000 0.110173
#
# Coordination Sequence:
#
# PCOD8096612 Si02
#       6
#     8   8   8   8   8   8
#     4  10  23  39  63  93 119 155 207 255 295 361
#     4  11  21  34  55  86 122 157 192 244 297 350
#     4  11  22  35  60  87 115 157 198 238 301 357
#     4  10  20  33  56  83 119 156 189 242 291 350
#     4  10  21  37  58  82 114 158 199 237 296 359
#     4  10  23  42  62  85 120 158 196 248 304 354
#
# _framework density 19.693107999999999
#
# number of rings (size 3 to 8) (size 9 to 14) (size 15 to 20)
#    0.000    1.667    3.333    2.000    4.667    6.667 
#    0.000    1.667    0.000    0.500    0.000    0.000 
#    0.000    0.000    0.000    0.000    0.000    0.000 
#
# Total GULP energy -297506.933534 kJ/mol
# GULP energy per Si atom -12396.122231 kJ/mol
# Density = 1.964829 g / cm^3
# Si number density = 19.693108 Si / 1000 Ang^3
#
#
#
# Elastic Constant Matrix: (Units=GPa)
#
#
# Indices 1 2 3 4 5 6 
#
# 1 72.1433 23.6222 6.3378 -0.0008 12.4613 0.0013
# 2 23.6222 107.5582 20.3557 -0.0004 5.8452 0.0006
# 3 6.3378 20.3557 55.4686 -0.0004 12.0625 0.0008
# 4 -0.0008 -0.0004 -0.0004 33.7946 0.0007 2.4958
# 5 12.4613 5.8452 12.0625 0.0007 33.4026 -0.0010
# 6 0.0013 0.0006 0.0008 2.4958 -0.0010 26.7817
#
#
#
# Elastic Compliance Matrix: (Units=1/GPa)
#
#
# Indices 1 2 3 4 5 6 
#
# 1 0.015846 -0.003293 0.000606 0.000001 -0.005554 -0.000001
# 2 -0.003293 0.010682 -0.003695 0.000000 0.000693 0.000000
# 3 0.000606 -0.003695 0.020862 0.000000 -0.007113 -0.000001
# 4 0.000001 0.000000 0.000000 0.029796 -0.000001 -0.002777
# 5 -0.005554 0.000693 -0.007113 -0.000001 0.034457 0.000002
# 6 -0.000001 0.000000 -0.000001 -0.002777 0.000002 0.037598
#
#
# Mechanical properties :
#
#
# Convention : Reuss Voigt Hill
#
# Bulk Modulus (GPa) = 28.88026 37.31130 33.09578
# Shear Modulus (GPa) = 28.81095 31.11942 29.96519
#
# Velocity S-wave (km/s) = 3.82906 3.97951 3.90501
# Velocity P-wave (km/s) = 5.85201 6.33268 6.09708
#
# Compressibility (1/GPa) = 0.03462572
#
# Stress axis : x y z
#
# Youngs Moduli (GPa) = 63.10898 93.61539 47.93476
#
# Poissons Ratio (x) = 0.30826 -0.02903
# Poissons Ratio (y) = 0.20781 0.17710
# Poissons Ratio (z) = -0.03822 0.34587
#
# Static dielectric constant tensor:
#      x y z
#    x 4.467950 0.000000 0.253190 
#    y 0.000000 3.444270 0.000000 
#    z 0.253190 0.000000 3.631820 
# 
# 
# High freq. dielectric constant tensor:
#      x y z
#    x 1.773340 0.000000 0.024900 
#    y 0.000000 1.749530 0.000000 
#    z 0.024900 0.000000 1.769070 
# 
# From -- ./inp_files/263789.got.cif
#   From: 2010.06.25/outbox.cif.g09.slc.cpg/sg12_132_cif.got.tgz:263789.got - 2010.06.28 00:19:55.
