data_PCOD8096658
_publ_section_title
;
Structure prediction by ZEFSAII (Michael W. Deem and Ramdas Pophale) SiO2 
 PCOD8096658
Probable space group: C 2/M
;
_chemical_formula_sum "Si O2"
_cell_formula_units_Z 48
_cell_length_a 20.934781
_cell_length_b 16.356553
_cell_length_c 15.173855
_cell_angle_alpha 90.000000
_cell_angle_beta 29.861384
_cell_angle_gamma 90.000000
_cell_volume 2587.028379
_symmetry_space_group_name_H-M "C 2/M"
_symmetry_group_IT_number 12
_symmetry_cell_setting 'monoclinic'
loop_
_space_group_symop_operation_xyz
x,y,z
-x,y,-z
-x,-y,-z
x,-y,z
1/2+x,1/2+y,z
1/2-x,1/2+y,-z
1/2-x,1/2-y,-z
1/2+x,1/2-y,z
loop_
_atom_site_type_symbol
_atom_site_label
_atom_site_fract_x
_atom_site_fract_y
_atom_site_fract_z
Si Si1 0.997972 0.500000 0.615412
Si Si2 0.138399 0.831811 0.961608
Si Si3 0.800259 0.500000 0.490082
Si Si4 0.448382 0.276279 0.324371
Si Si5 0.500000 0.793414 0.000000
Si Si6 0.084004 0.322482 0.315118
Si Si7 0.223478 0.000000 0.772978
Si Si8 0.308718 0.845506 0.360882
O O1 0.054793 0.500000 0.646380
O O2 0.119694 0.500000 0.399491
O O3 0.913390 0.419379 0.706291
O O4 0.271100 0.795721 0.840247
O O5 0.088385 0.765803 0.952284
O O6 0.158095 0.919767 0.891925
O O7 0.040952 0.839012 0.160834
O O8 0.778776 0.423118 0.455162
O O9 0.702238 0.500000 0.691710
O O10 0.529638 0.224329 0.295951
O O11 0.376248 0.221770 0.339516
O O12 0.330580 0.322064 0.513307
O O13 0.407356 0.856479 0.162424
O O14 0.000000 0.299448 0.500000
#
# Coordination Sequence:
#
# PCOD8096658 Si02
#       8
#     4   8   4   8   4   8   4   8
#     4  10  20  33  57  88 112 150 191 231 282 337
#     4  11  23  35  56  86 121 150 191 233 286 344
#     4  10  20  36  62  85 109 155 189 235 287 330
#     4  10  22  36  55  83 119 152 186 235 287 342
#     4  10  24  40  58  88 110 152 198 236 284 338
#     4  12  19  35  58  84 115 153 195 235 285 335
#     4  10  21  36  55  91 117 152 187 230 291 346
#     4  10  21  39  58  81 115 149 192 238 283 339
#
# _framework density 18.554106000000001
#
# number of rings (size 3 to 8) (size 9 to 14) (size 15 to 20)
#    0.500    1.000    3.333    2.250    7.000    1.333 
#    0.000    0.000    0.000    0.000    0.000    2.333 
#    0.000    0.000    0.000    0.000    0.000    0.000 
#
# Total GULP energy -297425.742659 kJ/mol
# GULP energy per Si atom -12392.739277 kJ/mol
# Density = 1.851188 g / cm^3
# Si number density = 18.554106 Si / 1000 Ang^3
#
#
#
# Elastic Constant Matrix: (Units=GPa)
#
#
# Indices 1 2 3 4 5 6 
#
# 1 93.1221 29.8360 59.7807 0.0000 -7.1473 0.0000
# 2 29.8360 66.2664 53.7487 0.0000 4.8402 0.0000
# 3 59.7807 53.7487 149.7692 0.0000 6.6264 0.0000
# 4 0.0000 0.0000 0.0000 33.7254 0.0000 8.7663
# 5 -7.1473 4.8402 6.6264 0.0000 37.2250 0.0000
# 6 0.0000 0.0000 0.0000 8.7663 0.0000 29.6631
#
#
#
# Elastic Compliance Matrix: (Units=1/GPa)
#
#
# Indices 1 2 3 4 5 6 
#
# 1 0.015403 -0.002973 -0.005271 0.000000 0.004282 0.000000
# 2 -0.002973 0.021935 -0.006586 0.000000 -0.002251 0.000000
# 3 -0.005271 -0.006586 0.011240 0.000000 -0.002156 0.000000
# 4 0.000000 0.000000 0.000000 0.032119 0.000000 -0.009492
# 5 0.004282 -0.002251 -0.002156 0.000000 0.028362 0.000000
# 6 0.000000 0.000000 0.000000 -0.009492 0.000000 0.036517
#
#
# Mechanical properties :
#
#
# Convention : Reuss Voigt Hill
#
# Bulk Modulus (GPa) = 52.85619 66.20984 59.53302
# Shear Modulus (GPa) = 27.54178 31.17551 29.35864
#
# Velocity S-wave (km/s) = 3.85698 4.10353 3.98216
# Velocity P-wave (km/s) = 6.95589 7.62982 7.30064
#
# Compressibility (1/GPa) = 0.01891926
#
# Stress axis : x y z
#
# Youngs Moduli (GPa) = 64.92038 45.58855 88.96985
#
# Poissons Ratio (x) = 0.13553 0.46895
# Poissons Ratio (y) = 0.19300 0.58594
# Poissons Ratio (z) = 0.34219 0.30024
#
# Static dielectric constant tensor:
#      x y z
#    x 3.478950 0.000000 -0.035560 
#    y 0.000000 2.673430 0.000000 
#    z -0.035560 0.000000 3.779030 
# 
# 
# High freq. dielectric constant tensor:
#      x y z
#    x 1.724850 0.000000 -0.007830 
#    y 0.000000 1.695780 0.000000 
#    z -0.007830 0.000000 1.727980 
# 
# From -- ./inp_files/290556.got.cif
#   From: 2010.06.25/outbox.cif.g09.slc.cpg/sg12_146_cif.got.tgz:290556.got - 2010.06.28 00:19:55.
