data_PCOD8096888
_publ_section_title
;
Structure prediction by ZEFSAII (Michael W. Deem and Ramdas Pophale) SiO2 
 PCOD8096888
Probable space group: C 2/M
;
_chemical_formula_sum "Si O2"
_cell_formula_units_Z 64
_cell_length_a 14.513672
_cell_length_b 9.085595
_cell_length_c 26.200588
_cell_angle_alpha 90.000000
_cell_angle_beta 89.289943
_cell_angle_gamma 90.000000
_cell_volume 3454.684289
_symmetry_space_group_name_H-M "C 2/M"
_symmetry_group_IT_number 12
_symmetry_cell_setting 'monoclinic'
loop_
_space_group_symop_operation_xyz
x,y,z
-x,y,-z
-x,-y,-z
x,-y,z
1/2+x,1/2+y,z
1/2-x,1/2+y,-z
1/2-x,1/2-y,-z
1/2+x,1/2-y,z
loop_
_atom_site_type_symbol
_atom_site_label
_atom_site_fract_x
_atom_site_fract_y
_atom_site_fract_z
Si Si1 0.745452 0.671896 0.191933
Si Si2 0.742014 0.671639 0.074966
Si Si3 0.401729 0.668626 0.367486
Si Si4 0.889296 0.326332 0.734569
Si Si5 0.104504 0.673278 0.005832
Si Si6 0.099423 0.330020 0.731959
Si Si7 0.254791 0.173387 0.554089
Si Si8 0.386887 0.674015 0.630939
O O1 0.721279 0.500000 0.198411
O O2 0.757908 0.716784 0.133213
O O3 0.664143 0.769283 0.215719
O O4 0.840498 0.713338 0.219417
O O5 0.722568 0.500000 0.068662
O O6 0.834888 0.717073 0.044095
O O7 0.651706 0.754677 0.054959
O O8 0.394672 0.500000 0.352353
O O9 0.361235 0.752727 0.318851
O O10 0.341996 0.705576 0.417542
O O11 0.506334 0.713699 0.378422
O O12 0.875041 0.500000 0.727341
O O13 0.852134 0.242685 0.684577
O O14 0.995004 0.282459 0.743916
O O15 0.102691 0.500000 0.014958
O O16 0.000000 0.733062 0.000000
O O17 0.106029 0.500000 0.719599
O O18 0.250000 0.250000 0.500000
O O19 0.336455 0.247707 0.584875
O O20 0.273700 0.000000 0.548094
O O21 0.367525 0.500000 0.630974
#
# Coordination Sequence:
#
# PCOD8096888 Si02
#       8
#     8   8   8   8   8   8   8   8
#     4  10  20  34  51  74 107 143 172 207 257 308
#     4   9  19  34  51  75 106 136 171 214 259 308
#     4   9  20  37  56  76 103 137 172 210 255 306
#     4  10  20  34  53  79 106 135 173 214 253 301
#     4   9  18  34  56  77  99 133 175 217 261 308
#     4   9  19  34  53  76 103 135 171 208 251 304
#     4  11  23  38  55  79 107 136 172 215 261 310
#     4  10  20  37  58  78 103 138 174 212 259 310
#
# _framework density 18.525570999999999
#
# number of rings (size 3 to 8) (size 9 to 14) (size 15 to 20)
#    0.000    2.375    0.000    1.875    0.000    6.750 
#    0.000    5.000    0.000    0.000    0.000    0.000 
#    0.000    0.000    0.000    0.000    0.000    0.000 
#
# Total GULP energy -396879.396668 kJ/mol
# GULP energy per Si atom -12402.481146 kJ/mol
# Density = 1.848341 g / cm^3
# Si number density = 18.525571 Si / 1000 Ang^3
#
#
#
# Elastic Constant Matrix: (Units=GPa)
#
#
# Indices 1 2 3 4 5 6 
#
# 1 106.9244 46.7722 62.2506 0.0000 1.1352 0.0000
# 2 46.7722 69.2907 58.4113 0.0000 1.4485 0.0000
# 3 62.2506 58.4113 145.9985 0.0000 -1.1991 0.0000
# 4 0.0000 0.0000 0.0000 33.7573 0.0000 1.2990
# 5 1.1352 1.4485 -1.1991 0.0000 16.0430 0.0000
# 6 0.0000 0.0000 0.0000 1.2990 0.0000 28.0309
#
#
#
# Elastic Compliance Matrix: (Units=1/GPa)
#
#
# Indices 1 2 3 4 5 6 
#
# 1 0.014299 -0.006781 -0.003389 0.000000 -0.000653 0.000000
# 2 -0.006781 0.025103 -0.007171 0.000000 -0.002323 0.000000
# 3 -0.003389 -0.007171 0.011177 0.000000 0.001723 0.000000
# 4 0.000000 0.000000 0.000000 0.029676 0.000000 -0.001375
# 5 -0.000653 -0.002323 0.001723 0.000000 0.062717 0.000000
# 6 0.000000 0.000000 0.000000 -0.001375 0.000000 0.035739
#
#
# Mechanical properties :
#
#
# Convention : Reuss Voigt Hill
#
# Bulk Modulus (GPa) = 62.90579 73.00910 67.95744
# Shear Modulus (GPa) = 22.86317 25.88488 24.37402
#
# Velocity S-wave (km/s) = 3.51685 3.74204 3.63119
# Velocity P-wave (km/s) = 7.10780 7.62666 7.37180
#
# Compressibility (1/GPa) = 0.01589679
#
# Stress axis : x y z
#
# Youngs Moduli (GPa) = 69.93619 39.83586 89.46587
#
# Poissons Ratio (x) = 0.27014 0.30319
# Poissons Ratio (y) = 0.47426 0.64155
# Poissons Ratio (z) = 0.23701 0.28566
#
# Static dielectric constant tensor:
#      x y z
#    x 3.586450 0.000000 -0.062860 
#    y 0.000000 3.414980 0.000000 
#    z -0.062860 0.000000 3.367610 
# 
# 
# High freq. dielectric constant tensor:
#      x y z
#    x 1.726240 0.000000 0.001220 
#    y 0.000000 1.719610 0.000000 
#    z 0.001220 0.000000 1.716420 
# 
# From -- ./inp_files/338836.got.cif
#   From: 2010.06.25/outbox.cif.g09.slc.cpg/sg12_170_cif.got.tgz:338836.got - 2010.06.28 00:19:55.
