data_PCOD8096648
_publ_section_title
;
Structure prediction by ZEFSAII (Michael W. Deem and Ramdas Pophale) SiO2 
 PCOD8096648
Probable space group: C 2/M
;
_chemical_formula_sum "Si O2"
_cell_formula_units_Z 40
_cell_length_a 11.548452
_cell_length_b 28.020258
_cell_length_c 9.193888
_cell_angle_alpha 90.000000
_cell_angle_beta 138.594467
_cell_angle_gamma 90.000000
_cell_volume 1967.655181
_symmetry_space_group_name_H-M "C 2/M"
_symmetry_group_IT_number 12
_symmetry_cell_setting 'monoclinic'
loop_
_space_group_symop_operation_xyz
x,y,z
-x,y,-z
-x,-y,-z
x,-y,z
1/2+x,1/2+y,z
1/2-x,1/2+y,-z
1/2-x,1/2-y,-z
1/2+x,1/2-y,z
loop_
_atom_site_type_symbol
_atom_site_label
_atom_site_fract_x
_atom_site_fract_y
_atom_site_fract_z
Si Si1 0.330956 0.187437 0.437572
Si Si2 0.113906 0.000000 0.403290
Si Si3 0.244081 0.500000 0.141170
Si Si4 0.500000 0.655477 0.500000
Si Si5 0.328879 0.781251 0.761089
Si Si6 0.722277 0.601955 0.501163
Si Si7 0.500000 0.079355 0.000000
O O1 0.500000 0.181981 0.500000
O O2 0.366977 0.210269 0.628146
O O3 0.199405 0.224587 0.235158
O O4 0.255869 0.134239 0.390918
O O5 0.200780 0.951861 0.420448
O O6 0.160780 0.000000 0.615466
O O7 0.903768 0.000000 0.175625
O O8 0.123309 0.546793 0.012524
O O9 0.333458 0.689819 0.322473
O O10 0.539697 0.620382 0.401081
O O11 0.500000 0.800134 0.000000
O O12 0.876897 0.608864 0.770610
#
# Coordination Sequence:
#
# PCOD8096648 Si02
#       7
#     8   4   4   4   8   8   4
#     4  10  22  41  56  89 123 151 201 241 288 365
#     4   9  16  32  47  77 119 156 180 251 289 329
#     4   8  14  26  50  77 112 142 194 247 298 324
#     4  10  20  35  58  92 116 143 200 246 296 346
#     4  10  22  42  65  85 118 156 195 251 299 344
#     4  10  20  33  57  83 121 151 196 242 293 344
#     4   9  16  28  50  86 108 150 196 238 292 345
#
# _framework density 20.328766999999999
#
# number of rings (size 3 to 8) (size 9 to 14) (size 15 to 20)
#    0.000    2.400    1.000    3.000    5.600    0.800 
#    0.000    0.500    0.000    0.000    0.000    2.100 
#    0.000    0.000    0.000    0.000    0.000    0.000 
#
# Total GULP energy -247767.644692 kJ/mol
# GULP energy per Si atom -12388.382235 kJ/mol
# Density = 2.028250 g / cm^3
# Si number density = 20.328767 Si / 1000 Ang^3
#
#
#
# Elastic Constant Matrix: (Units=GPa)
#
#
# Indices 1 2 3 4 5 6 
#
# 1 101.3269 43.9230 25.6598 0.0000 31.5877 0.0000
# 2 43.9230 154.7584 26.0052 0.0000 18.8853 0.0000
# 3 25.6598 26.0052 73.9070 0.0000 28.8442 0.0000
# 4 0.0000 0.0000 0.0000 -30.5570 0.0000 -42.9546
# 5 31.5877 18.8853 28.8442 0.0000 22.6690 0.0000
# 6 0.0000 0.0000 0.0000 -42.9546 0.0000 -24.0436
#
#
#
# Elastic Compliance Matrix: (Units=1/GPa)
#
#
# Indices 1 2 3 4 5 6 
#
# 1 0.020324 -0.002689 0.008081 0.000000 -0.036363 0.000000
# 2 -0.002689 0.007554 -0.001451 0.000000 -0.000700 0.000000
# 3 0.008081 -0.001451 0.030112 0.000000 -0.048366 0.000000
# 4 0.000000 0.000000 0.000000 0.021653 0.000000 -0.038684
# 5 -0.036363 -0.000700 -0.048366 0.000000 0.156906 0.000000
# 6 0.000000 0.000000 0.000000 -0.038684 0.000000 0.027519
#
#
# Mechanical properties :
#
#
# Convention : Reuss Voigt Hill
#
# Bulk Modulus (GPa) = 15.18102 57.90758 36.54430
# Shear Modulus (GPa) = 17.97639 9.24064 13.60852
#
# Velocity S-wave (km/s) = 2.97692 2.13435 2.59013
# Velocity P-wave (km/s) = 4.39318 5.88399 5.19237
#
# Compressibility (1/GPa) = 0.06587175
#
# Stress axis : x y z
#
# Youngs Moduli (GPa) = 49.20344 132.37839 33.20986
#
# Poissons Ratio (x) = 0.35594 -0.26838
# Poissons Ratio (y) = 0.13230 0.04820
# Poissons Ratio (z) = -0.39763 0.19213
#
# Static dielectric constant tensor:
#      x y z
#    x 3.468270 0.000000 0.413990 
#    y 0.000000 4.292510 0.000000 
#    z 0.413990 0.000000 3.559380 
# 
# 
# High freq. dielectric constant tensor:
#      x y z
#    x 1.760130 0.000000 0.042760 
#    y 0.000000 1.820960 0.000000 
#    z 0.042760 0.000000 1.759970 
# 
# From -- ./inp_files/136830.got.cif
#   From: 2010.06.25/outbox.cif.g09.slc.cpg/sg12_69_cif.got.tgz:136830.got - 2010.06.28 00:19:55.
