data_PCOD8096105
_publ_section_title
;
Structure prediction by ZEFSAII (Michael W. Deem and Ramdas Pophale) SiO2 
 PCOD8096105
Probable space group: C 2/M
;
_chemical_formula_sum "Si O2"
_cell_formula_units_Z 48
_cell_length_a 26.403467
_cell_length_b 17.353449
_cell_length_c 6.591995
_cell_angle_alpha 90.000000
_cell_angle_beta 118.862340
_cell_angle_gamma 90.000000
_cell_volume 2645.206874
_symmetry_space_group_name_H-M "C 2/M"
_symmetry_group_IT_number 12
_symmetry_cell_setting 'monoclinic'
loop_
_space_group_symop_operation_xyz
x,y,z
-x,y,-z
-x,-y,-z
x,-y,z
1/2+x,1/2+y,z
1/2-x,1/2+y,-z
1/2-x,1/2-y,-z
1/2+x,1/2-y,z
loop_
_atom_site_type_symbol
_atom_site_label
_atom_site_fract_x
_atom_site_fract_y
_atom_site_fract_z
Si Si1 0.368453 0.915001 0.506389
Si Si2 0.326601 0.709283 0.717202
Si Si3 0.740682 0.589212 0.151783
Si Si4 0.253514 0.691547 0.194337
Si Si5 0.557765 0.915556 0.726576
Si Si6 0.934087 0.298325 0.906857
O O1 0.300995 0.891819 0.381980
O O2 0.386535 0.920830 0.308101
O O3 0.409109 0.849879 0.677393
O O4 0.377059 0.000000 0.625358
O O5 0.308253 0.637216 0.822119
O O6 0.309796 0.698359 0.447655
O O7 0.299814 0.789359 0.757189
O O8 0.395960 0.720650 0.857285
O O9 0.724235 0.500000 0.135985
O O10 0.745469 0.609270 0.919141
O O11 0.250000 0.750000 0.000000
O O12 0.500000 0.890586 0.500000
O O13 0.547545 0.000000 0.809012
O O14 0.572333 0.850034 0.910396
O O15 0.000000 0.272929 0.000000
#
# Coordination Sequence:
#
# PCOD8096105 Si02
#       6
#     8   8   8   8   8   8
#     4  10  20  33  51  78 108 139 179 215 254 315
#     4  10  21  35  53  79 109 139 176 224 270 316
#     4  10  21  37  58  82 106 138 178 225 276 323
#     4   9  17  34  56  77 105 138 171 219 276 320
#     4  10  20  34  49  71 107 147 180 212 248 300
#     4  12  22  33  51  75 108 148 183 212 256 309
#
# _framework density 18.146028999999999
#
# number of rings (size 3 to 8) (size 9 to 14) (size 15 to 20)
#    0.000    1.833    1.667    4.500    0.000    2.667 
#    0.000    4.167    0.000    0.500    0.000    1.167 
#    0.000    0.000    0.000    0.000    0.000    0.000 
#
# Total GULP energy -297384.833898 kJ/mol
# GULP energy per Si atom -12391.034746 kJ/mol
# Density = 1.810473 g / cm^3
# Si number density = 18.146029 Si / 1000 Ang^3
#
#
#
# Elastic Constant Matrix: (Units=GPa)
#
#
# Indices 1 2 3 4 5 6 
#
# 1 105.5379 55.6883 38.2162 0.0000 19.4493 0.0000
# 2 55.6883 91.6284 43.8079 0.0000 7.7331 0.0000
# 3 38.2162 43.8079 95.5751 0.0000 1.8761 0.0000
# 4 0.0000 0.0000 0.0000 31.5592 0.0000 1.5836
# 5 19.4493 7.7331 1.8761 0.0000 25.3576 0.0000
# 6 0.0000 0.0000 0.0000 1.5836 0.0000 29.4610
#
#
#
# Elastic Compliance Matrix: (Units=1/GPa)
#
#
# Indices 1 2 3 4 5 6 
#
# 1 0.016467 -0.007821 -0.002802 0.000000 -0.010037 0.000000
# 2 -0.007821 0.018065 -0.005170 0.000000 0.000872 0.000000
# 3 -0.002802 -0.005170 0.013900 0.000000 0.002698 0.000000
# 4 0.000000 0.000000 0.000000 0.031772 0.000000 -0.001708
# 5 -0.010037 0.000872 0.002698 0.000000 0.046669 0.000000
# 6 0.000000 0.000000 0.000000 -0.001708 0.000000 0.034035
#
#
# Mechanical properties :
#
#
# Convention : Reuss Voigt Hill
#
# Bulk Modulus (GPa) = 59.36438 63.12957 61.24698
# Shear Modulus (GPa) = 25.23842 27.61082 26.42462
#
# Velocity S-wave (km/s) = 3.73346 3.90499 3.82019
# Velocity P-wave (km/s) = 7.16734 7.42948 7.29959
#
# Compressibility (1/GPa) = 0.01684512
#
# Stress axis : x y z
#
# Youngs Moduli (GPa) = 60.72913 55.35511 71.94000
#
# Poissons Ratio (x) = 0.43292 0.20161
# Poissons Ratio (y) = 0.47495 0.37195
# Poissons Ratio (z) = 0.17019 0.28620
#
# Static dielectric constant tensor:
#      x y z
#    x 3.290520 0.000000 -0.052860 
#    y 0.000000 3.317290 0.000000 
#    z -0.052860 0.000000 3.666950 
# 
# 
# High freq. dielectric constant tensor:
#      x y z
#    x 1.690150 0.000000 -0.009070 
#    y 0.000000 1.676320 0.000000 
#    z -0.009070 0.000000 1.707830 
# 
# From -- ./inp_files/20971.got.cif
#   From: 2010.06.25/outbox.cif.g09.slc.cpg/sg12_11_cif.got.tgz:20971.got - 2010.06.28 00:19:55.
