data_PCOD8096830
_publ_section_title
;
Structure prediction by ZEFSAII (Michael W. Deem and Ramdas Pophale) SiO2 
 PCOD8096830
Probable space group: C 2/M
;
_chemical_formula_sum "Si O2"
_cell_formula_units_Z 64
_cell_length_a 20.195279
_cell_length_b 9.615386
_cell_length_c 25.929022
_cell_angle_alpha 90.000000
_cell_angle_beta 48.325465
_cell_angle_gamma 90.000000
_cell_volume 3760.839600
_symmetry_space_group_name_H-M "C 2/M"
_symmetry_group_IT_number 12
_symmetry_cell_setting 'monoclinic'
loop_
_space_group_symop_operation_xyz
x,y,z
-x,y,-z
-x,-y,-z
x,-y,z
1/2+x,1/2+y,z
1/2-x,1/2+y,-z
1/2-x,1/2-y,-z
1/2+x,1/2-y,z
loop_
_atom_site_type_symbol
_atom_site_label
_atom_site_fract_x
_atom_site_fract_y
_atom_site_fract_z
Si Si1 0.120135 0.838343 0.583477
Si Si2 0.715059 0.663334 0.970976
Si Si3 0.273753 0.661078 0.680773
Si Si4 0.083204 0.837697 0.310121
Si Si5 0.479991 0.335015 0.954442
Si Si6 0.846740 0.159442 0.189982
Si Si7 0.252111 0.339423 0.574999
Si Si8 0.798853 0.658137 0.819732
O O1 0.165953 0.751608 0.605577
O O2 0.167206 0.803845 0.504964
O O3 0.018351 0.792469 0.629877
O O4 0.128484 0.000000 0.593488
O O5 0.717478 0.500000 0.982166
O O6 0.775021 0.698265 0.890378
O O7 0.750000 0.750000 0.000000
O O8 0.615314 0.717003 0.014405
O O9 0.251239 0.500000 0.700566
O O10 0.363238 0.701786 0.665418
O O11 0.190212 0.747409 0.744644
O O12 0.287072 0.697510 0.613909
O O13 0.122669 0.756811 0.240714
O O14 0.091509 0.000000 0.293650
O O15 0.482034 0.500000 0.958636
O O16 0.554273 0.288311 0.874630
O O17 0.500000 0.268671 0.000000
O O18 0.789305 0.178579 0.168178
O O19 0.845859 0.000000 0.209110
O O20 0.223906 0.500000 0.585345
O O21 0.832744 0.500000 0.798390
#
# Coordination Sequence:
#
# PCOD8096830 Si02
#       8
#     8   8   8   8   8   8   8   8
#     4   9  18  33  52  73  96 127 167 200 231 280
#     4  10  20  34  51  72  99 128 160 201 245 288
#     4   9  18  32  49  72 102 129 154 194 246 289
#     4   9  18  32  51  74  98 125 160 201 240 283
#     4   9  15  29  54  75  90 119 166 207 235 275
#     4   9  16  29  52  76  94 120 162 205 239 277
#     4   9  18  33  52  72  98 131 160 194 241 286
#     4   9  17  31  51  72  96 128 162 197 240 289
#
# _framework density 17.017477
#
# number of rings (size 3 to 8) (size 9 to 14) (size 15 to 20)
#    0.000    2.875    1.250    0.000    0.000    2.000 
#    2.250    3.125    0.000    0.750    0.000    7.000 
#    0.000    0.000    0.000    0.000    0.000    0.000 
#
# Total GULP energy -396790.142411 kJ/mol
# GULP energy per Si atom -12399.691950 kJ/mol
# Density = 1.697874 g / cm^3
# Si number density = 17.017477 Si / 1000 Ang^3
#
#
#
# Elastic Constant Matrix: (Units=GPa)
#
#
# Indices 1 2 3 4 5 6 
#
# 1 113.4619 48.7542 79.7126 0.0000 -7.2728 -0.0003
# 2 48.7542 51.3500 54.1759 -0.0001 -1.4326 -0.0008
# 3 79.7126 54.1759 119.3717 0.0000 -7.2187 0.0000
# 4 0.0000 -0.0001 0.0000 29.2509 0.0000 1.7161
# 5 -7.2728 -1.4326 -7.2187 0.0000 31.8223 0.0000
# 6 -0.0003 -0.0008 0.0000 1.7161 0.0000 26.4834
#
#
#
# Elastic Compliance Matrix: (Units=1/GPa)
#
#
# Indices 1 2 3 4 5 6 
#
# 1 0.018529 -0.008843 -0.008241 0.000000 0.001967 0.000000
# 2 -0.008843 0.041738 -0.013227 0.000000 -0.003143 0.000001
# 3 -0.008241 -0.013227 0.020008 0.000000 0.002060 -0.000001
# 4 0.000000 0.000000 0.000000 0.034317 0.000000 -0.002224
# 5 0.001967 -0.003143 0.002060 0.000000 0.032200 0.000000
# 6 0.000000 0.000001 -0.000001 -0.002224 0.000000 0.037904
#
#
# Mechanical properties :
#
#
# Convention : Reuss Voigt Hill
#
# Bulk Modulus (GPa) = 50.88471 72.16323 61.52397
# Shear Modulus (GPa) = 19.85163 24.28073 22.06618
#
# Velocity S-wave (km/s) = 3.41918 3.78141 3.60485
# Velocity P-wave (km/s) = 6.74937 7.84620 7.31836
#
# Compressibility (1/GPa) = 0.01965227
#
# Stress axis : x y z
#
# Youngs Moduli (GPa) = 53.96928 23.95907 49.98090
#
# Poissons Ratio (x) = 0.21188 0.41188
# Poissons Ratio (y) = 0.47727 0.66110
# Poissons Ratio (z) = 0.44474 0.31691
#
# Static dielectric constant tensor:
#      x y z
#    x 3.172610 0.000000 -0.083700 
#    y 0.000000 3.064120 0.000000 
#    z -0.083700 0.000000 3.268970 
# 
# 
# High freq. dielectric constant tensor:
#      x y z
#    x 1.648200 0.000000 -0.002610 
#    y 0.000000 1.640570 0.000000 
#    z -0.002610 0.000000 1.660390 
# 
# From -- ./inp_files/365176.got.cif
#   From: 2010.06.25/outbox.cif.g09.slc.cpg/sg12_183_cif.got.tgz:365176.got - 2010.06.28 00:19:55.
