data_PCOD8096458
_publ_section_title
;
Structure prediction by ZEFSAII (Michael W. Deem and Ramdas Pophale) SiO2 
 PCOD8096458
Probable space group: C 2/M
;
_chemical_formula_sum "Si O2"
_cell_formula_units_Z 48
_cell_length_a 19.372051
_cell_length_b 14.177677
_cell_length_c 13.485436
_cell_angle_alpha 90.000000
_cell_angle_beta 137.213762
_cell_angle_gamma 90.000000
_cell_volume 2515.851149
_symmetry_space_group_name_H-M "C 2/M"
_symmetry_group_IT_number 12
_symmetry_cell_setting 'monoclinic'
loop_
_space_group_symop_operation_xyz
x,y,z
-x,y,-z
-x,-y,-z
x,-y,z
1/2+x,1/2+y,z
1/2-x,1/2+y,-z
1/2-x,1/2-y,-z
1/2+x,1/2-y,z
loop_
_atom_site_type_symbol
_atom_site_label
_atom_site_fract_x
_atom_site_fract_y
_atom_site_fract_z
Si Si1 0.637338 0.392048 0.392048
Si Si2 0.816206 0.389765 0.434154
Si Si3 0.292074 0.392658 0.317356
Si Si4 0.918709 0.604174 0.999009
Si Si5 0.501285 0.783901 0.266964
Si Si6 0.606339 0.220826 0.654143
O O1 0.597463 0.500000 0.345390
O O2 0.708397 0.369341 0.372671
O O3 0.706465 0.376451 0.562802
O O4 0.539878 0.323359 0.291340
O O5 0.837887 0.500000 0.447392
O O6 0.904934 0.345404 0.594796
O O7 0.811173 0.343906 0.317711
O O8 0.316549 0.500000 0.315936
O O9 0.378009 0.330152 0.356066
O O10 0.184533 0.359594 0.160248
O O11 0.903712 0.500000 0.031545
O O12 0.957099 0.678761 0.118522
O O13 0.000000 0.595847 0.000000
O O14 0.403062 0.788832 0.237144
O O15 0.500000 0.185416 0.500000
#
# Coordination Sequence:
#
# PCOD8096458 Si02
#       6
#     8   8   8   8   8   8
#     4  10  20  35  60  87 111 146 194 241 279 326
#     4  10  20  33  53  83 115 146 188 236 282 331
#     4  10  20  36  57  83 116 147 186 236 283 332
#     4  10  22  37  57  85 112 145 186 234 287 333
#     4  11  21  35  57  84 113 149 187 232 285 337
#     4  10  21  34  53  86 113 148 187 228 289 335
#
# _framework density 19.079031000000001
#
# number of rings (size 3 to 8) (size 9 to 14) (size 15 to 20)
#    0.000    1.833    3.333    2.000    2.333    8.000 
#    0.000    0.000    0.000    1.500    0.000    0.000 
#    0.000    0.000    0.000    0.000    0.000    0.000 
#
# Total GULP energy -297488.941726 kJ/mol
# GULP energy per Si atom -12395.372572 kJ/mol
# Density = 1.903561 g / cm^3
# Si number density = 19.079031 Si / 1000 Ang^3
#
#
#
# Elastic Constant Matrix: (Units=GPa)
#
#
# Indices 1 2 3 4 5 6 
#
# 1 101.4750 52.3040 33.0887 0.0000 -22.7547 0.0000
# 2 52.3040 120.6368 46.9285 0.0000 -13.3274 0.0000
# 3 33.0887 46.9285 70.9906 0.0000 -16.1031 0.0000
# 4 0.0000 0.0000 0.0000 24.5456 0.0000 -0.5989
# 5 -22.7547 -13.3274 -16.1031 0.0000 14.7921 0.0000
# 6 0.0000 0.0000 0.0000 -0.5989 0.0000 27.1043
#
#
#
# Elastic Compliance Matrix: (Units=1/GPa)
#
#
# Indices 1 2 3 4 5 6 
#
# 1 0.017504 -0.005265 0.000469 0.000000 0.022694 0.000000
# 2 -0.005265 0.012823 -0.006957 0.000000 -0.004119 0.000000
# 3 0.000469 -0.006957 0.022852 0.000000 0.019331 0.000000
# 4 0.000000 0.000000 0.000000 0.040762 0.000000 0.000901
# 5 0.022694 -0.004119 0.019331 0.000000 0.119847 0.000000
# 6 0.000000 0.000000 0.000000 0.000901 0.000000 0.036914
#
#
# Mechanical properties :
#
#
# Convention : Reuss Voigt Hill
#
# Bulk Modulus (GPa) = 33.69973 61.97165 47.83569
# Shear Modulus (GPa) = 17.59947 24.00715 20.80331
#
# Velocity S-wave (km/s) = 3.04048 3.55110 3.30567
# Velocity P-wave (km/s) = 5.47975 7.02608 6.30053
#
# Compressibility (1/GPa) = 0.02967383
#
# Stress axis : x y z
#
# Youngs Moduli (GPa) = 57.12930 77.98286 43.76059
#
# Poissons Ratio (x) = 0.41055 -0.02054
# Poissons Ratio (y) = 0.30076 0.30446
# Poissons Ratio (z) = -0.02682 0.54256
#
# Static dielectric constant tensor:
#      x y z
#    x 4.383930 0.000000 0.268890 
#    y 0.000000 3.733280 0.000000 
#    z 0.268890 0.000000 3.545780 
# 
# 
# High freq. dielectric constant tensor:
#      x y z
#    x 1.749220 0.000000 -0.011970 
#    y 0.000000 1.752210 0.000000 
#    z -0.011970 0.000000 1.704280 
# 
# From -- ./inp_files/167622.got.cif
#   From: 2010.06.25/outbox.cif.g09.slc.cpg/sg12_84_cif.got.tgz:167622.got - 2010.06.28 00:19:55.
