data_PCOD8096562
_publ_section_title
;
Structure prediction by ZEFSAII (Michael W. Deem and Ramdas Pophale) SiO2 
 PCOD8096562
Probable space group: C 2/M
;
_chemical_formula_sum "Si O2"
_cell_formula_units_Z 64
_cell_length_a 13.218766
_cell_length_b 14.090930
_cell_length_c 17.228305
_cell_angle_alpha 90.000000
_cell_angle_beta 115.722555
_cell_angle_gamma 90.000000
_cell_volume 2891.030795
_symmetry_space_group_name_H-M "C 2/M"
_symmetry_group_IT_number 12
_symmetry_cell_setting 'monoclinic'
loop_
_space_group_symop_operation_xyz
x,y,z
-x,y,-z
-x,-y,-z
x,-y,z
1/2+x,1/2+y,z
1/2-x,1/2+y,-z
1/2-x,1/2-y,-z
1/2+x,1/2-y,z
loop_
_atom_site_type_symbol
_atom_site_label
_atom_site_fract_x
_atom_site_fract_y
_atom_site_fract_z
Si Si1 0.874832 0.207544 0.952622
Si Si2 0.759986 0.889855 0.321804
Si Si3 0.689365 0.389043 0.388009
Si Si4 0.357693 0.610722 0.796269
Si Si5 0.387658 0.394081 0.102855
Si Si6 0.379023 0.889755 0.571800
Si Si7 0.180947 0.604245 0.131950
Si Si8 0.512039 0.286857 0.593241
O O1 0.808316 0.163142 0.856475
O O2 0.884975 0.320260 0.942727
O O3 0.824929 0.175526 0.019227
O O4 0.000000 0.163277 0.000000
O O5 0.694057 0.860507 0.377565
O O6 0.673133 0.875760 0.221417
O O7 0.864908 0.820858 0.340685
O O8 0.799645 0.000000 0.340297
O O9 0.662911 0.500000 0.380641
O O10 0.703179 0.354107 0.303002
O O11 0.804204 0.365612 0.471182
O O12 0.583716 0.340752 0.391974
O O13 0.339027 0.500000 0.802589
O O14 0.488627 0.639283 0.831250
O O15 0.391142 0.500000 0.068388
O O16 0.313211 0.390607 0.155344
O O17 0.491577 0.826006 0.602721
O O18 0.415442 0.000000 0.586904
O O19 0.131641 0.500000 0.095853
O O20 0.500000 0.313967 0.500000
#
# Coordination Sequence:
#
# PCOD8096562 Si02
#       8
#     8   8   8   8   8   8   8   8
#     4  10  20  33  55  83 112 146 183 226 283 347
#     4  10  22  41  62  87 118 157 202 250 298 348
#     4  10  20  35  56  85 119 152 195 249 296 344
#     4   9  18  32  54  83 112 143 183 231 285 337
#     4   9  17  33  54  79 111 142 180 230 286 338
#     4  10  23  41  59  83 123 165 201 242 299 359
#     4  10  21  36  56  81 111 147 187 234 282 337
#     4  12  23  34  61  88 115 151 207 250 297 344
#
# _framework density 22.137432
#
# number of rings (size 3 to 8) (size 9 to 14) (size 15 to 20)
#    0.000    2.000    1.250    2.250    1.750    4.500 
#    0.000    0.000    0.000    1.500    0.000    0.000 
#    0.000    0.000    0.000    0.000    0.000    0.000 
#
# Total GULP energy -396690.584125 kJ/mol
# GULP energy per Si atom -12396.580754 kJ/mol
# Density = 2.208705 g / cm^3
# Si number density = 22.137432 Si / 1000 Ang^3
#
#
#
# Elastic Constant Matrix: (Units=GPa)
#
#
# Indices 1 2 3 4 5 6 
#
# 1 32.3472 19.4087 20.6486 0.0000 -1.8946 0.0000
# 2 19.4087 86.8084 55.0308 0.0000 -2.0202 0.0000
# 3 20.6486 55.0308 109.6606 0.0000 -24.7000 0.0000
# 4 0.0000 0.0000 0.0000 33.5316 0.0000 0.6470
# 5 -1.8946 -2.0202 -24.7000 0.0000 23.2421 0.0000
# 6 0.0000 0.0000 0.0000 0.6470 0.0000 33.2784
#
#
#
# Elastic Compliance Matrix: (Units=1/GPa)
#
#
# Indices 1 2 3 4 5 6 
#
# 1 0.037051 -0.005183 -0.004991 0.000000 -0.002735 0.000000
# 2 -0.005183 0.019556 -0.011241 0.000000 -0.010669 0.000000
# 3 -0.004991 -0.011241 0.020231 0.000000 0.020116 0.000000
# 4 0.000000 0.000000 0.000000 0.029834 0.000000 -0.000580
# 5 -0.002735 -0.010669 0.020116 0.000000 0.063253 0.000000
# 6 0.000000 0.000000 0.000000 -0.000580 0.000000 0.030061
#
#
# Mechanical properties :
#
#
# Convention : Reuss Voigt Hill
#
# Bulk Modulus (GPa) = 29.40604 46.55471 37.98037
# Shear Modulus (GPa) = 19.67333 26.92564 23.29948
#
# Velocity S-wave (km/s) = 2.98433 3.49132 3.24773
# Velocity P-wave (km/s) = 5.01868 6.10966 5.59085
#
# Compressibility (1/GPa) = 0.03400662
#
# Stress axis : x y z
#
# Youngs Moduli (GPa) = 26.99011 51.13475 49.42973
#
# Poissons Ratio (x) = 0.26505 0.24672
# Poissons Ratio (y) = 0.13990 0.55563
# Poissons Ratio (z) = 0.13472 0.57480
#
# Static dielectric constant tensor:
#      x y z
#    x 3.666620 0.000000 -0.341180 
#    y 0.000000 4.099530 0.000000 
#    z -0.341180 0.000000 4.116040 
# 
# 
# High freq. dielectric constant tensor:
#      x y z
#    x 1.841550 0.000000 -0.026610 
#    y 0.000000 1.881650 0.000000 
#    z -0.026610 0.000000 1.870260 
# 
# From -- ./inp_files/270312.got.cif
#   From: 2010.06.25/outbox.cif.g09.slc.cpg/sg12_136_cif.got.tgz:270312.got - 2010.06.28 00:19:55.
