data_PCOD8096096
_publ_section_title
;
Structure prediction by ZEFSAII (Michael W. Deem and Ramdas Pophale) SiO2 
 PCOD8096096
Probable space group: C 2/M
;
_chemical_formula_sum "Si O2"
_cell_formula_units_Z 64
_cell_length_a 30.849553
_cell_length_b 9.300098
_cell_length_c 15.168412
_cell_angle_alpha 90.000000
_cell_angle_beta 133.314949
_cell_angle_gamma 90.000000
_cell_volume 3166.398014
_symmetry_space_group_name_H-M "C 2/M"
_symmetry_group_IT_number 12
_symmetry_cell_setting 'monoclinic'
loop_
_space_group_symop_operation_xyz
x,y,z
-x,y,-z
-x,-y,-z
x,-y,z
1/2+x,1/2+y,z
1/2-x,1/2+y,-z
1/2-x,1/2-y,-z
1/2+x,1/2-y,z
loop_
_atom_site_type_symbol
_atom_site_label
_atom_site_fract_x
_atom_site_fract_y
_atom_site_fract_z
Si Si1 0.797693 0.664627 0.404197
Si Si2 0.944900 0.331453 0.860616
Si Si3 0.327633 0.164266 0.951500
Si Si4 0.334601 0.670628 0.783117
Si Si5 0.307950 0.337908 0.245910
Si Si6 0.010274 0.839112 0.417094
Si Si7 0.923205 0.664307 0.635373
Si Si8 0.120943 0.160994 0.823150
O O1 0.790624 0.500000 0.367625
O O2 0.731865 0.715534 0.345769
O O3 0.818529 0.743035 0.345522
O O4 0.851292 0.688967 0.549209
O O5 0.932206 0.500000 0.857925
O O6 0.885345 0.242679 0.795692
O O7 0.957826 0.298630 0.775054
O O8 0.000000 0.281365 0.000000
O O9 0.342409 0.267954 0.891495
O O10 0.259030 0.174334 0.883201
O O11 0.346324 0.000000 0.955037
O O12 0.365100 0.220547 0.085195
O O13 0.344286 0.500000 0.796474
O O14 0.323420 0.500000 0.294889
O O15 0.351912 0.283986 0.231025
O O16 0.949450 0.844292 0.279254
O O17 0.000000 0.768908 0.500000
O O18 0.056213 0.754365 0.420094
O O19 0.036280 0.000000 0.467207
O O20 0.935605 0.500000 0.627810
O O21 0.145886 0.000000 0.880190
#
# Coordination Sequence:
#
# PCOD8096096 Si02
#       8
#     8   8   8   8   8   8   8   8
#     4   9  19  36  58  84 115 148 188 239 293 345
#     4  10  23  42  62  86 119 156 193 240 291 345
#     4  10  20  33  53  81 112 149 192 236 287 348
#     4  10  21  38  60  86 115 148 188 239 293 345
#     4   9  18  33  53  79 112 151 192 235 288 346
#     4  10  22  39  58  83 116 154 195 240 290 343
#     4  10  22  40  61  86 117 155 197 242 292 345
#     4  10  20  33  51  77 111 150 193 242 290 341
#
# _framework density 20.212242
#
# number of rings (size 3 to 8) (size 9 to 14) (size 15 to 20)
#    0.000    2.250    0.000    1.875    1.750    5.000 
#    0.000    0.000    0.000    0.000    0.000    0.000 
#    0.000    0.000    0.000    0.000    0.000    0.000 
#
# Total GULP energy -396653.105378 kJ/mol
# GULP energy per Si atom -12395.409543 kJ/mol
# Density = 2.016624 g / cm^3
# Si number density = 20.212242 Si / 1000 Ang^3
#
#
#
# Elastic Constant Matrix: (Units=GPa)
#
#
# Indices 1 2 3 4 5 6 
#
# 1 105.7831 42.8628 36.4748 0.0000 2.4654 0.0000
# 2 42.8628 63.1674 36.6329 0.0000 0.4569 0.0000
# 3 36.4748 36.6329 109.0983 0.0000 2.0204 0.0000
# 4 0.0000 0.0000 0.0000 23.0431 0.0000 -5.5863
# 5 2.4654 0.4569 2.0204 0.0000 16.4817 0.0000
# 6 0.0000 0.0000 0.0000 -5.5863 0.0000 25.2121
#
#
#
# Elastic Compliance Matrix: (Units=1/GPa)
#
#
# Indices 1 2 3 4 5 6 
#
# 1 0.013345 -0.008038 -0.001733 0.000000 -0.001561 0.000000
# 2 -0.008038 0.024503 -0.005562 0.000000 0.001205 0.000000
# 3 -0.001733 -0.005562 0.011632 0.000000 -0.001012 0.000000
# 4 0.000000 0.000000 0.000000 0.045860 0.000000 0.010161
# 5 -0.001561 0.001205 -0.001012 0.000000 0.060998 0.000000
# 6 0.000000 0.000000 0.000000 0.010161 0.000000 0.041915
#
#
# Mechanical properties :
#
#
# Convention : Reuss Voigt Hill
#
# Bulk Modulus (GPa) = 53.16099 56.66553 54.91326
# Shear Modulus (GPa) = 21.25934 23.75259 22.50596
#
# Velocity S-wave (km/s) = 3.24667 3.43178 3.34051
# Velocity P-wave (km/s) = 6.35712 6.61807 6.48891
#
# Compressibility (1/GPa) = 0.01881079
#
# Stress axis : x y z
#
# Youngs Moduli (GPa) = 74.93702 40.81206 85.96961
#
# Poissons Ratio (x) = 0.32807 0.14902
# Poissons Ratio (y) = 0.60238 0.47819
# Poissons Ratio (z) = 0.12990 0.22701
#
# Static dielectric constant tensor:
#      x y z
#    x 3.630610 0.000000 0.140000 
#    y 0.000000 3.668950 0.000000 
#    z 0.140000 0.000000 3.748260 
# 
# 
# High freq. dielectric constant tensor:
#      x y z
#    x 1.784440 0.000000 0.010910 
#    y 0.000000 1.782170 0.000000 
#    z 0.010910 0.000000 1.793740 
# 
# From -- ./inp_files/249692.got.cif
#   From: 2010.06.25/outbox.cif.g09.slc.cpg/sg12_125_cif.got.tgz:249692.got - 2010.06.28 00:19:55.
