data_PCOD8096940
_publ_section_title
;
Structure prediction by ZEFSAII (Michael W. Deem and Ramdas Pophale) SiO2 
 PCOD8096940
Probable space group: C 2/M
;
_chemical_formula_sum "Si O2"
_cell_formula_units_Z 56
_cell_length_a 29.917850
_cell_length_b 8.957081
_cell_length_c 18.863155
_cell_angle_alpha 90.000000
_cell_angle_beta 142.818829
_cell_angle_gamma 90.000000
_cell_volume 3054.855202
_symmetry_space_group_name_H-M "C 2/M"
_symmetry_group_IT_number 12
_symmetry_cell_setting 'monoclinic'
loop_
_space_group_symop_operation_xyz
x,y,z
-x,y,-z
-x,-y,-z
x,-y,z
1/2+x,1/2+y,z
1/2-x,1/2+y,-z
1/2-x,1/2-y,-z
1/2+x,1/2-y,z
loop_
_atom_site_type_symbol
_atom_site_label
_atom_site_fract_x
_atom_site_fract_y
_atom_site_fract_z
Si Si1 0.986172 0.331279 0.701711
Si Si2 0.544280 0.828444 0.489504
Si Si3 0.050789 0.334054 0.922352
Si Si4 0.879607 0.669787 0.746150
Si Si5 0.305434 0.325678 0.364159
Si Si6 0.343968 0.671577 0.566760
Si Si7 0.341079 0.674877 0.841065
O O1 0.953110 0.500000 0.672138
O O2 0.056201 0.310986 0.843418
O O3 0.007938 0.313218 0.646516
O O4 0.926407 0.205853 0.644133
O O5 0.500000 0.758549 0.500000
O O6 0.620605 0.743560 0.574082
O O7 0.563958 0.000000 0.530322
O O8 0.077897 0.500000 0.978877
O O9 0.964704 0.315609 0.832073
O O10 0.099831 0.212076 0.023338
O O11 0.856354 0.500000 0.733737
O O12 0.826752 0.727384 0.614565
O O13 0.871265 0.769457 0.804498
O O14 0.308053 0.500000 0.351880
O O15 0.292939 0.294451 0.433248
O O16 0.236237 0.252571 0.236740
O O17 0.338816 0.500000 0.583446
O O18 0.329015 0.500000 0.822819
#
# Coordination Sequence:
#
# PCOD8096940 Si02
#       7
#     8   8   8   8   8   8   8
#     4   8  15  29  50  75 102 133 162 193 242 296
#     4   9  17  32  57  86 110 129 155 196 244 297
#     4   9  18  33  51  70  97 134 173 207 242 290
#     4  10  20  34  52  72  97 132 171 210 252 296
#     4  10  21  36  52  72 102 136 167 201 248 304
#     4   9  17  30  49  72  97 127 165 209 249 287
#     4  12  24  34  48  70  98 133 172 215 255 290
#
# _framework density 18.331474
#
# number of rings (size 3 to 8) (size 9 to 14) (size 15 to 20)
#    0.000    2.429    0.000    3.857    0.000    7.143 
#    0.000    0.000    0.000    0.857    0.000    0.000 
#    0.000    0.000    0.000    0.000    0.000    0.000 
#
# Total GULP energy -347061.650346 kJ/mol
# GULP energy per Si atom -12395.058941 kJ/mol
# Density = 1.828975 g / cm^3
# Si number density = 18.331474 Si / 1000 Ang^3
#
#
#
# Elastic Constant Matrix: (Units=GPa)
#
#
# Indices 1 2 3 4 5 6 
#
# 1 56.9660 14.0942 9.2571 0.0000 -16.0907 0.0000
# 2 14.0942 79.2715 23.0291 0.0000 -0.3400 0.0000
# 3 9.2571 23.0291 71.7255 0.0000 -8.7939 0.0000
# 4 0.0000 0.0000 0.0000 29.7165 0.0000 -0.3403
# 5 -16.0907 -0.3400 -8.7939 0.0000 20.0367 0.0000
# 6 0.0000 0.0000 0.0000 -0.3403 0.0000 20.4767
#
#
#
# Elastic Compliance Matrix: (Units=1/GPa)
#
#
# Indices 1 2 3 4 5 6 
#
# 1 0.024049 -0.004397 0.000704 0.000000 0.019547 0.000000
# 2 -0.004397 0.014780 -0.004840 0.000000 -0.005404 0.000000
# 3 0.000704 -0.004840 0.016344 0.000000 0.007657 0.000000
# 4 0.000000 0.000000 0.000000 0.033658 0.000000 0.000559
# 5 0.019547 -0.005404 0.007657 0.000000 0.068875 0.000000
# 6 0.000000 0.000000 0.000000 0.000559 0.000000 0.048845
#
#
# Mechanical properties :
#
#
# Convention : Reuss Voigt Hill
#
# Bulk Modulus (GPa) = 26.24173 33.41376 29.82775
# Shear Modulus (GPa) = 21.15787 24.81815 22.98801
#
# Velocity S-wave (km/s) = 3.40101 3.68347 3.54505
# Velocity P-wave (km/s) = 5.45607 6.02973 5.75006
#
# Compressibility (1/GPa) = 0.03810724
#
# Stress axis : x y z
#
# Youngs Moduli (GPa) = 41.58173 67.66082 61.18434
#
# Poissons Ratio (x) = 0.29748 -0.04310
# Poissons Ratio (y) = 0.18282 0.29616
# Poissons Ratio (z) = -0.02929 0.32751
#
# Static dielectric constant tensor:
#      x y z
#    x 3.201260 0.000000 -0.302880 
#    y 0.000000 3.389900 0.000000 
#    z -0.302880 0.000000 3.538780 
# 
# 
# High freq. dielectric constant tensor:
#      x y z
#    x 1.675860 0.000000 -0.017780 
#    y 0.000000 1.715290 0.000000 
#    z -0.017780 0.000000 1.710970 
# 
# From -- ./inp_files/280970.got.cif
#   From: 2010.06.25/outbox.cif.g09.slc.cpg/sg12_141_cif.got.tgz:280970.got - 2010.06.28 00:19:55.
