data_PCOD8096280
_publ_section_title
;
Structure prediction by ZEFSAII (Michael W. Deem and Ramdas Pophale) SiO2 
 PCOD8096280
Probable space group: C 2/M
;
_chemical_formula_sum "Si O2"
_cell_formula_units_Z 40
_cell_length_a 26.141846
_cell_length_b 9.802050
_cell_length_c 8.628874
_cell_angle_alpha 90.000000
_cell_angle_beta 71.486893
_cell_angle_gamma 90.000000
_cell_volume 2096.672612
_symmetry_space_group_name_H-M "C 2/M"
_symmetry_group_IT_number 12
_symmetry_cell_setting 'monoclinic'
loop_
_space_group_symop_operation_xyz
x,y,z
-x,y,-z
-x,-y,-z
x,-y,z
1/2+x,1/2+y,z
1/2-x,1/2+y,-z
1/2-x,1/2-y,-z
1/2+x,1/2-y,z
loop_
_atom_site_type_symbol
_atom_site_label
_atom_site_fract_x
_atom_site_fract_y
_atom_site_fract_z
Si Si1 0.198151 0.661366 0.010297
Si Si2 0.868702 0.153053 0.136017
Si Si3 0.426376 0.347332 0.387724
Si Si4 0.528959 0.250120 0.121525
Si Si5 0.901804 0.352020 0.686601
O O1 0.210469 0.500000 0.967737
O O2 0.157933 0.679907 0.193513
O O3 0.250000 0.750000 0.000000
O O4 0.172158 0.730203 0.882493
O O5 0.881605 0.190104 0.301979
O O6 0.843691 0.000000 0.146626
O O7 0.924151 0.149720 0.984606
O O8 0.417708 0.500000 0.455138
O O9 0.485955 0.336783 0.259637
O O10 0.419745 0.255107 0.543289
O O11 0.556357 0.141032 0.209503
O O12 0.500000 0.178371 0.000000
O O13 0.902825 0.500000 0.605937
#
# Coordination Sequence:
#
# PCOD8096280 Si02
#       5
#     8   8   8   8   8
#     4  10  21  38  59  80 101 131 173 219 267 316
#     4   9  18  34  55  79 107 139 177 218 257 301
#     4  10  20  33  52  79 110 144 178 211 252 305
#     4   9  18  32  52  78 108 143 181 217 252 297
#     4  10  22  36  51  77 109 138 172 216 264 313
#
# _framework density 19.077846999999998
#
# number of rings (size 3 to 8) (size 9 to 14) (size 15 to 20)
#    0.000    2.400    0.000    1.800    0.000   10.800 
#    0.000    5.000    0.000    0.000    0.000    0.000 
#    0.000    0.000    0.000    0.000    0.000    0.000 
#
# Total GULP energy -247860.522938 kJ/mol
# GULP energy per Si atom -12393.026147 kJ/mol
# Density = 1.903443 g / cm^3
# Si number density = 19.077847 Si / 1000 Ang^3
#
#
#
# Elastic Constant Matrix: (Units=GPa)
#
#
# Indices 1 2 3 4 5 6 
#
# 1 118.6013 67.6023 47.8956 0.0000 11.9127 0.0000
# 2 67.6023 127.5104 60.2566 0.0000 13.3236 0.0000
# 3 47.8956 60.2566 101.4670 0.0000 16.3844 0.0000
# 4 0.0000 0.0000 0.0000 24.9041 0.0000 4.3363
# 5 11.9127 13.3236 16.3844 0.0000 15.0833 0.0000
# 6 0.0000 0.0000 0.0000 4.3363 0.0000 22.2467
#
#
#
# Elastic Compliance Matrix: (Units=1/GPa)
#
#
# Indices 1 2 3 4 5 6 
#
# 1 0.012705 -0.005317 -0.002399 0.000000 -0.002732 0.000000
# 2 -0.005317 0.013252 -0.005030 0.000000 -0.002043 0.000000
# 3 -0.002399 -0.005030 0.015706 0.000000 -0.010723 0.000000
# 4 0.000000 0.000000 0.000000 0.041565 0.000000 -0.008102
# 5 -0.002732 -0.002043 -0.010723 0.000000 0.081909 0.000000
# 6 0.000000 0.000000 0.000000 -0.008102 0.000000 0.046530
#
#
# Mechanical properties :
#
#
# Convention : Reuss Voigt Hill
#
# Bulk Modulus (GPa) = 61.83431 77.67642 69.75537
# Shear Modulus (GPa) = 20.61437 23.90177 22.25807
#
# Velocity S-wave (km/s) = 3.29072 3.54341 3.41940
# Velocity P-wave (km/s) = 6.84985 7.58583 7.22722
#
# Compressibility (1/GPa) = 0.01617225
#
# Stress axis : x y z
#
# Youngs Moduli (GPa) = 78.70677 75.46108 63.66869
#
# Poissons Ratio (x) = 0.40123 0.15271
# Poissons Ratio (y) = 0.41849 0.32026
# Poissons Ratio (z) = 0.18878 0.37957
#
# Static dielectric constant tensor:
#      x y z
#    x 3.543230 0.000000 0.168120 
#    y 0.000000 3.394470 0.000000 
#    z 0.168120 0.000000 3.443940 
# 
# 
# High freq. dielectric constant tensor:
#      x y z
#    x 1.736350 0.000000 0.012540 
#    y 0.000000 1.738780 0.000000 
#    z 0.012540 0.000000 1.732620 
# 
# From -- ./inp_files/92805.got.cif
#   From: 2010.06.25/outbox.cif.g09.slc.cpg/sg12_47_cif.got.tgz:92805.got - 2010.06.28 00:19:55.
