data_PCOD8096726
_publ_section_title
;
Structure prediction by ZEFSAII (Michael W. Deem and Ramdas Pophale) SiO2 
 PCOD8096726
Probable space group: C 2/M
;
_chemical_formula_sum "Si O2"
_cell_formula_units_Z 56
_cell_length_a 28.062474
_cell_length_b 9.252723
_cell_length_c 12.150703
_cell_angle_alpha 90.000000
_cell_angle_beta 95.629538
_cell_angle_gamma 90.000000
_cell_volume 3139.765660
_symmetry_space_group_name_H-M "C 2/M"
_symmetry_group_IT_number 12
_symmetry_cell_setting 'monoclinic'
loop_
_space_group_symop_operation_xyz
x,y,z
-x,y,-z
-x,-y,-z
x,-y,z
1/2+x,1/2+y,z
1/2-x,1/2+y,-z
1/2-x,1/2-y,-z
1/2+x,1/2-y,z
loop_
_atom_site_type_symbol
_atom_site_label
_atom_site_fract_x
_atom_site_fract_y
_atom_site_fract_z
Si Si1 0.379601 0.828362 0.128268
Si Si2 0.670584 0.170891 0.660146
Si Si3 0.485391 0.171751 0.115384
Si Si4 0.360112 0.329853 0.559633
Si Si5 0.779248 0.831684 0.713396
Si Si6 0.922846 0.666108 0.735913
Si Si7 0.159699 0.334040 0.109060
O O1 0.352704 0.776178 0.231273
O O2 0.433720 0.766187 0.139754
O O3 0.381811 0.000000 0.122554
O O4 0.350358 0.772087 0.015264
O O5 0.643008 0.254060 0.558406
O O6 0.725908 0.218413 0.671937
O O7 0.664777 0.000000 0.640769
O O8 0.524240 0.216897 0.216102
O O9 0.483852 0.000000 0.105409
O O10 0.500000 0.236892 0.000000
O O11 0.366134 0.500000 0.545460
O O12 0.312699 0.289701 0.618219
O O13 0.406564 0.267642 0.632144
O O14 0.796516 0.752841 0.827734
O O15 0.781315 0.000000 0.740076
O O16 0.922199 0.500000 0.695662
O O17 0.888781 0.686340 0.833178
O O18 0.175612 0.500000 0.109055
#
# Coordination Sequence:
#
# PCOD8096726 Si02
#       7
#     8   8   8   8   8   8   8
#     4   9  17  29  47  74 104 128 154 195 243 285
#     4  10  20  34  50  69  97 130 163 200 241 284
#     4   9  14  25  49  79 103 122 153 196 237 280
#     4  10  20  34  51  69  94 127 166 206 240 279
#     4   9  19  33  49  70  96 127 162 202 243 281
#     4   9  16  28  51  78  99 122 156 198 240 282
#     4   9  16  28  48  75 101 125 156 194 237 287
#
# _framework density 17.835726999999999
#
# number of rings (size 3 to 8) (size 9 to 14) (size 15 to 20)
#    0.000    2.714    1.429    0.857    0.000    1.714 
#    0.000    1.429    0.000    6.429    0.000    0.000 
#    0.000    0.000    0.000    0.000    0.000    0.000 
#
# Total GULP energy -347203.407457 kJ/mol
# GULP energy per Si atom -12400.121695 kJ/mol
# Density = 1.779513 g / cm^3
# Si number density = 17.835727 Si / 1000 Ang^3
#
#
#
# Elastic Constant Matrix: (Units=GPa)
#
#
# Indices 1 2 3 4 5 6 
#
# 1 45.6942 19.2276 40.5127 0.0000 9.4180 0.0000
# 2 19.2276 38.8508 45.1786 0.0000 4.8746 0.0000
# 3 40.5127 45.1786 151.6850 0.0000 11.1903 0.0000
# 4 0.0000 0.0000 0.0000 23.2747 0.0000 4.8938
# 5 9.4180 4.8746 11.1903 0.0000 23.2578 0.0000
# 6 0.0000 0.0000 0.0000 4.8938 0.0000 15.8159
#
#
#
# Elastic Compliance Matrix: (Units=1/GPa)
#
#
# Indices 1 2 3 4 5 6 
#
# 1 0.032004 -0.008504 -0.005381 0.000000 -0.008588 0.000000
# 2 -0.008504 0.041803 -0.010147 0.000000 -0.000436 0.000000
# 3 -0.005381 -0.010147 0.011130 0.000000 -0.001049 0.000000
# 4 0.000000 0.000000 0.000000 0.045955 0.000000 -0.014219
# 5 -0.008588 -0.000436 -0.001049 0.000000 0.047070 0.000000
# 6 0.000000 0.000000 0.000000 -0.014219 0.000000 0.067627
#
#
# Mechanical properties :
#
#
# Convention : Reuss Voigt Hill
#
# Bulk Modulus (GPa) = 27.12114 49.56310 38.34212
# Shear Modulus (GPa) = 16.34284 21.22377 18.78331
#
# Velocity S-wave (km/s) = 3.03033 3.45332 3.24871
# Velocity P-wave (km/s) = 5.24242 6.61434 5.96793
#
# Compressibility (1/GPa) = 0.03687161
#
# Stress axis : x y z
#
# Youngs Moduli (GPa) = 31.24590 23.92186 89.85001
#
# Poissons Ratio (x) = 0.20342 0.48353
# Poissons Ratio (y) = 0.26570 0.91174
# Poissons Ratio (z) = 0.16815 0.24274
#
# Static dielectric constant tensor:
#      x y z
#    x 3.388630 0.000000 0.095520 
#    y 0.000000 2.962660 0.000000 
#    z 0.095520 0.000000 3.342770 
# 
# 
# High freq. dielectric constant tensor:
#      x y z
#    x 1.682730 0.000000 0.013880 
#    y 0.000000 1.653100 0.000000 
#    z 0.013880 0.000000 1.695820 
# 
# From -- ./inp_files/186856.got.cif
#   From: 2010.06.25/outbox.cif.g09.slc.cpg/sg12_94_cif.got.tgz:186856.got - 2010.06.28 00:19:55.
