data_PCOD8096997
_publ_section_title
;
Structure prediction by ZEFSAII (Michael W. Deem and Ramdas Pophale) SiO2 
 PCOD8096997
Probable space group: C 2/M
;
_chemical_formula_sum "Si O2"
_cell_formula_units_Z 56
_cell_length_a 18.870939
_cell_length_b 9.094631
_cell_length_c 29.510974
_cell_angle_alpha 90.000000
_cell_angle_beta 143.538176
_cell_angle_gamma 90.000000
_cell_volume 3009.943906
_symmetry_space_group_name_H-M "C 2/M"
_symmetry_group_IT_number 12
_symmetry_cell_setting 'monoclinic'
loop_
_space_group_symop_operation_xyz
x,y,z
-x,y,-z
-x,-y,-z
x,-y,z
1/2+x,1/2+y,z
1/2-x,1/2+y,-z
1/2-x,1/2-y,-z
1/2+x,1/2-y,z
loop_
_atom_site_type_symbol
_atom_site_label
_atom_site_fract_x
_atom_site_fract_y
_atom_site_fract_z
Si Si1 0.768434 0.827578 0.875879
Si Si2 0.057953 0.669119 0.701408
Si Si3 0.365033 0.674886 0.429240
Si Si4 0.298426 0.327903 0.297233
Si Si5 0.088926 0.329847 0.124459
Si Si6 0.314427 0.827529 0.991976
Si Si7 0.786939 0.672471 0.564854
O O1 0.643617 0.791148 0.787319
O O2 0.877610 0.768368 0.901657
O O3 0.786718 0.000000 0.893934
O O4 0.763740 0.741936 0.920295
O O5 0.072339 0.500000 0.695506
O O6 0.092708 0.759409 0.674747
O O7 0.924052 0.708018 0.647128
O O8 0.500000 0.735195 0.500000
O O9 0.363785 0.500000 0.430483
O O10 0.302012 0.730971 0.350607
O O11 0.291856 0.737175 0.434442
O O12 0.321257 0.500000 0.308326
O O13 0.171399 0.286238 0.209705
O O14 0.106991 0.500000 0.120160
O O15 0.954522 0.295828 0.069219
O O16 0.286508 0.000000 0.977984
O O17 0.250000 0.750000 0.000000
O O18 0.765487 0.500000 0.547663
O O19 0.750000 0.750000 0.500000
#
# Coordination Sequence:
#
# PCOD8096997 Si02
#       7
#     8   8   8   8   8   8   8
#     4  10  20  35  56  79 104 137 175 214 262 320
#     4   9  19  34  52  76 105 134 164 206 259 310
#     4   9  17  29  48  74  99 126 164 207 246 290
#     4   9  17  32  55  77  98 130 170 209 251 303
#     4   9  19  35  55  78 103 134 173 216 260 311
#     4  11  23  37  53  76 107 140 177 221 266 311
#     4  10  20  34  52  74 102 135 171 211 256 304
#
# _framework density 18.604997000000001
#
# number of rings (size 3 to 8) (size 9 to 14) (size 15 to 20)
#    0.000    2.429    0.000    2.143    0.000    6.286 
#    0.000    5.000    0.000    2.571    0.000    0.000 
#    0.000    0.000    0.000    0.000    0.000    0.000 
#
# Total GULP energy -347252.050796 kJ/mol
# GULP energy per Si atom -12401.858957 kJ/mol
# Density = 1.856265 g / cm^3
# Si number density = 18.604997 Si / 1000 Ang^3
#
#
#
# Elastic Constant Matrix: (Units=GPa)
#
#
# Indices 1 2 3 4 5 6 
#
# 1 179.0952 61.2378 92.6829 0.0000 -11.2700 0.0000
# 2 61.2378 63.3420 47.6255 0.0000 -4.5255 -0.0001
# 3 92.6829 47.6255 116.1532 0.0000 -12.0775 0.0000
# 4 0.0000 0.0000 0.0000 25.4987 0.0000 -2.9747
# 5 -11.2700 -4.5255 -12.0775 0.0000 37.1841 0.0000
# 6 0.0000 -0.0001 0.0000 -2.9747 0.0000 32.0300
#
#
#
# Elastic Compliance Matrix: (Units=1/GPa)
#
#
# Indices 1 2 3 4 5 6 
#
# 1 0.010785 -0.005725 -0.006200 0.000000 0.000558 0.000000
# 2 -0.005725 0.025865 -0.006096 0.000000 -0.000567 0.000000
# 3 -0.006200 -0.006096 0.016335 0.000000 0.002685 0.000000
# 4 0.000000 0.000000 0.000000 0.039647 0.000000 0.003682
# 5 0.000558 -0.000567 0.002685 0.000000 0.027865 0.000000
# 6 0.000000 0.000000 0.000000 0.003682 0.000000 0.031563
#
#
# Mechanical properties :
#
#
# Convention : Reuss Voigt Hill
#
# Bulk Modulus (GPa) = 59.02226 84.63143 71.82684
# Shear Modulus (GPa) = 25.80628 29.41216 27.60922
#
# Velocity S-wave (km/s) = 3.72837 3.98033 3.85641
# Velocity P-wave (km/s) = 7.09416 8.16770 7.64979
#
# Compressibility (1/GPa) = 0.01694276
#
# Stress axis : x y z
#
# Youngs Moduli (GPa) = 92.72155 38.66217 61.21643
#
# Poissons Ratio (x) = 0.22134 0.37956
# Poissons Ratio (y) = 0.53083 0.37318
# Poissons Ratio (z) = 0.57490 0.23569
#
# Static dielectric constant tensor:
#      x y z
#    x 3.551330 0.000000 -0.051360 
#    y 0.000000 3.077230 0.000000 
#    z -0.051360 0.000000 3.769600 
# 
# 
# High freq. dielectric constant tensor:
#      x y z
#    x 1.721870 0.000000 -0.000730 
#    y 0.000000 1.705670 0.000000 
#    z -0.000730 0.000000 1.735570 
# 
# From -- ./inp_files/342239.got.cif
#   From: 2010.06.25/outbox.cif.g09.slc.cpg/sg12_172_cif.got.tgz:342239.got - 2010.06.28 00:19:55.
