data_PCOD8096041
_publ_section_title
;
Structure prediction by ZEFSAII (Michael W. Deem and Ramdas Pophale) SiO2 
 PCOD8096041
Probable space group: C 2/M
;
_chemical_formula_sum "Si O2"
_cell_formula_units_Z 48
_cell_length_a 18.354071
_cell_length_b 8.859644
_cell_length_c 16.282055
_cell_angle_alpha 90.000000
_cell_angle_beta 85.800152
_cell_angle_gamma 90.000000
_cell_volume 2640.523908
_symmetry_space_group_name_H-M "C 2/M"
_symmetry_group_IT_number 12
_symmetry_cell_setting 'monoclinic'
loop_
_space_group_symop_operation_xyz
x,y,z
-x,y,-z
-x,-y,-z
x,-y,z
1/2+x,1/2+y,z
1/2-x,1/2+y,-z
1/2-x,1/2-y,-z
1/2+x,1/2-y,z
loop_
_atom_site_type_symbol
_atom_site_label
_atom_site_fract_x
_atom_site_fract_y
_atom_site_fract_z
Si Si1 0.661044 0.165969 0.337457
Si Si2 0.408743 0.833901 0.835137
Si Si3 0.798018 0.821842 0.234325
Si Si4 0.449940 0.822233 0.263855
Si Si5 0.471592 0.326082 0.592899
Si Si6 0.277067 0.677406 0.914578
O O1 0.626574 0.155578 0.250821
O O2 0.744686 0.220028 0.315785
O O3 0.614525 0.281600 0.396744
O O4 0.659086 0.000000 0.379316
O O5 0.492595 0.781931 0.814029
O O6 0.362780 0.718518 0.894682
O O7 0.406319 0.000000 0.876858
O O8 0.878245 0.772375 0.252223
O O9 0.773391 0.736930 0.154470
O O10 0.795015 0.000000 0.217241
O O11 0.481550 0.775782 0.349552
O O12 0.433243 0.000000 0.266869
O O13 0.500000 0.294237 0.500000
O O14 0.480014 0.500000 0.617462
O O15 0.269123 0.500000 0.920878
O O16 0.250000 0.750000 0.000000
#
# Coordination Sequence:
#
# PCOD8096041 Si02
#       6
#     8   8   8   8   8   8
#     4   8  16  31  51  73  98 132 169 206 250 300
#     4   8  16  32  51  73 101 131 167 208 249 298
#     4  10  20  35  54  77 105 133 167 211 254 299
#     4  10  20  34  54  78 103 134 170 208 253 303
#     4  10  20  33  51  76 104 134 170 212 254 298
#     4  11  21  34  54  78 104 135 171 208 250 299
#
# _framework density 18.178211999999998
#
# number of rings (size 3 to 8) (size 9 to 14) (size 15 to 20)
#    0.000    2.500    0.000    5.000    0.000    8.667 
#    0.000    1.667    0.000    5.000    0.000    0.000 
#    0.000    0.000    0.000    0.000    0.000    0.000 
#
# Total GULP energy -297483.656072 kJ/mol
# GULP energy per Si atom -12395.152336 kJ/mol
# Density = 1.813684 g / cm^3
# Si number density = 18.178212 Si / 1000 Ang^3
#
#
#
# Elastic Constant Matrix: (Units=GPa)
#
#
# Indices 1 2 3 4 5 6 
#
# 1 135.0805 50.1872 40.1311 0.0000 -23.6790 0.0000
# 2 50.1872 109.4329 47.7278 0.0000 -18.5197 0.0000
# 3 40.1311 47.7278 72.3280 0.0000 -24.3244 0.0000
# 4 0.0000 0.0000 0.0000 28.5260 0.0000 -3.7114
# 5 -23.6790 -18.5197 -24.3244 0.0000 25.0151 0.0000
# 6 0.0000 0.0000 0.0000 -3.7114 0.0000 32.7876
#
#
#
# Elastic Compliance Matrix: (Units=1/GPa)
#
#
# Indices 1 2 3 4 5 6 
#
# 1 0.009971 -0.002855 -0.001761 0.000000 0.005612 0.000000
# 2 -0.002855 0.013708 -0.007366 0.000000 0.000283 0.000000
# 3 -0.001761 -0.007366 0.025661 0.000000 0.017832 0.000000
# 4 0.000000 0.000000 0.000000 0.035580 0.000000 0.004027
# 5 0.005612 0.000283 0.017832 0.000000 0.062838 0.000000
# 6 0.000000 0.000000 0.000000 0.004027 0.000000 0.030955
#
#
# Mechanical properties :
#
#
# Convention : Reuss Voigt Hill
#
# Bulk Modulus (GPa) = 39.40853 65.88150 52.64502
# Shear Modulus (GPa) = 23.68159 29.18543 26.43351
#
# Velocity S-wave (km/s) = 3.61327 4.01124 3.81744
# Velocity P-wave (km/s) = 6.25569 7.60092 6.96088
#
# Compressibility (1/GPa) = 0.02537522
#
# Stress axis : x y z
#
# Youngs Moduli (GPa) = 100.29464 72.95024 38.96993
#
# Poissons Ratio (x) = 0.20826 0.06862
# Poissons Ratio (y) = 0.28633 0.28707
# Poissons Ratio (z) = 0.17661 0.53738
#
# Static dielectric constant tensor:
#      x y z
#    x 4.174170 0.000000 -0.407360 
#    y 0.000000 3.453580 0.000000 
#    z -0.407360 0.000000 3.081760 
# 
# 
# High freq. dielectric constant tensor:
#      x y z
#    x 1.711590 0.000000 -0.027180 
#    y 0.000000 1.712880 0.000000 
#    z -0.027180 0.000000 1.671380 
# 
# From -- ./inp_files/221515.got.cif
#   From: 2010.06.25/outbox.cif.g09.slc.cpg/sg12_111_cif.got.tgz:221515.got - 2010.06.28 00:19:55.
