data_PCOD8096588
_publ_section_title
;
Structure prediction by ZEFSAII (Michael W. Deem and Ramdas Pophale) SiO2 
 PCOD8096588
Probable space group: C 2/M
;
_chemical_formula_sum "Si O2"
_cell_formula_units_Z 64
_cell_length_a 33.793618
_cell_length_b 8.686626
_cell_length_c 15.096297
_cell_angle_alpha 90.000000
_cell_angle_beta 133.408435
_cell_angle_gamma 90.000000
_cell_volume 3219.408075
_symmetry_space_group_name_H-M "C 2/M"
_symmetry_group_IT_number 12
_symmetry_cell_setting 'monoclinic'
loop_
_space_group_symop_operation_xyz
x,y,z
-x,y,-z
-x,-y,-z
x,-y,z
1/2+x,1/2+y,z
1/2-x,1/2+y,-z
1/2-x,1/2-y,-z
1/2+x,1/2-y,z
loop_
_atom_site_type_symbol
_atom_site_label
_atom_site_fract_x
_atom_site_fract_y
_atom_site_fract_z
Si Si1 0.766069 0.172846 0.899540
Si Si2 0.437482 0.680896 0.742015
Si Si3 0.772239 0.171741 0.703963
Si Si4 0.111808 0.817156 0.149475
Si Si5 0.122090 0.178898 0.848240
Si Si6 0.552519 0.179773 0.889431
Si Si7 0.655111 0.676606 0.710320
Si Si8 0.347995 0.817418 0.479463
O O1 0.784093 0.172257 0.825856
O O2 0.715934 0.287165 0.838278
O O3 0.749382 0.000000 0.903163
O O4 0.817377 0.235879 0.033278
O O5 0.449211 0.500000 0.755259
O O6 0.423359 0.733511 0.820099
O O7 0.489762 0.772830 0.790555
O O8 0.387741 0.722623 0.602346
O O9 0.826215 0.251481 0.744368
O O10 0.713202 0.247928 0.593150
O O11 0.767642 0.000000 0.659236
O O12 0.116135 0.000000 0.149101
O O13 0.083282 0.760019 0.017197
O O14 0.077360 0.274870 0.832763
O O15 0.114332 0.205135 0.730628
O O16 0.115553 0.000000 0.863590
O O17 0.557593 0.000000 0.911359
O O18 0.652555 0.500000 0.675380
O O19 0.638134 0.784599 0.602250
O O20 0.353099 0.000000 0.502788
#
# Coordination Sequence:
#
# PCOD8096588 Si02
#       8
#     8   8   8   8   8   8   8   8
#     4   9  16  30  53  80 118 158 187 228 286 343
#     4  11  24  41  63  85 110 154 202 244 289 346
#     4   8  15  31  57  85 116 153 186 225 282 340
#     4  10  20  39  64  88 117 153 193 234 289 354
#     4  10  20  36  57  82 116 156 193 236 289 344
#     4  12  25  39  59  88 120 151 191 246 294 343
#     4  10  20  33  55  86 118 152 194 238 281 342
#     4  10  21  39  60  83 119 159 194 239 289 340
#
# _framework density 19.879431
#
# number of rings (size 3 to 8) (size 9 to 14) (size 15 to 20)
#    0.000    2.000    1.250    3.750    0.000    4.500 
#    0.000    1.250    0.000    3.750    0.000    0.000 
#    0.000    0.000    0.000    0.000    0.000    0.000 
#
# Total GULP energy -396694.945099 kJ/mol
# GULP energy per Si atom -12396.717034 kJ/mol
# Density = 1.983418 g / cm^3
# Si number density = 19.879431 Si / 1000 Ang^3
#
#
#
# Elastic Constant Matrix: (Units=GPa)
#
#
# Indices 1 2 3 4 5 6 
#
# 1 68.4365 41.0420 10.4939 0.0000 -0.8335 0.0000
# 2 41.0420 22.4116 14.5068 0.0000 -6.1227 0.0000
# 3 10.4939 14.5068 54.3111 0.0000 13.5042 0.0000
# 4 0.0000 0.0000 0.0000 28.9802 0.0000 2.0321
# 5 -0.8335 -6.1227 13.5042 0.0000 13.6838 0.0000
# 6 0.0000 0.0000 0.0000 2.0321 0.0000 20.8721
#
#
#
# Elastic Compliance Matrix: (Units=1/GPa)
#
#
# Indices 1 2 3 4 5 6 
#
# 1 -0.015277 0.057066 -0.024394 0.000000 0.048677 0.000000
# 2 0.057066 -0.106420 0.037602 0.000000 -0.081250 0.000000
# 3 -0.024394 0.037602 0.012282 0.000000 0.003218 0.000000
# 4 0.000000 0.000000 0.000000 0.034744 0.000000 -0.003383
# 5 0.048677 -0.081250 0.003218 0.000000 0.036514 0.000000
# 6 0.000000 0.000000 0.000000 -0.003383 0.000000 0.048240
#
#
# Mechanical properties :
#
#
# Convention : Reuss Voigt Hill
#
# Bulk Modulus (GPa) = 32.12214 30.80496 31.46355
# Shear Modulus (GPa) = -41.63609 17.98164 -11.82723
#
# Velocity S-wave (km/s) = -4.58146 3.01081 -2.44180
# Velocity P-wave (km/s) = 3.43407 5.25511 2.81277
#
# Compressibility (1/GPa) = 0.03113117
#
# Stress axis : x y z
#
# Youngs Moduli (GPa) = -65.45599 -9.39670 81.41970
#
# Poissons Ratio (x) = 0.53623 1.98617
# Poissons Ratio (y) = 3.73530 -3.06152
# Poissons Ratio (z) = -1.59675 0.35333
#
# Static dielectric constant tensor:
#      x y z
#    x 3.841260 0.000000 0.026070 
#    y 0.000000 3.437790 0.000000 
#    z 0.026070 0.000000 3.472720 
# 
# 
# High freq. dielectric constant tensor:
#      x y z
#    x 1.782290 0.000000 -0.002900 
#    y 0.000000 1.758050 0.000000 
#    z -0.002900 0.000000 1.763920 
# 
# From -- ./inp_files/250040.got.cif
#   From: 2010.06.25/outbox.cif.g09.slc.cpg/sg12_126_cif.got.tgz:250040.got - 2010.06.28 00:19:55.
