data_PCOD8096156
_publ_section_title
;
Structure prediction by ZEFSAII (Michael W. Deem and Ramdas Pophale) SiO2 
 PCOD8096156
Probable space group: C 2/M
;
_chemical_formula_sum "Si O2"
_cell_formula_units_Z 56
_cell_length_a 22.394613
_cell_length_b 7.536223
_cell_length_c 16.494794
_cell_angle_alpha 90.000000
_cell_angle_beta 93.273856
_cell_angle_gamma 90.000000
_cell_volume 2779.296255
_symmetry_space_group_name_H-M "C 2/M"
_symmetry_group_IT_number 12
_symmetry_cell_setting 'monoclinic'
loop_
_space_group_symop_operation_xyz
x,y,z
-x,y,-z
-x,-y,-z
x,-y,z
1/2+x,1/2+y,z
1/2-x,1/2+y,-z
1/2-x,1/2-y,-z
1/2+x,1/2-y,z
loop_
_atom_site_type_symbol
_atom_site_label
_atom_site_fract_x
_atom_site_fract_y
_atom_site_fract_z
Si Si1 0.778408 0.788921 0.883740
Si Si2 0.473681 0.288573 0.750831
Si Si3 0.312921 0.707875 0.544445
Si Si4 0.491709 0.000000 0.367351
Si Si5 0.098511 0.500000 0.501357
Si Si6 0.157872 0.297672 0.952630
Si Si7 0.973650 0.801066 0.078510
Si Si8 0.163190 0.791324 0.273349
O O1 0.712576 0.717936 0.903412
O O2 0.796189 0.713124 0.796539
O O3 0.778798 0.000000 0.887264
O O4 0.827241 0.718790 0.951203
O O5 0.482583 0.500000 0.737611
O O6 0.508594 0.180983 0.684460
O O7 0.500383 0.216011 0.837651
O O8 0.404796 0.228208 0.741939
O O9 0.329445 0.500000 0.538705
O O10 0.250000 0.750000 0.500000
O O11 0.310757 0.770739 0.638223
O O12 0.362582 0.821307 0.501903
O O13 0.548905 0.000000 0.429000
O O14 0.430296 0.000000 0.412239
O O15 0.145883 0.500000 0.928443
O O16 0.098034 0.192768 0.926590
O O17 0.999020 0.000000 0.079794
O O18 0.000000 0.702760 0.000000
O O19 0.165541 0.000000 0.266378
#
# Coordination Sequence:
#
# PCOD8096156 Si02
#       8
#     8   8   8   4   4   8   8   8
#     4   9  18  36  57  76 111 157 190 232 296 354
#     4  10  21  39  62  89 122 160 207 257 299 359
#     4  11  22  41  66  94 127 157 203 260 308 378
#     4  11  24  42  67  92 128 166 209 258 311 379
#     4  11  24  44  66  96 124 169 206 250 326 382
#     4  10  20  33  51  83 117 147 192 243 288 344
#     4  10  21  38  58  79 113 162 201 241 300 356
#     4   9  18  36  61  85 110 151 198 242 299 359
#
# _framework density 20.148985
#
# number of rings (size 3 to 8) (size 9 to 14) (size 15 to 20)
#    0.000    2.000    2.143    1.286    1.000    3.714 
#    7.714    1.429    0.000    0.000    0.000    0.000 
#    0.000    0.000    0.000    0.000    0.000    0.000 
#
# Total GULP energy -347161.609860 kJ/mol
# GULP energy per Si atom -12398.628924 kJ/mol
# Density = 2.010313 g / cm^3
# Si number density = 20.148985 Si / 1000 Ang^3
#
#
#
# Elastic Constant Matrix: (Units=GPa)
#
#
# Indices 1 2 3 4 5 6 
#
# 1 132.5302 25.3291 98.6355 0.0000 1.0274 0.0000
# 2 25.3291 75.0683 36.0713 0.0000 -11.4773 0.0000
# 3 98.6355 36.0713 179.2306 0.0000 -9.8909 0.0000
# 4 0.0000 0.0000 0.0000 23.3670 0.0000 -0.4173
# 5 1.0274 -11.4773 -9.8909 0.0000 39.3048 0.0000
# 6 0.0000 0.0000 0.0000 -0.4173 0.0000 26.6958
#
#
#
# Elastic Compliance Matrix: (Units=1/GPa)
#
#
# Indices 1 2 3 4 5 6 
#
# 1 0.013088 -0.001411 -0.007058 0.000000 -0.002530 0.000000
# 2 -0.001411 0.015422 -0.002106 0.000000 0.004010 0.000000
# 3 -0.007058 -0.002106 0.010003 0.000000 0.002087 0.000000
# 4 0.000000 0.000000 0.000000 0.042807 0.000000 0.000669
# 5 -0.002530 0.004010 0.002087 0.000000 0.027204 0.000000
# 6 0.000000 0.000000 0.000000 0.000669 0.000000 0.037469
#
#
# Mechanical properties :
#
#
# Convention : Reuss Voigt Hill
#
# Bulk Modulus (GPa) = 57.59632 78.54455 68.07043
# Shear Modulus (GPa) = 28.91302 32.99309 30.95306
#
# Velocity S-wave (km/s) = 3.79220 4.05094 3.92370
# Velocity P-wave (km/s) = 6.91532 7.80683 7.37456
#
# Compressibility (1/GPa) = 0.01736222
#
# Stress axis : x y z
#
# Youngs Moduli (GPa) = 76.40662 64.84052 99.97297
#
# Poissons Ratio (x) = 0.09151 0.70563
# Poissons Ratio (y) = 0.10784 0.21053
# Poissons Ratio (z) = 0.53929 0.13654
#
# Static dielectric constant tensor:
#      x y z
#    x 3.690550 0.000000 -0.075600 
#    y 0.000000 3.502560 0.000000 
#    z -0.075600 0.000000 3.974810 
# 
# 
# High freq. dielectric constant tensor:
#      x y z
#    x 1.782280 0.000000 0.001580 
#    y 0.000000 1.782130 0.000000 
#    z 0.001580 0.000000 1.789030 
# 
# From -- ./inp_files/231106.got.cif
#   From: 2010.06.25/outbox.cif.g09.slc.cpg/sg12_116_cif.got.tgz:231106.got - 2010.06.28 00:19:55.
