data_PCOD8096843
_publ_section_title
;
Structure prediction by ZEFSAII (Michael W. Deem and Ramdas Pophale) SiO2 
 PCOD8096843
Probable space group: C 2/M
;
_chemical_formula_sum "Si O2"
_cell_formula_units_Z 40
_cell_length_a 27.412613
_cell_length_b 8.901854
_cell_length_c 25.928629
_cell_angle_alpha 90.000000
_cell_angle_beta 159.258869
_cell_angle_gamma 90.000000
_cell_volume 2240.748639
_symmetry_space_group_name_H-M "C 2/M"
_symmetry_group_IT_number 12
_symmetry_cell_setting 'monoclinic'
loop_
_space_group_symop_operation_xyz
x,y,z
-x,y,-z
-x,-y,-z
x,-y,z
1/2+x,1/2+y,z
1/2-x,1/2+y,-z
1/2-x,1/2-y,-z
1/2+x,1/2-y,z
loop_
_atom_site_type_symbol
_atom_site_label
_atom_site_fract_x
_atom_site_fract_y
_atom_site_fract_z
Si Si1 0.649291 0.820777 0.859186
Si Si2 0.664456 0.667632 0.661191
Si Si3 0.852307 0.820951 0.560423
Si Si4 0.667664 0.165503 0.763694
Si Si5 0.159340 0.332337 0.555638
O O1 0.501846 0.744871 0.720531
O O2 0.712122 0.780654 0.864808
O O3 0.634393 0.000000 0.851088
O O4 0.750000 0.750000 0.000000
O O5 0.500000 0.672352 0.500000
O O6 0.719409 0.500000 0.707791
O O7 0.724891 0.726785 0.775408
O O8 0.721852 0.765802 0.670396
O O9 0.750000 0.750000 0.500000
O O10 0.799579 0.773309 0.451538
O O11 0.854827 0.000000 0.567105
O O12 0.503647 0.160908 0.600435
O O13 0.726839 0.000000 0.810940
O O14 0.218949 0.500000 0.605974
#
# Coordination Sequence:
#
# PCOD8096843 Si02
#       5
#     8   8   8   8   8
#     4  10  20  34  51  73 100 131 166 203 245 290
#     4   9  15  22  36  60  88 118 152 190 235 284
#     4  11  21  34  51  72  99 130 165 204 245 290
#     4   8  15  26  40  60  89 122 154 191 236 284
#     4   9  16  27  42  62  90 122 155 193 239 287
#
# _framework density 17.851177
#
# number of rings (size 3 to 8) (size 9 to 14) (size 15 to 20)
#    0.000    2.600    0.000    4.800    0.000    8.000 
#    0.000    0.000    0.000    0.000    0.000    1.400 
#    0.000   11.200    0.000    0.000    0.000    0.000 
#
# Total GULP energy -247899.949763 kJ/mol
# GULP energy per Si atom -12394.997488 kJ/mol
# Density = 1.781055 g / cm^3
# Si number density = 17.851177 Si / 1000 Ang^3
#
#
#
# Elastic Constant Matrix: (Units=GPa)
#
#
# Indices 1 2 3 4 5 6 
#
# 1 151.2558 82.7628 50.4390 0.0000 -31.1701 0.0000
# 2 82.7628 158.5867 39.9927 0.0009 -16.6096 0.0002
# 3 50.4390 39.9927 37.5991 0.0012 -15.8942 0.0002
# 4 0.0000 0.0009 0.0012 19.0529 0.0003 -5.2622
# 5 -31.1701 -16.6096 -15.8942 0.0003 26.8741 0.0000
# 6 0.0000 0.0002 0.0002 -5.2622 0.0000 37.4260
#
#
#
# Elastic Compliance Matrix: (Units=1/GPa)
#
#
# Indices 1 2 3 4 5 6 
#
# 1 0.014005 -0.003531 -0.012117 0.000001 0.006895 0.000000
# 2 -0.003531 0.009508 -0.006165 0.000000 -0.001865 0.000000
# 3 -0.012117 -0.006165 0.055810 -0.000004 0.015144 -0.000001
# 4 0.000001 0.000000 -0.000004 0.054606 -0.000002 0.007678
# 5 0.006895 -0.001865 0.015144 -0.000002 0.053011 0.000000
# 6 0.000000 0.000000 -0.000001 0.007678 0.000000 0.027799
#
#
# Mechanical properties :
#
#
# Convention : Reuss Voigt Hill
#
# Bulk Modulus (GPa) = 28.01325 77.09229 52.55277
# Shear Modulus (GPa) = 18.50046 28.28706 23.39376
#
# Velocity S-wave (km/s) = 3.22277 3.98503 3.62399
# Velocity P-wave (km/s) = 5.43829 8.02831 6.85671
#
# Compressibility (1/GPa) = 0.03569739
#
# Stress axis : x y z
#
# Youngs Moduli (GPa) = 71.40352 105.17770 17.91791
#
# Poissons Ratio (x) = 0.37138 0.21711
# Poissons Ratio (y) = 0.25213 0.11046
# Poissons Ratio (z) = 0.86520 0.64838
#
# Static dielectric constant tensor:
#      x y z
#    x 3.637860 0.000000 -0.341880 
#    y 0.000000 3.566160 0.000000 
#    z -0.341880 0.000000 2.747700 
# 
# 
# High freq. dielectric constant tensor:
#      x y z
#    x 1.704960 0.000000 -0.028640 
#    y 0.000000 1.708090 0.000000 
#    z -0.028640 0.000000 1.617600 
# 
# From -- ./inp_files/101011.got.cif
#   From: 2010.06.25/outbox.cif.g09.slc.cpg/sg12_51_cif.got.tgz:101011.got - 2010.06.28 00:19:55.
