data_PCOD8096598
_publ_section_title
;
Structure prediction by ZEFSAII (Michael W. Deem and Ramdas Pophale) SiO2 
 PCOD8096598
Probable space group: C 2/M
;
_chemical_formula_sum "Si O2"
_cell_formula_units_Z 56
_cell_length_a 25.648221
_cell_length_b 16.038466
_cell_length_c 9.017384
_cell_angle_alpha 90.000000
_cell_angle_beta 44.670431
_cell_angle_gamma 90.000000
_cell_volume 2607.793071
_symmetry_space_group_name_H-M "C 2/M"
_symmetry_group_IT_number 12
_symmetry_cell_setting 'monoclinic'
loop_
_space_group_symop_operation_xyz
x,y,z
-x,y,-z
-x,-y,-z
x,-y,z
1/2+x,1/2+y,z
1/2-x,1/2+y,-z
1/2-x,1/2-y,-z
1/2+x,1/2-y,z
loop_
_atom_site_type_symbol
_atom_site_label
_atom_site_fract_x
_atom_site_fract_y
_atom_site_fract_z
Si Si1 0.430663 0.831813 0.449042
Si Si2 0.119796 0.842714 0.559377
Si Si3 0.988384 0.092401 0.681904
Si Si4 0.278748 0.097227 0.743599
Si Si5 0.637091 0.400467 0.848767
Si Si6 0.076937 0.402871 0.212115
Si Si7 0.259270 0.096807 0.115674
O O1 0.426825 0.736596 0.405335
O O2 0.358563 0.874161 0.519764
O O3 0.510479 0.871496 0.237120
O O4 0.425457 0.846616 0.635536
O O5 0.126691 0.847372 0.721393
O O6 0.201416 0.847299 0.323719
O O7 0.066298 0.916412 0.611294
O O8 0.000000 0.139860 0.500000
O O9 0.958235 0.000000 0.706866
O O10 0.924859 0.133960 0.911937
O O11 0.216886 0.124930 0.751827
O O12 0.281384 0.000000 0.757724
O O13 0.260000 0.131906 0.945869
O O14 0.630635 0.500000 0.831302
O O15 0.065006 0.500000 0.278529
O O16 0.158917 0.391701 0.975535
O O17 0.235014 0.000000 0.173370
#
# Coordination Sequence:
#
# PCOD8096598 Si02
#       7
#     8   8   8   8   8   8   8
#     4  10  20  33  55  87 120 151 194 247 312 350
#     4  12  23  33  53  88 126 158 182 238 309 369
#     4  10  21  38  61  85 112 154 205 247 280 343
#     4   9  18  36  60  82 108 150 206 251 283 339
#     4  10  21  38  59  82 115 163 203 232 283 359
#     4   9  18  37  63  87 115 157 213 257 290 345
#     4   9  18  35  60  88 115 152 201 248 289 347
#
# _framework density 21.474097
#
# number of rings (size 3 to 8) (size 9 to 14) (size 15 to 20)
#    0.000    2.143    0.000    5.143    2.000    6.286 
#    2.571    0.000    3.143    0.000    0.000    4.000 
#    0.000    0.000    0.000    0.000    0.000    1.000 
#
# Total GULP energy -346970.005605 kJ/mol
# GULP energy per Si atom -12391.785914 kJ/mol
# Density = 2.142522 g / cm^3
# Si number density = 21.474097 Si / 1000 Ang^3
#
#
#
# Elastic Constant Matrix: (Units=GPa)
#
#
# Indices 1 2 3 4 5 6 
#
# 1 134.0905 56.0024 68.4388 0.0000 -14.3600 0.0000
# 2 56.0024 55.1057 49.3035 0.0000 -4.1653 0.0000
# 3 68.4388 49.3035 76.9661 0.0000 -8.7548 0.0000
# 4 0.0000 0.0000 0.0000 9.1816 0.0000 -9.7984
# 5 -14.3600 -4.1653 -8.7548 0.0000 40.6483 0.0000
# 6 0.0000 0.0000 0.0000 -9.7984 0.0000 33.5200
#
#
#
# Elastic Compliance Matrix: (Units=1/GPa)
#
#
# Indices 1 2 3 4 5 6 
#
# 1 0.015246 -0.008055 -0.008076 0.000000 0.002821 0.000000
# 2 -0.008055 0.046864 -0.023203 0.000000 -0.003041 0.000000
# 3 -0.008076 -0.023203 0.035307 0.000000 0.002374 0.000000
# 4 0.000000 0.000000 0.000000 0.158295 0.000000 0.046272
# 5 0.002821 -0.003041 0.002374 0.000000 0.025798 0.000000
# 6 0.000000 0.000000 0.000000 0.046272 0.000000 0.043359
#
#
# Mechanical properties :
#
#
# Convention : Reuss Voigt Hill
#
# Bulk Modulus (GPa) = 53.33808 68.18353 60.76080
# Shear Modulus (GPa) = 12.20147 22.83113 17.51630
#
# Velocity S-wave (km/s) = 2.38627 3.26420 2.85913
# Velocity P-wave (km/s) = 5.69953 6.78433 6.26545
#
# Compressibility (1/GPa) = 0.01874833
#
# Stress axis : x y z
#
# Youngs Moduli (GPa) = 65.59194 21.33846 28.32264
#
# Poissons Ratio (x) = 0.17189 0.22872
# Poissons Ratio (y) = 0.52836 0.65718
# Poissons Ratio (z) = 0.52969 0.49512
#
# Static dielectric constant tensor:
#      x y z
#    x 4.305840 0.000000 -0.563030 
#    y 0.000000 3.579830 0.000000 
#    z -0.563030 0.000000 3.961890 
# 
# 
# High freq. dielectric constant tensor:
#      x y z
#    x 1.844660 0.000000 -0.035210 
#    y 0.000000 1.818740 0.000000 
#    z -0.035210 0.000000 1.828730 
# 
# From -- ./inp_files/105951.got.cif
#   From: 2010.06.25/outbox.cif.g09.slc.cpg/sg12_53_cif.got.tgz:105951.got - 2010.06.28 00:19:55.
