data_PCOD8096093
_publ_section_title
;
Structure prediction by ZEFSAII (Michael W. Deem and Ramdas Pophale) SiO2 
 PCOD8096093
Probable space group: C 2/M
;
_chemical_formula_sum "Si O2"
_cell_formula_units_Z 64
_cell_length_a 20.765951
_cell_length_b 8.917005
_cell_length_c 18.868429
_cell_angle_alpha 90.000000
_cell_angle_beta 90.446546
_cell_angle_gamma 90.000000
_cell_volume 3493.762564
_symmetry_space_group_name_H-M "C 2/M"
_symmetry_group_IT_number 12
_symmetry_cell_setting 'monoclinic'
loop_
_space_group_symop_operation_xyz
x,y,z
-x,y,-z
-x,-y,-z
x,-y,z
1/2+x,1/2+y,z
1/2-x,1/2+y,-z
1/2-x,1/2-y,-z
1/2+x,1/2-y,z
loop_
_atom_site_type_symbol
_atom_site_label
_atom_site_fract_x
_atom_site_fract_y
_atom_site_fract_z
Si Si1 0.246729 0.822528 0.336753
Si Si2 0.441117 0.174902 0.046980
Si Si3 0.064977 0.672170 0.792564
Si Si4 0.004839 0.325175 0.649469
Si Si5 0.630901 0.821834 0.574045
Si Si6 0.303557 0.326034 0.208498
Si Si7 0.628012 0.821425 0.412664
Si Si8 0.805772 0.824548 0.045570
O O1 0.306936 0.762011 0.383330
O O2 0.254170 0.767947 0.255905
O O3 0.182873 0.751234 0.366612
O O4 0.241173 0.000000 0.338808
O O5 0.460837 0.206182 0.128846
O O6 0.375478 0.258626 0.025487
O O7 0.429578 0.000000 0.032340
O O8 0.500000 0.236480 0.000000
O O9 0.088966 0.500000 0.786757
O O10 0.009243 0.704136 0.734344
O O11 0.123971 0.778132 0.772857
O O12 0.003854 0.500000 0.632167
O O13 0.066533 0.254488 0.609748
O O14 0.939107 0.256273 0.618608
O O15 0.634962 0.766028 0.493400
O O16 0.629258 0.000000 0.577902
O O17 0.295018 0.500000 0.225572
O O18 0.288895 0.289077 0.126747
O O19 0.632467 0.000000 0.406647
O O20 0.807786 0.000000 0.029930
O O21 0.750000 0.750000 0.000000
#
# Coordination Sequence:
#
# PCOD8096093 Si02
#       8
#     8   8   8   8   8   8   8   8
#     4  11  21  35  54  75 106 141 177 218 266 322
#     4   9  18  33  54  81 112 145 180 217 262 317
#     4   9  16  31  55  78 103 138 177 215 260 314
#     4   9  16  30  53  78 101 133 177 221 263 312
#     4   9  17  31  54  78  98 134 182 222 262 317
#     4  10  20  35  56  81 105 136 179 222 260 308
#     4  10  20  33  51  77 108 137 174 224 271 313
#     4  10  21  37  58  83 111 141 178 222 269 321
#
# _framework density 18.318359999999998
#
# number of rings (size 3 to 8) (size 9 to 14) (size 15 to 20)
#    0.000    2.375    1.250    1.875    0.000    3.250 
#    2.250    1.250    0.000    0.750    0.000    0.000 
#    0.000    0.000    0.000    0.000    0.000    0.000 
#
# Total GULP energy -396792.560568 kJ/mol
# GULP energy per Si atom -12399.767518 kJ/mol
# Density = 1.827667 g / cm^3
# Si number density = 18.318360 Si / 1000 Ang^3
#
#
#
# Elastic Constant Matrix: (Units=GPa)
#
#
# Indices 1 2 3 4 5 6 
#
# 1 135.2045 36.5815 67.5175 0.0000 -9.6668 0.0000
# 2 36.5815 43.1391 34.7292 0.0000 -0.1981 0.0000
# 3 67.5175 34.7292 110.4796 0.0000 -10.8181 0.0000
# 4 0.0000 0.0000 0.0000 18.7860 0.0000 -3.4154
# 5 -9.6668 -0.1981 -10.8181 0.0000 34.1137 0.0000
# 6 0.0000 0.0000 0.0000 -3.4154 0.0000 28.1024
#
#
#
# Elastic Compliance Matrix: (Units=1/GPa)
#
#
# Indices 1 2 3 4 5 6 
#
# 1 0.011630 -0.005705 -0.005155 0.000000 0.001628 0.000000
# 2 -0.005705 0.034135 -0.007619 0.000000 -0.003835 0.000000
# 3 -0.005155 -0.007619 0.014913 0.000000 0.003224 0.000000
# 4 0.000000 0.000000 0.000000 0.054434 0.000000 0.006616
# 5 0.001628 -0.003835 0.003224 0.000000 0.030775 0.000000
# 6 0.000000 0.000000 0.000000 0.006616 0.000000 0.036388
#
#
# Mechanical properties :
#
#
# Convention : Reuss Voigt Hill
#
# Bulk Modulus (GPa) = 42.15943 62.94220 52.55081
# Shear Modulus (GPa) = 22.01287 26.20010 24.10648
#
# Velocity S-wave (km/s) = 3.47029 3.78599 3.63157
# Velocity P-wave (km/s) = 6.25476 7.31754 6.80692
#
# Compressibility (1/GPa) = 0.02371949
#
# Stress axis : x y z
#
# Youngs Moduli (GPa) = 85.98155 29.29553 67.05742
#
# Poissons Ratio (x) = 0.16713 0.34568
# Poissons Ratio (y) = 0.49052 0.51093
# Poissons Ratio (z) = 0.44323 0.22321
#
# Static dielectric constant tensor:
#      x y z
#    x 3.403710 0.000000 0.012640 
#    y 0.000000 3.156150 0.000000 
#    z 0.012640 0.000000 3.615590 
# 
# 
# High freq. dielectric constant tensor:
#      x y z
#    x 1.704180 0.000000 -0.000770 
#    y 0.000000 1.684470 0.000000 
#    z -0.000770 0.000000 1.722250 
# 
# From -- ./inp_files/281308.got.cif
#   From: 2010.06.25/outbox.cif.g09.slc.cpg/sg12_141_cif.got.tgz:281308.got - 2010.06.28 00:19:55.
