data_PCOD8096417
_publ_section_title
;
Structure prediction by ZEFSAII (Michael W. Deem and Ramdas Pophale) SiO2 
 PCOD8096417
Probable space group: C 2/M
;
_chemical_formula_sum "Si O2"
_cell_formula_units_Z 56
_cell_length_a 28.734790
_cell_length_b 9.373599
_cell_length_c 16.214714
_cell_angle_alpha 90.000000
_cell_angle_beta 42.796606
_cell_angle_gamma 90.000000
_cell_volume 2967.207052
_symmetry_space_group_name_H-M "C 2/M"
_symmetry_group_IT_number 12
_symmetry_cell_setting 'monoclinic'
loop_
_space_group_symop_operation_xyz
x,y,z
-x,y,-z
-x,-y,-z
x,-y,z
1/2+x,1/2+y,z
1/2-x,1/2+y,-z
1/2-x,1/2-y,-z
1/2+x,1/2-y,z
loop_
_atom_site_type_symbol
_atom_site_label
_atom_site_fract_x
_atom_site_fract_y
_atom_site_fract_z
Si Si1 0.038912 0.835055 0.200128
Si Si2 0.942407 0.168600 0.638543
Si Si3 0.300658 0.835150 0.563697
Si Si4 0.319617 0.837963 0.727786
Si Si5 0.917022 0.336325 0.288815
Si Si6 0.835084 0.835534 0.074776
Si Si7 0.833488 0.334630 0.237962
O O1 0.035748 0.781984 0.298531
O O2 0.985846 0.750969 0.212908
O O3 0.019190 0.000000 0.219954
O O4 0.115054 0.806788 0.066605
O O5 0.869448 0.235478 0.712632
O O6 0.000000 0.223536 0.500000
O O7 0.933341 0.000000 0.645401
O O8 0.330405 0.814882 0.616489
O O9 0.357515 0.778914 0.426392
O O10 0.233702 0.739847 0.637415
O O11 0.281221 0.000000 0.572085
O O12 0.241857 0.796851 0.853486
O O13 0.336314 0.000000 0.731183
O O14 0.932477 0.500000 0.290030
O O15 0.894884 0.317033 0.223049
O O16 0.857973 0.738598 0.121766
O O17 0.837169 0.000000 0.101813
O O18 0.816668 0.500000 0.243531
#
# Coordination Sequence:
#
# PCOD8096417 Si02
#       7
#     8   8   8   8   8   8   8
#     4  10  22  38  55  75 103 142 182 217 257 314
#     4  10  21  36  54  80 110 134 164 213 267 313
#     4   9  18  34  54  78 110 143 174 211 259 317
#     4   9  18  33  55  78 101 135 175 213 254 306
#     4  10  21  35  52  78 110 141 175 219 266 309
#     4   9  20  39  56  74 104 140 180 219 258 311
#     4  10  20  33  53  81 108 136 175 222 267 309
#
# _framework density 18.872966000000002
#
# number of rings (size 3 to 8) (size 9 to 14) (size 15 to 20)
#    0.000    2.429    0.000    2.571    0.000    6.571 
#    0.000    2.857    0.000    0.000    0.000    0.000 
#    0.000    0.000    0.000    0.000    0.000    0.000 
#
# Total GULP energy -347293.323879 kJ/mol
# GULP energy per Si atom -12403.332996 kJ/mol
# Density = 1.883001 g / cm^3
# Si number density = 18.872966 Si / 1000 Ang^3
#
#
#
# Elastic Constant Matrix: (Units=GPa)
#
#
# Indices 1 2 3 4 5 6 
#
# 1 105.3233 52.6960 44.7426 -0.0005 -12.0490 0.0000
# 2 52.6960 68.5533 37.9752 -0.0015 -6.6784 0.0008
# 3 44.7426 37.9752 106.8051 0.0007 -1.4873 -0.0001
# 4 -0.0005 -0.0015 0.0007 26.2961 0.0000 -4.1735
# 5 -12.0490 -6.6784 -1.4873 0.0000 20.0715 -0.0002
# 6 0.0000 0.0008 -0.0001 -4.1735 -0.0002 35.9181
#
#
#
# Elastic Compliance Matrix: (Units=1/GPa)
#
#
# Indices 1 2 3 4 5 6 
#
# 1 0.016883 -0.010569 -0.003226 0.000000 0.006379 0.000000
# 2 -0.010569 0.025426 -0.004588 0.000001 0.001775 0.000000
# 3 -0.003226 -0.004588 0.012310 -0.000001 -0.002551 0.000000
# 4 0.000000 0.000001 -0.000001 0.038743 0.000000 0.004502
# 5 0.006379 0.001775 -0.002551 0.000000 0.054053 0.000000
# 6 0.000000 0.000000 0.000000 0.004502 0.000000 0.028364
#
#
# Mechanical properties :
#
#
# Convention : Reuss Voigt Hill
#
# Bulk Modulus (GPa) = 56.01348 61.27882 58.64615
# Shear Modulus (GPa) = 22.88375 26.14167 24.51271
#
# Velocity S-wave (km/s) = 3.48590 3.72578 3.60783
# Velocity P-wave (km/s) = 6.77832 7.14480 6.96397
#
# Compressibility (1/GPa) = 0.01785285
#
# Stress axis : x y z
#
# Youngs Moduli (GPa) = 59.23214 39.32969 81.23510
#
# Poissons Ratio (x) = 0.41568 0.26204
# Poissons Ratio (y) = 0.62604 0.37271
# Poissons Ratio (z) = 0.19107 0.18045
#
# Static dielectric constant tensor:
#      x y z
#    x 3.320450 0.000000 0.072780 
#    y 0.000000 3.400610 0.000000 
#    z 0.072780 0.000000 3.522600 
# 
# 
# High freq. dielectric constant tensor:
#      x y z
#    x 1.728600 0.000000 0.001760 
#    y 0.000000 1.728900 0.000000 
#    z 0.001760 0.000000 1.736240 
# 
# From -- ./inp_files/295095.got.cif
#   From: 2010.06.25/outbox.cif.g09.slc.cpg/sg12_148_cif.got.tgz:295095.got - 2010.06.28 00:19:55.
