data_PCOD8096693
_publ_section_title
;
Structure prediction by ZEFSAII (Michael W. Deem and Ramdas Pophale) SiO2 
 PCOD8096693
Probable space group: C 2/M
;
_chemical_formula_sum "Si O2"
_cell_formula_units_Z 56
_cell_length_a 14.549875
_cell_length_b 17.036343
_cell_length_c 17.468868
_cell_angle_alpha 90.000000
_cell_angle_beta 130.396013
_cell_angle_gamma 90.000000
_cell_volume 3297.751097
_symmetry_space_group_name_H-M "C 2/M"
_symmetry_group_IT_number 12
_symmetry_cell_setting 'monoclinic'
loop_
_space_group_symop_operation_xyz
x,y,z
-x,y,-z
-x,-y,-z
x,-y,z
1/2+x,1/2+y,z
1/2-x,1/2+y,-z
1/2-x,1/2-y,-z
1/2+x,1/2-y,z
loop_
_atom_site_type_symbol
_atom_site_label
_atom_site_fract_x
_atom_site_fract_y
_atom_site_fract_z
Si Si1 0.679836 0.157669 0.071700
Si Si2 0.899102 0.589832 0.127071
Si Si3 0.934360 0.090585 0.228932
Si Si4 0.539051 0.590408 0.130457
Si Si5 0.847591 0.592069 0.783080
Si Si6 0.324208 0.661944 0.924976
Si Si7 0.082401 0.091485 0.610292
O O1 0.823287 0.147327 0.152265
O O2 0.619166 0.133110 0.118723
O O3 0.650142 0.248421 0.040242
O O4 0.628533 0.104765 0.976462
O O5 0.871971 0.500000 0.132548
O O6 0.816787 0.642745 0.138075
O O7 0.042173 0.608981 0.216374
O O8 0.979675 0.106887 0.340129
O O9 0.037796 0.107842 0.221314
O O10 0.891292 0.000000 0.198574
O O11 0.570070 0.500000 0.131129
O O12 0.640581 0.643962 0.144458
O O13 0.406520 0.608467 0.024585
O O14 0.834583 0.500000 0.793019
O O15 0.719853 0.625220 0.681988
O O16 0.000000 0.132193 0.500000
O O17 0.090623 0.000000 0.596614
#
# Coordination Sequence:
#
# PCOD8096693 Si02
#       7
#     8   8   8   8   8   8   8
#     4  11  20  29  43  66  96 124 155 195 222 273
#     4  11  20  31  44  61  93 131 159 184 228 278
#     4   9  17  30  49  69  92 123 153 188 235 280
#     4  10  20  34  46  60  89 127 168 198 221 257
#     4   9  19  30  45  68  94 124 150 182 237 294
#     4  11  22  29  44  64  90 128 169 198 217 250
#     4   8  14  28  49  74  96 112 144 194 241 284
#
# _framework density 16.981269000000001
#
# number of rings (size 3 to 8) (size 9 to 14) (size 15 to 20)
#    0.000    2.143    1.429    4.714    4.000    1.143 
#    0.000    0.000    0.000    0.000    0.000   17.000 
#    0.000    6.857    0.000    0.000    0.000    2.286 
#
# Total GULP energy -347036.948295 kJ/mol
# GULP energy per Si atom -12394.176725 kJ/mol
# Density = 1.694262 g / cm^3
# Si number density = 16.981269 Si / 1000 Ang^3
#
#
#
# Elastic Constant Matrix: (Units=GPa)
#
#
# Indices 1 2 3 4 5 6 
#
# 1 127.0951 14.6891 38.6668 0.0000 -3.4771 0.0000
# 2 14.6891 36.9971 1.3066 0.0000 -0.7987 0.0000
# 3 38.6668 1.3066 70.1687 0.0000 -6.3032 0.0000
# 4 0.0000 0.0000 0.0000 4.6570 0.0000 1.2266
# 5 -3.4771 -0.7987 -6.3032 0.0000 17.3465 0.0000
# 6 0.0000 0.0000 0.0000 1.2266 0.0000 18.2822
#
#
#
# Elastic Compliance Matrix: (Units=1/GPa)
#
#
# Indices 1 2 3 4 5 6 
#
# 1 0.009950 -0.003762 -0.005426 0.000000 -0.000151 0.000000
# 2 -0.003762 0.028490 0.001646 0.000000 0.001156 0.000000
# 3 -0.005426 0.001646 0.017698 0.000000 0.005419 0.000000
# 4 0.000000 0.000000 0.000000 0.218595 0.000000 -0.014666
# 5 -0.000151 0.001156 0.005419 0.000000 0.059641 0.000000
# 6 0.000000 0.000000 0.000000 -0.014666 0.000000 0.055682
#
#
# Mechanical properties :
#
#
# Convention : Reuss Voigt Hill
#
# Bulk Modulus (GPa) = 24.35863 38.17621 31.26742
# Shear Modulus (GPa) = 11.93823 20.03035 15.98429
#
# Velocity S-wave (km/s) = 2.65434 3.43819 3.07137
# Velocity P-wave (km/s) = 4.87540 6.18803 5.57051
#
# Compressibility (1/GPa) = 0.04105321
#
# Stress axis : x y z
#
# Youngs Moduli (GPa) = 100.50587 35.10051 56.50457
#
# Poissons Ratio (x) = 0.13205 0.30661
# Poissons Ratio (y) = 0.37810 -0.09303
# Poissons Ratio (z) = 0.54537 -0.05779
#
# Static dielectric constant tensor:
#      x y z
#    x 3.441570 0.000000 -0.011500 
#    y 0.000000 2.965950 0.000000 
#    z -0.011500 0.000000 3.050360 
# 
# 
# High freq. dielectric constant tensor:
#      x y z
#    x 1.668500 0.000000 -0.003750 
#    y 0.000000 1.638310 0.000000 
#    z -0.003750 0.000000 1.600250 
# 
# From -- ./inp_files/214253.got.cif
#   From: 2010.06.25/outbox.cif.g09.slc.cpg/sg12_108_cif.got.tgz:214253.got - 2010.06.28 00:19:55.
