data_PCOD8096448
_publ_section_title
;
Structure prediction by ZEFSAII (Michael W. Deem and Ramdas Pophale) SiO2 
 PCOD8096448
Probable space group: C 2/M
;
_chemical_formula_sum "Si O2"
_cell_formula_units_Z 56
_cell_length_a 27.552296
_cell_length_b 9.043441
_cell_length_c 11.937622
_cell_angle_alpha 90.000000
_cell_angle_beta 71.451210
_cell_angle_gamma 90.000000
_cell_volume 2819.953819
_symmetry_space_group_name_H-M "C 2/M"
_symmetry_group_IT_number 12
_symmetry_cell_setting 'monoclinic'
loop_
_space_group_symop_operation_xyz
x,y,z
-x,y,-z
-x,-y,-z
x,-y,z
1/2+x,1/2+y,z
1/2-x,1/2+y,-z
1/2-x,1/2-y,-z
1/2+x,1/2-y,z
loop_
_atom_site_type_symbol
_atom_site_label
_atom_site_fract_x
_atom_site_fract_y
_atom_site_fract_z
Si Si1 0.241452 0.833872 0.120346
Si Si2 0.505209 0.675092 0.867528
Si Si3 0.605917 0.173265 0.762519
Si Si4 0.342939 0.827427 0.680576
Si Si5 0.404806 0.326461 0.808739
Si Si6 0.145946 0.663643 0.966533
Si Si7 0.694688 0.827211 0.535744
O O1 0.207488 0.738990 0.227438
O O2 0.298102 0.841668 0.130928
O O3 0.218734 0.000000 0.121646
O O4 0.250000 0.750000 0.000000
O O5 0.510012 0.500000 0.862711
O O6 0.553982 0.742874 0.766519
O O7 0.456907 0.728835 0.828707
O O8 0.500000 0.731768 0.000000
O O9 0.609561 0.210283 0.891587
O O10 0.656114 0.232472 0.660104
O O11 0.599511 0.000000 0.742612
O O12 0.393777 0.750520 0.696544
O O13 0.337203 0.793808 0.553815
O O14 0.346014 0.000000 0.704206
O O15 0.404627 0.500000 0.790335
O O16 0.358657 0.278901 0.926942
O O17 0.131665 0.500000 0.023114
O O18 0.750000 0.750000 0.500000
O O19 0.706076 0.000000 0.540810
#
# Coordination Sequence:
#
# PCOD8096448 Si02
#       7
#     8   8   8   8   8   8   8
#     4  11  21  33  52  81 116 152 192 238 291 354
#     4  10  21  38  58  87 122 155 195 247 302 357
#     4  10  21  38  61  88 116 153 201 246 295 354
#     4  11  23  39  58  83 119 158 198 246 300 354
#     4  11  22  36  57  83 116 154 193 240 296 356
#     4  10  20  33  53  82 116 149 187 238 293 352
#     4  10  23  43  65  90 120 158 203 250 295 351
#
# _framework density 19.858481000000001
#
# number of rings (size 3 to 8) (size 9 to 14) (size 15 to 20)
#    0.000    1.571    2.857    2.143    0.000    4.857 
#    0.000    0.714    0.000    4.286    0.000    0.000 
#    0.000    0.000    0.000    0.000    0.000    0.000 
#
# Total GULP energy -347093.873464 kJ/mol
# GULP energy per Si atom -12396.209767 kJ/mol
# Density = 1.981328 g / cm^3
# Si number density = 19.858481 Si / 1000 Ang^3
#
#
#
# Elastic Constant Matrix: (Units=GPa)
#
#
# Indices 1 2 3 4 5 6 
#
# 1 120.6929 40.5383 34.9458 0.0000 4.0040 0.0000
# 2 40.5383 74.3610 36.5985 0.0000 12.3365 0.0000
# 3 34.9458 36.5985 71.0249 0.0000 0.0156 0.0000
# 4 0.0000 0.0000 0.0000 25.5548 0.0000 -1.7301
# 5 4.0040 12.3365 0.0156 0.0000 32.8048 0.0000
# 6 0.0000 0.0000 0.0000 -1.7301 0.0000 35.1294
#
#
#
# Elastic Compliance Matrix: (Units=1/GPa)
#
#
# Indices 1 2 3 4 5 6 
#
# 1 0.010602 -0.004383 -0.002958 0.000000 0.000356 0.000000
# 2 -0.004383 0.021470 -0.008905 0.000000 -0.007535 0.000000
# 3 -0.002958 -0.008905 0.020123 0.000000 0.003700 0.000000
# 4 0.000000 0.000000 0.000000 0.039262 0.000000 0.001934
# 5 0.000356 -0.007535 0.003700 0.000000 0.033272 0.000000
# 6 0.000000 0.000000 0.000000 0.001934 0.000000 0.028561
#
#
# Mechanical properties :
#
#
# Convention : Reuss Voigt Hill
#
# Bulk Modulus (GPa) = 50.75404 54.47154 52.61279
# Shear Modulus (GPa) = 25.99404 28.96422 27.47913
#
# Velocity S-wave (km/s) = 3.62189 3.82322 3.72391
# Velocity P-wave (km/s) = 6.56537 6.85410 6.71129
#
# Compressibility (1/GPa) = 0.01970286
#
# Stress axis : x y z
#
# Youngs Moduli (GPa) = 94.31854 46.57595 49.69427
#
# Poissons Ratio (x) = 0.20414 0.14700
# Poissons Ratio (y) = 0.41340 0.44254
# Poissons Ratio (z) = 0.27901 0.41477
#
# Static dielectric constant tensor:
#      x y z
#    x 3.973890 0.000000 0.102700 
#    y 0.000000 3.506980 0.000000 
#    z 0.102700 0.000000 3.438710 
# 
# 
# High freq. dielectric constant tensor:
#      x y z
#    x 1.789550 0.000000 0.009750 
#    y 0.000000 1.772160 0.000000 
#    z 0.009750 0.000000 1.752630 
# 
# From -- ./inp_files/186442.got.cif
#   From: 2010.06.25/outbox.cif.g09.slc.cpg/sg12_94_cif.got.tgz:186442.got - 2010.06.28 00:19:55.
