data_PCOD8096668
_publ_section_title
;
Structure prediction by ZEFSAII (Michael W. Deem and Ramdas Pophale) SiO2 
 PCOD8096668
Probable space group: C 2/M
;
_chemical_formula_sum "Si O2"
_cell_formula_units_Z 48
_cell_length_a 16.782542
_cell_length_b 14.647046
_cell_length_c 17.721553
_cell_angle_alpha 90.000000
_cell_angle_beta 32.390876
_cell_angle_gamma 90.000000
_cell_volume 2333.592379
_symmetry_space_group_name_H-M "C 2/M"
_symmetry_group_IT_number 12
_symmetry_cell_setting 'monoclinic'
loop_
_space_group_symop_operation_xyz
x,y,z
-x,y,-z
-x,-y,-z
x,-y,z
1/2+x,1/2+y,z
1/2-x,1/2+y,-z
1/2-x,1/2-y,-z
1/2+x,1/2-y,z
loop_
_atom_site_type_symbol
_atom_site_label
_atom_site_fract_x
_atom_site_fract_y
_atom_site_fract_z
Si Si1 0.552589 0.105104 0.250034
Si Si2 0.344232 0.335347 0.949510
Si Si3 0.561613 0.770322 0.535703
Si Si4 0.930810 0.101149 0.720185
Si Si5 0.849766 0.603774 0.155632
Si Si6 0.382275 0.228629 0.263596
O O1 0.525332 0.145987 0.355201
O O2 0.457319 0.167759 0.269143
O O3 0.498998 0.000000 0.288835
O O4 0.731686 0.105751 0.091084
O O5 0.405766 0.391930 0.829374
O O6 0.493484 0.297186 0.871205
O O7 0.250000 0.250000 0.000000
O O8 0.500000 0.762173 0.500000
O O9 0.540894 0.676002 0.598594
O O10 0.738852 0.788519 0.402486
O O11 0.771314 0.116797 0.811210
O O12 0.993407 0.000000 0.651283
O O13 0.868302 0.500000 0.167755
O O14 0.809825 0.662432 0.259983
O O15 0.000000 0.641938 0.000000
#
# Coordination Sequence:
#
# PCOD8096668 Si02
#       6
#     8   8   8   8   8   8
#     4  11  24  43  67  92 123 164 213 262 305 362
#     4  10  20  39  65  89 120 161 208 258 308 356
#     4  12  25  43  62  91 131 172 206 249 309 374
#     4  11  22  38  61  92 130 163 199 254 315 376
#     4  10  20  33  57  93 126 161 203 250 313 376
#     4  11  22  38  64  92 128 162 205 253 312 369
#
# _framework density 20.569144999999999
#
# number of rings (size 3 to 8) (size 9 to 14) (size 15 to 20)
#    0.000    1.167    5.000    3.500    0.000    3.333 
#    0.000    0.833    0.000    1.000    0.000    0.000 
#    0.000    0.000    0.000    0.000    0.000    0.000 
#
# Total GULP energy -297475.352001 kJ/mol
# GULP energy per Si atom -12394.806333 kJ/mol
# Density = 2.052233 g / cm^3
# Si number density = 20.569145 Si / 1000 Ang^3
#
#
#
# Elastic Constant Matrix: (Units=GPa)
#
#
# Indices 1 2 3 4 5 6 
#
# 1 65.4604 31.6045 39.4760 -0.0023 -4.8534 0.0009
# 2 31.6045 79.4281 33.6617 -0.0025 -2.2503 0.0018
# 3 39.4760 33.6617 119.9532 -0.0044 -10.1991 0.0028
# 4 -0.0023 -0.0025 -0.0044 18.7611 0.0022 0.6196
# 5 -4.8534 -2.2503 -10.1991 0.0022 36.3683 -0.0012
# 6 0.0009 0.0018 0.0028 0.6196 -0.0012 21.3175
#
#
#
# Elastic Compliance Matrix: (Units=1/GPa)
#
#
# Indices 1 2 3 4 5 6 
#
# 1 0.021566 -0.006335 -0.005233 0.000000 0.001018 0.000000
# 2 -0.006335 0.016152 -0.002494 0.000001 -0.000545 -0.000001
# 3 -0.005233 -0.002494 0.010947 0.000001 0.002217 -0.000001
# 4 0.000000 0.000001 0.000001 0.053353 -0.000003 -0.001551
# 5 0.001018 -0.000545 0.002217 -0.000003 0.028221 0.000001
# 6 0.000000 -0.000001 -0.000001 -0.001551 0.000001 0.046955
#
#
# Mechanical properties :
#
#
# Convention : Reuss Voigt Hill
#
# Bulk Modulus (GPa) = 48.68180 52.70288 50.69234
# Shear Modulus (GPa) = 23.56654 25.96266 24.76460
#
# Velocity S-wave (km/s) = 3.38853 3.55662 3.47359
# Velocity P-wave (km/s) = 6.24726 6.52257 6.38640
#
# Compressibility (1/GPa) = 0.02054156
#
# Stress axis : x y z
#
# Youngs Moduli (GPa) = 46.36917 61.91114 91.34690
#
# Poissons Ratio (x) = 0.39218 0.47802
# Poissons Ratio (y) = 0.29373 0.22786
# Poissons Ratio (z) = 0.24265 0.15443
#
# Static dielectric constant tensor:
#      x y z
#    x 3.630570 0.000000 0.020760 
#    y 0.000000 4.240650 0.000020 
#    z 0.020760 0.000020 4.367020 
# 
# 
# High freq. dielectric constant tensor:
#      x y z
#    x 1.786560 0.000000 -0.007050 
#    y 0.000000 1.791400 0.000000 
#    z -0.007050 0.000000 1.817030 
# 
# From -- ./inp_files/105027.got.cif
#   From: 2010.06.25/outbox.cif.g09.slc.cpg/sg12_53_cif.got.tgz:105027.got - 2010.06.28 00:19:55.
