data_PCOD8096073
_publ_section_title
;
Structure prediction by ZEFSAII (Michael W. Deem and Ramdas Pophale) SiO2 
 PCOD8096073
Probable space group: C 2/M
;
_chemical_formula_sum "Si O2"
_cell_formula_units_Z 40
_cell_length_a 24.827411
_cell_length_b 9.226176
_cell_length_c 9.426777
_cell_angle_alpha 90.000000
_cell_angle_beta 87.195739
_cell_angle_gamma 90.000000
_cell_volume 2156.731213
_symmetry_space_group_name_H-M "C 2/M"
_symmetry_group_IT_number 12
_symmetry_cell_setting 'monoclinic'
loop_
_space_group_symop_operation_xyz
x,y,z
-x,y,-z
-x,-y,-z
x,-y,z
1/2+x,1/2+y,z
1/2-x,1/2+y,-z
1/2-x,1/2-y,-z
1/2+x,1/2-y,z
loop_
_atom_site_type_symbol
_atom_site_label
_atom_site_fract_x
_atom_site_fract_y
_atom_site_fract_z
Si Si1 0.370103 0.671323 0.385757
Si Si2 0.653823 0.335395 0.288615
Si Si3 0.073525 0.668485 0.109120
Si Si4 0.954899 0.669814 0.202653
Si Si5 0.231393 0.668429 0.641486
O O1 0.365926 0.500000 0.361834
O O2 0.363377 0.714293 0.551222
O O3 0.427324 0.732475 0.326560
O O4 0.323133 0.751645 0.299070
O O5 0.635909 0.500000 0.269790
O O6 0.624248 0.244183 0.173344
O O7 0.718457 0.317630 0.255765
O O8 0.084781 0.500000 0.115227
O O9 0.018401 0.705986 0.199225
O O10 0.068855 0.716588 0.946519
O O11 0.944775 0.500000 0.233067
O O12 0.219254 0.500000 0.610634
O O13 0.250000 0.750000 0.500000
#
# Coordination Sequence:
#
# PCOD8096073 Si02
#       5
#     8   8   8   8   8
#     4  10  20  33  51  77 103 131 167 206 246 293
#     4   9  19  33  50  75 104 129 161 204 247 291
#     4   9  19  35  54  73  97 131 169 205 248 298
#     4   9  19  36  53  72  99 131 167 208 249 294
#     4   9  17  31  50  73 102 134 164 201 247 294
#
# _framework density 18.546585
#
# number of rings (size 3 to 8) (size 9 to 14) (size 15 to 20)
#    0.000    2.800    0.000    3.600    0.000    7.200 
#    0.000    7.000    0.000    0.000    0.000    0.000 
#    0.000    0.000    0.000    0.000    0.000    0.000 
#
# Total GULP energy -247909.828723 kJ/mol
# GULP energy per Si atom -12395.491436 kJ/mol
# Density = 1.850437 g / cm^3
# Si number density = 18.546585 Si / 1000 Ang^3
#
#
#
# Elastic Constant Matrix: (Units=GPa)
#
#
# Indices 1 2 3 4 5 6 
#
# 1 41.7959 16.5022 -0.5086 0.0000 15.6948 0.0000
# 2 16.5022 62.4991 8.3193 0.0000 9.2420 0.0000
# 3 -0.5086 8.3193 21.9351 0.0000 10.4988 0.0000
# 4 0.0000 0.0000 0.0000 29.3157 0.0000 2.9407
# 5 15.6948 9.2420 10.4988 0.0000 30.0725 0.0000
# 6 0.0000 0.0000 0.0000 2.9407 0.0000 34.6513
#
#
#
# Elastic Compliance Matrix: (Units=1/GPa)
#
#
# Indices 1 2 3 4 5 6 
#
# 1 0.034986 -0.008018 0.013702 0.000000 -0.020578 0.000000
# 2 -0.008018 0.019008 -0.007927 0.000000 0.001110 0.000000
# 3 0.013702 -0.007927 0.061435 0.000000 -0.026163 0.000000
# 4 0.000000 0.000000 0.000000 0.034404 0.000000 -0.002920
# 5 -0.020578 0.001110 -0.026163 0.000000 0.052786 0.000000
# 6 0.000000 0.000000 0.000000 -0.002920 0.000000 0.029107
#
#
# Mechanical properties :
#
#
# Convention : Reuss Voigt Hill
#
# Bulk Modulus (GPa) = 9.01365 19.42843 14.22104
# Shear Modulus (GPa) = 18.30202 25.60238 21.95220
#
# Velocity S-wave (km/s) = 3.14477 3.71945 3.44412
# Velocity P-wave (km/s) = 4.24931 5.37996 4.84771
#
# Compressibility (1/GPa) = 0.11094280
#
# Stress axis : x y z
#
# Youngs Moduli (GPa) = 28.58297 52.60849 16.27727
#
# Poissons Ratio (x) = 0.42184 -0.22303
# Poissons Ratio (y) = 0.22919 0.12903
# Poissons Ratio (z) = -0.39164 0.41701
#
# Static dielectric constant tensor:
#      x y z
#    x 3.904860 0.000000 -0.016180 
#    y 0.000000 3.386470 0.000000 
#    z -0.016180 0.000000 3.103600 
# 
# 
# High freq. dielectric constant tensor:
#      x y z
#    x 1.730780 0.000000 0.002000 
#    y 0.000000 1.722500 0.000000 
#    z 0.002000 0.000000 1.684460 
# 
# From -- ./inp_files/92921.got.cif
#   From: 2010.06.25/outbox.cif.g09.slc.cpg/sg12_47_cif.got.tgz:92921.got - 2010.06.28 00:19:55.
