data_PCOD8097876
_publ_section_title
;
Structure prediction by ZEFSAII (Michael W. Deem and Ramdas Pophale) SiO2 
 PCOD8097876
Probable space group: C 2/M
;
_chemical_formula_sum "Si O2"
_cell_formula_units_Z 64
_cell_length_a 15.232972
_cell_length_b 8.860607
_cell_length_c 33.014075
_cell_angle_alpha 90.000000
_cell_angle_beta 133.353983
_cell_angle_gamma 90.000000
_cell_volume 3240.090098
_symmetry_space_group_name_H-M "C 2/M"
_symmetry_group_IT_number 12
_symmetry_cell_setting 'monoclinic'
loop_
_space_group_symop_operation_xyz
x,y,z
-x,y,-z
-x,-y,-z
x,-y,z
1/2+x,1/2+y,z
1/2-x,1/2+y,-z
1/2-x,1/2-y,-z
1/2+x,1/2-y,z
loop_
_atom_site_type_symbol
_atom_site_label
_atom_site_fract_x
_atom_site_fract_y
_atom_site_fract_z
Si Si1 0.888151 0.834258 0.494346
Si Si2 0.030739 0.821573 0.692942
Si Si3 0.593993 0.824815 0.994124
Si Si4 0.685122 0.822060 0.893288
Si Si5 0.719407 0.175744 0.811725
Si Si6 0.071588 0.179491 0.615900
Si Si7 0.259527 0.677359 0.616216
Si Si8 0.992879 0.822915 0.882545
O O1 0.790241 0.721909 0.444116
O O2 0.000000 0.849519 0.500000
O O3 0.944343 0.771627 0.554343
O O4 0.828918 0.000000 0.481605
O O5 0.123154 0.766158 0.755558
O O6 0.068558 0.758714 0.660749
O O7 0.897224 0.765811 0.662679
O O8 0.033174 0.000000 0.692088
O O9 0.552293 0.726745 0.943243
O O10 0.602336 0.000000 0.984382
O O11 0.500000 0.796844 0.000000
O O12 0.724254 0.766797 0.048836
O O13 0.708195 0.772695 0.854614
O O14 0.551255 0.769545 0.863837
O O15 0.702380 0.000000 0.904611
O O16 0.851811 0.217397 0.837727
O O17 0.691450 0.000000 0.798470
O O18 0.187279 0.247954 0.630104
O O19 0.083938 0.000000 0.617307
O O20 0.248247 0.500000 0.617241
O O21 0.014251 0.000000 0.883338
#
# Coordination Sequence:
#
# PCOD8097876 Si02
#       8
#     8   8   8   8   8   8   8   8
#     4   8  15  30  53  79 110 147 183 221 274 341
#     4  10  23  40  58  80 111 149 190 236 284 337
#     4  11  22  37  62  94 124 156 192 232 283 342
#     4  11  23  41  63  89 120 155 193 235 287 343
#     4  10  24  43  61  82 113 151 194 241 286 335
#     4   9  19  37  57  79 110 150 188 224 277 343
#     4  10  20  34  54  84 115 143 181 233 286 332
#     4  11  23  41  63  89 120 154 192 238 289 339
#
# _framework density 19.752538000000001
#
# number of rings (size 3 to 8) (size 9 to 14) (size 15 to 20)
#    0.000    2.000    1.250    2.625    0.000    7.750 
#    0.000    5.000    0.000    0.000    0.000    0.000 
#    0.000    0.000    0.000    0.000    0.000    0.000 
#
# Total GULP energy -396833.335814 kJ/mol
# GULP energy per Si atom -12401.041744 kJ/mol
# Density = 1.970758 g / cm^3
# Si number density = 19.752538 Si / 1000 Ang^3
#
#
#
# Elastic Constant Matrix: (Units=GPa)
#
#
# Indices 1 2 3 4 5 6 
#
# 1 87.9722 35.3662 28.9905 0.0000 17.7248 0.0000
# 2 35.3662 40.0887 25.5645 0.0000 2.3443 0.0000
# 3 28.9905 25.5645 94.2631 0.0000 18.2390 0.0000
# 4 0.0000 0.0000 0.0000 34.3112 0.0000 3.6144
# 5 17.7248 2.3443 18.2390 0.0000 21.6167 0.0000
# 6 0.0000 0.0000 0.0000 3.6144 0.0000 23.5088
#
#
#
# Elastic Compliance Matrix: (Units=1/GPa)
#
#
# Indices 1 2 3 4 5 6 
#
# 1 0.022298 -0.019894 0.001981 0.000000 -0.017798 0.000000
# 2 -0.019894 0.048254 -0.010890 0.000000 0.020267 0.000000
# 3 0.001981 -0.010890 0.015582 0.000000 -0.013591 0.000000
# 4 0.000000 0.000000 0.000000 0.029625 0.000000 -0.004555
# 5 -0.017798 0.020267 -0.013591 0.000000 0.070123 0.000000
# 6 0.000000 0.000000 0.000000 -0.004555 0.000000 0.043237
#
#
# Mechanical properties :
#
#
# Convention : Reuss Voigt Hill
#
# Bulk Modulus (GPa) = 35.05141 44.68513 39.86827
# Shear Modulus (GPa) = 16.87849 24.71420 20.79635
#
# Velocity S-wave (km/s) = 2.92635 3.54106 3.24828
# Velocity P-wave (km/s) = 5.40387 6.27617 5.85629
#
# Compressibility (1/GPa) = 0.02852953
#
# Stress axis : x y z
#
# Youngs Moduli (GPa) = 44.84743 20.72351 64.17484
#
# Poissons Ratio (x) = 0.41227 -0.12715
# Poissons Ratio (y) = 0.89219 0.69886
# Poissons Ratio (z) = -0.08885 0.22568
#
# Static dielectric constant tensor:
#      x y z
#    x 3.780720 0.000000 -0.050470 
#    y 0.000000 3.522380 0.000000 
#    z -0.050470 0.000000 3.713140 
# 
# 
# High freq. dielectric constant tensor:
#      x y z
#    x 1.777300 0.000000 -0.000980 
#    y 0.000000 1.766710 0.000000 
#    z -0.000980 0.000000 1.768460 
# 
# From -- ./inp_files/375649.got.cif
#   From: 2010.06.25/outbox.cif.g09.slc.cpg/sg12_188_cif.got.tgz:375649.got - 2010.06.28 00:19:55.
