data_PCOD8097084
_publ_section_title
;
Structure prediction by ZEFSAII (Michael W. Deem and Ramdas Pophale) SiO2 
 PCOD8097084
Probable space group: C 2/M
;
_chemical_formula_sum "Si O2"
_cell_formula_units_Z 52
_cell_length_a 14.108994
_cell_length_b 18.304000
_cell_length_c 22.005157
_cell_angle_alpha 90.000000
_cell_angle_beta 149.463994
_cell_angle_gamma 90.000000
_cell_volume 2887.343120
_symmetry_space_group_name_H-M "C 2/M"
_symmetry_group_IT_number 12
_symmetry_cell_setting 'monoclinic'
loop_
_space_group_symop_operation_xyz
x,y,z
-x,y,-z
-x,-y,-z
x,-y,z
1/2+x,1/2+y,z
1/2-x,1/2+y,-z
1/2-x,1/2-y,-z
1/2+x,1/2-y,z
loop_
_atom_site_type_symbol
_atom_site_label
_atom_site_fract_x
_atom_site_fract_y
_atom_site_fract_z
Si Si1 0.011441 0.158114 0.777121
Si Si2 0.218539 0.294598 0.856277
Si Si3 0.862619 0.282319 0.480776
Si Si4 0.844474 0.500000 0.550507
Si Si5 0.960591 0.151551 0.888347
Si Si6 0.859252 0.652459 0.603774
Si Si7 0.076768 0.000000 0.286942
Si Si8 0.783575 0.000000 0.768981
O O1 0.831332 0.177555 0.638487
O O2 0.961833 0.174424 0.819356
O O3 0.185580 0.209265 0.855025
O O4 0.055032 0.072492 0.787062
O O5 0.327828 0.293778 0.852642
O O6 0.021690 0.336633 0.742912
O O7 0.331291 0.339205 0.969880
O O8 0.945450 0.322443 0.585872
O O9 0.822752 0.198197 0.476290
O O10 0.000000 0.289369 0.500000
O O11 0.792721 0.569302 0.563232
O O12 0.723071 0.500000 0.422504
O O13 0.064479 0.500000 0.659749
O O14 0.884682 0.069433 0.855226
O O15 0.200000 0.000000 0.294390
#
# Coordination Sequence:
#
# PCOD8097084 Si02
#       8
#     8   8   8   4   8   8   4   4
#     4  10  20  35  53  78 105 136 177 218 262 308
#     4  10  20  34  52  75 109 141 172 213 257 313
#     4  10  20  34  53  74 107 139 178 218 257 309
#     4  12  19  33  51  78 113 138 167 217 267 321
#     4  10  20  34  53  80 104 140 175 210 264 311
#     4  10  21  33  50  80 104 142 174 210 266 310
#     4  10  21  32  51  80 105 139 171 217 272 307
#     4  10  21  32  52  80 113 132 173 215 267 323
#
# _framework density 18.009636
#
# number of rings (size 3 to 8) (size 9 to 14) (size 15 to 20)
#    0.000    1.846    3.077    1.615    2.154    1.846 
#    0.000    0.385    0.000    1.846    0.000    2.154 
#    0.000    0.000    0.000    0.000    0.000    0.000 
#
# Total GULP energy -322343.039086 kJ/mol
# GULP energy per Si atom -12397.809196 kJ/mol
# Density = 1.796865 g / cm^3
# Si number density = 18.009636 Si / 1000 Ang^3
#
#
#
# Elastic Constant Matrix: (Units=GPa)
#
#
# Indices 1 2 3 4 5 6 
#
# 1 49.5163 35.4739 -2.5466 0.0005 -0.3909 0.0001
# 2 35.4739 139.8552 22.4121 0.0028 -2.9847 0.0006
# 3 -2.5466 22.4121 64.5078 0.0041 -10.7490 0.0011
# 4 0.0005 0.0028 0.0041 21.5783 0.0014 0.1539
# 5 -0.3909 -2.9847 -10.7490 0.0014 19.4978 0.0000
# 6 0.0001 0.0006 0.0011 0.1539 0.0000 26.6724
#
#
#
# Elastic Compliance Matrix: (Units=1/GPa)
#
#
# Indices 1 2 3 4 5 6 
#
# 1 0.025415 -0.007005 0.003681 0.000000 0.001467 0.000000
# 2 -0.007005 0.009504 -0.003699 0.000000 -0.000725 0.000000
# 3 0.003681 -0.003699 0.018555 -0.000004 0.009737 -0.000001
# 4 0.000000 0.000000 -0.000004 0.046345 -0.000005 -0.000267
# 5 0.001467 -0.000725 0.009737 -0.000005 0.056574 0.000000
# 6 0.000000 0.000000 -0.000001 -0.000267 0.000000 0.037493
#
#
# Mechanical properties :
#
#
# Convention : Reuss Voigt Hill
#
# Bulk Modulus (GPa) = 25.36255 40.50647 32.93451
# Shear Modulus (GPa) = 22.61670 26.78569 24.70119
#
# Velocity S-wave (km/s) = 3.54759 3.86073 3.70747
# Velocity P-wave (km/s) = 5.55822 6.51261 6.05425
#
# Compressibility (1/GPa) = 0.03942821
#
# Stress axis : x y z
#
# Youngs Moduli (GPa) = 39.34715 105.21390 53.89352
#
# Poissons Ratio (x) = 0.73703 -0.19841
# Poissons Ratio (y) = 0.27563 0.19938
# Poissons Ratio (z) = -0.14486 0.38924
#
# Static dielectric constant tensor:
#      x y z
#    x 3.154880 0.000000 -0.187340 
#    y 0.000000 3.632840 -0.000010 
#    z -0.187340 -0.000010 3.378640 
# 
# 
# High freq. dielectric constant tensor:
#      x y z
#    x 1.672180 0.000000 -0.023360 
#    y 0.000000 1.701030 0.000000 
#    z -0.023360 0.000000 1.699850 
# 
# From -- ./inp_files/168734.got.cif
#   From: 2010.06.25/outbox.cif.g09.slc.cpg/sg12_85_cif.got.tgz:168734.got - 2010.06.28 00:19:55.
