data_PCOD8097134
_publ_section_title
;
Structure prediction by ZEFSAII (Michael W. Deem and Ramdas Pophale) SiO2 
 PCOD8097134
Probable space group: C 2/M
;
_chemical_formula_sum "Si O2"
_cell_formula_units_Z 56
_cell_length_a 30.090270
_cell_length_b 8.943447
_cell_length_c 10.330784
_cell_angle_alpha 90.000000
_cell_angle_beta 114.334324
_cell_angle_gamma 90.000000
_cell_volume 2533.129097
_symmetry_space_group_name_H-M "C 2/M"
_symmetry_group_IT_number 12
_symmetry_cell_setting 'monoclinic'
loop_
_space_group_symop_operation_xyz
x,y,z
-x,y,-z
-x,-y,-z
x,-y,z
1/2+x,1/2+y,z
1/2-x,1/2+y,-z
1/2-x,1/2-y,-z
1/2+x,1/2-y,z
loop_
_atom_site_type_symbol
_atom_site_label
_atom_site_fract_x
_atom_site_fract_y
_atom_site_fract_z
Si Si1 0.836254 0.836153 0.208249
Si Si2 0.205880 0.666904 0.511845
Si Si3 0.858121 0.165068 0.951751
Si Si4 0.987267 0.322319 0.631659
Si Si5 0.247282 0.832071 0.158212
Si Si6 0.114701 0.822542 0.477458
Si Si7 0.536738 0.320927 0.930968
O O1 0.868204 0.840491 0.117922
O O2 0.783817 0.759072 0.106135
O O3 0.869710 0.765330 0.360427
O O4 0.822285 0.000000 0.243774
O O5 0.199584 0.500000 0.447104
O O6 0.250000 0.750000 0.500000
O O7 0.217583 0.659542 0.676891
O O8 0.156198 0.761318 0.428395
O O9 0.908589 0.235100 0.957817
O O10 0.852727 0.000000 0.884561
O O11 0.805202 0.245955 0.866378
O O12 0.986448 0.500000 0.640222
O O13 0.935795 0.255996 0.615235
O O14 0.000000 0.270717 0.500000
O O15 0.025529 0.257137 0.780720
O O16 0.236304 0.000000 0.090343
O O17 0.108651 0.000000 0.454415
O O18 0.536169 0.500000 0.911407
O O19 0.500000 0.269954 0.000000
#
# Coordination Sequence:
#
# PCOD8097134 Si02
#       7
#     8   8   8   8   8   8   8
#     4   9  17  30  51  79 109 138 173 221 275 335
#     4  10  20  34  52  77 110 147 187 230 280 342
#     4   9  17  32  53  77 106 140 178 222 274 334
#     4  11  24  41  62  89 120 155 199 253 310 365
#     4   9  18  31  49  74 106 140 174 218 271 331
#     4  10  20  35  57  83 111 146 189 240 296 351
#     4  10  22  40  62  87 116 154 200 247 296 355
#
# _framework density 22.107043999999998
#
# number of rings (size 3 to 8) (size 9 to 14) (size 15 to 20)
#    0.000    2.286    0.000    2.571    0.000    4.857 
#    0.000    4.286    0.000    0.000    0.000    0.000 
#    0.000    0.000    0.000    0.000    0.000    0.000 
#
# Total GULP energy -346892.069114 kJ/mol
# GULP energy per Si atom -12389.002468 kJ/mol
# Density = 2.205673 g / cm^3
# Si number density = 22.107044 Si / 1000 Ang^3
#
#
#
# Elastic Constant Matrix: (Units=GPa)
#
#
# Indices 1 2 3 4 5 6 
#
# 1 150.8738 36.3204 9.7103 0.0000 24.1684 0.0000
# 2 36.3204 68.6465 12.4014 0.0000 5.1911 0.0000
# 3 9.7103 12.4014 36.2661 0.0000 17.2761 0.0000
# 4 0.0000 0.0000 0.0000 23.4441 0.0000 2.0187
# 5 24.1684 5.1911 17.2761 0.0000 37.0843 0.0000
# 6 0.0000 0.0000 0.0000 2.0187 0.0000 32.0058
#
#
#
# Elastic Compliance Matrix: (Units=1/GPa)
#
#
# Indices 1 2 3 4 5 6 
#
# 1 0.008502 -0.004421 0.002031 0.000000 -0.005868 0.000000
# 2 -0.004421 0.017830 -0.006551 0.000000 0.003437 0.000000
# 3 0.002031 -0.006551 0.037868 0.000000 -0.018047 0.000000
# 4 0.000000 0.000000 0.000000 0.042888 0.000000 -0.002705
# 5 -0.005868 0.003437 -0.018047 0.000000 0.038716 0.000000
# 6 0.000000 0.000000 0.000000 -0.002705 0.000000 0.031415
#
#
# Mechanical properties :
#
#
# Convention : Reuss Voigt Hill
#
# Bulk Modulus (GPa) = 21.59036 41.40563 31.49799
# Shear Modulus (GPa) = 23.74852 31.66380 27.70616
#
# Velocity S-wave (km/s) = 3.28113 3.78867 3.54400
# Velocity P-wave (km/s) = 4.91344 6.15703 5.57005
#
# Compressibility (1/GPa) = 0.04631697
#
# Stress axis : x y z
#
# Youngs Moduli (GPa) = 117.62380 56.08470 26.40786
#
# Poissons Ratio (x) = 0.24797 -0.05363
# Poissons Ratio (y) = 0.52005 0.17299
# Poissons Ratio (z) = -0.23887 0.36739
#
# Static dielectric constant tensor:
#      x y z
#    x 4.134640 0.000000 0.113140 
#    y 0.000000 3.902080 0.000000 
#    z 0.113140 0.000000 4.024470 
# 
# 
# High freq. dielectric constant tensor:
#      x y z
#    x 1.884360 0.000000 0.014610 
#    y 0.000000 1.837480 0.000000 
#    z 0.014610 0.000000 1.868950 
# 
# From -- ./inp_files/187754.got.cif
#   From: 2010.06.25/outbox.cif.g09.slc.cpg/sg12_94_cif.got.tgz:187754.got - 2010.06.28 00:19:55.
