data_PCOD8097218
_publ_section_title
;
Structure prediction by ZEFSAII (Michael W. Deem and Ramdas Pophale) SiO2 
 PCOD8097218
Probable space group: C 2/M
;
_chemical_formula_sum "Si O2"
_cell_formula_units_Z 64
_cell_length_a 16.145664
_cell_length_b 8.932327
_cell_length_c 22.007124
_cell_angle_alpha 90.000000
_cell_angle_beta 88.832867
_cell_angle_gamma 90.000000
_cell_volume 3173.172655
_symmetry_space_group_name_H-M "C 2/M"
_symmetry_group_IT_number 12
_symmetry_cell_setting 'monoclinic'
loop_
_space_group_symop_operation_xyz
x,y,z
-x,y,-z
-x,-y,-z
x,-y,z
1/2+x,1/2+y,z
1/2-x,1/2+y,-z
1/2-x,1/2-y,-z
1/2+x,1/2-y,z
loop_
_atom_site_type_symbol
_atom_site_label
_atom_site_fract_x
_atom_site_fract_y
_atom_site_fract_z
Si Si1 0.159604 0.677896 0.621039
Si Si2 0.343896 0.677079 0.623764
Si Si3 0.336121 0.322109 0.141245
Si Si4 0.077445 0.827482 0.254184
Si Si5 0.410065 0.176963 0.251559
Si Si6 0.096380 0.334736 0.495155
Si Si7 0.333014 0.672192 0.867612
Si Si8 0.499277 0.677802 0.931066
O O1 0.156786 0.500000 0.617256
O O2 0.251449 0.740640 0.629513
O O3 0.104954 0.731720 0.678900
O O4 0.126890 0.742474 0.557376
O O5 0.342959 0.500000 0.626060
O O6 0.393744 0.737791 0.681286
O O7 0.384000 0.727954 0.560780
O O8 0.332803 0.500000 0.143615
O O9 0.343275 0.255042 0.208832
O O10 0.249978 0.263180 0.113116
O O11 0.416238 0.263875 0.102137
O O12 0.151802 0.812172 0.204914
O O13 0.001331 0.729221 0.231261
O O14 0.048446 0.000000 0.258968
O O15 0.399924 0.000000 0.244881
O O16 0.137027 0.500000 0.485131
O O17 0.000000 0.355340 0.500000
O O18 0.318424 0.500000 0.886422
O O19 0.414613 0.737183 0.900803
O O20 0.498972 0.500000 0.927147
O O21 0.500000 0.736138 0.000000
#
# Coordination Sequence:
#
# PCOD8097218 Si02
#       8
#     8   8   8   8   8   8   8   8
#     4   9  19  35  53  75 104 142 182 228 284 347
#     4  10  20  34  53  75 104 140 183 228 280 343
#     4  11  22  38  60  90 124 156 197 247 295 343
#     4  10  20  36  56  81 114 152 191 239 294 346
#     4  11  21  36  60  85 112 149 194 237 290 351
#     4  10  20  35  53  73 102 137 178 228 284 338
#     4  10  20  38  62  87 120 162 202 239 293 353
#     4   9  19  38  63  88 120 163 202 237 288 352
#
# _framework density 20.169087999999999
#
# number of rings (size 3 to 8) (size 9 to 14) (size 15 to 20)
#    0.000    2.000    1.250    2.625    0.000    4.750 
#    0.000    3.750    0.000    2.625    0.000    0.000 
#    0.000    0.000    0.000    0.000    0.000    0.000 
#
# Total GULP energy -396763.453255 kJ/mol
# GULP energy per Si atom -12398.857914 kJ/mol
# Density = 2.012318 g / cm^3
# Si number density = 20.169088 Si / 1000 Ang^3
#
#
#
# Elastic Constant Matrix: (Units=GPa)
#
#
# Indices 1 2 3 4 5 6 
#
# 1 143.0096 35.7034 50.9847 0.0000 9.6574 0.0000
# 2 35.7034 41.3942 23.2373 0.0000 3.0390 0.0000
# 3 50.9847 23.2373 126.1790 0.0000 10.0122 0.0000
# 4 0.0000 0.0000 0.0000 21.7218 0.0000 -1.4200
# 5 9.6574 3.0390 10.0122 0.0000 28.5427 0.0000
# 6 0.0000 0.0000 0.0000 -1.4200 0.0000 37.2704
#
#
#
# Elastic Compliance Matrix: (Units=1/GPa)
#
#
# Indices 1 2 3 4 5 6 
#
# 1 0.009715 -0.006834 -0.002534 0.000000 -0.001670 0.000000
# 2 -0.006834 0.031788 -0.003094 0.000000 0.000013 0.000000
# 3 -0.002534 -0.003094 0.009695 0.000000 -0.002214 0.000000
# 4 0.000000 0.000000 0.000000 0.046152 0.000000 0.001758
# 5 -0.001670 0.000013 -0.002214 0.000000 0.036376 0.000000
# 6 0.000000 0.000000 0.000000 0.001758 0.000000 0.026898
#
#
# Mechanical properties :
#
#
# Convention : Reuss Voigt Hill
#
# Bulk Modulus (GPa) = 38.06109 58.93707 48.49908
# Shear Modulus (GPa) = 25.73265 30.88415 28.30840
#
# Velocity S-wave (km/s) = 3.57577 3.91738 3.75047
# Velocity P-wave (km/s) = 5.99668 7.05309 6.54623
#
# Compressibility (1/GPa) = 0.02627355
#
# Stress axis : x y z
#
# Youngs Moduli (GPa) = 102.93289 31.45809 103.14878
#
# Poissons Ratio (x) = 0.21499 0.26142
# Poissons Ratio (y) = 0.70345 0.31912
# Poissons Ratio (z) = 0.26087 0.09732
#
# Static dielectric constant tensor:
#      x y z
#    x 3.845240 0.000000 -0.008990 
#    y 0.000000 3.310170 0.000000 
#    z -0.008990 0.000000 3.988070 
# 
# 
# High freq. dielectric constant tensor:
#      x y z
#    x 1.797310 0.000000 0.006040 
#    y 0.000000 1.750040 0.000000 
#    z 0.006040 0.000000 1.794060 
# 
# From -- ./inp_files/314088.got.cif
#   From: 2010.06.25/outbox.cif.g09.slc.cpg/sg12_158_cif.got.tgz:314088.got - 2010.06.28 00:19:55.
