data_PCOD8097935
_publ_section_title
;
Structure prediction by ZEFSAII (Michael W. Deem and Ramdas Pophale) SiO2 
 PCOD8097935
Probable space group: C 2/M
;
_chemical_formula_sum "Si O2"
_cell_formula_units_Z 64
_cell_length_a 28.231050
_cell_length_b 9.002745
_cell_length_c 14.326060
_cell_angle_alpha 90.000000
_cell_angle_beta 73.083273
_cell_angle_gamma 90.000000
_cell_volume 3483.513813
_symmetry_space_group_name_H-M "C 2/M"
_symmetry_group_IT_number 12
_symmetry_cell_setting 'monoclinic'
loop_
_space_group_symop_operation_xyz
x,y,z
-x,y,-z
-x,-y,-z
x,-y,z
1/2+x,1/2+y,z
1/2-x,1/2+y,-z
1/2-x,1/2-y,-z
1/2+x,1/2-y,z
loop_
_atom_site_type_symbol
_atom_site_label
_atom_site_fract_x
_atom_site_fract_y
_atom_site_fract_z
Si Si1 0.152914 0.170141 0.437616
Si Si2 0.104264 0.330030 0.309652
Si Si3 0.093590 0.170914 0.654498
Si Si4 0.308003 0.825104 0.872235
Si Si5 0.494628 0.830381 0.395835
Si Si6 0.708602 0.171185 0.910636
Si Si7 0.660379 0.827505 0.750736
Si Si8 0.749855 0.175580 0.400459
O O1 0.108303 0.226442 0.398651
O O2 0.137918 0.189209 0.554277
O O3 0.198726 0.274407 0.381774
O O4 0.166090 0.000000 0.408390
O O5 0.116420 0.500000 0.329780
O O6 0.141654 0.272090 0.207824
O O7 0.047089 0.316527 0.311440
O O8 0.109097 0.261990 0.738757
O O9 0.042893 0.230023 0.640578
O O10 0.085852 0.000000 0.686240
O O11 0.258929 0.756518 0.852894
O O12 0.302611 0.000000 0.867700
O O13 0.311748 0.771948 0.977904
O O14 0.500000 0.776084 0.500000
O O15 0.475236 0.000000 0.406603
O O16 0.664636 0.194654 0.860194
O O17 0.723821 0.000000 0.907697
O O18 0.705069 0.733457 0.684837
O O19 0.664709 0.000000 0.720154
O O20 0.750000 0.250000 0.500000
O O21 0.753128 0.000000 0.408153
#
# Coordination Sequence:
#
# PCOD8097935 Si02
#       8
#     8   8   8   8   8   8   8   8
#     4  11  22  34  49  73 106 141 176 216 260 312
#     4  10  20  34  55  80 105 139 176 220 271 319
#     4  11  23  36  52  74 104 141 181 220 262 314
#     4   9  18  34  56  82 110 138 174 218 265 319
#     4  10  20  35  55  77 105 138 179 223 268 318
#     4   9  19  35  55  81 110 140 175 216 265 319
#     4  11  22  36  55  76 105 143 180 220 267 318
#     4  12  23  34  49  71 103 140 177 214 255 308
#
# _framework density 18.372254000000002
#
# number of rings (size 3 to 8) (size 9 to 14) (size 15 to 20)
#    0.000    1.625    2.500    3.000    0.000    5.250 
#    0.000    0.000    0.000    0.750    0.000    5.250 
#    0.000    0.000    0.000    0.000    0.000    0.000 
#
# Total GULP energy -396786.412068 kJ/mol
# GULP energy per Si atom -12399.575377 kJ/mol
# Density = 1.833044 g / cm^3
# Si number density = 18.372254 Si / 1000 Ang^3
#
#
#
# Elastic Constant Matrix: (Units=GPa)
#
#
# Indices 1 2 3 4 5 6 
#
# 1 103.6120 46.0445 37.8002 0.0000 12.2142 0.0000
# 2 46.0445 100.8045 31.3727 0.0000 11.7304 0.0000
# 3 37.8002 31.3727 68.6152 0.0000 8.3355 0.0000
# 4 0.0000 0.0000 0.0000 20.1582 0.0000 1.9781
# 5 12.2142 11.7304 8.3355 0.0000 29.9142 0.0000
# 6 0.0000 0.0000 0.0000 1.9781 0.0000 31.6353
#
#
#
# Elastic Compliance Matrix: (Units=1/GPa)
#
#
# Indices 1 2 3 4 5 6 
#
# 1 0.013824 -0.004375 -0.005318 0.000000 -0.002447 0.000000
# 2 -0.004375 0.013248 -0.003347 0.000000 -0.002476 0.000000
# 3 -0.005318 -0.003347 0.019263 0.000000 -0.001884 0.000000
# 4 0.000000 0.000000 0.000000 0.049914 0.000000 -0.003121
# 5 -0.002447 -0.002476 -0.001884 0.000000 0.035924 0.000000
# 6 0.000000 0.000000 0.000000 -0.003121 0.000000 0.031805
#
#
# Mechanical properties :
#
#
# Convention : Reuss Voigt Hill
#
# Bulk Modulus (GPa) = 49.36754 55.94074 52.65414
# Shear Modulus (GPa) = 25.40529 26.86248 26.13389
#
# Velocity S-wave (km/s) = 3.72265 3.82792 3.77565
# Velocity P-wave (km/s) = 6.73843 7.07474 6.90863
#
# Compressibility (1/GPa) = 0.02025623
#
# Stress axis : x y z
#
# Youngs Moduli (GPa) = 72.33730 75.48280 51.91331
#
# Poissons Ratio (x) = 0.33020 0.27609
# Poissons Ratio (y) = 0.31644 0.17373
# Poissons Ratio (z) = 0.38471 0.25261
#
# Static dielectric constant tensor:
#      x y z
#    x 3.454500 0.000000 0.060680 
#    y 0.000000 3.410280 0.000000 
#    z 0.060680 0.000000 3.476140 
# 
# 
# High freq. dielectric constant tensor:
#      x y z
#    x 1.707290 0.000000 0.011370 
#    y 0.000000 1.716690 0.000000 
#    z 0.011370 0.000000 1.691760 
# 
# From -- ./inp_files/243934.got.cif
#   From: 2010.06.25/outbox.cif.g09.slc.cpg/sg12_122_cif.got.tgz:243934.got - 2010.06.28 00:19:55.
