data_PCOD8097784
_publ_section_title
;
Structure prediction by ZEFSAII (Michael W. Deem and Ramdas Pophale) SiO2 
 PCOD8097784
Probable space group: C 2/M
;
_chemical_formula_sum "Si O2"
_cell_formula_units_Z 48
_cell_length_a 18.046105
_cell_length_b 10.650415
_cell_length_c 12.200343
_cell_angle_alpha 90.000000
_cell_angle_beta 85.649024
_cell_angle_gamma 90.000000
_cell_volume 2338.129819
_symmetry_space_group_name_H-M "C 2/M"
_symmetry_group_IT_number 12
_symmetry_cell_setting 'monoclinic'
loop_
_space_group_symop_operation_xyz
x,y,z
-x,y,-z
-x,-y,-z
x,-y,z
1/2+x,1/2+y,z
1/2-x,1/2+y,-z
1/2-x,1/2-y,-z
1/2+x,1/2-y,z
loop_
_atom_site_type_symbol
_atom_site_label
_atom_site_fract_x
_atom_site_fract_y
_atom_site_fract_z
Si Si1 0.454438 0.137340 0.895770
Si Si2 0.034914 0.863003 0.261969
Si Si3 0.176497 0.642678 0.720614
Si Si4 0.935997 0.264688 0.433311
Si Si5 0.827332 0.857981 0.610592
Si Si6 0.194392 0.644479 0.965537
O O1 0.482785 0.249265 0.816633
O O2 0.467693 0.000000 0.837733
O O3 0.500000 0.144373 0.000000
O O4 0.369142 0.151709 0.936736
O O5 0.120584 0.855668 0.288050
O O6 0.980890 0.851431 0.373962
O O7 0.019490 0.000000 0.209635
O O8 0.200643 0.500000 0.722699
O O9 0.099809 0.655070 0.661450
O O10 0.248561 0.706888 0.653632
O O11 0.165325 0.686955 0.847736
O O12 0.865304 0.223267 0.511602
O O13 0.000000 0.336490 0.500000
O O14 0.817684 0.000000 0.567559
O O15 0.226239 0.500000 0.959356
O O16 0.250000 0.750000 0.000000
#
# Coordination Sequence:
#
# PCOD8097784 Si02
#       6
#     8   8   8   8   8   8
#     4  10  21  37  56  79 111 149 185 226 280 336
#     4  10  20  35  57  82 107 142 188 233 276 325
#     4  10  20  35  56  80 110 150 188 225 276 335
#     4  10  20  34  54  81 113 145 182 230 279 329
#     4   9  18  34  55  78 107 144 185 228 275 328
#     4  10  21  38  60  85 114 148 186 231 282 333
#
# _framework density 20.529228
#
# number of rings (size 3 to 8) (size 9 to 14) (size 15 to 20)
#    0.000    2.167    0.000    3.000    0.000    6.667 
#    0.000    5.833    0.000   11.000    0.000    0.000 
#    0.000    0.000    0.000    0.000    0.000    0.000 
#
# Total GULP energy -297315.514636 kJ/mol
# GULP energy per Si atom -12388.146443 kJ/mol
# Density = 2.048250 g / cm^3
# Si number density = 20.529228 Si / 1000 Ang^3
#
#
#
# Elastic Constant Matrix: (Units=GPa)
#
#
# Indices 1 2 3 4 5 6 
#
# 1 83.5661 27.7590 25.7989 0.0000 6.3498 0.0000
# 2 27.7590 102.9344 44.9944 0.0000 4.6703 0.0000
# 3 25.7989 44.9944 92.1529 0.0000 2.8691 0.0000
# 4 0.0000 0.0000 0.0000 23.0305 0.0000 5.9096
# 5 6.3498 4.6703 2.8691 0.0000 28.3884 0.0000
# 6 0.0000 0.0000 0.0000 5.9096 0.0000 13.5470
#
#
#
# Elastic Compliance Matrix: (Units=1/GPa)
#
#
# Indices 1 2 3 4 5 6 
#
# 1 0.013767 -0.002481 -0.002568 0.000000 -0.002412 0.000000
# 2 -0.002481 0.012856 -0.005551 0.000000 -0.000999 0.000000
# 3 -0.002568 -0.005551 0.014280 0.000000 0.000044 0.000000
# 4 0.000000 0.000000 0.000000 0.048894 0.000000 -0.021329
# 5 -0.002412 -0.000999 0.000044 0.000000 0.035925 0.000000
# 6 0.000000 0.000000 0.000000 -0.021329 0.000000 0.083121
#
#
# Mechanical properties :
#
#
# Convention : Reuss Voigt Hill
#
# Bulk Modulus (GPa) = 50.75550 52.86199 51.80875
# Shear Modulus (GPa) = 21.13194 24.99993 23.06593
#
# Velocity S-wave (km/s) = 3.21184 3.49345 3.35560
# Velocity P-wave (km/s) = 6.20740 6.48674 6.34860
#
# Compressibility (1/GPa) = 0.01970230
#
# Stress axis : x y z
#
# Youngs Moduli (GPa) = 72.63966 77.78564 70.03040
#
# Poissons Ratio (x) = 0.19296 0.17982
# Poissons Ratio (y) = 0.18020 0.38877
# Poissons Ratio (z) = 0.18652 0.43182
#
# Static dielectric constant tensor:
#      x y z
#    x 2.859470 0.000000 1.349350 
#    y 0.000000 3.540390 0.000000 
#    z 1.349350 0.000000 1.375810 
# 
# 
# High freq. dielectric constant tensor:
#      x y z
#    x 1.812960 0.000000 -0.013160 
#    y 0.000000 1.774670 0.000000 
#    z -0.013160 0.000000 1.802710 
# 
# From -- ./inp_files/153535.got.cif
#   From: 2010.06.25/outbox.cif.g09.slc.cpg/sg12_77_cif.got.tgz:153535.got - 2010.06.28 00:19:55.
