data_PCOD8097047
_publ_section_title
;
Structure prediction by ZEFSAII (Michael W. Deem and Ramdas Pophale) SiO2 
 PCOD8097047
Probable space group: C 2/M
;
_chemical_formula_sum "Si O2"
_cell_formula_units_Z 64
_cell_length_a 8.744989
_cell_length_b 10.835856
_cell_length_c 33.433597
_cell_angle_alpha 90.000000
_cell_angle_beta 91.507844
_cell_angle_gamma 90.000000
_cell_volume 3167.051951
_symmetry_space_group_name_H-M "C 2/M"
_symmetry_group_IT_number 12
_symmetry_cell_setting 'monoclinic'
loop_
_space_group_symop_operation_xyz
x,y,z
-x,y,-z
-x,-y,-z
x,-y,z
1/2+x,1/2+y,z
1/2-x,1/2+y,-z
1/2-x,1/2-y,-z
1/2+x,1/2-y,z
loop_
_atom_site_type_symbol
_atom_site_label
_atom_site_fract_x
_atom_site_fract_y
_atom_site_fract_z
Si Si1 0.487170 0.773924 0.084821
Si Si2 0.248894 0.859423 0.967553
Si Si3 0.469849 0.365917 0.354408
Si Si4 0.249258 0.291220 0.595202
Si Si5 0.050246 0.138970 0.736136
Si Si6 0.734042 0.140398 0.774359
Si Si7 0.227900 0.862865 0.135992
Si Si8 0.028924 0.362685 0.456994
O O1 0.591880 0.852382 0.055400
O O2 0.399045 0.663086 0.061331
O O3 0.362693 0.862511 0.104131
O O4 0.588601 0.721503 0.121345
O O5 0.236587 0.000000 0.985175
O O6 0.250000 0.750000 0.000000
O O7 0.394062 0.500000 0.355923
O O8 0.624544 0.372145 0.381550
O O9 0.341961 0.276932 0.370564
O O10 0.510350 0.332517 0.308982
O O11 0.334004 0.201999 0.565051
O O12 0.127875 0.370036 0.569332
O O13 0.161371 0.251852 0.747278
O O14 0.912706 0.140975 0.766289
O O15 0.126201 0.000000 0.738659
O O16 0.710538 0.179586 0.820361
O O17 0.668702 0.000000 0.765714
O O18 0.162596 0.000000 0.139229
O O19 0.088434 0.500000 0.465292
O O20 0.000000 0.297652 0.500000
#
# Coordination Sequence:
#
# PCOD8097047 Si02
#       8
#     8   8   8   8   8   8   8   8
#     4  10  22  38  59  84 113 146 187 229 274 326
#     4  11  24  40  60  86 115 149 188 230 277 329
#     4  10  20  35  54  76 105 140 178 220 265 316
#     4  10  20  34  53  76 102 135 176 217 264 317
#     4  10  21  37  56  81 113 147 184 227 274 325
#     4  10  21  37  58  85 114 146 185 227 274 328
#     4  10  20  37  59  82 112 147 183 227 275 324
#     4  10  20  34  52  75 103 134 170 215 266 319
#
# _framework density 20.208068000000001
#
# number of rings (size 3 to 8) (size 9 to 14) (size 15 to 20)
#    0.000    1.875    0.000    3.750    0.000    4.500 
#    0.000    6.250    0.000    6.000    0.000    0.000 
#    0.000    0.000    0.000    0.000    0.000    0.000 
#
# Total GULP energy -396622.607506 kJ/mol
# GULP energy per Si atom -12394.456485 kJ/mol
# Density = 2.016207 g / cm^3
# Si number density = 20.208068 Si / 1000 Ang^3
#
#
#
# Elastic Constant Matrix: (Units=GPa)
#
#
# Indices 1 2 3 4 5 6 
#
# 1 66.0976 22.5229 13.9913 0.0000 -5.4526 0.0000
# 2 22.5229 113.1930 40.6408 0.0000 5.2168 0.0000
# 3 13.9913 40.6408 100.7304 0.0000 -4.9453 0.0000
# 4 0.0000 0.0000 0.0000 28.6523 0.0000 2.5156
# 5 -5.4526 5.2168 -4.9453 0.0000 27.5033 0.0000
# 6 0.0000 0.0000 0.0000 2.5156 0.0000 20.0070
#
#
#
# Elastic Compliance Matrix: (Units=1/GPa)
#
#
# Indices 1 2 3 4 5 6 
#
# 1 0.016707 -0.003194 -0.000847 0.000000 0.003766 0.000000
# 2 -0.003194 0.011149 -0.004227 0.000000 -0.003508 0.000000
# 3 -0.000847 -0.004227 0.011887 0.000000 0.002771 0.000000
# 4 0.000000 0.000000 0.000000 0.035291 0.000000 -0.004437
# 5 0.003766 -0.003508 0.002771 0.000000 0.038270 0.000000
# 6 0.000000 0.000000 0.000000 -0.004437 0.000000 0.050541
#
#
# Mechanical properties :
#
#
# Convention : Reuss Voigt Hill
#
# Bulk Modulus (GPa) = 43.08948 48.25899 45.67424
# Shear Modulus (GPa) = 26.57938 28.75691 27.66815
#
# Velocity S-wave (km/s) = 3.63062 3.77641 3.70423
# Velocity P-wave (km/s) = 6.24055 6.55347 6.39892
#
# Compressibility (1/GPa) = 0.02320752
#
# Stress axis : x y z
#
# Youngs Moduli (GPa) = 59.85370 89.69202 84.12835
#
# Poissons Ratio (x) = 0.28646 0.07127
# Poissons Ratio (y) = 0.19116 0.35560
# Poissons Ratio (z) = 0.05071 0.37912
#
# Static dielectric constant tensor:
#      x y z
#    x 3.575930 0.000000 -0.052970 
#    y 0.000000 3.581010 0.000000 
#    z -0.052970 0.000000 3.851900 
# 
# 
# High freq. dielectric constant tensor:
#      x y z
#    x 1.782910 0.000000 -0.007210 
#    y 0.000000 1.786050 0.000000 
#    z -0.007210 0.000000 1.802830 
# 
# From -- ./inp_files/372176.got.cif
#   From: 2010.06.25/outbox.cif.g09.slc.cpg/sg12_187_cif.got.tgz:372176.got - 2010.06.28 00:19:55.
