data_PCOD8097489
_publ_section_title
;
Structure prediction by ZEFSAII (Michael W. Deem and Ramdas Pophale) SiO2 
 PCOD8097489
Probable space group: C 2/M
;
_chemical_formula_sum "Si O2"
_cell_formula_units_Z 56
_cell_length_a 20.494236
_cell_length_b 9.196113
_cell_length_c 17.736832
_cell_angle_alpha 90.000000
_cell_angle_beta 56.399423
_cell_angle_gamma 90.000000
_cell_volume 2784.281336
_symmetry_space_group_name_H-M "C 2/M"
_symmetry_group_IT_number 12
_symmetry_cell_setting 'monoclinic'
loop_
_space_group_symop_operation_xyz
x,y,z
-x,y,-z
-x,-y,-z
x,-y,z
1/2+x,1/2+y,z
1/2-x,1/2+y,-z
1/2-x,1/2-y,-z
1/2+x,1/2-y,z
loop_
_atom_site_type_symbol
_atom_site_label
_atom_site_fract_x
_atom_site_fract_y
_atom_site_fract_z
Si Si1 0.919299 0.671605 0.589036
Si Si2 0.859400 0.671535 0.785109
Si Si3 0.834930 0.838362 0.522279
Si Si4 0.412088 0.830701 0.173485
Si Si5 0.349837 0.161949 0.372451
Si Si6 0.681184 0.326739 0.897404
Si Si7 0.092040 0.330471 0.082512
O O1 0.908583 0.500000 0.588180
O O2 0.912334 0.723491 0.680400
O O3 0.849314 0.746790 0.588356
O O4 0.000000 0.725129 0.500000
O O5 0.857043 0.500000 0.787935
O O6 0.770558 0.728053 0.832126
O O7 0.899122 0.726366 0.837086
O O8 0.742977 0.844637 0.569644
O O9 0.877569 0.762762 0.423629
O O10 0.869853 0.000000 0.507992
O O11 0.383123 0.774663 0.273338
O O12 0.369875 0.736097 0.137770
O O13 0.504613 0.805469 0.108387
O O14 0.390368 0.000000 0.175787
O O15 0.384722 0.000000 0.363598
O O16 0.674027 0.500000 0.901715
O O17 0.650422 0.265326 0.995952
O O18 0.115264 0.500000 0.060973
#
# Coordination Sequence:
#
# PCOD8097489 Si02
#       7
#     8   8   8   8   8   8   8
#     4  10  21  36  59  83 108 145 191 233 273 329
#     4   9  20  38  59  85 111 146 191 235 280 327
#     4  10  20  34  53  80 115 147 181 229 281 330
#     4  10  21  36  59  85 111 146 189 235 279 326
#     4   9  19  35  56  81 108 146 191 228 270 332
#     4  11  22  37  58  83 117 150 183 229 284 344
#     4  10  21  38  60  83 112 145 190 239 277 326
#
# _framework density 20.112908999999998
#
# number of rings (size 3 to 8) (size 9 to 14) (size 15 to 20)
#    0.000    2.143    0.000    2.571    2.000    3.714 
#    0.000    2.143    0.000    0.000    0.000    0.000 
#    0.000    0.000    0.000    0.000    0.000    0.000 
#
# Total GULP energy -347225.000380 kJ/mol
# GULP energy per Si atom -12400.892871 kJ/mol
# Density = 2.006713 g / cm^3
# Si number density = 20.112909 Si / 1000 Ang^3
#
#
#
# Elastic Constant Matrix: (Units=GPa)
#
#
# Indices 1 2 3 4 5 6 
#
# 1 80.1453 27.1327 33.1068 0.0000 7.4628 0.0001
# 2 27.1327 60.2691 37.1702 0.0000 3.9280 -0.0002
# 3 33.1068 37.1702 146.9244 0.0000 8.8502 0.0000
# 4 0.0000 0.0000 0.0000 21.8006 0.0000 0.8111
# 5 7.4628 3.9280 8.8502 0.0000 27.3247 0.0000
# 6 0.0001 -0.0002 0.0000 0.8111 0.0000 24.1350
#
#
#
# Elastic Compliance Matrix: (Units=1/GPa)
#
#
# Indices 1 2 3 4 5 6 
#
# 1 0.015411 -0.005590 -0.001890 0.000000 -0.002793 0.000000
# 2 -0.005590 0.021729 -0.004224 0.000000 -0.000229 0.000000
# 3 -0.001890 -0.004224 0.008397 0.000000 -0.001596 0.000000
# 4 0.000000 0.000000 0.000000 0.045928 0.000000 -0.001543
# 5 -0.002793 -0.000229 -0.001596 0.000000 0.037910 0.000000
# 6 0.000000 0.000000 0.000000 -0.001543 0.000000 0.041485
#
#
# Mechanical properties :
#
#
# Convention : Reuss Voigt Hill
#
# Bulk Modulus (GPa) = 45.19054 53.57314 49.38184
# Shear Modulus (GPa) = 24.79633 27.31401 26.05517
#
# Velocity S-wave (km/s) = 3.51502 3.68915 3.60313
# Velocity P-wave (km/s) = 6.24428 6.69630 6.47423
#
# Compressibility (1/GPa) = 0.02212852
#
# Stress axis : x y z
#
# Youngs Moduli (GPa) = 64.89020 46.02215 119.09280
#
# Poissons Ratio (x) = 0.25727 0.22509
# Poissons Ratio (y) = 0.36274 0.50301
# Poissons Ratio (z) = 0.12265 0.19438
#
# Static dielectric constant tensor:
#      x y z
#    x 3.625080 0.000000 0.100100 
#    y 0.000000 3.581340 0.000000 
#    z 0.100100 0.000000 3.936240 
# 
# 
# High freq. dielectric constant tensor:
#      x y z
#    x 1.786070 0.000000 0.007360 
#    y 0.000000 1.762900 0.000000 
#    z 0.007360 0.000000 1.800010 
# 
# From -- ./inp_files/281033.got.cif
#   From: 2010.06.25/outbox.cif.g09.slc.cpg/sg12_141_cif.got.tgz:281033.got - 2010.06.28 00:19:55.
