data_PCOD8097345
_publ_section_title
;
Structure prediction by ZEFSAII (Michael W. Deem and Ramdas Pophale) SiO2 
 PCOD8097345
Probable space group: C 2/M
;
_chemical_formula_sum "Si O2"
_cell_formula_units_Z 48
_cell_length_a 18.912720
_cell_length_b 18.839973
_cell_length_c 8.712308
_cell_angle_alpha 90.000000
_cell_angle_beta 128.217163
_cell_angle_gamma 90.000000
_cell_volume 2438.981754
_symmetry_space_group_name_H-M "C 2/M"
_symmetry_group_IT_number 12
_symmetry_cell_setting 'monoclinic'
loop_
_space_group_symop_operation_xyz
x,y,z
-x,y,-z
-x,-y,-z
x,-y,z
1/2+x,1/2+y,z
1/2-x,1/2+y,-z
1/2-x,1/2-y,-z
1/2+x,1/2-y,z
loop_
_atom_site_type_symbol
_atom_site_label
_atom_site_fract_x
_atom_site_fract_y
_atom_site_fract_z
Si Si1 0.997168 0.217330 0.178060
Si Si2 0.919818 0.321592 0.509409
Si Si3 0.258064 0.918151 0.768089
Si Si4 0.171366 0.303086 0.907175
Si Si5 0.924427 0.581103 0.787811
Si Si6 0.554262 0.419206 0.416589
O O1 0.911526 0.260652 0.127472
O O2 0.083551 0.255632 0.374047
O O3 0.003803 0.134035 0.231460
O O4 0.000000 0.223796 0.000000
O O5 0.836346 0.326329 0.282348
O O6 0.931861 0.392247 0.624305
O O7 0.000000 0.310469 0.500000
O O8 0.323084 0.906201 0.709931
O O9 0.157442 0.895303 0.585086
O O10 0.258995 0.000000 0.823466
O O11 0.299227 0.872553 0.960942
O O12 0.250000 0.250000 0.000000
O O13 0.950916 0.500000 0.812959
O O14 0.000000 0.618133 0.000000
O O15 0.500000 0.414606 0.500000
O O16 0.551178 0.500000 0.346684
#
# Coordination Sequence:
#
# PCOD8097345 Si02
#       6
#     8   8   8   8   8   8
#     4  11  22  37  57  82 114 149 189 236 284 337
#     4  10  20  34  53  77 110 147 185 230 279 335
#     4  10  21  38  60  85 116 153 190 231 285 344
#     4  11  22  36  57  84 113 146 190 238 283 334
#     4  10  20  35  55  81 115 152 188 228 279 339
#     4  10  21  40  63  84 112 150 192 238 287 339
#
# _framework density 19.680344000000002
#
# number of rings (size 3 to 8) (size 9 to 14) (size 15 to 20)
#    0.000    1.667    0.000    7.000    0.000    2.667 
#    0.000    3.333    0.000    6.000    0.000    0.000 
#    0.000    0.000    0.000    0.000    0.000    0.000 
#
# Total GULP energy -297369.868161 kJ/mol
# GULP energy per Si atom -12390.411173 kJ/mol
# Density = 1.963555 g / cm^3
# Si number density = 19.680344 Si / 1000 Ang^3
#
#
#
# Elastic Constant Matrix: (Units=GPa)
#
#
# Indices 1 2 3 4 5 6 
#
# 1 61.9545 39.7031 52.8945 0.0000 -4.7780 0.0000
# 2 39.7031 102.6437 60.5452 0.0000 -10.5167 0.0000
# 3 52.8945 60.5452 132.9761 0.0000 -26.2186 0.0000
# 4 0.0000 0.0000 0.0000 37.6777 0.0000 1.2472
# 5 -4.7780 -10.5167 -26.2186 0.0000 38.4358 0.0000
# 6 0.0000 0.0000 0.0000 1.2472 0.0000 20.2347
#
#
#
# Elastic Compliance Matrix: (Units=1/GPa)
#
#
# Indices 1 2 3 4 5 6 
#
# 1 0.027173 -0.005570 -0.009135 0.000000 -0.004378 0.000000
# 2 -0.005570 0.014472 -0.004309 0.000000 0.000328 0.000000
# 3 -0.009135 -0.004309 0.014627 0.000000 0.007663 0.000000
# 4 0.000000 0.000000 0.000000 0.026595 0.000000 -0.001639
# 5 -0.004378 0.000328 0.007663 0.000000 0.030790 0.000000
# 6 0.000000 0.000000 0.000000 -0.001639 0.000000 0.049521
#
#
# Mechanical properties :
#
#
# Convention : Reuss Voigt Hill
#
# Bulk Modulus (GPa) = 54.81838 67.09552 60.95695
# Shear Modulus (GPa) = 24.12097 28.89840 26.50969
#
# Velocity S-wave (km/s) = 3.50471 3.83611 3.67415
# Velocity P-wave (km/s) = 6.65524 7.33401 7.00285
#
# Compressibility (1/GPa) = 0.01824206
#
# Stress axis : x y z
#
# Youngs Moduli (GPa) = 36.80187 69.09718 68.36770
#
# Poissons Ratio (x) = 0.38490 0.62457
# Poissons Ratio (y) = 0.20500 0.29459
# Poissons Ratio (z) = 0.33620 0.29774
#
# Static dielectric constant tensor:
#      x y z
#    x 3.568390 0.000000 0.075270 
#    y 0.000000 3.785690 0.000000 
#    z 0.075270 0.000000 4.028840 
# 
# 
# High freq. dielectric constant tensor:
#      x y z
#    x 1.761570 0.000000 0.001500 
#    y 0.000000 1.776340 0.000000 
#    z 0.001500 0.000000 1.768260 
# 
# From -- ./inp_files/88148.got.cif
#   From: 2010.06.25/outbox.cif.g09.slc.cpg/sg12_45_cif.got.tgz:88148.got - 2010.06.28 00:19:55.
