data_PCOD8097535
_publ_section_title
;
Structure prediction by ZEFSAII (Michael W. Deem and Ramdas Pophale) SiO2 
 PCOD8097535
Probable space group: C 2/M
;
_chemical_formula_sum "Si O2"
_cell_formula_units_Z 52
_cell_length_a 9.395312
_cell_length_b 10.227159
_cell_length_c 29.480881
_cell_angle_alpha 90.000000
_cell_angle_beta 105.694494
_cell_angle_gamma 90.000000
_cell_volume 2727.128800
_symmetry_space_group_name_H-M "C 2/M"
_symmetry_group_IT_number 12
_symmetry_cell_setting 'monoclinic'
loop_
_space_group_symop_operation_xyz
x,y,z
-x,y,-z
-x,-y,-z
x,-y,z
1/2+x,1/2+y,z
1/2-x,1/2+y,-z
1/2-x,1/2-y,-z
1/2+x,1/2-y,z
loop_
_atom_site_type_symbol
_atom_site_label
_atom_site_fract_x
_atom_site_fract_y
_atom_site_fract_z
Si Si1 0.191045 0.352056 0.178075
Si Si2 0.196302 0.354088 0.439079
Si Si3 0.628867 0.352895 0.975105
Si Si4 0.088777 0.350001 0.335181
Si Si5 0.500000 0.730931 0.500000
Si Si6 0.948458 0.850905 0.132893
Si Si7 0.654440 0.646435 0.714821
O O1 0.126435 0.500000 0.174953
O O2 0.287915 0.333959 0.141312
O O3 0.293050 0.323383 0.229999
O O4 0.059305 0.248507 0.166652
O O5 0.151454 0.500000 0.426490
O O6 0.373005 0.350282 0.463430
O O7 0.154541 0.286405 0.387712
O O8 0.093172 0.312192 0.471707
O O9 0.696343 0.500000 0.979137
O O10 0.563958 0.313645 0.920793
O O11 0.500000 0.345743 0.000000
O O12 0.750000 0.250000 0.000000
O O13 0.032357 0.500000 0.335792
O O14 0.958193 0.257486 0.308662
O O15 0.210532 0.344045 0.307431
O O16 0.005928 0.000000 0.144280
O O17 0.584291 0.500000 0.706277
#
# Coordination Sequence:
#
# PCOD8097535 Si02
#       7
#     8   8   8   8   4   8   8
#     4  10  21  36  55  79 107 138 175 217 261 312
#     4  10  20  35  53  76 104 134 171 213 255 305
#     4  10  21  36  54  78 107 139 177 219 262 312
#     4  10  21  36  55  79 107 138 175 216 259 310
#     4  10  20  34  54  76 102 136 170 208 260 306
#     4  10  21  36  54  79 108 138 176 219 262 312
#     4  10  21  37  55  79 108 138 175 217 260 311
#
# _framework density 19.067674
#
# number of rings (size 3 to 8) (size 9 to 14) (size 15 to 20)
#    0.000    2.000    0.000    3.231    0.000    2.769 
#    0.000    3.846    0.000    0.000    0.000    0.000 
#    0.000    0.000    0.000    0.000    0.000    0.000 
#
# Total GULP energy -322281.147585 kJ/mol
# GULP energy per Si atom -12395.428753 kJ/mol
# Density = 1.902428 g / cm^3
# Si number density = 19.067674 Si / 1000 Ang^3
#
#
#
# Elastic Constant Matrix: (Units=GPa)
#
#
# Indices 1 2 3 4 5 6 
#
# 1 81.7024 51.9880 28.5987 0.0000 13.1109 0.0000
# 2 51.9880 116.0721 43.0950 0.0000 25.0696 0.0000
# 3 28.5987 43.0950 102.6445 0.0000 -1.7502 0.0000
# 4 0.0000 0.0000 0.0000 31.2165 0.0000 9.0160
# 5 13.1109 25.0696 -1.7502 0.0000 37.0558 0.0000
# 6 0.0000 0.0000 0.0000 9.0160 0.0000 34.6457
#
#
#
# Elastic Compliance Matrix: (Units=1/GPa)
#
#
# Indices 1 2 3 4 5 6 
#
# 1 0.017511 -0.006677 -0.002106 0.000000 -0.001778 0.000000
# 2 -0.006677 0.015047 -0.004594 0.000000 -0.008034 0.000000
# 3 -0.002106 -0.004594 0.012333 0.000000 0.004436 0.000000
# 4 0.000000 0.000000 0.000000 0.034638 0.000000 -0.009014
# 5 -0.001778 -0.008034 0.004436 0.000000 0.033260 0.000000
# 6 0.000000 0.000000 0.000000 -0.009014 0.000000 0.031209
#
#
# Mechanical properties :
#
#
# Convention : Reuss Voigt Hill
#
# Bulk Modulus (GPa) = 55.13523 60.86471 57.99997
# Shear Modulus (GPa) = 28.28087 32.36609 30.32348
#
# Velocity S-wave (km/s) = 3.85539 4.12446 3.99219
# Velocity P-wave (km/s) = 6.98549 7.39400 7.19264
#
# Compressibility (1/GPa) = 0.01813722
#
# Stress axis : x y z
#
# Youngs Moduli (GPa) = 57.10818 66.45880 81.08018
#
# Poissons Ratio (x) = 0.44376 0.17073
# Poissons Ratio (y) = 0.38132 0.37248
# Poissons Ratio (z) = 0.12025 0.30531
#
# Static dielectric constant tensor:
#      x y z
#    x 5.512040 0.000000 -3.297610 
#    y 0.000000 3.714320 0.000000 
#    z -3.297610 0.000000 8.194180 
# 
# 
# High freq. dielectric constant tensor:
#      x y z
#    x 1.732750 0.000000 -0.012790 
#    y 0.000000 1.742050 0.000000 
#    z -0.012790 0.000000 1.764590 
# 
# From -- ./inp_files/355559.got.cif
#   From: 2010.06.25/outbox.cif.g09.slc.cpg/sg12_178_cif.got.tgz:355559.got - 2010.06.28 00:19:55.
