data_PCOD8097787
_publ_section_title
;
Structure prediction by ZEFSAII (Michael W. Deem and Ramdas Pophale) SiO2 
 PCOD8097787
Probable space group: C 2/M
;
_chemical_formula_sum "Si O2"
_cell_formula_units_Z 64
_cell_length_a 30.521274
_cell_length_b 9.414035
_cell_length_c 14.979907
_cell_angle_alpha 90.000000
_cell_angle_beta 132.279044
_cell_angle_gamma 90.000000
_cell_volume 3184.543812
_symmetry_space_group_name_H-M "C 2/M"
_symmetry_group_IT_number 12
_symmetry_cell_setting 'monoclinic'
loop_
_space_group_symop_operation_xyz
x,y,z
-x,y,-z
-x,-y,-z
x,-y,z
1/2+x,1/2+y,z
1/2-x,1/2+y,-z
1/2-x,1/2-y,-z
1/2+x,1/2-y,z
loop_
_atom_site_type_symbol
_atom_site_label
_atom_site_fract_x
_atom_site_fract_y
_atom_site_fract_z
Si Si1 0.886098 0.168179 0.689052
Si Si2 0.546600 0.336372 0.638938
Si Si3 0.579263 0.161732 0.846855
Si Si4 0.670003 0.662094 0.716379
Si Si5 0.691305 0.340453 0.252403
Si Si6 0.005316 0.661394 0.110886
Si Si7 0.801404 0.663863 0.913803
Si Si8 0.325918 0.838981 0.452666
O O1 0.851305 0.218684 0.729257
O O2 0.952067 0.225030 0.785666
O O3 0.858303 0.237751 0.564794
O O4 0.885049 0.000000 0.675619
O O5 0.500000 0.279288 0.500000
O O6 0.531421 0.500000 0.636928
O O7 0.540325 0.252834 0.723552
O O8 0.614901 0.314349 0.705709
O O9 0.555159 0.177894 0.915411
O O10 0.573932 0.000000 0.806501
O O11 0.648905 0.210234 0.945148
O O12 0.669713 0.500000 0.678752
O O13 0.733458 0.691589 0.853122
O O14 0.662428 0.776079 0.628688
O O15 0.673308 0.500000 0.200064
O O16 0.685067 0.243707 0.158546
O O17 0.757028 0.337296 0.382347
O O18 0.029613 0.500000 0.152241
O O19 0.000000 0.703121 0.000000
O O20 0.811682 0.500000 0.905771
O O21 0.350877 0.000000 0.490177
#
# Coordination Sequence:
#
# PCOD8097787 Si02
#       8
#     8   8   8   8   8   8   8   8
#     4  11  22  34  52  78 111 150 193 238 284 342
#     4  10  23  41  60  84 117 156 193 235 290 350
#     4  10  22  39  60  88 116 149 195 242 291 343
#     4   9  19  37  59  84 114 149 190 235 286 342
#     4   9  19  34  52  80 115 150 189 234 283 338
#     4  10  22  40  59  82 114 151 192 238 289 345
#     4   9  18  35  60  85 112 147 188 237 289 343
#     4  10  20  34  54  81 113 148 189 236 287 339
#
# _framework density 20.097069999999999
#
# number of rings (size 3 to 8) (size 9 to 14) (size 15 to 20)
#    0.000    2.250    0.000    1.875    1.750    5.000 
#    0.000    0.000    0.000    0.000    0.000    0.000 
#    0.000    0.000    0.000    0.000    0.000    0.000 
#
# Total GULP energy -396688.489385 kJ/mol
# GULP energy per Si atom -12396.515293 kJ/mol
# Density = 2.005133 g / cm^3
# Si number density = 20.097070 Si / 1000 Ang^3
#
#
#
# Elastic Constant Matrix: (Units=GPa)
#
#
# Indices 1 2 3 4 5 6 
#
# 1 71.4116 22.7761 34.3781 0.0000 4.6837 0.0000
# 2 22.7761 70.9124 46.1810 0.0000 2.1253 0.0000
# 3 34.3781 46.1810 127.5489 0.0000 2.8464 0.0000
# 4 0.0000 0.0000 0.0000 37.8763 0.0000 0.3545
# 5 4.6837 2.1253 2.8464 0.0000 18.8408 0.0000
# 6 0.0000 0.0000 0.0000 0.3545 0.0000 27.1963
#
#
#
# Elastic Compliance Matrix: (Units=1/GPa)
#
#
# Indices 1 2 3 4 5 6 
#
# 1 0.016823 -0.003139 -0.003323 0.000000 -0.003326 0.000000
# 2 -0.003139 0.019061 -0.006045 0.000000 -0.000456 0.000000
# 3 -0.003323 -0.006045 0.010928 0.000000 -0.000143 0.000000
# 4 0.000000 0.000000 0.000000 0.026405 0.000000 -0.000344
# 5 -0.003326 -0.000456 -0.000143 0.000000 0.053976 0.000000
# 6 0.000000 0.000000 0.000000 -0.000344 0.000000 0.036774
#
#
# Mechanical properties :
#
#
# Convention : Reuss Voigt Hill
#
# Bulk Modulus (GPa) = 45.88008 52.94925 49.41467
# Shear Modulus (GPa) = 25.47819 27.88519 26.68169
#
# Velocity S-wave (km/s) = 3.56442 3.72899 3.64763
# Velocity P-wave (km/s) = 6.31022 6.70406 6.51012
#
# Compressibility (1/GPa) = 0.02179595
#
# Stress axis : x y z
#
# Youngs Moduli (GPa) = 59.44394 52.46450 91.51066
#
# Poissons Ratio (x) = 0.16470 0.30412
# Poissons Ratio (y) = 0.18661 0.55317
# Poissons Ratio (z) = 0.19755 0.31714
#
# Static dielectric constant tensor:
#      x y z
#    x 3.640810 0.000000 0.230750 
#    y 0.000000 3.672470 0.000000 
#    z 0.230750 0.000000 3.664490 
# 
# 
# High freq. dielectric constant tensor:
#      x y z
#    x 1.781030 0.000000 0.011940 
#    y 0.000000 1.784390 0.000000 
#    z 0.011940 0.000000 1.782420 
# 
# From -- ./inp_files/250039.got.cif
#   From: 2010.06.25/outbox.cif.g09.slc.cpg/sg12_126_cif.got.tgz:250039.got - 2010.06.28 00:19:55.
