data_PCOD8097138
_publ_section_title
;
Structure prediction by ZEFSAII (Michael W. Deem and Ramdas Pophale) SiO2 
 PCOD8097138
Probable space group: C 2/M
;
_chemical_formula_sum "Si O2"
_cell_formula_units_Z 64
_cell_length_a 14.543124
_cell_length_b 8.787864
_cell_length_c 27.059535
_cell_angle_alpha 90.000000
_cell_angle_beta 74.272136
_cell_angle_gamma 90.000000
_cell_volume 3328.811395
_symmetry_space_group_name_H-M "C 2/M"
_symmetry_group_IT_number 12
_symmetry_cell_setting 'monoclinic'
loop_
_space_group_symop_operation_xyz
x,y,z
-x,y,-z
-x,-y,-z
x,-y,z
1/2+x,1/2+y,z
1/2-x,1/2+y,-z
1/2-x,1/2-y,-z
1/2+x,1/2-y,z
loop_
_atom_site_type_symbol
_atom_site_label
_atom_site_fract_x
_atom_site_fract_y
_atom_site_fract_z
Si Si1 0.468993 0.679617 0.871201
Si Si2 0.388245 0.170838 0.509256
Si Si3 0.862353 0.820357 0.788341
Si Si4 0.898094 0.177991 0.404910
Si Si5 0.183703 0.821027 0.861280
Si Si6 0.725715 0.324323 0.389416
Si Si7 0.290121 0.821040 0.944768
Si Si8 0.415811 0.323295 0.674388
O O1 0.462765 0.500000 0.880306
O O2 0.437205 0.725851 0.820318
O O3 0.576286 0.739565 0.866432
O O4 0.396210 0.757159 0.919938
O O5 0.500000 0.167006 0.500000
O O6 0.363658 0.236629 0.459172
O O7 0.347376 0.281401 0.556654
O O8 0.344974 0.000000 0.520057
O O9 0.757103 0.753087 0.812170
O O10 0.902624 0.752234 0.730910
O O11 0.849988 0.000000 0.786863
O O12 0.816902 0.213976 0.376584
O O13 0.995433 0.249307 0.368481
O O14 0.908169 0.000000 0.414752
O O15 0.216938 0.775794 0.911617
O O16 0.187544 0.000000 0.852539
O O17 0.754946 0.500000 0.391651
O O18 0.679514 0.295077 0.342829
O O19 0.297820 0.000000 0.949725
O O20 0.250000 0.750000 0.000000
O O21 0.439763 0.500000 0.676903
#
# Coordination Sequence:
#
# PCOD8097138 Si02
#       8
#     8   8   8   8   8   8   8   8
#     4   9  18  34  56  78 105 141 181 219 264 315
#     4  11  22  37  58  82 107 137 177 219 262 319
#     4   9  18  35  57  79 103 137 179 221 262 315
#     4  11  22  38  58  81 108 141 178 217 267 322
#     4   9  19  35  54  79 108 142 178 222 271 316
#     4  11  22  38  57  79 108 142 177 215 265 320
#     4  10  20  34  52  77 112 145 181 221 266 314
#     4   9  20  37  56  78 108 141 173 214 269 321
#
# _framework density 19.226081000000001
#
# number of rings (size 3 to 8) (size 9 to 14) (size 15 to 20)
#    0.000    2.125    1.250    1.875    0.000    3.000 
#    0.000    6.250    0.000    0.000    0.000    0.000 
#    0.000    0.000    0.000    0.000    0.000    0.000 
#
# Total GULP energy -396814.561346 kJ/mol
# GULP energy per Si atom -12400.455042 kJ/mol
# Density = 1.918232 g / cm^3
# Si number density = 19.226081 Si / 1000 Ang^3
#
#
#
# Elastic Constant Matrix: (Units=GPa)
#
#
# Indices 1 2 3 4 5 6 
#
# 1 112.3678 22.2239 36.4008 0.0000 -2.7561 0.0000
# 2 22.2239 38.1242 22.1138 0.0000 1.4861 0.0000
# 3 36.4008 22.1138 122.6373 0.0000 1.8441 0.0000
# 4 0.0000 0.0000 0.0000 7.2511 0.0000 0.8855
# 5 -2.7561 1.4861 1.8441 0.0000 19.1562 0.0000
# 6 0.0000 0.0000 0.0000 0.8855 0.0000 28.8113
#
#
#
# Elastic Compliance Matrix: (Units=1/GPa)
#
#
# Indices 1 2 3 4 5 6 
#
# 1 0.010683 -0.004973 -0.002306 0.000000 0.002145 0.000000
# 2 -0.004973 0.031669 -0.004193 0.000000 -0.002769 0.000000
# 3 -0.002306 -0.004193 0.009609 0.000000 -0.000932 0.000000
# 4 0.000000 0.000000 0.000000 0.138430 0.000000 -0.004254
# 5 0.002145 -0.002769 -0.000932 0.000000 0.052815 0.000000
# 6 0.000000 0.000000 0.000000 -0.004254 0.000000 0.034839
#
#
# Mechanical properties :
#
#
# Convention : Reuss Voigt Hill
#
# Bulk Modulus (GPa) = 34.46376 48.28959 41.37667
# Shear Modulus (GPa) = 16.09470 23.86978 19.98224
#
# Velocity S-wave (km/s) = 2.89646 3.52736 3.22736
# Velocity P-wave (km/s) = 5.39911 6.46227 5.95447
#
# Compressibility (1/GPa) = 0.02901599
#
# Stress axis : x y z
#
# Youngs Moduli (GPa) = 93.60989 31.57663 104.07224
#
# Poissons Ratio (x) = 0.15703 0.24002
# Poissons Ratio (y) = 0.46553 0.43635
# Poissons Ratio (z) = 0.21589 0.13239
#
# Static dielectric constant tensor:
#      x y z
#    x 3.679710 0.000000 0.013640 
#    y 0.000000 3.415800 0.000000 
#    z 0.013640 0.000000 3.607170 
# 
# 
# High freq. dielectric constant tensor:
#      x y z
#    x 1.757200 0.000000 0.000720 
#    y 0.000000 1.735750 0.000000 
#    z 0.000720 0.000000 1.745260 
# 
# From -- ./inp_files/338775.got.cif
#   From: 2010.06.25/outbox.cif.g09.slc.cpg/sg12_170_cif.got.tgz:338775.got - 2010.06.28 00:19:55.
