data_PCOD8097097
_publ_section_title
;
Structure prediction by ZEFSAII (Michael W. Deem and Ramdas Pophale) SiO2 
 PCOD8097097
Probable space group: C 2/M
;
_chemical_formula_sum "Si O2"
_cell_formula_units_Z 56
_cell_length_a 28.268688
_cell_length_b 8.901048
_cell_length_c 19.080944
_cell_angle_alpha 90.000000
_cell_angle_beta 42.064489
_cell_angle_gamma 90.000000
_cell_volume 3216.620470
_symmetry_space_group_name_H-M "C 2/M"
_symmetry_group_IT_number 12
_symmetry_cell_setting 'monoclinic'
loop_
_space_group_symop_operation_xyz
x,y,z
-x,y,-z
-x,-y,-z
x,-y,z
1/2+x,1/2+y,z
1/2-x,1/2+y,-z
1/2-x,1/2-y,-z
1/2+x,1/2-y,z
loop_
_atom_site_type_symbol
_atom_site_label
_atom_site_fract_x
_atom_site_fract_y
_atom_site_fract_z
Si Si1 0.992189 0.675708 0.293847
Si Si2 0.361026 0.673938 0.891781
Si Si3 0.749586 0.674322 0.105953
Si Si4 0.746910 0.325198 0.612876
Si Si5 0.445127 0.824638 0.501055
Si Si6 0.795746 0.822941 0.690524
Si Si7 0.857994 0.175320 0.391750
O O1 0.984012 0.500000 0.288892
O O2 0.978941 0.717143 0.389305
O O3 0.937364 0.763330 0.304228
O O4 0.069345 0.726947 0.186925
O O5 0.380930 0.500000 0.878476
O O6 0.318257 0.704526 0.867690
O O7 0.315160 0.725905 0.008691
O O8 0.771542 0.500000 0.079129
O O9 0.729712 0.729147 0.205219
O O10 0.760029 0.500000 0.610021
O O11 0.740784 0.245500 0.694817
O O12 0.815248 0.262466 0.498192
O O13 0.675890 0.292722 0.647178
O O14 0.500000 0.773449 0.500000
O O15 0.374041 0.733457 0.589682
O O16 0.427384 0.000000 0.526485
O O17 0.795141 0.000000 0.684372
O O18 0.855845 0.000000 0.412313
#
# Coordination Sequence:
#
# PCOD8097097 Si02
#       7
#     8   8   8   8   8   8   8
#     4  11  21  33  52  77 108 142 173 215 264 312
#     4  10  20  35  56  78 103 139 181 222 260 307
#     4   9  20  37  54  77 106 138 179 221 262 308
#     4  10  20  34  52  76 106 138 174 216 262 314
#     4  10  21  34  48  72 107 143 175 210 257 313
#     4  11  21  33  53  78 106 140 174 216 263 312
#     4  10  20  34  53  76 104 138 176 217 260 312
#
# _framework density 17.409576000000001
#
# number of rings (size 3 to 8) (size 9 to 14) (size 15 to 20)
#    0.000    1.857    1.429    3.000    0.000    4.286 
#    0.000    0.000    0.000    0.857    0.000    6.000 
#    0.000    0.000    0.000    0.000    0.000    0.000 
#
# Total GULP energy -347326.284094 kJ/mol
# GULP energy per Si atom -12404.510146 kJ/mol
# Density = 1.736995 g / cm^3
# Si number density = 17.409576 Si / 1000 Ang^3
#
#
#
# Elastic Constant Matrix: (Units=GPa)
#
#
# Indices 1 2 3 4 5 6 
#
# 1 103.0532 36.1354 46.6819 0.0016 -0.4864 -0.0004
# 2 36.1354 57.5790 32.7153 0.0147 3.0966 -0.0063
# 3 46.6819 32.7153 84.2494 0.0044 0.1976 -0.0022
# 4 0.0016 0.0147 0.0044 29.0273 -0.0010 -2.2775
# 5 -0.4864 3.0966 0.1976 -0.0010 20.6849 -0.0040
# 6 -0.0004 -0.0063 -0.0022 -2.2775 -0.0040 30.3779
#
#
#
# Elastic Compliance Matrix: (Units=1/GPa)
#
#
# Indices 1 2 3 4 5 6 
#
# 1 0.014326 -0.005834 -0.005676 0.000003 0.001264 -0.000001
# 2 -0.005834 0.024881 -0.006420 -0.000011 -0.003801 0.000003
# 3 -0.005676 -0.006420 0.017506 0.000001 0.000660 0.000000
# 4 0.000003 -0.000011 0.000001 0.034654 0.000004 0.002598
# 5 0.001264 -0.003801 0.000660 0.000004 0.048937 0.000006
# 6 -0.000001 0.000003 0.000000 0.002598 0.000006 0.033113
#
#
# Mechanical properties :
#
#
# Convention : Reuss Voigt Hill
#
# Bulk Modulus (GPa) = 47.95366 52.88299 50.41832
# Shear Modulus (GPa) = 23.12366 24.64128 23.88247
#
# Velocity S-wave (km/s) = 3.64842 3.76624 3.70780
# Velocity P-wave (km/s) = 6.73440 7.02528 6.88138
#
# Compressibility (1/GPa) = 0.02085347
#
# Stress axis : x y z
#
# Youngs Moduli (GPa) = 69.80107 40.19129 57.12394
#
# Poissons Ratio (x) = 0.23448 0.32421
# Poissons Ratio (y) = 0.40723 0.36674
# Poissons Ratio (z) = 0.39616 0.25803
#
# Static dielectric constant tensor:
#      x y z
#    x 3.451330 -0.000020 0.116230 
#    y -0.000020 3.299760 0.000020 
#    z 0.116230 0.000020 3.095160 
# 
# 
# High freq. dielectric constant tensor:
#      x y z
#    x 1.676960 0.000000 0.000660 
#    y 0.000000 1.685690 0.000000 
#    z 0.000660 0.000000 1.653170 
# 
# From -- ./inp_files/280911.got.cif
#   From: 2010.06.25/outbox.cif.g09.slc.cpg/sg12_141_cif.got.tgz:280911.got - 2010.06.28 00:19:55.
