data_PCOD8097497
_publ_section_title
;
Structure prediction by ZEFSAII (Michael W. Deem and Ramdas Pophale) SiO2 
 PCOD8097497
Probable space group: C 2/M
;
_chemical_formula_sum "Si O2"
_cell_formula_units_Z 64
_cell_length_a 24.631113
_cell_length_b 14.576334
_cell_length_c 9.730414
_cell_angle_alpha 90.000000
_cell_angle_beta 106.093624
_cell_angle_gamma 90.000000
_cell_volume 3356.612323
_symmetry_space_group_name_H-M "C 2/M"
_symmetry_group_IT_number 12
_symmetry_cell_setting 'monoclinic'
loop_
_space_group_symop_operation_xyz
x,y,z
-x,y,-z
-x,-y,-z
x,-y,z
1/2+x,1/2+y,z
1/2-x,1/2+y,-z
1/2-x,1/2-y,-z
1/2+x,1/2-y,z
loop_
_atom_site_type_symbol
_atom_site_label
_atom_site_fract_x
_atom_site_fract_y
_atom_site_fract_z
Si Si1 0.273979 0.765901 0.309058
Si Si2 0.619100 0.399725 0.314810
Si Si3 0.566191 0.394250 0.553608
Si Si4 0.916870 0.601773 0.849948
Si Si5 0.258349 0.602875 0.487546
Si Si6 0.150878 0.234128 0.122381
Si Si7 0.032701 0.397513 0.812059
Si Si8 0.616412 0.249776 0.785917
O O1 0.270968 0.659827 0.357106
O O2 0.282444 0.835415 0.444043
O O3 0.217320 0.786341 0.182192
O O4 0.327183 0.784342 0.249486
O O5 0.591885 0.500000 0.268653
O O6 0.590178 0.353374 0.427632
O O7 0.685027 0.409347 0.387617
O O8 0.611295 0.339355 0.173237
O O9 0.500000 0.382063 0.500000
O O10 0.584848 0.500000 0.582971
O O11 0.592224 0.341376 0.700763
O O12 0.895089 0.500000 0.796539
O O13 0.863105 0.669365 0.810806
O O14 0.966522 0.631576 0.777987
O O15 0.941643 0.602603 0.019148
O O16 0.233913 0.500000 0.438388
O O17 0.132267 0.228507 0.952888
O O18 0.037300 0.500000 0.752143
O O19 0.067922 0.328145 0.740772
#
# Coordination Sequence:
#
# PCOD8097497 Si02
#       8
#     8   8   8   8   8   8   8   8
#     4  10  20  34  53  81 115 146 184 228 276 339
#     4   9  18  36  56  75 106 147 186 227 274 327
#     4  10  22  39  58  79 107 148 192 233 281 335
#     4   8  15  31  51  74 105 142 179 216 264 329
#     4   9  18  35  56  75 103 149 193 225 266 321
#     4  10  21  33  55  85 115 144 182 230 283 335
#     4   8  16  31  52  75 104 141 178 216 269 328
#     4  11  21  35  57  84 114 146 180 231 288 339
#
# _framework density 19.066842000000001
#
# number of rings (size 3 to 8) (size 9 to 14) (size 15 to 20)
#    0.000    2.625    1.250    1.125    1.750    1.500 
#    0.000    0.000    0.000    7.125    0.000    0.000 
#    0.000    0.000    0.000    0.000    0.000    0.000 
#
# Total GULP energy -396617.072533 kJ/mol
# GULP energy per Si atom -12394.283517 kJ/mol
# Density = 1.902345 g / cm^3
# Si number density = 19.066842 Si / 1000 Ang^3
#
#
#
# Elastic Constant Matrix: (Units=GPa)
#
#
# Indices 1 2 3 4 5 6 
#
# 1 100.5512 43.3669 33.4676 0.0000 -25.8266 0.0000
# 2 43.3669 100.7937 39.3571 0.0000 -24.5553 0.0000
# 3 33.4676 39.3571 71.7510 0.0000 -27.1517 0.0000
# 4 0.0000 0.0000 0.0000 4.3676 0.0000 -27.8920
# 5 -25.8266 -24.5553 -27.1517 0.0000 24.8402 0.0000
# 6 0.0000 0.0000 0.0000 -27.8920 0.0000 -5.8687
#
#
#
# Elastic Compliance Matrix: (Units=1/GPa)
#
#
# Indices 1 2 3 4 5 6 
#
# 1 0.014408 -0.003222 -0.000835 0.000000 0.010882 0.000000
# 2 -0.003222 0.014457 -0.003900 0.000000 0.006679 0.000000
# 3 -0.000835 -0.003900 0.025033 0.000000 0.022638 0.000000
# 4 0.000000 0.000000 0.000000 0.007303 0.000000 -0.034709
# 5 0.010882 0.006679 0.022638 0.000000 0.082919 0.000000
# 6 0.000000 0.000000 0.000000 -0.034709 0.000000 -0.005435
#
#
# Mechanical properties :
#
#
# Convention : Reuss Voigt Hill
#
# Bulk Modulus (GPa) = 26.32700 56.16436 41.24568
# Shear Modulus (GPa) = 29.89360 15.12812 22.51086
#
# Velocity S-wave (km/s) = 3.96388 2.81984 3.43976
# Velocity P-wave (km/s) = 5.89809 6.33423 6.12005
#
# Compressibility (1/GPa) = 0.03798383
#
# Stress axis : x y z
#
# Youngs Moduli (GPa) = 69.40692 69.16864 39.94790
#
# Poissons Ratio (x) = 0.22285 0.03336
# Poissons Ratio (y) = 0.22361 0.15580
# Poissons Ratio (z) = 0.05797 0.26976
#
# Static dielectric constant tensor:
#      x y z
#    x 3.577100 0.000000 -0.173040 
#    y 0.000000 3.901250 0.000000 
#    z -0.173040 0.000000 3.163610 
# 
# 
# High freq. dielectric constant tensor:
#      x y z
#    x 1.742040 0.000000 -0.012020 
#    y 0.000000 1.742640 0.000000 
#    z -0.012020 0.000000 1.714830 
# 
# From -- ./inp_files/104634.got.cif
#   From: 2010.06.25/outbox.cif.g09.slc.cpg/sg12_53_cif.got.tgz:104634.got - 2010.06.28 00:19:55.
