data_PCOD8097881
_publ_section_title
;
Structure prediction by ZEFSAII (Michael W. Deem and Ramdas Pophale) SiO2 
 PCOD8097881
Probable space group: C 2/M
;
_chemical_formula_sum "Si O2"
_cell_formula_units_Z 48
_cell_length_a 23.324218
_cell_length_b 9.043959
_cell_length_c 23.729882
_cell_angle_alpha 90.000000
_cell_angle_beta 151.680089
_cell_angle_gamma 90.000000
_cell_volume 2374.655353
_symmetry_space_group_name_H-M "C 2/M"
_symmetry_group_IT_number 12
_symmetry_cell_setting 'monoclinic'
loop_
_space_group_symop_operation_xyz
x,y,z
-x,y,-z
-x,-y,-z
x,-y,z
1/2+x,1/2+y,z
1/2-x,1/2+y,-z
1/2-x,1/2-y,-z
1/2+x,1/2-y,z
loop_
_atom_site_type_symbol
_atom_site_label
_atom_site_fract_x
_atom_site_fract_y
_atom_site_fract_z
Si Si1 0.690166 0.675778 0.781943
Si Si2 0.676497 0.828305 0.295357
Si Si3 0.201284 0.666908 0.904091
Si Si4 0.418769 0.669153 0.558627
Si Si5 0.374775 0.326239 0.861568
Si Si6 0.584050 0.834941 0.334383
O O1 0.704274 0.500000 0.795652
O O2 0.744610 0.744694 0.886256
O O3 0.550351 0.727751 0.653183
O O4 0.764175 0.739671 0.793902
O O5 0.822502 0.808333 0.424881
O O6 0.618897 0.727509 0.197276
O O7 0.620655 0.768394 0.305621
O O8 0.642507 0.000000 0.255217
O O9 0.253163 0.500000 0.946348
O O10 0.058745 0.665721 0.784107
O O11 0.250000 0.750000 0.000000
O O12 0.433238 0.500000 0.588045
O O13 0.364378 0.744654 0.567893
O O14 0.349429 0.500000 0.842373
O O15 0.500000 0.284490 0.000000
O O16 0.637497 0.000000 0.384516
#
# Coordination Sequence:
#
# PCOD8097881 Si02
#       6
#     8   8   8   8   8   8
#     4  10  21  39  61  84 113 152 191 237 291 343
#     4  10  21  38  60  87 118 155 193 233 283 344
#     4  10  20  34  54  84 117 153 195 240 286 337
#     4   9  19  36  60  90 120 149 188 234 286 342
#     4  11  26  44  59  82 113 150 196 245 292 341
#     4   9  19  34  55  86 120 152 190 232 282 341
#
# _framework density 20.213460999999999
#
# number of rings (size 3 to 8) (size 9 to 14) (size 15 to 20)
#    0.000    2.167    0.000    2.000    2.333    4.667 
#    0.000    3.333    0.000    0.000    0.000    0.000 
#    0.000    0.000    0.000    0.000    0.000    0.000 
#
# Total GULP energy -297619.709383 kJ/mol
# GULP energy per Si atom -12400.821224 kJ/mol
# Density = 2.016745 g / cm^3
# Si number density = 20.213461 Si / 1000 Ang^3
#
#
#
# Elastic Constant Matrix: (Units=GPa)
#
#
# Indices 1 2 3 4 5 6 
#
# 1 107.5874 40.5320 36.6750 0.0000 -4.5608 0.0000
# 2 40.5320 90.5371 41.4033 0.0000 -9.0849 0.0000
# 3 36.6750 41.4033 78.8356 0.0000 -20.9121 0.0000
# 4 0.0000 0.0000 0.0000 27.8170 0.0000 -6.6054
# 5 -4.5608 -9.0849 -20.9121 0.0000 28.1826 0.0000
# 6 0.0000 0.0000 0.0000 -6.6054 0.0000 37.1144
#
#
#
# Elastic Compliance Matrix: (Units=1/GPa)
#
#
# Indices 1 2 3 4 5 6 
#
# 1 0.012045 -0.003657 -0.004331 0.000000 -0.002443 0.000000
# 2 -0.003657 0.015680 -0.006661 0.000000 -0.000480 0.000000
# 3 -0.004331 -0.006661 0.021717 0.000000 0.013266 0.000000
# 4 0.000000 0.000000 0.000000 0.037536 0.000000 0.006680
# 5 -0.002443 -0.000480 0.013266 0.000000 0.044777 0.000000
# 6 0.000000 0.000000 0.000000 0.006680 0.000000 0.028133
#
#
# Mechanical properties :
#
#
# Convention : Reuss Voigt Hill
#
# Bulk Modulus (GPa) = 49.64237 57.13119 53.38678
# Shear Modulus (GPa) = 25.52315 29.17944 27.35130
#
# Velocity S-wave (km/s) = 3.55728 3.80355 3.68247
# Velocity P-wave (km/s) = 6.44086 6.90033 6.67455
#
# Compressibility (1/GPa) = 0.02014408
#
# Stress axis : x y z
#
# Youngs Moduli (GPa) = 83.01972 63.77385 46.04732
#
# Poissons Ratio (x) = 0.23322 0.19944
# Poissons Ratio (y) = 0.30361 0.30673
# Poissons Ratio (z) = 0.35957 0.42480
#
# Static dielectric constant tensor:
#      x y z
#    x 3.736400 0.000000 0.366590 
#    y 0.000000 3.779610 0.000000 
#    z 0.366590 0.000000 5.023590 
# 
# 
# High freq. dielectric constant tensor:
#      x y z
#    x 1.790450 0.000000 0.003680 
#    y 0.000000 1.787130 0.000000 
#    z 0.003680 0.000000 1.791430 
# 
# From -- ./inp_files/348898.got.cif
#   From: 2010.06.25/outbox.cif.g09.slc.cpg/sg12_175_cif.got.tgz:348898.got - 2010.06.28 00:19:55.
