data_PCOD8097656
_publ_section_title
;
Structure prediction by ZEFSAII (Michael W. Deem and Ramdas Pophale) SiO2 
 PCOD8097656
Probable space group: C 2/M
;
_chemical_formula_sum "Si O2"
_cell_formula_units_Z 64
_cell_length_a 15.435802
_cell_length_b 8.913518
_cell_length_c 23.846536
_cell_angle_alpha 90.000000
_cell_angle_beta 90.015042
_cell_angle_gamma 90.000000
_cell_volume 3280.980365
_symmetry_space_group_name_H-M "C 2/M"
_symmetry_group_IT_number 12
_symmetry_cell_setting 'monoclinic'
loop_
_space_group_symop_operation_xyz
x,y,z
-x,y,-z
-x,-y,-z
x,-y,z
1/2+x,1/2+y,z
1/2-x,1/2+y,-z
1/2-x,1/2-y,-z
1/2+x,1/2-y,z
loop_
_atom_site_type_symbol
_atom_site_label
_atom_site_fract_x
_atom_site_fract_y
_atom_site_fract_z
Si Si1 0.093454 0.327022 0.662679
Si Si2 0.251101 0.677273 0.738936
Si Si3 0.908522 0.677653 0.931821
Si Si4 0.156284 0.827036 0.435045
Si Si5 0.598779 0.171479 0.328564
Si Si6 0.757308 0.821553 0.865535
Si Si7 0.602421 0.177646 0.941863
Si Si8 0.161860 0.173626 0.560626
O O1 0.110176 0.500000 0.646285
O O2 0.167013 0.265975 0.704947
O O3 0.092249 0.225609 0.606560
O O4 0.000120 0.309996 0.692591
O O5 0.254870 0.500000 0.738484
O O6 0.338993 0.735293 0.711371
O O7 0.244000 0.737057 0.802329
O O8 0.897939 0.500000 0.925169
O O9 0.848309 0.759795 0.887311
O O10 0.007681 0.728679 0.920088
O O11 0.882013 0.731274 0.994343
O O12 0.100251 0.728343 0.392665
O O13 0.122321 0.801855 0.498485
O O14 0.255666 0.778529 0.430085
O O15 0.149491 0.000000 0.417078
O O16 0.629170 0.000000 0.326848
O O17 0.677792 0.755437 0.902398
O O18 0.759277 0.000000 0.868577
O O19 0.604890 0.000000 0.940696
O O20 0.187611 0.000000 0.568975
#
# Coordination Sequence:
#
# PCOD8097656 Si02
#       8
#     8   8   8   8   8   8   8   8
#     4  10  22  39  58  80 109 145 183 228 281 333
#     4  10  22  40  57  75 106 148 186 226 280 331
#     4   9  17  32  55  82 111 144 182 222 267 320
#     4  10  20  35  56  83 116 147 175 218 280 335
#     4  11  23  38  59  85 108 139 188 235 276 329
#     4  10  20  34  54  79 108 144 185 225 273 327
#     4   8  16  32  54  80 112 148 181 216 266 331
#     4  10  20  34  57  86 112 143 182 222 268 331
#
# _framework density 19.506366
#
# number of rings (size 3 to 8) (size 9 to 14) (size 15 to 20)
#    0.000    2.250    1.250    2.250    0.000    4.500 
#    0.000    6.875    0.000    0.000    0.000    0.000 
#    0.000    0.000    0.000    0.000    0.000    0.000 
#
# Total GULP energy -396791.246420 kJ/mol
# GULP energy per Si atom -12399.726451 kJ/mol
# Density = 1.946197 g / cm^3
# Si number density = 19.506366 Si / 1000 Ang^3
#
#
#
# Elastic Constant Matrix: (Units=GPa)
#
#
# Indices 1 2 3 4 5 6 
#
# 1 102.1444 12.4157 52.8269 0.0000 -0.5041 0.0000
# 2 12.4157 12.3633 23.1029 0.0000 1.5779 0.0000
# 3 52.8269 23.1029 118.5262 0.0000 2.0212 0.0000
# 4 0.0000 0.0000 0.0000 22.7284 0.0000 3.1774
# 5 -0.5041 1.5779 2.0212 0.0000 15.3245 0.0000
# 6 0.0000 0.0000 0.0000 3.1774 0.0000 28.3385
#
#
#
# Elastic Compliance Matrix: (Units=1/GPa)
#
#
# Indices 1 2 3 4 5 6 
#
# 1 0.012848 -0.003684 -0.005033 0.000000 0.001466 0.000000
# 2 -0.003684 0.129782 -0.023478 0.000000 -0.010387 0.000000
# 3 -0.005033 -0.023478 0.015252 0.000000 0.000240 0.000000
# 4 0.000000 0.000000 0.000000 0.044698 0.000000 -0.005012
# 5 0.001466 -0.010387 0.000240 0.000000 0.066341 0.000000
# 6 0.000000 0.000000 0.000000 -0.005012 0.000000 0.035850
#
#
# Mechanical properties :
#
#
# Convention : Reuss Voigt Hill
#
# Bulk Modulus (GPa) = 10.69610 45.52501 28.11055
# Shear Modulus (GPa) = 12.48984 22.92418 17.70701
#
# Velocity S-wave (km/s) = 2.53315 3.43186 3.01617
# Velocity P-wave (km/s) = 3.74848 6.25242 5.15480
#
# Compressibility (1/GPa) = 0.09349203
#
# Stress axis : x y z
#
# Youngs Moduli (GPa) = 77.83172 7.70525 65.56331
#
# Poissons Ratio (x) = 0.02839 0.33000
# Poissons Ratio (y) = 0.28674 1.53927
# Poissons Ratio (z) = 0.39175 0.18090
#
# Static dielectric constant tensor:
#      x y z
#    x 3.587940 0.000000 -0.050720 
#    y 0.000000 3.333820 0.000000 
#    z -0.050720 0.000000 3.759840 
# 
# 
# High freq. dielectric constant tensor:
#      x y z
#    x 1.761940 0.000000 -0.000310 
#    y 0.000000 1.741950 0.000000 
#    z -0.000310 0.000000 1.757100 
# 
# From -- ./inp_files/338914.got.cif
#   From: 2010.06.25/outbox.cif.g09.slc.cpg/sg12_170_cif.got.tgz:338914.got - 2010.06.28 00:19:55.
