data_PCOD8097246
_publ_section_title
;
Structure prediction by ZEFSAII (Michael W. Deem and Ramdas Pophale) SiO2 
 PCOD8097246
Probable space group: C 2/M
;
_chemical_formula_sum "Si O2"
_cell_formula_units_Z 64
_cell_length_a 18.280777
_cell_length_b 9.138603
_cell_length_c 30.868599
_cell_angle_alpha 90.000000
_cell_angle_beta 138.236745
_cell_angle_gamma 90.000000
_cell_volume 3434.796255
_symmetry_space_group_name_H-M "C 2/M"
_symmetry_group_IT_number 12
_symmetry_cell_setting 'monoclinic'
loop_
_space_group_symop_operation_xyz
x,y,z
-x,y,-z
-x,-y,-z
x,-y,z
1/2+x,1/2+y,z
1/2-x,1/2+y,-z
1/2-x,1/2-y,-z
1/2+x,1/2-y,z
loop_
_atom_site_type_symbol
_atom_site_label
_atom_site_fract_x
_atom_site_fract_y
_atom_site_fract_z
Si Si1 0.919397 0.667389 0.567499
Si Si2 0.023001 0.170456 0.184132
Si Si3 0.372128 0.330540 0.940013
Si Si4 0.224043 0.826380 0.943606
Si Si5 0.761978 0.832491 0.439686
Si Si6 0.192165 0.169921 0.185582
Si Si7 0.686016 0.169830 0.313304
Si Si8 0.642208 0.670451 0.685225
O O1 0.948871 0.500000 0.570346
O O2 0.865660 0.737493 0.500911
O O3 0.837453 0.682197 0.571201
O O4 0.026667 0.754041 0.627921
O O5 0.086779 0.212814 0.168152
O O6 0.075946 0.250371 0.248811
O O7 0.897829 0.221541 0.124437
O O8 0.031347 0.000000 0.197163
O O9 0.348524 0.500000 0.940821
O O10 0.308805 0.227299 0.945097
O O11 0.333812 0.289868 0.875043
O O12 0.500000 0.295533 0.000000
O O13 0.233341 0.000000 0.953491
O O14 0.250000 0.750000 0.000000
O O15 0.721145 0.769853 0.375706
O O16 0.801648 0.000000 0.452796
O O17 0.297976 0.262787 0.246393
O O18 0.220792 0.000000 0.203960
O O19 0.785771 0.202950 0.325208
O O20 0.656940 0.000000 0.303042
O O21 0.623689 0.500000 0.685111
#
# Coordination Sequence:
#
# PCOD8097246 Si02
#       8
#     8   8   8   8   8   8   8   8
#     4  10  20  34  53  76 102 135 175 216 261 314
#     4   9  19  36  56  78 106 139 175 218 266 315
#     4  10  21  38  59  82 110 145 183 223 271 323
#     4  11  23  38  57  83 113 145 183 225 271 322
#     4   9  19  36  54  73 101 136 174 215 259 309
#     4   9  18  35  57  77 103 140 178 216 261 316
#     4   9  19  35  55  78 103 136 176 215 259 312
#     4  10  20  34  53  77 106 137 171 215 263 311
#
# _framework density 18.632838
#
# number of rings (size 3 to 8) (size 9 to 14) (size 15 to 20)
#    0.000    2.375    0.000    1.875    0.000    6.750 
#    0.000    8.750    0.000    0.000    0.000    0.000 
#    0.000    0.000    0.000    0.000    0.000    0.000 
#
# Total GULP energy -396912.312852 kJ/mol
# GULP energy per Si atom -12403.509777 kJ/mol
# Density = 1.859043 g / cm^3
# Si number density = 18.632838 Si / 1000 Ang^3
#
#
#
# Elastic Constant Matrix: (Units=GPa)
#
#
# Indices 1 2 3 4 5 6 
#
# 1 65.8665 41.9604 63.4858 0.0000 -5.8410 0.0000
# 2 41.9604 86.3773 78.0208 0.0000 1.8256 0.0000
# 3 63.4858 78.0208 175.7084 0.0000 -3.7693 0.0000
# 4 0.0000 0.0000 0.0000 36.7444 0.0000 -2.2690
# 5 -5.8410 1.8256 -3.7693 0.0000 36.0041 0.0000
# 6 0.0000 0.0000 0.0000 -2.2690 0.0000 24.7520
#
#
#
# Elastic Compliance Matrix: (Units=1/GPa)
#
#
# Indices 1 2 3 4 5 6 
#
# 1 0.026013 -0.007191 -0.006121 0.000000 0.003944 0.000000
# 2 -0.007191 0.021446 -0.006989 0.000000 -0.002986 0.000000
# 3 -0.006121 -0.006989 0.011017 0.000000 0.000515 0.000000
# 4 0.000000 0.000000 0.000000 0.027370 0.000000 0.002509
# 5 0.003944 -0.002986 0.000515 0.000000 0.028620 0.000000
# 6 0.000000 0.000000 0.000000 0.002509 0.000000 0.040631
#
#
# Mechanical properties :
#
#
# Convention : Reuss Voigt Hill
#
# Bulk Modulus (GPa) = 55.94553 77.20959 66.57756
# Shear Modulus (GPa) = 24.79468 29.13245 26.96356
#
# Velocity S-wave (km/s) = 3.65183 3.95840 3.80820
# Velocity P-wave (km/s) = 6.91893 7.90059 7.42600
#
# Compressibility (1/GPa) = 0.01787453
#
# Stress axis : x y z
#
# Youngs Moduli (GPa) = 38.44240 46.62887 90.76754
#
# Poissons Ratio (x) = 0.33531 0.55561
# Poissons Ratio (y) = 0.27644 0.63434
# Poissons Ratio (z) = 0.23531 0.32587
#
# Static dielectric constant tensor:
#      x y z
#    x 3.409980 0.000000 -0.050440 
#    y 0.000000 3.457940 0.000000 
#    z -0.050440 0.000000 3.620540 
# 
# 
# High freq. dielectric constant tensor:
#      x y z
#    x 1.716620 0.000000 -0.001290 
#    y 0.000000 1.723640 0.000000 
#    z -0.001290 0.000000 1.738540 
# 
# From -- ./inp_files/378325.got.cif
#   From: 2010.06.25/outbox.cif.g09.slc.cpg/sg12_190_cif.got.tgz:378325.got - 2010.06.28 00:19:55.
