data_PCOD8097115
_publ_section_title
;
Structure prediction by ZEFSAII (Michael W. Deem and Ramdas Pophale) SiO2 
 PCOD8097115
Probable space group: C 2/M
;
_chemical_formula_sum "Si O2"
_cell_formula_units_Z 56
_cell_length_a 15.707341
_cell_length_b 9.013314
_cell_length_c 19.633599
_cell_angle_alpha 90.000000
_cell_angle_beta 89.597156
_cell_angle_gamma 90.000000
_cell_volume 2779.561933
_symmetry_space_group_name_H-M "C 2/M"
_symmetry_group_IT_number 12
_symmetry_cell_setting 'monoclinic'
loop_
_space_group_symop_operation_xyz
x,y,z
-x,y,-z
-x,-y,-z
x,-y,z
1/2+x,1/2+y,z
1/2-x,1/2+y,-z
1/2-x,1/2-y,-z
1/2+x,1/2-y,z
loop_
_atom_site_type_symbol
_atom_site_label
_atom_site_fract_x
_atom_site_fract_y
_atom_site_fract_z
Si Si1 0.583603 0.164437 0.207029
Si Si2 0.581481 0.832528 0.358287
Si Si3 0.766181 0.824272 0.571603
Si Si4 0.388092 0.825298 0.329633
Si Si5 0.081217 0.170952 0.805158
Si Si6 0.311899 0.832195 0.925516
Si Si7 0.644635 0.166696 0.933173
O O1 0.622586 0.170885 0.282438
O O2 0.517882 0.298106 0.202494
O O3 0.653339 0.192100 0.149968
O O4 0.541267 0.000000 0.196718
O O5 0.640879 0.727139 0.403112
O O6 0.482114 0.777345 0.357562
O O7 0.584910 0.000000 0.387976
O O8 0.750000 0.750000 0.500000
O O9 0.687824 0.773475 0.620337
O O10 0.767898 0.000000 0.563861
O O11 0.368667 0.754546 0.255657
O O12 0.387999 0.000000 0.319170
O O13 0.101774 0.221201 0.881556
O O14 0.103105 0.000000 0.797755
O O15 0.244768 0.700984 0.934190
O O16 0.273604 0.000000 0.931124
O O17 0.382613 0.814380 0.986370
O O18 0.627157 0.000000 0.907802
#
# Coordination Sequence:
#
# PCOD8097115 Si02
#       7
#     8   8   8   8   8   8   8
#     4   9  19  37  58  80 110 147 188 233 290 348
#     4   9  19  38  62  87 119 156 195 239 291 346
#     4  11  24  41  63  92 123 154 195 235 284 350
#     4   9  21  42  63  86 119 160 197 237 293 354
#     4  11  22  35  55  82 111 145 192 240 285 341
#     4   9  19  35  54  78 107 146 193 236 285 344
#     4  10  20  34  52  76 111 149 188 237 290 342
#
# _framework density 20.14706
#
# number of rings (size 3 to 8) (size 9 to 14) (size 15 to 20)
#    0.000    2.286    0.000    3.000    2.000    5.714 
#    0.000    5.714    0.000    0.000    0.000    0.000 
#    0.000    0.000    0.000    0.000    0.000    0.000 
#
# Total GULP energy -346931.746656 kJ/mol
# GULP energy per Si atom -12390.419523 kJ/mol
# Density = 2.010120 g / cm^3
# Si number density = 20.147060 Si / 1000 Ang^3
#
#
#
# Elastic Constant Matrix: (Units=GPa)
#
#
# Indices 1 2 3 4 5 6 
#
# 1 46.6563 14.4995 12.6266 0.0000 11.4387 0.0000
# 2 14.4995 65.2431 23.5990 0.0000 9.9465 0.0000
# 3 12.6266 23.5990 73.2939 0.0000 12.8815 0.0000
# 4 0.0000 0.0000 0.0000 31.9381 0.0000 6.0824
# 5 11.4387 9.9465 12.8815 0.0000 28.3670 0.0000
# 6 0.0000 0.0000 0.0000 6.0824 0.0000 30.4192
#
#
#
# Elastic Compliance Matrix: (Units=1/GPa)
#
#
# Indices 1 2 3 4 5 6 
#
# 1 0.025014 -0.003722 -0.001703 0.000000 -0.008008 0.000000
# 2 -0.003722 0.018298 -0.004767 0.000000 -0.002750 0.000000
# 3 -0.001703 -0.004767 0.016363 0.000000 -0.005072 0.000000
# 4 0.000000 0.000000 0.000000 0.032550 0.000000 -0.006508
# 5 -0.008008 -0.002750 -0.005072 0.000000 0.041749 0.000000
# 6 0.000000 0.000000 0.000000 -0.006508 0.000000 0.034175
#
#
# Mechanical properties :
#
#
# Convention : Reuss Voigt Hill
#
# Bulk Modulus (GPa) = 25.45119 31.84928 28.65023
# Shear Modulus (GPa) = 24.79758 27.10941 25.95350
#
# Velocity S-wave (km/s) = 3.51212 3.67219 3.59305
# Velocity P-wave (km/s) = 5.39507 5.81573 5.60934
#
# Compressibility (1/GPa) = 0.03929090
#
# Stress axis : x y z
#
# Youngs Moduli (GPa) = 39.97688 54.65066 61.11173
#
# Poissons Ratio (x) = 0.20342 0.10410
# Poissons Ratio (y) = 0.14880 0.29132
# Poissons Ratio (z) = 0.06810 0.26052
#
# Static dielectric constant tensor:
#      x y z
#    x 3.494680 0.000000 -0.026740 
#    y 0.000000 3.694790 0.000000 
#    z -0.026740 0.000000 4.034350 
# 
# 
# High freq. dielectric constant tensor:
#      x y z
#    x 1.762400 0.000000 0.002520 
#    y 0.000000 1.781350 0.000000 
#    z 0.002520 0.000000 1.800970 
# 
# From -- ./inp_files/308999.got.cif
#   From: 2010.06.25/outbox.cif.g09.slc.cpg/sg12_155_cif.got.tgz:308999.got - 2010.06.28 00:19:55.
