data_PCOD8097326
_publ_section_title
;
Structure prediction by ZEFSAII (Michael W. Deem and Ramdas Pophale) SiO2 
 PCOD8097326
Probable space group: C 2/M
;
_chemical_formula_sum "Si O2"
_cell_formula_units_Z 48
_cell_length_a 15.208786
_cell_length_b 8.852807
_cell_length_c 20.532739
_cell_angle_alpha 90.000000
_cell_angle_beta 112.909901
_cell_angle_gamma 90.000000
_cell_volume 2546.465353
_symmetry_space_group_name_H-M "C 2/M"
_symmetry_group_IT_number 12
_symmetry_cell_setting 'monoclinic'
loop_
_space_group_symop_operation_xyz
x,y,z
-x,y,-z
-x,-y,-z
x,-y,z
1/2+x,1/2+y,z
1/2-x,1/2+y,-z
1/2-x,1/2-y,-z
1/2+x,1/2-y,z
loop_
_atom_site_type_symbol
_atom_site_label
_atom_site_fract_x
_atom_site_fract_y
_atom_site_fract_z
Si Si1 0.012632 0.821266 0.318494
Si Si2 0.234063 0.823612 0.175361
Si Si3 0.162125 0.677013 0.665623
Si Si4 0.472325 0.678331 0.919015
Si Si5 0.780223 0.822027 0.575850
Si Si6 0.426814 0.179544 0.169337
O O1 0.114702 0.766024 0.374260
O O2 0.933955 0.769498 0.348269
O O3 0.998070 0.745733 0.244034
O O4 0.008701 0.000000 0.308265
O O5 0.257805 0.785165 0.257112
O O6 0.132594 0.752074 0.126155
O O7 0.319490 0.762846 0.154236
O O8 0.224616 0.000000 0.161426
O O9 0.136778 0.500000 0.660583
O O10 0.204088 0.728373 0.608609
O O11 0.477265 0.500000 0.907752
O O12 0.547925 0.759301 0.894252
O O13 0.500000 0.720905 0.000000
O O14 0.750000 0.750000 0.500000
O O15 0.779584 0.000000 0.567853
O O16 0.433764 0.000000 0.174036
#
# Coordination Sequence:
#
# PCOD8097326 Si02
#       6
#     8   8   8   8   8   8
#     4  10  20  36  57  80 104 133 173 220 262 303
#     4   8  16  33  54  74 101 135 170 211 261 310
#     4   9  18  35  56  76 101 137 175 213 260 310
#     4  10  20  34  53  77 106 141 177 214 259 310
#     4  10  22  37  54  77 109 144 173 209 260 313
#     4  10  20  35  55  77 103 137 174 215 262 311
#
# _framework density 18.849658000000002
#
# number of rings (size 3 to 8) (size 9 to 14) (size 15 to 20)
#    0.000    2.500    0.000    3.000    0.000    6.333 
#    0.000   10.833    0.000    0.000    0.000    0.000 
#    0.000    0.000    0.000    0.000    0.000    0.000 
#
# Total GULP energy -297607.992224 kJ/mol
# GULP energy per Si atom -12400.333009 kJ/mol
# Density = 1.880675 g / cm^3
# Si number density = 18.849658 Si / 1000 Ang^3
#
#
#
# Elastic Constant Matrix: (Units=GPa)
#
#
# Indices 1 2 3 4 5 6 
#
# 1 87.2623 26.4620 55.5050 0.0000 -19.2418 0.0000
# 2 26.4620 44.3541 32.6092 0.0000 -7.3684 0.0000
# 3 55.5050 32.6092 109.5116 0.0000 -22.3085 0.0000
# 4 0.0000 0.0000 0.0000 29.4027 0.0000 -5.6437
# 5 -19.2418 -7.3684 -22.3085 0.0000 29.9418 0.0000
# 6 0.0000 0.0000 0.0000 -5.6437 0.0000 29.5418
#
#
#
# Elastic Compliance Matrix: (Units=1/GPa)
#
#
# Indices 1 2 3 4 5 6 
#
# 1 0.018543 -0.005199 -0.006700 0.000000 0.005645 0.000000
# 2 -0.005199 0.030340 -0.006554 0.000000 -0.000758 0.000000
# 3 -0.006700 -0.006554 0.015648 0.000000 0.005740 0.000000
# 4 0.000000 0.000000 0.000000 0.035305 0.000000 0.006745
# 5 0.005645 -0.000758 0.005740 0.000000 0.041116 0.000000
# 6 0.000000 0.000000 0.000000 0.006745 0.000000 0.035139
#
#
# Mechanical properties :
#
#
# Convention : Reuss Voigt Hill
#
# Bulk Modulus (GPa) = 36.19866 52.25340 44.22603
# Shear Modulus (GPa) = 22.50172 26.21405 24.35789
#
# Velocity S-wave (km/s) = 3.45881 3.73324 3.59864
# Velocity P-wave (km/s) = 5.93268 6.80912 6.38596
#
# Compressibility (1/GPa) = 0.02762534
#
# Stress axis : x y z
#
# Youngs Moduli (GPa) = 53.92919 32.95987 63.90503
#
# Poissons Ratio (x) = 0.17136 0.42818
# Poissons Ratio (y) = 0.28038 0.41880
# Poissons Ratio (z) = 0.36134 0.21600
#
# Static dielectric constant tensor:
#      x y z
#    x 3.815520 0.000000 0.123420 
#    y 0.000000 3.227210 0.000000 
#    z 0.123420 0.000000 3.557450 
# 
# 
# High freq. dielectric constant tensor:
#      x y z
#    x 1.746730 0.000000 -0.003210 
#    y 0.000000 1.712020 0.000000 
#    z -0.003210 0.000000 1.729720 
# 
# From -- ./inp_files/308296.got.cif
#   From: 2010.06.25/outbox.cif.g09.slc.cpg/sg12_155_cif.got.tgz:308296.got - 2010.06.28 00:19:55.
