data_PCOD8097942
_publ_section_title
;
Structure prediction by ZEFSAII (Michael W. Deem and Ramdas Pophale) SiO2 
 PCOD8097942
Probable space group: C 2/M
;
_chemical_formula_sum "Si O2"
_cell_formula_units_Z 56
_cell_length_a 19.139132
_cell_length_b 8.896053
_cell_length_c 26.639660
_cell_angle_alpha 90.000000
_cell_angle_beta 39.871217
_cell_angle_gamma 90.000000
_cell_volume 2907.701187
_symmetry_space_group_name_H-M "C 2/M"
_symmetry_group_IT_number 12
_symmetry_cell_setting 'monoclinic'
loop_
_space_group_symop_operation_xyz
x,y,z
-x,y,-z
-x,-y,-z
x,-y,z
1/2+x,1/2+y,z
1/2-x,1/2+y,-z
1/2-x,1/2-y,-z
1/2+x,1/2-y,z
loop_
_atom_site_type_symbol
_atom_site_label
_atom_site_fract_x
_atom_site_fract_y
_atom_site_fract_z
Si Si1 0.842713 0.677990 0.227046
Si Si2 0.161758 0.828306 0.201090
Si Si3 0.764882 0.823990 0.437631
Si Si4 0.440080 0.670339 0.480778
Si Si5 0.400633 0.826477 0.085170
Si Si6 0.451584 0.327588 0.259124
Si Si7 0.373652 0.824274 0.677727
O O1 0.828773 0.500000 0.234269
O O2 0.889387 0.739214 0.147938
O O3 0.922265 0.724774 0.228050
O O4 0.723238 0.748812 0.301194
O O5 0.288286 0.804958 0.115439
O O6 0.138294 0.708969 0.257145
O O7 0.079262 0.798214 0.200674
O O8 0.146271 0.000000 0.229770
O O9 0.750000 0.750000 0.500000
O O10 0.674729 0.754640 0.450186
O O11 0.881268 0.787315 0.347684
O O12 0.746719 0.000000 0.453684
O O13 0.500000 0.676430 0.500000
O O14 0.420727 0.500000 0.473172
O O15 0.510573 0.755993 0.400719
O O16 0.430075 0.000000 0.075417
O O17 0.500000 0.746758 0.000000
O O18 0.430421 0.500000 0.255580
O O19 0.372404 0.000000 0.667687
#
# Coordination Sequence:
#
# PCOD8097942 Si02
#       7
#     8   8   8   8   8   8   8
#     4  10  20  34  55  80 107 142 180 219 265 317
#     4   9  18  34  56  79 105 140 178 214 259 315
#     4  11  23  37  54  76 105 143 184 228 278 325
#     4  11  23  37  53  74 102 136 177 225 272 319
#     4   8  15  31  56  83 108 138 178 218 258 312
#     4  10  21  36  53  76 108 142 177 221 270 319
#     4  11  21  34  54  77 103 135 175 222 268 318
#
# _framework density 19.2592
#
# number of rings (size 3 to 8) (size 9 to 14) (size 15 to 20)
#    0.000    2.000    0.000    5.143    0.000    6.286 
#    0.000    0.714    0.000   10.714    0.000    0.000 
#    0.000    0.000    0.000    0.000    0.000    0.000 
#
# Total GULP energy -347170.796539 kJ/mol
# GULP energy per Si atom -12398.957019 kJ/mol
# Density = 1.921536 g / cm^3
# Si number density = 19.259200 Si / 1000 Ang^3
#
#
#
# Elastic Constant Matrix: (Units=GPa)
#
#
# Indices 1 2 3 4 5 6 
#
# 1 111.9850 37.8395 36.7792 -0.0002 -14.6976 0.0018
# 2 37.8395 88.2604 33.3788 -0.0003 -5.0105 0.0021
# 3 36.7792 33.3788 94.7183 0.0001 -15.4329 0.0000
# 4 -0.0002 -0.0003 0.0001 14.6315 -0.0001 -0.3619
# 5 -14.6976 -5.0105 -15.4329 -0.0001 26.5335 -0.0001
# 6 0.0018 0.0021 0.0000 -0.3619 -0.0001 33.9073
#
#
#
# Elastic Compliance Matrix: (Units=1/GPa)
#
#
# Indices 1 2 3 4 5 6 
#
# 1 0.011580 -0.003790 -0.002466 0.000000 0.004264 0.000000
# 2 -0.003790 0.014314 -0.003838 0.000000 -0.001629 -0.000001
# 3 -0.002466 -0.003838 0.013839 0.000000 0.005958 0.000000
# 4 0.000000 0.000000 0.000000 0.068364 0.000000 0.000730
# 5 0.004264 -0.001629 0.005958 0.000000 0.043208 0.000000
# 6 0.000000 -0.000001 0.000000 0.000730 0.000000 0.029500
#
#
# Mechanical properties :
#
#
# Convention : Reuss Voigt Hill
#
# Bulk Modulus (GPa) = 51.16549 56.77320 53.96934
# Shear Modulus (GPa) = 24.09553 27.47888 25.78721
#
# Velocity S-wave (km/s) = 3.54095 3.78139 3.66314
# Velocity P-wave (km/s) = 6.58348 6.97192 6.78048
#
# Compressibility (1/GPa) = 0.01954442
#
# Stress axis : x y z
#
# Youngs Moduli (GPa) = 86.35566 69.86194 72.26205
#
# Poissons Ratio (x) = 0.26477 0.17821
# Poissons Ratio (y) = 0.32728 0.27734
# Poissons Ratio (z) = 0.21297 0.26813
#
# Static dielectric constant tensor:
#      x y z
#    x 3.563000 0.000000 -0.324750 
#    y 0.000000 3.443090 -0.000010 
#    z -0.324750 -0.000010 4.092540 
# 
# 
# High freq. dielectric constant tensor:
#      x y z
#    x 1.752350 0.000000 -0.014010 
#    y 0.000000 1.738420 0.000000 
#    z -0.014010 0.000000 1.736290 
# 
# From -- ./inp_files/280191.got.cif
#   From: 2010.06.25/outbox.cif.g09.slc.cpg/sg12_141_cif.got.tgz:280191.got - 2010.06.28 00:19:55.
