data_PCOD8097395
_publ_section_title
;
Structure prediction by ZEFSAII (Michael W. Deem and Ramdas Pophale) SiO2 
 PCOD8097395
Probable space group: C 2/M
;
_chemical_formula_sum "Si O2"
_cell_formula_units_Z 64
_cell_length_a 31.763839
_cell_length_b 8.900557
_cell_length_c 15.594075
_cell_angle_alpha 90.000000
_cell_angle_beta 126.520116
_cell_angle_gamma 90.000000
_cell_volume 3543.036651
_symmetry_space_group_name_H-M "C 2/M"
_symmetry_group_IT_number 12
_symmetry_cell_setting 'monoclinic'
loop_
_space_group_symop_operation_xyz
x,y,z
-x,y,-z
-x,-y,-z
x,-y,z
1/2+x,1/2+y,z
1/2-x,1/2+y,-z
1/2-x,1/2-y,-z
1/2+x,1/2-y,z
loop_
_atom_site_type_symbol
_atom_site_label
_atom_site_fract_x
_atom_site_fract_y
_atom_site_fract_z
Si Si1 0.136537 0.677672 0.514972
Si Si2 0.882092 0.326065 0.024523
Si Si3 0.219498 0.175220 0.040153
Si Si4 0.527956 0.825153 0.451806
Si Si5 0.846607 0.674083 0.791049
Si Si6 0.254239 0.824767 0.270605
Si Si7 0.100062 0.822558 0.303173
Si Si8 0.005826 0.324920 0.775165
O O1 0.132117 0.500000 0.494882
O O2 0.086580 0.739049 0.508255
O O3 0.188248 0.723282 0.629131
O O4 0.136509 0.753802 0.421819
O O5 0.875065 0.500000 0.039753
O O6 0.939441 0.267846 0.120157
O O7 0.839674 0.235369 0.027993
O O8 0.875373 0.297128 0.915803
O O9 0.249650 0.214653 0.164721
O O10 0.217453 0.000000 0.020457
O O11 0.250000 0.250000 0.000000
O O12 0.500000 0.746692 0.500000
O O13 0.493021 0.795058 0.325397
O O14 0.533730 0.000000 0.478333
O O15 0.847444 0.500000 0.765601
O O16 0.786720 0.728745 0.723943
O O17 0.877206 0.772296 0.759771
O O18 0.243103 0.000000 0.273641
O O19 0.040406 0.767072 0.236441
O O20 0.101467 0.000000 0.312062
O O21 0.996132 0.500000 0.783375
#
# Coordination Sequence:
#
# PCOD8097395 Si02
#       8
#     8   8   8   8   8   8   8   8
#     4   9  18  34  54  75 101 133 171 214 256 299
#     4   9  19  35  55  77 101 134 175 217 259 303
#     4  10  20  34  53  78 109 141 174 213 255 303
#     4   8  14  26  48  76 100 125 161 204 246 290
#     4  10  20  35  54  75 101 132 169 213 260 309
#     4   9  19  35  54  76 102 134 174 217 257 300
#     4  11  22  35  52  75 104 135 168 207 255 311
#     4   9  18  34  54  75 102 135 172 212 252 300
#
# _framework density 18.063599
#
# number of rings (size 3 to 8) (size 9 to 14) (size 15 to 20)
#    0.000    2.625    0.000    2.625    0.000    4.000 
#    0.000    6.250    0.000    6.000    0.000    0.000 
#    0.000    0.000    0.000    0.000    0.000    0.000 
#
# Total GULP energy -396832.684985 kJ/mol
# GULP energy per Si atom -12401.021406 kJ/mol
# Density = 1.802249 g / cm^3
# Si number density = 18.063599 Si / 1000 Ang^3
#
#
#
# Elastic Constant Matrix: (Units=GPa)
#
#
# Indices 1 2 3 4 5 6 
#
# 1 128.5292 54.9190 77.0651 0.0000 -3.0688 0.0000
# 2 54.9190 70.9440 41.7263 0.0000 0.8274 0.0000
# 3 77.0651 41.7263 109.5303 0.0000 20.8944 0.0000
# 4 0.0000 0.0000 0.0000 21.2998 0.0000 1.8445
# 5 -3.0688 0.8274 20.8944 0.0000 34.4337 0.0000
# 6 0.0000 0.0000 0.0000 1.8445 0.0000 30.9581
#
#
#
# Elastic Compliance Matrix: (Units=1/GPa)
#
#
# Indices 1 2 3 4 5 6 
#
# 1 0.018064 -0.007242 -0.011639 0.000000 0.008846 0.000000
# 2 -0.007242 0.021638 -0.003308 0.000000 0.000842 0.000000
# 3 -0.011639 -0.003308 0.021218 0.000000 -0.013833 0.000000
# 4 0.000000 0.000000 0.000000 0.047192 0.000000 -0.002812
# 5 0.008846 0.000842 -0.013833 0.000000 0.038203 0.000000
# 6 0.000000 0.000000 0.000000 -0.002812 0.000000 0.032469
#
#
# Mechanical properties :
#
#
# Convention : Reuss Voigt Hill
#
# Bulk Modulus (GPa) = 60.45143 72.93604 66.69373
# Shear Modulus (GPa) = 21.86491 26.35785 24.11138
#
# Velocity S-wave (km/s) = 3.48291 3.82405 3.65746
# Velocity P-wave (km/s) = 7.05073 7.74357 7.40526
#
# Compressibility (1/GPa) = 0.01654221
#
# Stress axis : x y z
#
# Youngs Moduli (GPa) = 55.35756 46.21588 47.12951
#
# Poissons Ratio (x) = 0.33468 0.54853
# Poissons Ratio (y) = 0.40088 0.15593
# Poissons Ratio (z) = 0.64430 0.15290
#
# Static dielectric constant tensor:
#      x y z
#    x 3.496930 0.000000 0.045450 
#    y 0.000000 3.199920 0.000000 
#    z 0.045450 0.000000 3.410440 
# 
# 
# High freq. dielectric constant tensor:
#      x y z
#    x 1.705390 0.000000 0.001300 
#    y 0.000000 1.685140 0.000000 
#    z 0.001300 0.000000 1.700690 
# 
# From -- ./inp_files/249214.got.cif
#   From: 2010.06.25/outbox.cif.g09.slc.cpg/sg12_125_cif.got.tgz:249214.got - 2010.06.28 00:19:55.
