data_PCOD8097993
_publ_section_title
;
Structure prediction by ZEFSAII (Michael W. Deem and Ramdas Pophale) SiO2 
 PCOD8097993
Probable space group: C 2/M
;
_chemical_formula_sum "Si O2"
_cell_formula_units_Z 56
_cell_length_a 24.983325
_cell_length_b 9.175264
_cell_length_c 14.535796
_cell_angle_alpha 90.000000
_cell_angle_beta 119.654008
_cell_angle_gamma 90.000000
_cell_volume 2895.622002
_symmetry_space_group_name_H-M "C 2/M"
_symmetry_group_IT_number 12
_symmetry_cell_setting 'monoclinic'
loop_
_space_group_symop_operation_xyz
x,y,z
-x,y,-z
-x,-y,-z
x,-y,z
1/2+x,1/2+y,z
1/2-x,1/2+y,-z
1/2-x,1/2-y,-z
1/2+x,1/2-y,z
loop_
_atom_site_type_symbol
_atom_site_label
_atom_site_fract_x
_atom_site_fract_y
_atom_site_fract_z
Si Si1 0.289692 0.830852 0.609650
Si Si2 0.981524 0.328938 0.386643
Si Si3 0.351193 0.327730 0.022826
Si Si4 0.148827 0.330697 0.794271
Si Si5 0.767232 0.168803 0.780765
Si Si6 0.068518 0.334259 0.297065
Si Si7 0.487139 0.672255 0.089653
O O1 0.250000 0.750000 0.500000
O O2 0.280174 0.763849 0.702149
O O3 0.359151 0.810473 0.634557
O O4 0.270986 0.000000 0.597632
O O5 0.971208 0.500000 0.390735
O O6 0.037825 0.291338 0.367577
O O7 0.000000 0.257618 0.500000
O O8 0.916991 0.264249 0.293781
O O9 0.346086 0.500000 0.031823
O O10 0.326384 0.251731 0.094091
O O11 0.421022 0.272634 0.068137
O O12 0.311806 0.278583 0.900976
O O13 0.143502 0.500000 0.815977
O O14 0.196893 0.307254 0.752366
O O15 0.779860 0.000000 0.767417
O O16 0.051691 0.500000 0.256734
O O17 0.042283 0.228878 0.198123
O O18 0.489320 0.500000 0.091571
O O19 0.500000 0.735542 0.000000
#
# Coordination Sequence:
#
# PCOD8097993 Si02
#       7
#     8   8   8   8   8   8   8
#     4  11  25  42  62  87 116 154 195 242 293 343
#     4   9  18  33  57  85 112 144 186 238 288 335
#     4  10  20  35  55  84 122 157 191 238 293 348
#     4  10  20  35  60  88 114 153 197 240 292 346
#     4  10  22  39  60  86 117 157 201 239 285 349
#     4  10  21  38  60  86 113 145 192 241 282 334
#     4  10  20  34  55  81 115 158 192 227 286 347
#
# _framework density 19.339541000000001
#
# number of rings (size 3 to 8) (size 9 to 14) (size 15 to 20)
#    0.000    2.000    1.429    1.714    2.000    3.714 
#    0.000    0.000    0.000    0.857    0.000    0.000 
#    0.000    0.000    0.000    0.000    0.000    0.000 
#
# Total GULP energy -347261.838979 kJ/mol
# GULP energy per Si atom -12402.208535 kJ/mol
# Density = 1.929552 g / cm^3
# Si number density = 19.339541 Si / 1000 Ang^3
#
#
#
# Elastic Constant Matrix: (Units=GPa)
#
#
# Indices 1 2 3 4 5 6 
#
# 1 107.7208 42.6675 59.2615 0.0000 -2.0905 0.0000
# 2 42.6675 47.0326 46.4240 0.0000 -4.4750 0.0000
# 3 59.2615 46.4240 150.6691 0.0000 -8.8039 0.0000
# 4 0.0000 0.0000 0.0000 32.8249 0.0000 -2.9515
# 5 -2.0905 -4.4750 -8.8039 0.0000 33.4702 0.0000
# 6 0.0000 0.0000 0.0000 -2.9515 0.0000 21.9522
#
#
#
# Elastic Compliance Matrix: (Units=1/GPa)
#
#
# Indices 1 2 3 4 5 6 
#
# 1 0.015154 -0.011368 -0.002530 0.000000 -0.001239 0.000000
# 2 -0.011368 0.039171 -0.007448 0.000000 0.002568 0.000000
# 3 -0.002530 -0.007448 0.010013 0.000000 0.001480 0.000000
# 4 0.000000 0.000000 0.000000 0.030838 0.000000 0.004146
# 5 -0.001239 0.002568 0.001480 0.000000 0.030533 0.000000
# 6 0.000000 0.000000 0.000000 0.004146 0.000000 0.046111
#
#
# Mechanical properties :
#
#
# Convention : Reuss Voigt Hill
#
# Bulk Modulus (GPa) = 46.19757 66.90317 56.55037
# Shear Modulus (GPa) = 22.55030 28.12075 25.33552
#
# Velocity S-wave (km/s) = 3.41841 3.81734 3.62337
# Velocity P-wave (km/s) = 6.28651 7.35517 6.84174
#
# Compressibility (1/GPa) = 0.02164616
#
# Stress axis : x y z
#
# Youngs Moduli (GPa) = 65.98955 25.52928 99.86520
#
# Poissons Ratio (x) = 0.29022 0.25266
# Poissons Ratio (y) = 0.75017 0.74378
# Poissons Ratio (z) = 0.16696 0.19014
#
# Static dielectric constant tensor:
#      x y z
#    x 3.766900 0.000000 0.010060 
#    y 0.000000 3.299860 0.000000 
#    z 0.010060 0.000000 3.631270 
# 
# 
# High freq. dielectric constant tensor:
#      x y z
#    x 1.768770 0.000000 0.000420 
#    y 0.000000 1.727610 0.000000 
#    z 0.000420 0.000000 1.761060 
# 
# From -- ./inp_files/244323.got.cif
#   From: 2010.06.25/outbox.cif.g09.slc.cpg/sg12_123_cif.got.tgz:244323.got - 2010.06.28 00:19:55.
