data_PCOD8097856
_publ_section_title
;
Structure prediction by ZEFSAII (Michael W. Deem and Ramdas Pophale) SiO2 
 PCOD8097856
Probable space group: C 2/M
;
_chemical_formula_sum "Si O2"
_cell_formula_units_Z 56
_cell_length_a 24.944070
_cell_length_b 8.559327
_cell_length_c 16.647244
_cell_angle_alpha 90.000000
_cell_angle_beta 59.410863
_cell_angle_gamma 90.000000
_cell_volume 3059.644537
_symmetry_space_group_name_H-M "C 2/M"
_symmetry_group_IT_number 12
_symmetry_cell_setting 'monoclinic'
loop_
_space_group_symop_operation_xyz
x,y,z
-x,y,-z
-x,-y,-z
x,-y,z
1/2+x,1/2+y,z
1/2-x,1/2+y,-z
1/2-x,1/2-y,-z
1/2+x,1/2-y,z
loop_
_atom_site_type_symbol
_atom_site_label
_atom_site_fract_x
_atom_site_fract_y
_atom_site_fract_z
Si Si1 0.074931 0.681456 0.095701
Si Si2 0.691593 0.318980 0.090932
Si Si3 0.253351 0.321822 0.781700
Si Si4 0.161789 0.681667 0.605227
Si Si5 0.723077 0.819541 0.396403
Si Si6 0.443008 0.682028 0.219156
Si Si7 0.879488 0.818477 0.102323
O O1 0.059584 0.500000 0.115436
O O2 0.130575 0.725126 0.112826
O O3 0.015454 0.779768 0.168294
O O4 0.092820 0.717800 0.990804
O O5 0.684030 0.500000 0.073064
O O6 0.700658 0.295418 0.178890
O O7 0.750000 0.250000 0.000000
O O8 0.229715 0.500000 0.797183
O O9 0.291778 0.280250 0.671926
O O10 0.193877 0.209838 0.833484
O O11 0.176129 0.500000 0.608963
O O12 0.207516 0.782487 0.625902
O O13 0.172803 0.724434 0.503272
O O14 0.091574 0.724656 0.683049
O O15 0.719681 0.000000 0.375744
O O16 0.432224 0.500000 0.241422
O O17 0.415069 0.736097 0.155125
O O18 0.891557 0.000000 0.074961
#
# Coordination Sequence:
#
# PCOD8097856 Si02
#       7
#     8   8   8   8   8   8   8
#     4  12  25  39  57  81 112 152 193 232 279 333
#     4  11  23  39  59  82 110 147 191 236 281 328
#     4  11  22  35  57  85 114 147 187 233 281 330
#     4  10  20  34  55  82 114 148 187 230 275 333
#     4  10  20  34  54  83 115 149 184 227 283 333
#     4  11  23  38  57  82 114 152 189 229 282 336
#     4  11  22  36  56  82 115 151 188 229 278 333
#
# _framework density 18.302779000000001
#
# number of rings (size 3 to 8) (size 9 to 14) (size 15 to 20)
#    0.000    1.143    2.857    4.286    0.000    6.857 
#    0.000    0.000    0.000    0.857    0.000    6.000 
#    0.000    0.000    0.000    0.000    0.000    0.000 
#
# Total GULP energy -347370.208981 kJ/mol
# GULP energy per Si atom -12406.078892 kJ/mol
# Density = 1.826112 g / cm^3
# Si number density = 18.302779 Si / 1000 Ang^3
#
#
#
# Elastic Constant Matrix: (Units=GPa)
#
#
# Indices 1 2 3 4 5 6 
#
# 1 78.2538 20.0360 52.3291 0.0000 -6.2348 0.0002
# 2 20.0360 58.1869 22.5183 0.0000 10.9184 0.0003
# 3 52.3291 22.5183 119.1585 0.0000 10.5206 0.0001
# 4 0.0000 0.0000 0.0000 32.9964 0.0000 -0.4014
# 5 -6.2348 10.9184 10.5206 0.0000 24.5032 0.0000
# 6 0.0002 0.0003 0.0001 -0.4014 0.0000 26.3131
#
#
#
# Elastic Compliance Matrix: (Units=1/GPa)
#
#
# Indices 1 2 3 4 5 6 
#
# 1 0.021620 -0.006099 -0.009425 0.000000 0.012265 0.000000
# 2 -0.006099 0.021503 -0.000418 0.000000 -0.010954 0.000000
# 3 -0.009425 -0.000418 0.013310 0.000000 -0.007927 0.000000
# 4 0.000000 0.000000 0.000000 0.030312 0.000000 0.000462
# 5 0.012265 -0.010954 -0.007927 0.000000 0.052216 0.000000
# 6 0.000000 0.000000 0.000000 0.000462 0.000000 0.038011
#
#
# Mechanical properties :
#
#
# Convention : Reuss Voigt Hill
#
# Bulk Modulus (GPa) = 40.73374 49.48512 45.10943
# Shear Modulus (GPa) = 23.03720 27.47692 25.25706
#
# Velocity S-wave (km/s) = 3.55163 3.87879 3.71881
# Velocity P-wave (km/s) = 6.25480 6.86700 6.56804
#
# Compressibility (1/GPa) = 0.02454968
#
# Stress axis : x y z
#
# Youngs Moduli (GPa) = 46.25275 46.50450 75.13068
#
# Poissons Ratio (x) = 0.28362 0.70811
# Poissons Ratio (y) = 0.28208 0.03142
# Poissons Ratio (z) = 0.43594 0.01945
#
# Static dielectric constant tensor:
#      x y z
#    x 3.260490 0.000000 0.180310 
#    y 0.000000 3.447630 0.000000 
#    z 0.180310 0.000000 3.342090 
# 
# 
# High freq. dielectric constant tensor:
#      x y z
#    x 1.685850 0.000000 0.008450 
#    y 0.000000 1.725640 0.000000 
#    z 0.008450 0.000000 1.712580 
# 
# From -- ./inp_files/288210.got.cif
#   From: 2010.06.25/outbox.cif.g09.slc.cpg/sg12_145_cif.got.tgz:288210.got - 2010.06.28 00:19:55.
