data_PCOD8097026
_publ_section_title
;
Structure prediction by ZEFSAII (Michael W. Deem and Ramdas Pophale) SiO2 
 PCOD8097026
Probable space group: C 2/M
;
_chemical_formula_sum "Si O2"
_cell_formula_units_Z 64
_cell_length_a 20.328541
_cell_length_b 9.147675
_cell_length_c 23.419144
_cell_angle_alpha 90.000000
_cell_angle_beta 125.138108
_cell_angle_gamma 90.000000
_cell_volume 3561.374010
_symmetry_space_group_name_H-M "C 2/M"
_symmetry_group_IT_number 12
_symmetry_cell_setting 'monoclinic'
loop_
_space_group_symop_operation_xyz
x,y,z
-x,y,-z
-x,-y,-z
x,-y,z
1/2+x,1/2+y,z
1/2-x,1/2+y,-z
1/2-x,1/2-y,-z
1/2+x,1/2-y,z
loop_
_atom_site_type_symbol
_atom_site_label
_atom_site_fract_x
_atom_site_fract_y
_atom_site_fract_z
Si Si1 0.435510 0.832164 0.564255
Si Si2 0.050218 0.326799 0.939071
Si Si3 0.708253 0.670044 0.814995
Si Si4 0.677364 0.671298 0.931672
Si Si5 0.610823 0.171587 0.671720
Si Si6 0.613472 0.827489 0.092329
Si Si7 0.187447 0.328920 0.591537
Si Si8 0.703250 0.168270 0.427318
O O1 0.523081 0.758879 0.614053
O O2 0.383178 0.766176 0.485557
O O3 0.390875 0.815848 0.603494
O O4 0.449386 0.000000 0.554865
O O5 0.061726 0.500000 0.935267
O O6 0.091930 0.239198 0.908472
O O7 0.954972 0.284702 0.895361
O O8 0.090896 0.270849 0.018013
O O9 0.702798 0.500000 0.797203
O O10 0.685773 0.700285 0.868960
O O11 0.645095 0.754977 0.745078
O O12 0.798329 0.731634 0.846539
O O13 0.680291 0.500000 0.947422
O O14 0.750000 0.750000 0.000000
O O15 0.668121 0.206285 0.647074
O O16 0.603988 0.000000 0.680141
O O17 0.616936 0.000000 0.088457
O O18 0.199813 0.500000 0.586183
O O19 0.271619 0.246082 0.619466
O O20 0.750000 0.250000 0.500000
O O21 0.729212 0.000000 0.437953
#
# Coordination Sequence:
#
# PCOD8097026 Si02
#       8
#     8   8   8   8   8   8   8   8
#     4   8  15  30  52  75  99 130 170 212 250 291
#     4   9  16  31  56  80  99 126 167 208 247 296
#     4  10  21  37  52  71 103 139 169 204 256 309
#     4  11  21  34  54  78 104 133 166 208 255 303
#     4  10  20  34  52  74  99 133 174 213 252 299
#     4   8  15  31  54  75  99 132 165 200 246 304
#     4   9  17  31  52  76 101 130 167 213 259 300
#     4   9  16  28  49  75 101 129 163 208 254 298
#
# _framework density 17.970592
#
# number of rings (size 3 to 8) (size 9 to 14) (size 15 to 20)
#    0.000    2.750    1.250    2.625    0.000    3.000 
#    0.000    6.250    0.000   11.250    0.000    0.000 
#    0.000    0.000    0.000    0.000    0.000    0.000 
#
# Total GULP energy -396576.702446 kJ/mol
# GULP energy per Si atom -12393.021951 kJ/mol
# Density = 1.792969 g / cm^3
# Si number density = 17.970592 Si / 1000 Ang^3
#
#
#
# Elastic Constant Matrix: (Units=GPa)
#
#
# Indices 1 2 3 4 5 6 
#
# 1 109.1730 45.2639 29.9157 0.0000 -13.3444 0.0000
# 2 45.2639 60.0814 29.5183 0.0000 -12.3504 0.0000
# 3 29.9157 29.5183 68.9747 0.0000 -7.5966 0.0000
# 4 0.0000 0.0000 0.0000 24.7335 0.0000 -3.7674
# 5 -13.3444 -12.3504 -7.5966 0.0000 17.8406 0.0000
# 6 0.0000 0.0000 0.0000 -3.7674 0.0000 30.5913
#
#
#
# Elastic Compliance Matrix: (Units=1/GPa)
#
#
# Indices 1 2 3 4 5 6 
#
# 1 0.013693 -0.008709 -0.001834 0.000000 0.003432 0.000000
# 2 -0.008709 0.029025 -0.007500 0.000000 0.010385 0.000000
# 3 -0.001834 -0.007500 0.018655 0.000000 0.001380 0.000000
# 4 0.000000 0.000000 0.000000 0.041204 0.000000 0.005074
# 5 0.003432 0.010385 0.001380 0.000000 0.066396 0.000000
# 6 0.000000 0.000000 0.000000 0.005074 0.000000 0.033314
#
#
# Mechanical properties :
#
#
# Convention : Reuss Voigt Hill
#
# Bulk Modulus (GPa) = 39.54707 49.73612 44.64159
# Shear Modulus (GPa) = 20.25914 23.53515 21.89715
#
# Velocity S-wave (km/s) = 3.36125 3.62283 3.49449
# Velocity P-wave (km/s) = 6.09248 6.72580 6.41696
#
# Compressibility (1/GPa) = 0.02528633
#
# Stress axis : x y z
#
# Youngs Moduli (GPa) = 73.03163 34.45267 53.60458
#
# Poissons Ratio (x) = 0.30006 0.09829
# Poissons Ratio (y) = 0.63607 0.40206
# Poissons Ratio (z) = 0.13391 0.25841
#
# Static dielectric constant tensor:
#      x y z
#    x 4.180010 0.000000 -0.143440 
#    y 0.000000 3.159920 0.000000 
#    z -0.143440 0.000000 3.258100 
# 
# 
# High freq. dielectric constant tensor:
#      x y z
#    x 1.717250 0.000000 -0.004310 
#    y 0.000000 1.669400 0.000000 
#    z -0.004310 0.000000 1.661130 
# 
# From -- ./inp_files/320116.got.cif
#   From: 2010.06.25/outbox.cif.g09.slc.cpg/sg12_161_cif.got.tgz:320116.got - 2010.06.28 00:19:55.
