data_PCOD8097934
_publ_section_title
;
Structure prediction by ZEFSAII (Michael W. Deem and Ramdas Pophale) SiO2 
 PCOD8097934
Probable space group: C 2/M
;
_chemical_formula_sum "Si O2"
_cell_formula_units_Z 64
_cell_length_a 27.934036
_cell_length_b 8.958814
_cell_length_c 15.858945
_cell_angle_alpha 90.000000
_cell_angle_beta 62.555351
_cell_angle_gamma 90.000000
_cell_volume 3522.131558
_symmetry_space_group_name_H-M "C 2/M"
_symmetry_group_IT_number 12
_symmetry_cell_setting 'monoclinic'
loop_
_space_group_symop_operation_xyz
x,y,z
-x,y,-z
-x,-y,-z
x,-y,z
1/2+x,1/2+y,z
1/2-x,1/2+y,-z
1/2-x,1/2-y,-z
1/2+x,1/2-y,z
loop_
_atom_site_type_symbol
_atom_site_label
_atom_site_fract_x
_atom_site_fract_y
_atom_site_fract_z
Si Si1 0.610777 0.823863 0.761352
Si Si2 0.739323 0.675801 0.246478
Si Si3 0.980972 0.672372 0.607255
Si Si4 0.639830 0.172184 0.243354
Si Si5 0.393926 0.671386 0.891748
Si Si6 0.275618 0.827111 0.399604
Si Si7 0.485390 0.327412 0.256370
Si Si8 0.153270 0.824401 0.889603
O O1 0.661973 0.779963 0.661926
O O2 0.557260 0.768858 0.760002
O O3 0.616121 0.746716 0.847669
O O4 0.608455 0.000000 0.778131
O O5 0.745971 0.500000 0.227535
O O6 0.682119 0.729948 0.260092
O O7 0.743150 0.718486 0.341880
O O8 0.786933 0.756254 0.156734
O O9 0.995659 0.500000 0.612177
O O10 0.917229 0.699188 0.665372
O O11 0.000000 0.724641 0.500000
O O12 0.012805 0.772115 0.648792
O O13 0.637818 0.225276 0.148356
O O14 0.657237 0.000000 0.231264
O O15 0.380409 0.500000 0.881031
O O16 0.457642 0.700457 0.834919
O O17 0.374871 0.715838 0.999751
O O18 0.250000 0.750000 0.500000
O O19 0.270701 0.000000 0.421097
O O20 0.468448 0.500000 0.268991
O O21 0.157169 0.000000 0.871211
#
# Coordination Sequence:
#
# PCOD8097934 Si02
#       8
#     8   8   8   8   8   8   8   8
#     4  10  21  37  54  77 109 140 171 212 262 309
#     4  10  21  37  54  76 108 140 171 213 263 309
#     4   9  19  36  55  77 107 139 173 217 264 307
#     4  10  20  34  55  80 104 137 178 214 255 310
#     4   9  20  37  55  77 107 138 170 216 265 305
#     4   9  20  36  54  76 103 136 172 212 257 305
#     4  10  20  35  55  79 106 138 176 215 257 308
#     4  10  20  36  57  79 103 135 176 217 259 308
#
# _framework density 18.170814
#
# number of rings (size 3 to 8) (size 9 to 14) (size 15 to 20)
#    0.000    2.375    0.000    2.625    0.000    7.250 
#    0.000    6.250    0.000    0.000    0.000    0.000 
#    0.000    0.000    0.000    0.000    0.000    0.000 
#
# Total GULP energy -396906.479256 kJ/mol
# GULP energy per Si atom -12403.327477 kJ/mol
# Density = 1.812946 g / cm^3
# Si number density = 18.170814 Si / 1000 Ang^3
#
#
#
# Elastic Constant Matrix: (Units=GPa)
#
#
# Indices 1 2 3 4 5 6 
#
# 1 109.9033 49.3866 56.2743 0.0000 11.0794 0.0000
# 2 49.3866 87.3592 63.1440 0.0000 6.2227 -0.0001
# 3 56.2743 63.1440 154.3000 0.0000 4.6847 0.0000
# 4 0.0000 0.0000 0.0000 31.6566 0.0000 3.6677
# 5 11.0794 6.2227 4.6847 0.0000 12.3242 0.0000
# 6 0.0000 -0.0001 0.0000 3.6677 0.0000 38.0531
#
#
#
# Elastic Compliance Matrix: (Units=1/GPa)
#
#
# Indices 1 2 3 4 5 6 
#
# 1 0.013639 -0.005239 -0.002568 0.000000 -0.008640 0.000000
# 2 -0.005239 0.018680 -0.005656 0.000000 -0.002572 0.000000
# 3 -0.002568 -0.005656 0.009687 0.000000 0.001482 0.000000
# 4 0.000000 0.000000 0.000000 0.031946 0.000000 -0.003079
# 5 -0.008640 -0.002572 0.001482 0.000000 0.089644 0.000000
# 6 0.000000 0.000000 0.000000 -0.003079 0.000000 0.026576
#
#
# Mechanical properties :
#
#
# Convention : Reuss Voigt Hill
#
# Bulk Modulus (GPa) = 66.30973 76.57472 71.44222
# Shear Modulus (GPa) = 22.51010 28.59063 25.55036
#
# Velocity S-wave (km/s) = 3.52348 3.97096 3.75390
# Velocity P-wave (km/s) = 7.28868 7.95348 7.62833
#
# Compressibility (1/GPa) = 0.01508074
#
# Stress axis : x y z
#
# Youngs Moduli (GPa) = 73.31933 53.53380 103.23245
#
# Poissons Ratio (x) = 0.28046 0.26510
# Poissons Ratio (y) = 0.38411 0.58384
# Poissons Ratio (z) = 0.18828 0.30276
#
# Static dielectric constant tensor:
#      x y z
#    x 3.489250 0.000000 -0.031990 
#    y 0.000000 3.434330 0.000000 
#    z -0.031990 0.000000 3.402580 
# 
# 
# High freq. dielectric constant tensor:
#      x y z
#    x 1.705990 0.000000 0.002190 
#    y 0.000000 1.714660 0.000000 
#    z 0.002190 0.000000 1.705720 
# 
# From -- ./inp_files/243733.got.cif
#   From: 2010.06.25/outbox.cif.g09.slc.cpg/sg12_122_cif.got.tgz:243733.got - 2010.06.28 00:19:55.
