data_PCOD8097284
_publ_section_title
;
Structure prediction by ZEFSAII (Michael W. Deem and Ramdas Pophale) SiO2 
 PCOD8097284
Probable space group: C 2/M
;
_chemical_formula_sum "Si O2"
_cell_formula_units_Z 56
_cell_length_a 15.820691
_cell_length_b 8.960095
_cell_length_c 25.360383
_cell_angle_alpha 90.000000
_cell_angle_beta 129.307079
_cell_angle_gamma 90.000000
_cell_volume 2781.642026
_symmetry_space_group_name_H-M "C 2/M"
_symmetry_group_IT_number 12
_symmetry_cell_setting 'monoclinic'
loop_
_space_group_symop_operation_xyz
x,y,z
-x,y,-z
-x,-y,-z
x,-y,z
1/2+x,1/2+y,z
1/2-x,1/2+y,-z
1/2-x,1/2-y,-z
1/2+x,1/2-y,z
loop_
_atom_site_type_symbol
_atom_site_label
_atom_site_fract_x
_atom_site_fract_y
_atom_site_fract_z
Si Si1 0.731128 0.330887 0.144665
Si Si2 0.386139 0.832810 0.297102
Si Si3 0.414419 0.667506 0.587068
Si Si4 0.277960 0.329190 0.441308
Si Si5 0.689295 0.677021 0.927490
Si Si6 0.775611 0.329643 0.697154
Si Si7 0.562301 0.324044 0.168184
O O1 0.704908 0.500000 0.115814
O O2 0.846988 0.326986 0.221148
O O3 0.747501 0.227605 0.100335
O O4 0.631416 0.272289 0.143232
O O5 0.511604 0.790053 0.354478
O O6 0.321363 0.705950 0.301780
O O7 0.364977 0.000000 0.310915
O O8 0.453342 0.500000 0.616707
O O9 0.398594 0.684504 0.516862
O O10 0.295169 0.699468 0.562588
O O11 0.235333 0.500000 0.433353
O O12 0.277909 0.290204 0.379837
O O13 0.696560 0.500000 0.933906
O O14 0.563009 0.730954 0.881584
O O15 0.750000 0.750000 0.000000
O O16 0.810798 0.500000 0.715447
O O17 0.882844 0.236712 0.756295
O O18 0.569942 0.500000 0.174235
#
# Coordination Sequence:
#
# PCOD8097284 Si02
#       7
#     8   8   8   8   8   8   8
#     4   9  20  40  62  84 117 157 194 237 292 346
#     4  10  21  37  56  80 113 148 187 234 290 346
#     4  10  20  34  53  76 107 147 192 238 285 344
#     4   9  20  36  51  75 110 147 187 237 295 342
#     4  11  24  41  63  92 123 154 195 236 284 349
#     4  10  20  35  57  82 109 144 190 237 285 342
#     4   9  21  41  61  86 121 159 194 238 294 350
#
# _framework density 20.131993999999999
#
# number of rings (size 3 to 8) (size 9 to 14) (size 15 to 20)
#    0.000    2.286    0.000    2.571    2.000    6.857 
#    0.000    5.714    0.000    0.000    0.000    0.000 
#    0.000    0.000    0.000    0.000    0.000    0.000 
#
# Total GULP energy -346917.432232 kJ/mol
# GULP energy per Si atom -12389.908294 kJ/mol
# Density = 2.008617 g / cm^3
# Si number density = 20.131994 Si / 1000 Ang^3
#
#
#
# Elastic Constant Matrix: (Units=GPa)
#
#
# Indices 1 2 3 4 5 6 
#
# 1 51.2984 20.8038 18.7768 0.0000 -6.4644 0.0000
# 2 20.8038 52.6970 40.9115 0.0000 -7.6526 0.0000
# 3 18.7768 40.9115 85.7959 0.0000 -13.8836 0.0000
# 4 0.0000 0.0000 0.0000 36.1577 0.0000 1.0532
# 5 -6.4644 -7.6526 -13.8836 0.0000 29.4910 0.0000
# 6 0.0000 0.0000 0.0000 1.0532 0.0000 30.3775
#
#
#
# Elastic Compliance Matrix: (Units=1/GPa)
#
#
# Indices 1 2 3 4 5 6 
#
# 1 0.023466 -0.008297 -0.000753 0.000000 0.002636 0.000000
# 2 -0.008297 0.033100 -0.013934 0.000000 0.000211 0.000000
# 3 -0.000753 -0.013934 0.019325 0.000000 0.005317 0.000000
# 4 0.000000 0.000000 0.000000 0.027685 0.000000 -0.000960
# 5 0.002636 0.000211 0.005317 0.000000 0.037044 0.000000
# 6 0.000000 0.000000 0.000000 -0.000960 0.000000 0.032952
#
#
# Mechanical properties :
#
#
# Convention : Reuss Voigt Hill
#
# Bulk Modulus (GPa) = 33.41721 38.97504 36.19613
# Shear Modulus (GPa) = 21.78521 26.49186 24.13854
#
# Velocity S-wave (km/s) = 3.29313 3.63148 3.46643
# Velocity P-wave (km/s) = 5.57626 6.08156 5.83438
#
# Compressibility (1/GPa) = 0.02992470
#
# Stress axis : x y z
#
# Youngs Moduli (GPa) = 42.61442 30.21166 51.74661
#
# Poissons Ratio (x) = 0.25066 0.03895
# Poissons Ratio (y) = 0.35356 0.72102
# Poissons Ratio (z) = 0.03208 0.42096
#
# Static dielectric constant tensor:
#      x y z
#    x 3.571530 0.000000 0.093040 
#    y 0.000000 3.584320 0.000000 
#    z 0.093040 0.000000 4.044650 
# 
# 
# High freq. dielectric constant tensor:
#      x y z
#    x 1.763060 0.000000 0.002650 
#    y 0.000000 1.786820 0.000000 
#    z 0.002650 0.000000 1.796690 
# 
# From -- ./inp_files/342564.got.cif
#   From: 2010.06.25/outbox.cif.g09.slc.cpg/sg12_172_cif.got.tgz:342564.got - 2010.06.28 00:19:55.
