data_PCOD8097069
_publ_section_title
;
Structure prediction by ZEFSAII (Michael W. Deem and Ramdas Pophale) SiO2 
 PCOD8097069
Probable space group: C 2/M
;
_chemical_formula_sum "Si O2"
_cell_formula_units_Z 64
_cell_length_a 19.536515
_cell_length_b 9.365760
_cell_length_c 21.793151
_cell_angle_alpha 90.000000
_cell_angle_beta 59.159030
_cell_angle_gamma 90.000000
_cell_volume 3423.716233
_symmetry_space_group_name_H-M "C 2/M"
_symmetry_group_IT_number 12
_symmetry_cell_setting 'monoclinic'
loop_
_space_group_symop_operation_xyz
x,y,z
-x,y,-z
-x,-y,-z
x,-y,z
1/2+x,1/2+y,z
1/2-x,1/2+y,-z
1/2-x,1/2-y,-z
1/2+x,1/2-y,z
loop_
_atom_site_type_symbol
_atom_site_label
_atom_site_fract_x
_atom_site_fract_y
_atom_site_fract_z
Si Si1 0.024173 0.659545 0.424205
Si Si2 0.116157 0.163512 0.287833
Si Si3 0.791103 0.666129 0.926663
Si Si4 0.379495 0.666925 0.230785
Si Si5 0.718142 0.334914 0.610688
Si Si6 0.764681 0.837287 0.179657
Si Si7 0.149181 0.657040 0.535583
Si Si8 0.053959 0.166301 0.185328
O O1 0.060470 0.500000 0.416850
O O2 0.087106 0.757588 0.361688
O O3 0.000000 0.729119 0.500000
O O4 0.944985 0.651674 0.420870
O O5 0.201388 0.226589 0.233374
O O6 0.056072 0.183342 0.258132
O O7 0.127396 0.000000 0.299884
O O8 0.803703 0.500000 0.937926
O O9 0.731237 0.680144 0.895781
O O10 0.877055 0.736501 0.875407
O O11 0.750000 0.750000 0.000000
O O12 0.387710 0.500000 0.237868
O O13 0.314673 0.731362 0.309863
O O14 0.348267 0.699297 0.175783
O O15 0.468895 0.727973 0.200233
O O16 0.698292 0.500000 0.623427
O O17 0.811759 0.306346 0.550268
O O18 0.670008 0.274335 0.575504
O O19 0.738919 0.000000 0.207989
O O20 0.182174 0.500000 0.539695
O O21 0.068077 0.000000 0.160499
#
# Coordination Sequence:
#
# PCOD8097069 Si02
#       8
#     8   8   8   8   8   8   8   8
#     4  10  21  33  48  68  93 131 178 224 266 309
#     4  10  20  34  52  75 104 137 173 217 270 321
#     4  10  20  36  59  85 110 142 175 208 250 301
#     4   9  17  31  55  80 102 133 175 218 258 301
#     4   9  17  30  50  70  93 129 166 208 261 313
#     4   9  19  35  57  82 107 137 177 216 254 307
#     4   9  18  31  45  67  94 125 170 216 262 311
#     4   9  18  34  56  82 108 138 174 211 255 310
#
# _framework density 18.693138000000001
#
# number of rings (size 3 to 8) (size 9 to 14) (size 15 to 20)
#    0.000    2.625    0.000    1.500    1.750    2.750 
#    0.000    2.500    0.000    3.750    0.000    0.000 
#    0.000    0.000    0.000    0.000    0.000    0.000 
#
# Total GULP energy -396499.532018 kJ/mol
# GULP energy per Si atom -12390.610376 kJ/mol
# Density = 1.865059 g / cm^3
# Si number density = 18.693138 Si / 1000 Ang^3
#
#
#
# Elastic Constant Matrix: (Units=GPa)
#
#
# Indices 1 2 3 4 5 6 
#
# 1 75.7626 21.3082 25.8723 0.0000 9.8302 -0.0001
# 2 21.3082 72.0320 47.5346 -0.0001 1.5938 -0.0002
# 3 25.8723 47.5346 110.0096 0.0000 7.9208 0.0000
# 4 0.0000 -0.0001 0.0000 29.8323 0.0000 -0.4333
# 5 9.8302 1.5938 7.9208 0.0000 18.2768 0.0000
# 6 -0.0001 -0.0002 0.0000 -0.4333 0.0000 20.5835
#
#
#
# Elastic Compliance Matrix: (Units=1/GPa)
#
#
# Indices 1 2 3 4 5 6 
#
# 1 0.015685 -0.003348 -0.001709 0.000000 -0.007404 0.000000
# 2 -0.003348 0.020207 -0.008202 0.000000 0.003594 0.000000
# 3 -0.001709 -0.008202 0.013335 0.000000 -0.004145 0.000000
# 4 0.000000 0.000000 0.000000 0.033531 0.000000 0.000706
# 5 -0.007404 0.003594 -0.004145 0.000000 0.060179 0.000000
# 6 0.000000 0.000000 0.000000 0.000706 0.000000 0.048598
#
#
# Mechanical properties :
#
#
# Convention : Reuss Voigt Hill
#
# Bulk Modulus (GPa) = 44.03958 49.69272 46.86615
# Shear Modulus (GPa) = 22.16094 24.61111 23.38603
#
# Velocity S-wave (km/s) = 3.44686 3.63241 3.54085
# Velocity P-wave (km/s) = 6.28104 6.65084 6.46859
#
# Compressibility (1/GPa) = 0.02270685
#
# Stress axis : x y z
#
# Youngs Moduli (GPa) = 63.75500 49.48894 74.99240
#
# Poissons Ratio (x) = 0.16570 0.12816
# Poissons Ratio (y) = 0.21347 0.61512
# Poissons Ratio (z) = 0.10896 0.40593
#
# Static dielectric constant tensor:
#      x y z
#    x 3.488720 0.000000 0.036230 
#    y 0.000000 3.391480 0.000000 
#    z 0.036230 0.000000 3.435460 
# 
# 
# High freq. dielectric constant tensor:
#      x y z
#    x 1.720770 0.000000 0.002380 
#    y 0.000000 1.711470 0.000000 
#    z 0.002380 0.000000 1.714950 
# 
# From -- ./inp_files/319969.got.cif
#   From: 2010.06.25/outbox.cif.g09.slc.cpg/sg12_160_cif.got.tgz:319969.got - 2010.06.28 00:19:55.
