data_PCOD8097415
_publ_section_title
;
Structure prediction by ZEFSAII (Michael W. Deem and Ramdas Pophale) SiO2 
 PCOD8097415
Probable space group: C 2/M
;
_chemical_formula_sum "Si O2"
_cell_formula_units_Z 64
_cell_length_a 30.110269
_cell_length_b 8.802240
_cell_length_c 14.868164
_cell_angle_alpha 90.000000
_cell_angle_beta 119.688643
_cell_angle_gamma 90.000000
_cell_volume 3423.338594
_symmetry_space_group_name_H-M "C 2/M"
_symmetry_group_IT_number 12
_symmetry_cell_setting 'monoclinic'
loop_
_space_group_symop_operation_xyz
x,y,z
-x,y,-z
-x,-y,-z
x,-y,z
1/2+x,1/2+y,z
1/2-x,1/2+y,-z
1/2-x,1/2-y,-z
1/2+x,1/2-y,z
loop_
_atom_site_type_symbol
_atom_site_label
_atom_site_fract_x
_atom_site_fract_y
_atom_site_fract_z
Si Si1 0.750306 0.320177 0.901796
Si Si2 0.422768 0.681372 0.172728
Si Si3 0.858814 0.179944 0.275608
Si Si4 0.380386 0.679650 0.495769
Si Si5 0.352003 0.322542 0.940203
Si Si6 0.536230 0.321565 0.281589
Si Si7 0.694927 0.178980 0.442671
Si Si8 0.378242 0.677365 0.766168
O O1 0.751696 0.500000 0.913092
O O2 0.699328 0.265300 0.798568
O O3 0.798506 0.264955 0.892398
O O4 0.750000 0.250000 0.000000
O O5 0.424509 0.500000 0.175828
O O6 0.395573 0.746201 0.234874
O O7 0.479837 0.752700 0.224452
O O8 0.390543 0.738228 0.054802
O O9 0.880233 0.237462 0.392851
O O10 0.860713 0.000000 0.273646
O O11 0.370806 0.500000 0.492908
O O12 0.433956 0.724652 0.597003
O O13 0.334635 0.763131 0.499691
O O14 0.340324 0.500000 0.941147
O O15 0.379508 0.288548 0.873173
O O16 0.528717 0.500000 0.270703
O O17 0.568378 0.268976 0.225964
O O18 0.750000 0.250000 0.500000
O O19 0.667845 0.229530 0.323523
O O20 0.699100 0.000000 0.449557
O O21 0.369092 0.500000 0.736271
#
# Coordination Sequence:
#
# PCOD8097415 Si02
#       8
#     8   8   8   8   8   8   8   8
#     4  11  21  35  53  75 106 143 180 220 269 318
#     4   9  16  29  51  80 109 140 176 215 264 313
#     4   9  18  31  50  77 109 138 171 217 265 313
#     4   9  18  34  53  78 108 137 173 219 265 313
#     4  10  20  34  53  78 111 143 177 220 263 315
#     4   8  15  29  51  78 109 139 172 218 265 313
#     4  11  22  36  54  76 103 139 177 220 267 318
#     4   9  19  35  53  79 109 138 175 220 265 312
#
# _framework density 18.6952
#
# number of rings (size 3 to 8) (size 9 to 14) (size 15 to 20)
#    0.000    2.500    1.250    2.250    1.750    1.500 
#    0.000    5.625    0.000    3.000    0.000    7.875 
#    0.000    0.000    0.000    0.000    0.000    0.000 
#
# Total GULP energy -396747.034454 kJ/mol
# GULP energy per Si atom -12398.344827 kJ/mol
# Density = 1.865265 g / cm^3
# Si number density = 18.695200 Si / 1000 Ang^3
#
#
#
# Elastic Constant Matrix: (Units=GPa)
#
#
# Indices 1 2 3 4 5 6 
#
# 1 150.7603 39.9485 104.8057 0.0000 17.3363 0.0000
# 2 39.9485 42.6086 25.2728 0.0000 -2.1150 0.0000
# 3 104.8057 25.2728 144.3969 0.0000 -11.6991 0.0000
# 4 0.0000 0.0000 0.0000 18.8630 0.0000 0.0026
# 5 17.3363 -2.1150 -11.6991 0.0000 37.3094 0.0000
# 6 0.0000 0.0000 0.0000 0.0026 0.0000 21.4416
#
#
#
# Elastic Compliance Matrix: (Units=1/GPa)
#
#
# Indices 1 2 3 4 5 6 
#
# 1 0.022693 -0.012868 -0.015526 0.000000 -0.016143 0.000000
# 2 -0.012868 0.033485 0.004225 0.000000 0.009202 0.000000
# 3 -0.015526 0.004225 0.018530 0.000000 0.013264 0.000000
# 4 0.000000 0.000000 0.000000 0.053014 0.000000 -0.000007
# 5 -0.016143 0.009202 0.013264 0.000000 0.038985 0.000000
# 6 0.000000 0.000000 0.000000 -0.000007 0.000000 0.046638
#
#
# Mechanical properties :
#
#
# Convention : Reuss Voigt Hill
#
# Bulk Modulus (GPa) = 37.92438 75.31330 56.61884
# Shear Modulus (GPa) = 18.48610 26.70540 22.59575
#
# Velocity S-wave (km/s) = 3.14796 3.78360 3.48032
# Velocity P-wave (km/s) = 5.79159 7.71102 6.81918
#
# Compressibility (1/GPa) = 0.02636827
#
# Stress axis : x y z
#
# Youngs Moduli (GPa) = 44.06691 29.86417 53.96655
#
# Poissons Ratio (x) = 0.38429 0.83791
# Poissons Ratio (y) = 0.56705 -0.22799
# Poissons Ratio (z) = 0.68420 -0.12617
#
# Static dielectric constant tensor:
#      x y z
#    x 3.663700 0.000000 0.001360 
#    y 0.000000 3.060600 0.000000 
#    z 0.001360 0.000000 3.510130 
# 
# 
# High freq. dielectric constant tensor:
#      x y z
#    x 1.734410 0.000000 -0.001080 
#    y 0.000000 1.682520 0.000000 
#    z -0.001080 0.000000 1.733960 
# 
# From -- ./inp_files/249051.got.cif
#   From: 2010.06.25/outbox.cif.g09.slc.cpg/sg12_125_cif.got.tgz:249051.got - 2010.06.28 00:19:55.
