data_PCOD8097714
_publ_section_title
;
Structure prediction by ZEFSAII (Michael W. Deem and Ramdas Pophale) SiO2 
 PCOD8097714
Probable space group: C 2/M
;
_chemical_formula_sum "Si O2"
_cell_formula_units_Z 48
_cell_length_a 24.879388
_cell_length_b 9.185879
_cell_length_c 11.541062
_cell_angle_alpha 90.000000
_cell_angle_beta 91.221015
_cell_angle_gamma 90.000000
_cell_volume 2636.984417
_symmetry_space_group_name_H-M "C 2/M"
_symmetry_group_IT_number 12
_symmetry_cell_setting 'monoclinic'
loop_
_space_group_symop_operation_xyz
x,y,z
-x,y,-z
-x,-y,-z
x,-y,z
1/2+x,1/2+y,z
1/2-x,1/2+y,-z
1/2-x,1/2-y,-z
1/2+x,1/2-y,z
loop_
_atom_site_type_symbol
_atom_site_label
_atom_site_fract_x
_atom_site_fract_y
_atom_site_fract_z
Si Si1 0.438012 0.170433 0.990533
Si Si2 0.915614 0.828226 0.763464
Si Si3 0.386485 0.833246 0.232325
Si Si4 0.688971 0.669513 0.383704
Si Si5 0.704830 0.329657 0.648331
Si Si6 0.493740 0.167746 0.367766
O O1 0.407396 0.258753 0.889280
O O2 0.434335 0.000000 0.962296
O O3 0.500000 0.219581 0.000000
O O4 0.409037 0.211340 0.108423
O O5 0.865741 0.782678 0.680830
O O6 0.969839 0.767776 0.710502
O O7 0.920630 0.000000 0.776007
O O8 0.336092 0.732593 0.259099
O O9 0.432204 0.807691 0.330260
O O10 0.367292 0.000000 0.232273
O O11 0.701458 0.500000 0.366981
O O12 0.683481 0.708921 0.518947
O O13 0.737162 0.758709 0.327732
O O14 0.710385 0.500000 0.668532
O O15 0.500000 0.217427 0.500000
O O16 0.510955 0.000000 0.349887
#
# Coordination Sequence:
#
# PCOD8097714 Si02
#       6
#     8   8   8   8   8   8
#     4  10  20  38  58  76 107 149 190 226 266 323
#     4  11  22  35  55  82 112 143 180 228 278 324
#     4  10  20  35  55  79 109 145 180 223 275 321
#     4   9  20  38  56  79 113 147 177 219 277 329
#     4  10  20  35  58  84 109 141 182 226 270 325
#     4  10  20  34  54  80 110 145 183 220 267 332
#
# _framework density 18.202611000000001
#
# number of rings (size 3 to 8) (size 9 to 14) (size 15 to 20)
#    0.000    2.000    1.667    2.000    0.000    4.000 
#    0.000    0.833    0.000    0.000    0.000    0.000 
#    0.000    0.000    0.000    0.000    0.000    0.000 
#
# Total GULP energy -297722.091036 kJ/mol
# GULP energy per Si atom -12405.087127 kJ/mol
# Density = 1.816118 g / cm^3
# Si number density = 18.202611 Si / 1000 Ang^3
#
#
#
# Elastic Constant Matrix: (Units=GPa)
#
#
# Indices 1 2 3 4 5 6 
#
# 1 74.8966 37.3837 19.2911 0.0000 -21.4437 0.0000
# 2 37.3837 58.9883 28.6560 0.0000 -10.1418 0.0000
# 3 19.2911 28.6560 75.8075 0.0000 -13.1893 0.0000
# 4 0.0000 0.0000 0.0000 32.0829 0.0000 -2.7834
# 5 -21.4437 -10.1418 -13.1893 0.0000 30.4386 0.0000
# 6 0.0000 0.0000 0.0000 -2.7834 0.0000 32.2358
#
#
#
# Elastic Compliance Matrix: (Units=1/GPa)
#
#
# Indices 1 2 3 4 5 6 
#
# 1 0.023161 -0.013137 0.001243 0.000000 0.012478 0.000000
# 2 -0.013137 0.028632 -0.008037 0.000000 -0.003197 0.000000
# 3 0.001243 -0.008037 0.016871 0.000000 0.005508 0.000000
# 4 0.000000 0.000000 0.000000 0.031404 0.000000 0.002712
# 5 0.012478 -0.003197 0.005508 0.000000 0.042966 0.000000
# 6 0.000000 0.000000 0.000000 0.002712 0.000000 0.031256
#
#
# Mechanical properties :
#
#
# Convention : Reuss Voigt Hill
#
# Bulk Modulus (GPa) = 34.71733 42.26155 38.48944
# Shear Modulus (GPa) = 22.34605 27.24223 24.79414
#
# Velocity S-wave (km/s) = 3.50755 3.87280 3.69470
# Velocity P-wave (km/s) = 5.95970 6.57768 6.27630
#
# Compressibility (1/GPa) = 0.02880406
#
# Stress axis : x y z
#
# Youngs Moduli (GPa) = 43.17521 34.92549 59.27224
#
# Poissons Ratio (x) = 0.45881 -0.07367
# Poissons Ratio (y) = 0.56719 0.47635
# Poissons Ratio (z) = -0.05366 0.28068
#
# Static dielectric constant tensor:
#      x y z
#    x 3.272750 0.000000 0.068470 
#    y 0.000000 3.293230 0.000000 
#    z 0.068470 0.000000 3.429260 
# 
# 
# High freq. dielectric constant tensor:
#      x y z
#    x 1.701730 0.000000 -0.001600 
#    y 0.000000 1.704720 0.000000 
#    z -0.001600 0.000000 1.706630 
# 
# From -- ./inp_files/172253.got.cif
#   From: 2010.06.25/outbox.cif.g09.slc.cpg/sg12_87_cif.got.tgz:172253.got - 2010.06.28 00:19:55.
