data_PCOD8097852
_publ_section_title
;
Structure prediction by ZEFSAII (Michael W. Deem and Ramdas Pophale) SiO2 
 PCOD8097852
Probable space group: C 2/M
;
_chemical_formula_sum "Si O2"
_cell_formula_units_Z 48
_cell_length_a 24.097062
_cell_length_b 9.382709
_cell_length_c 11.354355
_cell_angle_alpha 90.000000
_cell_angle_beta 109.723122
_cell_angle_gamma 90.000000
_cell_volume 2416.566524
_symmetry_space_group_name_H-M "C 2/M"
_symmetry_group_IT_number 12
_symmetry_cell_setting 'monoclinic'
loop_
_space_group_symop_operation_xyz
x,y,z
-x,y,-z
-x,-y,-z
x,-y,z
1/2+x,1/2+y,z
1/2-x,1/2+y,-z
1/2-x,1/2-y,-z
1/2+x,1/2-y,z
loop_
_atom_site_type_symbol
_atom_site_label
_atom_site_fract_x
_atom_site_fract_y
_atom_site_fract_z
Si Si1 0.866334 0.161601 0.653025
Si Si2 0.916083 0.330629 0.213193
Si Si3 0.771559 0.662678 0.704519
Si Si4 0.696893 0.838077 0.012492
Si Si5 0.012957 0.166629 0.143826
Si Si6 0.862533 0.164596 0.383584
O O1 0.807559 0.252767 0.631823
O O2 0.887008 0.182524 0.533232
O O3 0.919366 0.204197 0.778096
O O4 0.847240 0.000000 0.662210
O O5 0.923777 0.500000 0.230565
O O6 0.975012 0.262657 0.204113
O O7 0.902939 0.263693 0.331166
O O8 0.864078 0.285936 0.086988
O O9 0.768565 0.500000 0.660268
O O10 0.807420 0.681792 0.851043
O O11 0.705020 0.719770 0.671871
O O12 0.709751 0.000000 0.986544
O O13 0.750000 0.750000 0.000000
O O14 0.999420 0.000000 0.156913
O O15 0.000000 0.209281 0.000000
O O16 0.866583 0.000000 0.344260
#
# Coordination Sequence:
#
# PCOD8097852 Si02
#       6
#     8   8   8   8   8   8
#     4  10  22  38  58  84 111 149 197 236 278 335
#     4  11  23  37  58  88 117 148 189 236 282 331
#     4  10  20  35  57  84 115 150 184 229 290 339
#     4  10  20  34  54  83 114 144 182 226 276 332
#     4  10  22  41  62  83 111 150 192 234 284 340
#     4  10  21  38  58  82 116 153 189 232 282 340
#
# _framework density 19.862891999999999
#
# number of rings (size 3 to 8) (size 9 to 14) (size 15 to 20)
#    0.000    1.833    1.667    2.000    0.000    4.333 
#    0.000    3.333    0.000    0.000    0.000    0.000 
#    0.000    0.000    0.000    0.000    0.000    0.000 
#
# Total GULP energy -297691.834611 kJ/mol
# GULP energy per Si atom -12403.826442 kJ/mol
# Density = 1.981768 g / cm^3
# Si number density = 19.862892 Si / 1000 Ang^3
#
#
#
# Elastic Constant Matrix: (Units=GPa)
#
#
# Indices 1 2 3 4 5 6 
#
# 1 105.8923 58.9065 25.9662 0.0000 -17.9747 0.0000
# 2 58.9065 75.0345 23.0076 0.0000 -12.4558 0.0000
# 3 25.9662 23.0076 83.8582 0.0000 -0.2359 0.0000
# 4 0.0000 0.0000 0.0000 25.9763 0.0000 -4.8119
# 5 -17.9747 -12.4558 -0.2359 0.0000 27.3386 0.0000
# 6 0.0000 0.0000 0.0000 -4.8119 0.0000 38.2377
#
#
#
# Elastic Compliance Matrix: (Units=1/GPa)
#
#
# Indices 1 2 3 4 5 6 
#
# 1 0.017885 -0.012376 -0.002125 0.000000 0.006102 0.000000
# 2 -0.012376 0.024411 -0.002857 0.000000 0.002960 0.000000
# 3 -0.002125 -0.002857 0.013360 0.000000 -0.002584 0.000000
# 4 0.000000 0.000000 0.000000 0.039415 0.000000 0.004960
# 5 0.006102 0.002960 -0.002584 0.000000 0.041917 0.000000
# 6 0.000000 0.000000 0.000000 0.004960 0.000000 0.026776
#
#
# Mechanical properties :
#
#
# Convention : Reuss Voigt Hill
#
# Bulk Modulus (GPa) = 47.75878 53.39398 50.57638
# Shear Modulus (GPa) = 24.33555 28.77084 26.55319
#
# Velocity S-wave (km/s) = 3.50405 3.81001 3.66023
# Velocity P-wave (km/s) = 6.36141 6.80401 6.58643
#
# Compressibility (1/GPa) = 0.02093856
#
# Stress axis : x y z
#
# Youngs Moduli (GPa) = 55.91155 40.96557 74.85302
#
# Poissons Ratio (x) = 0.50701 0.15909
# Poissons Ratio (y) = 0.69199 0.21384
# Poissons Ratio (z) = 0.11883 0.11703
#
# Static dielectric constant tensor:
#      x y z
#    x 3.608760 0.000000 0.361920 
#    y 0.000000 3.657810 0.000000 
#    z 0.361920 0.000000 4.148520 
# 
# 
# High freq. dielectric constant tensor:
#      x y z
#    x 1.768800 0.000000 0.002270 
#    y 0.000000 1.767680 0.000000 
#    z 0.002270 0.000000 1.786170 
# 
# From -- ./inp_files/172960.got.cif
#   From: 2010.06.25/outbox.cif.g09.slc.cpg/sg12_87_cif.got.tgz:172960.got - 2010.06.28 00:19:55.
