data_PCOD8097761
_publ_section_title
;
Structure prediction by ZEFSAII (Michael W. Deem and Ramdas Pophale) SiO2 
 PCOD8097761
Probable space group: C 2/M
;
_chemical_formula_sum "Si O2"
_cell_formula_units_Z 64
_cell_length_a 30.746774
_cell_length_b 9.033850
_cell_length_c 15.899275
_cell_angle_alpha 90.000000
_cell_angle_beta 134.018724
_cell_angle_gamma 90.000000
_cell_volume 3175.753178
_symmetry_space_group_name_H-M "C 2/M"
_symmetry_group_IT_number 12
_symmetry_cell_setting 'monoclinic'
loop_
_space_group_symop_operation_xyz
x,y,z
-x,y,-z
-x,-y,-z
x,-y,z
1/2+x,1/2+y,z
1/2-x,1/2+y,-z
1/2-x,1/2-y,-z
1/2+x,1/2-y,z
loop_
_atom_site_type_symbol
_atom_site_label
_atom_site_fract_x
_atom_site_fract_y
_atom_site_fract_z
Si Si1 0.156302 0.327852 0.830019
Si Si2 0.532361 0.675761 0.628813
Si Si3 0.194481 0.332944 0.322927
Si Si4 0.541953 0.329273 0.309067
Si Si5 0.366687 0.332391 0.901324
Si Si6 0.675954 0.666618 0.463664
Si Si7 0.014158 0.325038 0.923114
Si Si8 0.214817 0.167104 0.056564
O O1 0.139821 0.500000 0.809411
O O2 0.099620 0.239517 0.718106
O O3 0.173506 0.276476 0.946670
O O4 0.214325 0.291225 0.849488
O O5 0.500000 0.731163 0.500000
O O6 0.535849 0.500000 0.635084
O O7 0.496376 0.733645 0.663373
O O8 0.172123 0.500000 0.276140
O O9 0.152038 0.223326 0.214890
O O10 0.266005 0.316508 0.396433
O O11 0.183084 0.293318 0.404073
O O12 0.524854 0.500000 0.270691
O O13 0.612896 0.310435 0.428321
O O14 0.530903 0.242960 0.206767
O O15 0.390388 0.500000 0.927011
O O16 0.419342 0.232243 0.011330
O O17 0.307047 0.318667 0.877712
O O18 0.677667 0.500000 0.426473
O O19 0.010497 0.500000 0.910525
O O20 0.000000 0.272903 0.000000
O O21 0.205831 0.000000 0.009692
#
# Coordination Sequence:
#
# PCOD8097761 Si02
#       8
#     8   8   8   8   8   8   8   8
#     4  10  20  36  58  82 108 138 177 225 276 327
#     4  10  22  39  58  81 112 150 189 230 276 328
#     4  10  20  34  54  81 111 140 176 226 274 319
#     4  10  21  38  59  82 110 148 192 231 271 328
#     4  11  22  36  55  79 109 144 181 220 267 326
#     4   9  19  36  56  77 105 144 185 221 267 326
#     4  11  24  39  56  83 117 149 184 230 281 330
#     4   9  20  37  56  80 109 141 176 219 273 331
#
# _framework density 20.152698999999998
#
# number of rings (size 3 to 8) (size 9 to 14) (size 15 to 20)
#    0.000    2.000    0.000    3.000    0.000   10.250 
#    0.000    1.250    0.000    0.000    0.000    0.000 
#    0.000    0.000    0.000    0.000    0.000    0.000 
#
# Total GULP energy -396768.574765 kJ/mol
# GULP energy per Si atom -12399.017961 kJ/mol
# Density = 2.010683 g / cm^3
# Si number density = 20.152699 Si / 1000 Ang^3
#
#
#
# Elastic Constant Matrix: (Units=GPa)
#
#
# Indices 1 2 3 4 5 6 
#
# 1 85.8120 32.5311 34.4417 0.0000 10.7104 0.0000
# 2 32.5311 49.5756 24.7509 0.0000 -0.1620 0.0000
# 3 34.4417 24.7509 76.5661 0.0000 13.5757 0.0000
# 4 0.0000 0.0000 0.0000 27.3126 0.0000 5.2462
# 5 10.7104 -0.1620 13.5757 0.0000 34.8885 0.0000
# 6 0.0000 0.0000 0.0000 5.2462 0.0000 27.3163
#
#
#
# Elastic Compliance Matrix: (Units=1/GPa)
#
#
# Indices 1 2 3 4 5 6 
#
# 1 0.017302 -0.009316 -0.004105 0.000000 -0.003757 0.000000
# 2 -0.009316 0.029444 -0.006293 0.000000 0.005445 0.000000
# 3 -0.004105 -0.006293 0.017963 0.000000 -0.005759 0.000000
# 4 0.000000 0.000000 0.000000 0.038016 0.000000 -0.007301
# 5 -0.003757 0.005445 -0.005759 0.000000 0.032082 0.000000
# 6 0.000000 0.000000 0.000000 -0.007301 0.000000 0.038010
#
#
# Mechanical properties :
#
#
# Convention : Reuss Voigt Hill
#
# Bulk Modulus (GPa) = 39.55706 43.93346 41.74526
# Shear Modulus (GPa) = 22.65818 25.91882 24.28850
#
# Velocity S-wave (km/s) = 3.35673 3.59014 3.47540
# Velocity P-wave (km/s) = 5.89023 6.24765 6.07157
#
# Compressibility (1/GPa) = 0.02527994
#
# Stress axis : x y z
#
# Youngs Moduli (GPa) = 57.79801 33.96295 55.67153
#
# Poissons Ratio (x) = 0.31640 0.22854
# Poissons Ratio (y) = 0.53845 0.35034
# Poissons Ratio (z) = 0.23727 0.21373
#
# Static dielectric constant tensor:
#      x y z
#    x 3.756710 0.000000 0.196800 
#    y 0.000000 3.632550 0.000000 
#    z 0.196800 0.000000 3.572760 
# 
# 
# High freq. dielectric constant tensor:
#      x y z
#    x 1.788690 0.000000 0.019080 
#    y 0.000000 1.786360 0.000000 
#    z 0.019080 0.000000 1.778030 
# 
# From -- ./inp_files/250015.got.cif
#   From: 2010.06.25/outbox.cif.g09.slc.cpg/sg12_126_cif.got.tgz:250015.got - 2010.06.28 00:19:55.
