data_PCOD8097322
_publ_section_title
;
Structure prediction by ZEFSAII (Michael W. Deem and Ramdas Pophale) SiO2 
 PCOD8097322
Probable space group: C 2/M
;
_chemical_formula_sum "Si O2"
_cell_formula_units_Z 48
_cell_length_a 30.917219
_cell_length_b 8.937448
_cell_length_c 18.071219
_cell_angle_alpha 90.000000
_cell_angle_beta 30.675501
_cell_angle_gamma 90.000000
_cell_volume 2547.538464
_symmetry_space_group_name_H-M "C 2/M"
_symmetry_group_IT_number 12
_symmetry_cell_setting 'monoclinic'
loop_
_space_group_symop_operation_xyz
x,y,z
-x,y,-z
-x,-y,-z
x,-y,z
1/2+x,1/2+y,z
1/2-x,1/2+y,-z
1/2-x,1/2-y,-z
1/2+x,1/2-y,z
loop_
_atom_site_type_symbol
_atom_site_label
_atom_site_fract_x
_atom_site_fract_y
_atom_site_fract_z
Si Si1 0.171203 0.828468 0.579279
Si Si2 0.918543 0.325110 0.416621
Si Si3 0.414768 0.177738 0.588850
Si Si4 0.409741 0.825163 0.919665
Si Si5 0.998802 0.827541 0.917740
Si Si6 0.250419 0.322239 0.079579
O O1 0.250000 0.750000 0.500000
O O2 0.152071 0.757578 0.527803
O O3 0.092503 0.805026 0.749159
O O4 0.193671 0.000000 0.533727
O O5 0.899344 0.500000 0.439676
O O6 0.909137 0.262515 0.513361
O O7 0.012935 0.289034 0.249282
O O8 0.500000 0.244299 0.500000
O O9 0.333950 0.232551 0.754109
O O10 0.419744 0.000000 0.580413
O O11 0.432649 0.771933 0.968714
O O12 0.387602 0.000000 0.952971
O O13 0.330054 0.731919 0.009344
O O14 0.969563 0.000000 0.955982
O O15 0.000000 0.769744 0.000000
O O16 0.252835 0.500000 0.067941
O O17 0.250000 0.250000 0.000000
#
# Coordination Sequence:
#
# PCOD8097322 Si02
#       6
#     8   8   8   8   8   8
#     4  10  20  34  53  77 106 138 174 217 263 310
#     4   9  18  35  57  77 101 137 179 217 255 304
#     4   9  18  34  56  79 102 134 176 214 250 301
#     4  10  20  35  56  80 107 138 173 217 266 313
#     4   9  19  36  56  77 104 141 182 219 257 307
#     4  11  22  36  56  80 107 138 173 215 261 311
#
# _framework density 18.841716999999999
#
# number of rings (size 3 to 8) (size 9 to 14) (size 15 to 20)
#    0.000    2.333    0.000    2.500    0.000    5.667 
#    0.000    8.333    0.000    3.500    0.000    0.000 
#    0.000    0.000    0.000    0.000    0.000    0.000 
#
# Total GULP energy -297671.151773 kJ/mol
# GULP energy per Si atom -12402.964657 kJ/mol
# Density = 1.879883 g / cm^3
# Si number density = 18.841717 Si / 1000 Ang^3
#
#
#
# Elastic Constant Matrix: (Units=GPa)
#
#
# Indices 1 2 3 4 5 6 
#
# 1 188.7896 62.0668 93.8350 -0.0016 5.4835 0.0003
# 2 62.0668 71.7850 48.0254 -0.0086 -6.8344 0.0030
# 3 93.8350 48.0254 104.3546 -0.0090 2.9752 0.0014
# 4 -0.0016 -0.0086 -0.0090 26.7206 0.0032 -2.6343
# 5 5.4835 -6.8344 2.9752 0.0032 42.0333 -0.0004
# 6 0.0003 0.0030 0.0014 -2.6343 -0.0004 37.8654
#
#
#
# Elastic Compliance Matrix: (Units=1/GPa)
#
#
# Indices 1 2 3 4 5 6 
#
# 1 0.010376 -0.004194 -0.007357 -0.000003 -0.001515 0.000000
# 2 -0.004194 0.022494 -0.006715 0.000004 0.004680 -0.000001
# 3 -0.007357 -0.006715 0.019331 0.000004 -0.001500 0.000000
# 4 -0.000003 0.000004 0.000004 0.037683 -0.000002 0.002622
# 5 -0.001515 0.004680 -0.001500 -0.000002 0.024855 0.000000
# 6 0.000000 -0.000001 0.000000 0.002622 0.000000 0.026592
#
#
# Mechanical properties :
#
#
# Convention : Reuss Voigt Hill
#
# Bulk Modulus (GPa) = 63.81316 85.86484 74.83900
# Shear Modulus (GPa) = 27.30951 32.05732 29.68341
#
# Velocity S-wave (km/s) = 3.81125 4.12928 3.97345
# Velocity P-wave (km/s) = 7.30131 8.27074 7.80110
#
# Compressibility (1/GPa) = 0.01567075
#
# Stress axis : x y z
#
# Youngs Moduli (GPa) = 96.37216 44.45583 51.73004
#
# Poissons Ratio (x) = 0.18644 0.38059
# Poissons Ratio (y) = 0.40417 0.34734
# Poissons Ratio (z) = 0.70903 0.29850
#
# Static dielectric constant tensor:
#      x y z
#    x 3.949810 0.000080 0.255950 
#    y 0.000080 3.360780 0.000050 
#    z 0.255950 0.000050 3.576960 
# 
# 
# High freq. dielectric constant tensor:
#      x y z
#    x 1.749120 0.000000 0.000430 
#    y 0.000000 1.719820 0.000000 
#    z 0.000430 0.000000 1.729880 
# 
# From -- ./inp_files/244759.got.cif
#   From: 2010.06.25/outbox.cif.g09.slc.cpg/sg12_123_cif.got.tgz:244759.got - 2010.06.28 00:19:55.
