data_PCOD8097596
_publ_section_title
;
Structure prediction by ZEFSAII (Michael W. Deem and Ramdas Pophale) SiO2 
 PCOD8097596
Probable space group: C 2/M
;
_chemical_formula_sum "Si O2"
_cell_formula_units_Z 56
_cell_length_a 20.469180
_cell_length_b 9.448781
_cell_length_c 28.450379
_cell_angle_alpha 90.000000
_cell_angle_beta 147.848916
_cell_angle_gamma 90.000000
_cell_volume 2928.203993
_symmetry_space_group_name_H-M "C 2/M"
_symmetry_group_IT_number 12
_symmetry_cell_setting 'monoclinic'
loop_
_space_group_symop_operation_xyz
x,y,z
-x,y,-z
-x,-y,-z
x,-y,z
1/2+x,1/2+y,z
1/2-x,1/2+y,-z
1/2-x,1/2-y,-z
1/2+x,1/2-y,z
loop_
_atom_site_type_symbol
_atom_site_label
_atom_site_fract_x
_atom_site_fract_y
_atom_site_fract_z
Si Si1 0.201346 0.662486 0.238375
Si Si2 0.256450 0.339979 0.571486
Si Si3 0.865212 0.663377 0.404908
Si Si4 0.436213 0.165966 0.110544
Si Si5 0.211279 0.835947 0.908569
Si Si6 0.062485 0.335834 0.374448
Si Si7 0.824261 0.838600 0.219320
O O1 0.216349 0.500000 0.262821
O O2 0.310934 0.749627 0.328728
O O3 0.213647 0.678865 0.189388
O O4 0.068544 0.719855 0.173406
O O5 0.301750 0.500000 0.589762
O O6 0.225207 0.315623 0.606451
O O7 0.135709 0.308831 0.467173
O O8 0.365676 0.233739 0.625421
O O9 0.875303 0.500000 0.395618
O O10 0.000000 0.721585 0.500000
O O11 0.399930 0.247383 0.136138
O O12 0.436555 0.000000 0.121710
O O13 0.339867 0.204603 0.010932
O O14 0.224212 0.795982 0.861716
O O15 0.179632 0.000000 0.896626
O O16 0.044780 0.500000 0.352367
O O17 0.932004 0.263928 0.301284
O O18 0.872916 0.000000 0.248844
#
# Coordination Sequence:
#
# PCOD8097596 Si02
#       7
#     8   8   8   8   8   8   8
#     4  10  22  37  55  82 114 145 182 231 277 322
#     4   9  19  35  53  75 104 142 183 225 273 326
#     4  10  21  37  56  77 107 147 187 225 269 326
#     4   9  19  37  58  83 112 140 180 229 274 325
#     4   9  19  36  59  82 108 146 183 221 273 330
#     4  10  20  34  54  78 106 139 181 229 274 320
#     4  10  21  36  54  79 111 146 182 222 272 329
#
# _framework density 19.12435
#
# number of rings (size 3 to 8) (size 9 to 14) (size 15 to 20)
#    0.000    2.429    0.000    1.286    2.000    4.857 
#    0.000    2.857    0.000    0.000    0.000    6.000 
#    0.000    0.000    0.000    0.000    0.000    0.000 
#
# Total GULP energy -347281.435285 kJ/mol
# GULP energy per Si atom -12402.908403 kJ/mol
# Density = 1.908082 g / cm^3
# Si number density = 19.124350 Si / 1000 Ang^3
#
#
#
# Elastic Constant Matrix: (Units=GPa)
#
#
# Indices 1 2 3 4 5 6 
#
# 1 119.2287 44.8960 57.2177 0.0000 -2.9708 0.0000
# 2 44.8960 65.9316 38.5953 0.0000 2.7901 -0.0001
# 3 57.2177 38.5953 82.6978 0.0004 7.4063 0.0000
# 4 0.0000 0.0000 0.0004 27.2004 0.0001 4.2502
# 5 -2.9708 2.7901 7.4063 0.0001 31.7550 0.0000
# 6 0.0000 -0.0001 0.0000 4.2502 0.0000 25.9836
#
#
#
# Elastic Compliance Matrix: (Units=1/GPa)
#
#
# Indices 1 2 3 4 5 6 
#
# 1 0.014133 -0.005316 -0.007617 0.000000 0.003566 0.000000
# 2 -0.005316 0.022874 -0.006917 0.000000 -0.000894 0.000000
# 3 -0.007617 -0.006917 0.021040 0.000000 -0.005012 0.000000
# 4 0.000000 0.000000 0.000000 0.037728 0.000000 -0.006171
# 5 0.003566 -0.000894 -0.005012 0.000000 0.033072 0.000000
# 6 0.000000 0.000000 0.000000 -0.006171 0.000000 0.039495
#
#
# Mechanical properties :
#
#
# Convention : Reuss Voigt Hill
#
# Bulk Modulus (GPa) = 54.50675 61.03067 57.76871
# Shear Modulus (GPa) = 23.34711 25.46441 24.40576
#
# Velocity S-wave (km/s) = 3.49779 3.65296 3.57622
# Velocity P-wave (km/s) = 6.69894 7.05506 6.87931
#
# Compressibility (1/GPa) = 0.01834635
#
# Stress axis : x y z
#
# Youngs Moduli (GPa) = 70.75519 43.71709 47.52959
#
# Poissons Ratio (x) = 0.23240 0.36203
# Poissons Ratio (y) = 0.37614 0.32878
# Poissons Ratio (z) = 0.53894 0.30241
#
# Static dielectric constant tensor:
#      x y z
#    x 3.583460 0.000000 -0.009330 
#    y 0.000000 3.457710 0.000000 
#    z -0.009330 0.000000 3.400810 
# 
# 
# High freq. dielectric constant tensor:
#      x y z
#    x 1.752470 0.000000 -0.000750 
#    y 0.000000 1.737360 0.000000 
#    z -0.000750 0.000000 1.734800 
# 
# From -- ./inp_files/380788.got.cif
#   From: 2010.06.25/outbox.cif.g09.slc.cpg/sg12_191_cif.got.tgz:380788.got - 2010.06.28 00:19:55.
