data_PCOD8097089
_publ_section_title
;
Structure prediction by ZEFSAII (Michael W. Deem and Ramdas Pophale) SiO2 
 PCOD8097089
Probable space group: C 2/M
;
_chemical_formula_sum "Si O2"
_cell_formula_units_Z 48
_cell_length_a 18.105263
_cell_length_b 9.054101
_cell_length_c 15.319287
_cell_angle_alpha 90.000000
_cell_angle_beta 85.519925
_cell_angle_gamma 90.000000
_cell_volume 2503.569962
_symmetry_space_group_name_H-M "C 2/M"
_symmetry_group_IT_number 12
_symmetry_cell_setting 'monoclinic'
loop_
_space_group_symop_operation_xyz
x,y,z
-x,y,-z
-x,-y,-z
x,-y,z
1/2+x,1/2+y,z
1/2-x,1/2+y,-z
1/2-x,1/2-y,-z
1/2+x,1/2-y,z
loop_
_atom_site_type_symbol
_atom_site_label
_atom_site_fract_x
_atom_site_fract_y
_atom_site_fract_z
Si Si1 0.590239 0.830791 0.825917
Si Si2 0.911613 0.665469 0.512898
Si Si3 0.673277 0.830482 0.992701
Si Si4 0.062492 0.824469 0.131760
Si Si5 0.096049 0.834381 0.654672
Si Si6 0.080264 0.163474 0.322092
O O1 0.519495 0.741415 0.866649
O O2 0.624099 0.760101 0.734723
O O3 0.566854 0.000000 0.809427
O O4 0.654015 0.821975 0.892377
O O5 0.881418 0.500000 0.507469
O O6 0.876050 0.760252 0.437766
O O7 0.884708 0.728577 0.608896
O O8 0.000000 0.670160 0.500000
O O9 0.610159 0.748074 0.052124
O O10 0.678759 0.000000 0.023245
O O11 0.750000 0.750000 0.000000
O O12 0.100572 0.786402 0.221851
O O13 0.057065 0.000000 0.119032
O O14 0.007907 0.837702 0.663292
O O15 0.128438 0.000000 0.657378
O O16 0.111306 0.000000 0.338221
#
# Coordination Sequence:
#
# PCOD8097089 Si02
#       6
#     8   8   8   8   8   8
#     4  10  20  34  52  76 104 133 169 212 255 299
#     4   9  15  22  36  61  94 130 163 199 243 289
#     4  11  24  39  55  75 101 133 169 212 258 305
#     4  10  20  34  54  78 104 135 170 209 253 302
#     4   9  16  26  42  65  95 131 166 202 246 295
#     4   8  15  26  40  63  95 129 163 199 241 290
#
# _framework density 19.172622
#
# number of rings (size 3 to 8) (size 9 to 14) (size 15 to 20)
#    0.000    2.500    0.000    4.000    0.000   11.333 
#    0.000    0.000    0.000    0.000    0.000    1.167 
#    0.000    0.000    0.000    0.000    0.000    0.000 
#
# Total GULP energy -297562.038403 kJ/mol
# GULP energy per Si atom -12398.418267 kJ/mol
# Density = 1.912898 g / cm^3
# Si number density = 19.172622 Si / 1000 Ang^3
#
#
#
# Elastic Constant Matrix: (Units=GPa)
#
#
# Indices 1 2 3 4 5 6 
#
# 1 34.1750 27.1995 16.8463 0.0000 12.0736 0.0000
# 2 27.1995 160.7592 69.8791 0.0000 15.1405 0.0000
# 3 16.8463 69.8791 121.3887 0.0000 18.7197 0.0000
# 4 0.0000 0.0000 0.0000 41.4880 0.0000 1.5963
# 5 12.0736 15.1405 18.7197 0.0000 8.5219 0.0000
# 6 0.0000 0.0000 0.0000 1.5963 0.0000 16.5464
#
#
#
# Elastic Compliance Matrix: (Units=1/GPa)
#
#
# Indices 1 2 3 4 5 6 
#
# 1 0.066571 -0.005775 0.010659 0.000000 -0.107472 0.000000
# 2 -0.005775 0.009037 -0.004819 0.000000 0.002712 0.000000
# 3 0.010659 -0.004819 0.015942 0.000000 -0.041559 0.000000
# 4 0.000000 0.000000 0.000000 0.024193 0.000000 -0.002334
# 5 -0.107472 0.002712 -0.041559 0.000000 0.356081 0.000000
# 6 0.000000 0.000000 0.000000 -0.002334 0.000000 0.060661
#
#
# Mechanical properties :
#
#
# Convention : Reuss Voigt Hill
#
# Bulk Modulus (GPa) = 10.90745 60.46362 35.68554
# Shear Modulus (GPa) = 8.88234 26.80446 17.84340
#
# Velocity S-wave (km/s) = 2.15473 3.74312 3.05400
# Velocity P-wave (km/s) = 3.44847 7.09127 5.57576
#
# Compressibility (1/GPa) = 0.09168047
#
# Stress axis : x y z
#
# Youngs Moduli (GPa) = 15.02145 110.65776 62.72858
#
# Poissons Ratio (x) = 0.63905 -0.66864
# Poissons Ratio (y) = 0.08675 0.30229
# Poissons Ratio (z) = -0.16012 0.53326
#
# Static dielectric constant tensor:
#      x y z
#    x 2.686670 0.000000 0.135140 
#    y 0.000000 3.738250 0.000000 
#    z 0.135140 0.000000 3.820780 
# 
# 
# High freq. dielectric constant tensor:
#      x y z
#    x 1.672050 0.000000 0.008440 
#    y 0.000000 1.763780 0.000000 
#    z 0.008440 0.000000 1.764890 
# 
# From -- ./inp_files/229311.got.cif
#   From: 2010.06.25/outbox.cif.g09.slc.cpg/sg12_115_cif.got.tgz:229311.got - 2010.06.28 00:19:55.
