data_PCOD8097338
_publ_section_title
;
Structure prediction by ZEFSAII (Michael W. Deem and Ramdas Pophale) SiO2 
 PCOD8097338
Probable space group: C 2/M
;
_chemical_formula_sum "Si O2"
_cell_formula_units_Z 40
_cell_length_a 27.463185
_cell_length_b 8.954167
_cell_length_c 9.464257
_cell_angle_alpha 90.000000
_cell_angle_beta 110.992885
_cell_angle_gamma 90.000000
_cell_volume 2172.876552
_symmetry_space_group_name_H-M "C 2/M"
_symmetry_group_IT_number 12
_symmetry_cell_setting 'monoclinic'
loop_
_space_group_symop_operation_xyz
x,y,z
-x,y,-z
-x,-y,-z
x,-y,z
1/2+x,1/2+y,z
1/2-x,1/2+y,-z
1/2-x,1/2-y,-z
1/2+x,1/2-y,z
loop_
_atom_site_type_symbol
_atom_site_label
_atom_site_fract_x
_atom_site_fract_y
_atom_site_fract_z
Si Si1 0.468529 0.673252 0.227522
Si Si2 0.388691 0.828058 0.335439
Si Si3 0.922479 0.328898 0.681503
Si Si4 0.614535 0.329356 0.094365
Si Si5 0.694342 0.325153 0.936952
O O1 0.467299 0.500000 0.268337
O O2 0.442485 0.764073 0.328349
O O3 0.527056 0.725126 0.265135
O O4 0.437246 0.701233 0.050685
O O5 0.389817 0.808280 0.504709
O O6 0.338598 0.739972 0.227263
O O7 0.383817 0.000000 0.285390
O O8 0.939802 0.500000 0.719673
O O9 0.885027 0.278605 0.770235
O O10 0.615959 0.500000 0.147842
O O11 0.665151 0.291363 0.053594
O O12 0.700442 0.500000 0.917360
O O13 0.750000 0.250000 0.000000
#
# Coordination Sequence:
#
# PCOD8097338 Si02
#       5
#     8   8   8   8   8
#     4  10  20  34  53  77 107 146 185 217 257 311
#     4  10  21  36  53  78 110 140 177 221 260 308
#     4  11  22  33  50  79 112 144 177 216 262 309
#     4   9  20  36  53  77 107 138 176 218 259 311
#     4  10  21  39  62  83 102 132 174 218 267 319
#
# _framework density 18.408777000000001
#
# number of rings (size 3 to 8) (size 9 to 14) (size 15 to 20)
#    0.000    2.000    0.000    4.800    0.000   12.800 
#    0.000    1.000    0.000    0.000    0.000    0.000 
#    0.000    0.000    0.000    0.000    0.000    0.000 
#
# Total GULP energy -248096.016515 kJ/mol
# GULP energy per Si atom -12404.800826 kJ/mol
# Density = 1.836688 g / cm^3
# Si number density = 18.408777 Si / 1000 Ang^3
#
#
#
# Elastic Constant Matrix: (Units=GPa)
#
#
# Indices 1 2 3 4 5 6 
#
# 1 112.5409 58.5457 53.4178 0.0000 8.9937 0.0000
# 2 58.5457 123.3071 68.5621 0.0000 -3.9268 0.0000
# 3 53.4178 68.5621 102.8233 0.0000 -14.7896 0.0000
# 4 0.0000 0.0000 0.0000 32.5766 0.0000 -3.4011
# 5 8.9937 -3.9268 -14.7896 0.0000 17.4944 0.0000
# 6 0.0000 0.0000 0.0000 -3.4011 0.0000 33.2418
#
#
#
# Elastic Compliance Matrix: (Units=1/GPa)
#
#
# Indices 1 2 3 4 5 6 
#
# 1 0.015852 -0.003471 -0.008203 0.000000 -0.015863 0.000000
# 2 -0.003471 0.014040 -0.007797 0.000000 -0.001656 0.000000
# 3 -0.008203 -0.007797 0.022246 0.000000 0.021273 0.000000
# 4 0.000000 0.000000 0.000000 0.031028 0.000000 0.003175
# 5 -0.015863 -0.001656 0.021273 0.000000 0.082929 0.000000
# 6 0.000000 0.000000 0.000000 0.003175 0.000000 0.030407
#
#
# Mechanical properties :
#
#
# Convention : Reuss Voigt Hill
#
# Bulk Modulus (GPa) = 75.77447 77.74696 76.76071
# Shear Modulus (GPa) = 20.84689 27.20561 24.02625
#
# Velocity S-wave (km/s) = 3.36883 3.84847 3.61661
# Velocity P-wave (km/s) = 7.50890 7.87864 7.69599
#
# Compressibility (1/GPa) = 0.01319706
#
# Stress axis : x y z
#
# Youngs Moduli (GPa) = 63.08161 71.22270 44.95217
#
# Poissons Ratio (x) = 0.24720 0.36874
# Poissons Ratio (y) = 0.21895 0.35050
# Poissons Ratio (z) = 0.51745 0.55533
#
# Static dielectric constant tensor:
#      x y z
#    x 3.236010 0.000000 -0.084460 
#    y 0.000000 3.554950 0.000000 
#    z -0.084460 0.000000 3.364210 
# 
# 
# High freq. dielectric constant tensor:
#      x y z
#    x 1.700290 0.000000 -0.006930 
#    y 0.000000 1.730300 0.000000 
#    z -0.006930 0.000000 1.712380 
# 
# From -- ./inp_files/92722.got.cif
#   From: 2010.06.25/outbox.cif.g09.slc.cpg/sg12_47_cif.got.tgz:92722.got - 2010.06.28 00:19:55.
