data_PCOD8097740
_publ_section_title
;
Structure prediction by ZEFSAII (Michael W. Deem and Ramdas Pophale) SiO2 
 PCOD8097740
Probable space group: C 2/M
;
_chemical_formula_sum "Si O2"
_cell_formula_units_Z 40
_cell_length_a 24.126748
_cell_length_b 10.415475
_cell_length_c 16.081842
_cell_angle_alpha 90.000000
_cell_angle_beta 32.631741
_cell_angle_gamma 90.000000
_cell_volume 2179.182851
_symmetry_space_group_name_H-M "C 2/M"
_symmetry_group_IT_number 12
_symmetry_cell_setting 'monoclinic'
loop_
_space_group_symop_operation_xyz
x,y,z
-x,y,-z
-x,-y,-z
x,-y,z
1/2+x,1/2+y,z
1/2-x,1/2+y,-z
1/2-x,1/2-y,-z
1/2+x,1/2-y,z
loop_
_atom_site_type_symbol
_atom_site_label
_atom_site_fract_x
_atom_site_fract_y
_atom_site_fract_z
Si Si1 0.869090 0.858915 0.800322
Si Si2 0.609709 0.647730 0.891744
Si Si3 0.273596 0.852363 0.540935
Si Si4 0.665370 0.769073 0.993710
Si Si5 0.499524 0.142145 0.316049
O O1 0.827143 0.848286 0.948882
O O2 0.956090 0.748751 0.675134
O O3 0.917807 0.000000 0.725753
O O4 0.773971 0.843377 0.857398
O O5 0.599028 0.500000 0.931358
O O6 0.690943 0.668378 0.716759
O O7 0.500000 0.701452 0.000000
O O8 0.646575 0.725061 0.924626
O O9 0.250000 0.750000 0.500000
O O10 0.384597 0.819439 0.437517
O O11 0.269453 0.000000 0.512744
O O12 0.570440 0.859106 0.143200
O O13 0.502375 0.000000 0.353231
#
# Coordination Sequence:
#
# PCOD8097740 Si02
#       5
#     8   8   8   8   8
#     4   9  18  31  56  82 105 143 182 217 261 317
#     4  10  20  34  54  81 108 138 181 225 263 316
#     4  10  21  37  55  77 107 142 180 221 270 321
#     4   9  18  30  55  79 109 135 176 223 264 302
#     4   9  18  32  52  78 107 139 174 218 266 315
#
# _framework density 18.355502999999999
#
# number of rings (size 3 to 8) (size 9 to 14) (size 15 to 20)
#    1.200    1.400    0.000    2.400    0.000    1.600 
#    0.000    3.000    0.000   10.200    0.000    0.000 
#    0.000    0.000    0.000    0.000    0.000    0.000 
#
# Total GULP energy -247811.861502 kJ/mol
# GULP energy per Si atom -12390.593075 kJ/mol
# Density = 1.831373 g / cm^3
# Si number density = 18.355503 Si / 1000 Ang^3
#
#
#
# Elastic Constant Matrix: (Units=GPa)
#
#
# Indices 1 2 3 4 5 6 
#
# 1 123.8183 62.9568 54.5706 0.0000 -20.2582 0.0000
# 2 62.9568 113.9622 30.6754 -0.0001 -16.7943 0.0001
# 3 54.5706 30.6754 70.6537 0.0000 -29.9214 0.0000
# 4 0.0000 -0.0001 0.0000 21.0359 0.0000 -4.3063
# 5 -20.2582 -16.7943 -29.9214 0.0000 36.4116 0.0000
# 6 0.0000 0.0001 0.0000 -4.3063 0.0000 27.4644
#
#
#
# Elastic Compliance Matrix: (Units=1/GPa)
#
#
# Indices 1 2 3 4 5 6 
#
# 1 0.015254 -0.006057 -0.010339 0.000000 -0.002803 0.000000
# 2 -0.006057 0.012402 0.000444 0.000000 0.002715 0.000000
# 3 -0.010339 0.000444 0.030057 0.000000 0.019152 0.000000
# 4 0.000000 0.000000 0.000000 0.049114 0.000000 0.007701
# 5 -0.002803 0.002715 0.019152 0.000000 0.042895 0.000000
# 6 0.000000 0.000000 0.000000 0.007701 0.000000 0.037618
#
#
# Mechanical properties :
#
#
# Convention : Reuss Voigt Hill
#
# Bulk Modulus (GPa) = 38.74794 67.20441 52.97617
# Shear Modulus (GPa) = 21.94438 27.66450 24.80444
#
# Velocity S-wave (km/s) = 3.46138 3.88641 3.68004
# Velocity P-wave (km/s) = 6.09347 7.53864 6.85425
#
# Compressibility (1/GPa) = 0.02580783
#
# Stress axis : x y z
#
# Youngs Moduli (GPa) = 65.55494 80.63450 33.26957
#
# Poissons Ratio (x) = 0.48841 0.34398
# Poissons Ratio (y) = 0.39707 -0.01476
# Poissons Ratio (z) = 0.67779 -0.03577
#
# Static dielectric constant tensor:
#      x y z
#    x 3.273770 0.000000 -0.297640 
#    y 0.000000 3.292200 0.000000 
#    z -0.297640 0.000000 3.190170 
# 
# 
# High freq. dielectric constant tensor:
#      x y z
#    x 1.706100 0.000000 -0.027720 
#    y 0.000000 1.705610 0.000000 
#    z -0.027720 0.000000 1.691660 
# 
# From -- ./inp_files/237080.got.cif
#   From: 2010.06.25/outbox.cif.g09.slc.cpg/sg12_119_cif.got.tgz:237080.got - 2010.06.28 00:19:55.
