data_PCOD8097872
_publ_section_title
;
Structure prediction by ZEFSAII (Michael W. Deem and Ramdas Pophale) SiO2 
 PCOD8097872
Probable space group: C 2/M
;
_chemical_formula_sum "Si O2"
_cell_formula_units_Z 48
_cell_length_a 9.278018
_cell_length_b 22.753497
_cell_length_c 10.687150
_cell_angle_alpha 90.000000
_cell_angle_beta 76.069038
_cell_angle_gamma 90.000000
_cell_volume 2189.775163
_symmetry_space_group_name_H-M "C 2/M"
_symmetry_group_IT_number 12
_symmetry_cell_setting 'monoclinic'
loop_
_space_group_symop_operation_xyz
x,y,z
-x,y,-z
-x,-y,-z
x,-y,z
1/2+x,1/2+y,z
1/2-x,1/2+y,-z
1/2-x,1/2-y,-z
1/2+x,1/2-y,z
loop_
_atom_site_type_symbol
_atom_site_label
_atom_site_fract_x
_atom_site_fract_y
_atom_site_fract_z
Si Si1 0.455450 0.065517 0.782982
Si Si2 0.923658 0.676334 0.135023
Si Si3 0.560937 0.776327 0.354370
Si Si4 0.613036 0.349769 0.267996
Si Si5 0.291802 0.373254 0.298721
Si Si6 0.758372 0.567514 0.430066
O O1 0.501897 0.111615 0.878786
O O2 0.288694 0.078500 0.770776
O O3 0.566990 0.072175 0.640700
O O4 0.462269 0.000000 0.837841
O O5 0.747156 0.669351 0.147236
O O6 0.950076 0.709136 0.261889
O O7 0.000000 0.709311 0.000000
O O8 0.500000 0.799599 0.500000
O O9 0.581200 0.706619 0.361991
O O10 0.715734 0.809581 0.296409
O O11 0.464387 0.367048 0.222722
O O12 0.661130 0.406228 0.337673
O O13 0.280137 0.393488 0.443518
O O14 0.711393 0.500000 0.461248
#
# Coordination Sequence:
#
# PCOD8097872 Si02
#       6
#     8   8   8   8   8   8
#     4   9  19  36  57  81 112 155 198 233 282 349
#     4  10  23  42  61  83 115 157 199 237 287 350
#     4  11  22  39  61  87 121 157 190 230 289 353
#     4  11  23  36  56  86 117 151 195 244 290 338
#     4  11  20  32  55  86 118 151 191 241 288 336
#     4  10  20  34  54  83 121 159 191 231 290 353
#
# _framework density 21.920058000000001
#
# number of rings (size 3 to 8) (size 9 to 14) (size 15 to 20)
#    0.000    1.667    0.000    6.500    0.000    6.333 
#    0.000    3.333    0.000    1.000    0.000    0.000 
#    0.000    0.000    0.000    0.000    0.000    0.000 
#
# Total GULP energy -297527.205306 kJ/mol
# GULP energy per Si atom -12396.966888 kJ/mol
# Density = 2.187017 g / cm^3
# Si number density = 21.920058 Si / 1000 Ang^3
#
#
#
# Elastic Constant Matrix: (Units=GPa)
#
#
# Indices 1 2 3 4 5 6 
#
# 1 164.8056 21.9284 30.2511 0.0000 -23.8883 0.0000
# 2 21.9284 93.0155 -2.0785 0.0000 2.7574 0.0000
# 3 30.2511 -2.0785 81.4298 0.0000 -5.3859 0.0000
# 4 0.0000 0.0000 0.0000 11.5096 0.0000 -1.5337
# 5 -23.8883 2.7574 -5.3859 0.0000 19.0388 0.0000
# 6 0.0000 0.0000 0.0000 -1.5337 0.0000 25.7273
#
#
#
# Elastic Compliance Matrix: (Units=1/GPa)
#
#
# Indices 1 2 3 4 5 6 
#
# 1 0.008281 -0.002305 -0.002472 0.000000 0.010025 0.000000
# 2 -0.002305 0.011441 0.000864 0.000000 -0.004305 0.000000
# 3 -0.002472 0.000864 0.013256 0.000000 0.000523 0.000000
# 4 0.000000 0.000000 0.000000 0.087579 0.000000 0.005221
# 5 0.010025 -0.004305 0.000523 0.000000 0.065874 0.000000
# 6 0.000000 0.000000 0.000000 0.005221 0.000000 0.039180
#
#
# Mechanical properties :
#
#
# Convention : Reuss Voigt Hill
#
# Bulk Modulus (GPa) = 39.75967 48.82810 44.29389
# Shear Modulus (GPa) = 20.67629 30.53181 25.60405
#
# Velocity S-wave (km/s) = 3.07458 3.73617 3.42140
# Velocity P-wave (km/s) = 5.54815 6.39811 5.98823
#
# Compressibility (1/GPa) = 0.02515111
#
# Stress axis : x y z
#
# Youngs Moduli (GPa) = 120.75344 87.40389 75.43989
#
# Poissons Ratio (x) = 0.20144 0.18651
# Poissons Ratio (y) = 0.27831 -0.06515
# Poissons Ratio (z) = 0.29853 -0.07548
#
# Static dielectric constant tensor:
#      x y z
#    x 4.137740 0.000000 -0.188700 
#    y 0.000000 4.017270 0.000000 
#    z -0.188700 0.000000 3.470650 
# 
# 
# High freq. dielectric constant tensor:
#      x y z
#    x 1.867100 0.000000 -0.008500 
#    y 0.000000 1.868720 0.000000 
#    z -0.008500 0.000000 1.817400 
# 
# From -- ./inp_files/121821.got.cif
#   From: 2010.06.25/outbox.cif.g09.slc.cpg/sg12_61_cif.got.tgz:121821.got - 2010.06.28 00:19:55.
