data_PCOD8097028
_publ_section_title
;
Structure prediction by ZEFSAII (Michael W. Deem and Ramdas Pophale) SiO2 
 PCOD8097028
Probable space group: C 2/M
;
_chemical_formula_sum "Si O2"
_cell_formula_units_Z 64
_cell_length_a 32.188272
_cell_length_b 9.057139
_cell_length_c 26.004049
_cell_angle_alpha 90.000000
_cell_angle_beta 152.027480
_cell_angle_gamma 90.000000
_cell_volume 3555.879127
_symmetry_space_group_name_H-M "C 2/M"
_symmetry_group_IT_number 12
_symmetry_cell_setting 'monoclinic'
loop_
_space_group_symop_operation_xyz
x,y,z
-x,y,-z
-x,-y,-z
x,-y,z
1/2+x,1/2+y,z
1/2-x,1/2+y,-z
1/2-x,1/2-y,-z
1/2+x,1/2-y,z
loop_
_atom_site_type_symbol
_atom_site_label
_atom_site_fract_x
_atom_site_fract_y
_atom_site_fract_z
Si Si1 0.928597 0.828832 0.462154
Si Si2 0.019588 0.327709 0.275260
Si Si3 0.182641 0.326224 0.964698
Si Si4 0.272428 0.827829 0.783379
Si Si5 0.694702 0.672587 0.283375
Si Si6 0.394246 0.828101 0.526309
Si Si7 0.151274 0.173149 0.034068
Si Si8 0.050235 0.171225 0.206879
O O1 0.832051 0.798323 0.333614
O O2 0.942800 0.748193 0.531686
O O3 0.000000 0.765437 0.500000
O O4 0.945216 0.000000 0.490720
O O5 0.037273 0.500000 0.289248
O O6 0.063858 0.264429 0.375476
O O7 0.067374 0.252906 0.279186
O O8 0.915646 0.290592 0.162947
O O9 0.201366 0.500000 0.988060
O O10 0.250000 0.250000 0.000000
O O11 0.196978 0.256519 0.036498
O O12 0.319339 0.766815 0.783478
O O13 0.308278 0.736041 0.870007
O O14 0.294971 0.000000 0.814418
O O15 0.683892 0.500000 0.258057
O O16 0.789893 0.706176 0.412461
O O17 0.620941 0.728044 0.242652
O O18 0.414189 0.000000 0.543135
O O19 0.171618 0.000000 0.051631
O O20 0.046817 0.206022 0.921082
O O21 0.064062 0.000000 0.233023
#
# Coordination Sequence:
#
# PCOD8097028 Si02
#       8
#     8   8   8   8   8   8   8   8
#     4   9  19  35  52  72  99 129 162 202 246 292
#     4   9  19  34  51  74 103 131 162 204 249 292
#     4  10  20  35  53  74 102 133 167 206 247 293
#     4  10  20  34  52  75 101 129 165 206 249 296
#     4   9  18  34  53  73 100 132 166 203 243 292
#     4   9  18  33  52  74 100 130 163 200 244 293
#     4  10  20  35  53  73 100 133 168 205 247 293
#     4   9  19  34  52  74  99 131 169 204 241 291
#
# _framework density 17.998360999999999
#
# number of rings (size 3 to 8) (size 9 to 14) (size 15 to 20)
#    0.000    2.625    0.000    1.125    0.000    4.750 
#    0.000    5.000    0.000    0.000    0.000    0.000 
#    0.000    0.000    0.000    0.000    0.000    0.000 
#
# Total GULP energy -396897.280795 kJ/mol
# GULP energy per Si atom -12403.040025 kJ/mol
# Density = 1.795740 g / cm^3
# Si number density = 17.998361 Si / 1000 Ang^3
#
#
#
# Elastic Constant Matrix: (Units=GPa)
#
#
# Indices 1 2 3 4 5 6 
#
# 1 185.7874 66.3474 75.8268 0.0000 -3.6525 0.0000
# 2 66.3474 69.9445 44.1367 0.0000 -8.2836 0.0000
# 3 75.8268 44.1367 83.6788 0.0000 -24.5311 0.0000
# 4 0.0000 0.0000 0.0000 25.3857 0.0000 -5.6421
# 5 -3.6525 -8.2836 -24.5311 0.0000 32.6095 0.0000
# 6 0.0000 0.0000 0.0000 -5.6421 0.0000 37.9033
#
#
#
# Elastic Compliance Matrix: (Units=1/GPa)
#
#
# Indices 1 2 3 4 5 6 
#
# 1 0.010869 -0.005445 -0.009014 0.000000 -0.006947 0.000000
# 2 -0.005445 0.024556 -0.008170 0.000000 -0.000518 0.000000
# 3 -0.009014 -0.008170 0.030179 0.000000 0.019618 0.000000
# 4 0.000000 0.000000 0.000000 0.040740 0.000000 0.006064
# 5 -0.006947 -0.000518 0.019618 0.000000 0.044514 0.000000
# 6 0.000000 0.000000 0.000000 0.006064 0.000000 0.027286
#
#
# Mechanical properties :
#
#
# Convention : Reuss Voigt Hill
#
# Bulk Modulus (GPa) = 49.14835 79.11473 64.13154
# Shear Modulus (GPa) = 21.72176 29.38634 25.55405
#
# Velocity S-wave (km/s) = 3.47778 4.04508 3.77211
# Velocity P-wave (km/s) = 6.59492 8.11597 7.39466
#
# Compressibility (1/GPa) = 0.02034656
#
# Stress axis : x y z
#
# Youngs Moduli (GPa) = 92.00208 40.72284 33.13592
#
# Poissons Ratio (x) = 0.22174 0.29868
# Poissons Ratio (y) = 0.50096 0.27072
# Poissons Ratio (z) = 0.82929 0.33270
#
# Static dielectric constant tensor:
#      x y z
#    x 3.512780 0.000000 -0.030740 
#    y 0.000000 3.328770 0.000000 
#    z -0.030740 0.000000 3.345950 
# 
# 
# High freq. dielectric constant tensor:
#      x y z
#    x 1.705210 0.000000 -0.004500 
#    y 0.000000 1.697940 0.000000 
#    z -0.004500 0.000000 1.692950 
# 
# From -- ./inp_files/353485.got.cif
#   From: 2010.06.25/outbox.cif.g09.slc.cpg/sg12_177_cif.got.tgz:353485.got - 2010.06.28 00:19:55.
