data_PCOD8097583
_publ_section_title
;
Structure prediction by ZEFSAII (Michael W. Deem and Ramdas Pophale) SiO2 
 PCOD8097583
Probable space group: C 2/M
;
_chemical_formula_sum "Si O2"
_cell_formula_units_Z 56
_cell_length_a 17.886044
_cell_length_b 9.051947
_cell_length_c 18.617400
_cell_angle_alpha 90.000000
_cell_angle_beta 75.998529
_cell_angle_gamma 90.000000
_cell_volume 2924.668620
_symmetry_space_group_name_H-M "C 2/M"
_symmetry_group_IT_number 12
_symmetry_cell_setting 'monoclinic'
loop_
_space_group_symop_operation_xyz
x,y,z
-x,y,-z
-x,-y,-z
x,-y,z
1/2+x,1/2+y,z
1/2-x,1/2+y,-z
1/2-x,1/2-y,-z
1/2+x,1/2-y,z
loop_
_atom_site_type_symbol
_atom_site_label
_atom_site_fract_x
_atom_site_fract_y
_atom_site_fract_z
Si Si1 0.158483 0.825457 0.715226
Si Si2 0.009719 0.175350 0.286844
Si Si3 0.797179 0.673483 0.148213
Si Si4 0.932678 0.170365 0.572760
Si Si5 0.628376 0.674848 0.139992
Si Si6 0.721886 0.174535 0.434541
Si Si7 0.414885 0.172912 0.996847
O O1 0.075476 0.763235 0.709670
O O2 0.180486 0.755323 0.785066
O O3 0.220827 0.776964 0.642083
O O4 0.155869 0.000000 0.725655
O O5 0.037325 0.231826 0.358029
O O6 0.068126 0.235309 0.212869
O O7 0.008184 0.000000 0.287840
O O8 0.799133 0.500000 0.162788
O O9 0.713025 0.726894 0.143538
O O10 0.857108 0.720180 0.073104
O O11 0.862866 0.271671 0.564711
O O12 0.000000 0.187431 0.500000
O O13 0.905444 0.000000 0.584525
O O14 0.623774 0.500000 0.134334
O O15 0.608533 0.741835 0.068453
O O16 0.750000 0.250000 0.500000
O O17 0.722049 0.000000 0.445776
O O18 0.410331 0.000000 0.981594
O O19 0.500000 0.221860 0.000000
#
# Coordination Sequence:
#
# PCOD8097583 Si02
#       7
#     8   8   8   8   8   8   8
#     4  10  21  37  57  81 108 141 182 224 267 322
#     4   9  18  34  55  79 107 139 179 225 272 325
#     4  10  21  36  54  79 109 140 177 223 274 324
#     4  10  20  37  61  84 111 149 186 225 278 332
#     4  10  20  34  54  78 104 138 180 223 266 319
#     4  11  23  38  57  83 114 147 186 230 276 329
#     4  10  21  36  53  76 108 142 176 219 272 327
#
# _framework density 19.147469000000001
#
# number of rings (size 3 to 8) (size 9 to 14) (size 15 to 20)
#    0.000    2.000    0.000    3.429    0.000    6.286 
#    0.000    1.429    0.000    0.000    0.000    0.000 
#    0.000    0.000    0.000    0.000    0.000    0.000 
#
# Total GULP energy -347315.953757 kJ/mol
# GULP energy per Si atom -12404.141206 kJ/mol
# Density = 1.910389 g / cm^3
# Si number density = 19.147469 Si / 1000 Ang^3
#
#
#
# Elastic Constant Matrix: (Units=GPa)
#
#
# Indices 1 2 3 4 5 6 
#
# 1 164.4585 37.2225 81.3784 0.0000 7.6736 0.0000
# 2 37.2225 33.1133 42.5707 0.0000 3.8162 0.0000
# 3 81.3784 42.5707 163.9957 0.0000 11.8614 0.0000
# 4 0.0000 0.0000 0.0000 18.8968 0.0000 18.8899
# 5 7.6736 3.8162 11.8614 0.0000 43.4360 0.0000
# 6 0.0000 0.0000 0.0000 18.8899 0.0000 14.5214
#
#
#
# Elastic Compliance Matrix: (Units=1/GPa)
#
#
# Indices 1 2 3 4 5 6 
#
# 1 0.008905 -0.006489 -0.002716 0.000000 -0.000262 0.000000
# 2 -0.006489 0.050080 -0.009737 0.000000 -0.000595 0.000000
# 3 -0.002716 -0.009737 0.010075 0.000000 -0.001416 0.000000
# 4 0.000000 0.000000 0.000000 -0.176187 0.000000 0.229190
# 5 -0.000262 -0.000595 -0.001416 0.000000 0.023508 0.000000
# 6 0.000000 0.000000 0.000000 0.229190 0.000000 -0.229274
#
#
# Mechanical properties :
#
#
# Convention : Reuss Voigt Hill
#
# Bulk Modulus (GPa) = 32.07454 75.99010 54.03232
# Shear Modulus (GPa) = -18.89516 28.73056 4.91770
#
# Velocity S-wave (km/s) = -3.14478 3.87782 1.60434
# Velocity P-wave (km/s) = 1.89776 7.73452 5.63136
#
# Compressibility (1/GPa) = 0.03117737
#
# Stress axis : x y z
#
# Youngs Moduli (GPa) = 112.29411 19.96801 99.25276
#
# Poissons Ratio (x) = 0.12957 0.26953
# Poissons Ratio (y) = 0.72867 0.96643
# Poissons Ratio (z) = 0.30495 0.19443
#
# Static dielectric constant tensor:
#      x y z
#    x 3.497380 0.000000 -0.043100 
#    y 0.000000 3.269090 0.000000 
#    z -0.043100 0.000000 3.680090 
# 
# 
# High freq. dielectric constant tensor:
#      x y z
#    x 1.765440 0.000000 -0.001530 
#    y 0.000000 1.720920 0.000000 
#    z -0.001530 0.000000 1.764920 
# 
# From -- ./inp_files/275080.got.cif
#   From: 2010.06.25/outbox.cif.g09.slc.cpg/sg12_138_cif.got.tgz:275080.got - 2010.06.28 00:19:55.
