data_PCOD8097665
_publ_section_title
;
Structure prediction by ZEFSAII (Michael W. Deem and Ramdas Pophale) SiO2 
 PCOD8097665
Probable space group: C 2/M
;
_chemical_formula_sum "Si O2"
_cell_formula_units_Z 56
_cell_length_a 15.764899
_cell_length_b 8.937638
_cell_length_c 25.167579
_cell_angle_alpha 90.000000
_cell_angle_beta 50.403113
_cell_angle_gamma 90.000000
_cell_volume 2732.467596
_symmetry_space_group_name_H-M "C 2/M"
_symmetry_group_IT_number 12
_symmetry_cell_setting 'monoclinic'
loop_
_space_group_symop_operation_xyz
x,y,z
-x,y,-z
-x,-y,-z
x,-y,z
1/2+x,1/2+y,z
1/2-x,1/2+y,-z
1/2-x,1/2-y,-z
1/2+x,1/2-y,z
loop_
_atom_site_type_symbol
_atom_site_label
_atom_site_fract_x
_atom_site_fract_y
_atom_site_fract_z
Si Si1 0.576310 0.677913 0.922239
Si Si2 0.717447 0.328483 0.434605
Si Si3 0.691807 0.170676 0.712797
Si Si4 0.492847 0.676734 0.841648
Si Si5 0.174919 0.677348 0.162074
Si Si6 0.390417 0.670834 0.708145
Si Si7 0.076941 0.671502 0.571834
O O1 0.577592 0.500000 0.921148
O O2 0.526388 0.736808 0.886610
O O3 0.700168 0.737030 0.882197
O O4 0.500000 0.740172 0.000000
O O5 0.678623 0.500000 0.451918
O O6 0.740281 0.274158 0.365637
O O7 0.828833 0.304308 0.422552
O O8 0.619218 0.228951 0.497787
O O9 0.586926 0.276346 0.762369
O O10 0.767881 0.183265 0.734006
O O11 0.651269 0.000000 0.720061
O O12 0.477731 0.500000 0.846957
O O13 0.377991 0.752881 0.870120
O O14 0.169885 0.500000 0.160432
O O15 0.103548 0.731295 0.240980
O O16 0.420778 0.500000 0.709703
O O17 0.473161 0.731860 0.630949
O O18 0.041138 0.500000 0.580871
#
# Coordination Sequence:
#
# PCOD8097665 Si02
#       7
#     8   8   8   8   8   8   8
#     4   9  20  40  64  91 126 164 200 243 298 359
#     4   9  19  36  54  74 105 148 195 245 302 360
#     4  10  21  37  58  83 115 155 200 252 305 357
#     4  11  22  38  63  93 123 160 206 251 297 357
#     4  11  22  39  63  90 123 163 203 248 303 359
#     4  11  22  36  57  84 116 153 199 253 303 358
#     4  10  20  34  54  79 110 149 195 247 303 363
#
# _framework density 20.494295999999999
#
# number of rings (size 3 to 8) (size 9 to 14) (size 15 to 20)
#    0.000    1.857    1.429    2.571    0.000    4.000 
#    0.000    2.857    0.000    6.000    0.000    0.000 
#    0.000    0.000    0.000    0.000    0.000    0.000 
#
# Total GULP energy -347312.940418 kJ/mol
# GULP energy per Si atom -12404.033586 kJ/mol
# Density = 2.044765 g / cm^3
# Si number density = 20.494296 Si / 1000 Ang^3
#
#
#
# Elastic Constant Matrix: (Units=GPa)
#
#
# Indices 1 2 3 4 5 6 
#
# 1 119.6359 45.3516 56.8678 0.0001 7.5750 0.0005
# 2 45.3516 84.6788 38.0987 0.0002 -1.4711 0.0008
# 3 56.8678 38.0987 122.2451 0.0000 2.8495 0.0000
# 4 0.0001 0.0002 0.0000 22.3103 0.0000 1.1026
# 5 7.5750 -1.4711 2.8495 0.0000 28.3517 0.0001
# 6 0.0005 0.0008 0.0000 1.1026 0.0001 29.7206
#
#
#
# Elastic Compliance Matrix: (Units=1/GPa)
#
#
# Indices 1 2 3 4 5 6 
#
# 1 0.012363 -0.004793 -0.004184 0.000000 -0.003131 0.000000
# 2 -0.004793 0.015631 -0.002697 0.000000 0.002363 0.000000
# 3 -0.004184 -0.002697 0.010970 0.000000 -0.000125 0.000000
# 4 0.000000 0.000000 0.000000 0.044905 0.000000 -0.001666
# 5 -0.003131 0.002363 -0.000125 0.000000 0.036243 0.000000
# 6 0.000000 0.000000 0.000000 -0.001666 0.000000 0.033709
#
#
# Mechanical properties :
#
#
# Convention : Reuss Voigt Hill
#
# Bulk Modulus (GPa) = 64.03926 67.46622 65.75274
# Shear Modulus (GPa) = 27.41625 28.49263 27.95444
#
# Velocity S-wave (km/s) = 3.66150 3.73268 3.69726
# Velocity P-wave (km/s) = 7.01360 7.18110 7.09784
#
# Compressibility (1/GPa) = 0.01561542
#
# Stress axis : x y z
#
# Youngs Moduli (GPa) = 80.88732 63.97659 91.15563
#
# Poissons Ratio (x) = 0.30664 0.38143
# Poissons Ratio (y) = 0.38769 0.24583
# Poissons Ratio (z) = 0.33846 0.17254
#
# Static dielectric constant tensor:
#      x y z
#    x 3.768750 0.000000 0.078150 
#    y 0.000000 3.543220 0.000000 
#    z 0.078150 0.000000 3.716370 
# 
# 
# High freq. dielectric constant tensor:
#      x y z
#    x 1.805660 0.000000 0.003610 
#    y 0.000000 1.787510 0.000000 
#    z 0.003610 0.000000 1.799440 
# 
# From -- ./inp_files/338458.got.cif
#   From: 2010.06.25/outbox.cif.g09.slc.cpg/sg12_170_cif.got.tgz:338458.got - 2010.06.28 00:19:55.
