data_PCOD8097980
_publ_section_title
;
Structure prediction by ZEFSAII (Michael W. Deem and Ramdas Pophale) SiO2 
 PCOD8097980
Probable space group: C 2/M
;
_chemical_formula_sum "Si O2"
_cell_formula_units_Z 48
_cell_length_a 14.945740
_cell_length_b 9.128892
_cell_length_c 28.498058
_cell_angle_alpha 90.000000
_cell_angle_beta 36.914528
_cell_angle_gamma 90.000000
_cell_volume 2335.353879
_symmetry_space_group_name_H-M "C 2/M"
_symmetry_group_IT_number 12
_symmetry_cell_setting 'monoclinic'
loop_
_space_group_symop_operation_xyz
x,y,z
-x,y,-z
-x,-y,-z
x,-y,z
1/2+x,1/2+y,z
1/2-x,1/2+y,-z
1/2-x,1/2-y,-z
1/2+x,1/2-y,z
loop_
_atom_site_type_symbol
_atom_site_label
_atom_site_fract_x
_atom_site_fract_y
_atom_site_fract_z
Si Si1 0.187777 0.827858 0.321823
Si Si2 0.138709 0.160041 0.146730
Si Si3 0.403349 0.663113 0.994732
Si Si4 0.604282 0.173839 0.580509
Si Si5 0.104881 0.162093 0.827652
Si Si6 0.934243 0.330340 0.295040
O O1 0.263401 0.772682 0.241493
O O2 0.288773 0.790197 0.324926
O O3 0.033189 0.740699 0.391240
O O4 0.156427 0.000000 0.331003
O O5 0.260672 0.238236 0.063354
O O6 0.994062 0.141313 0.176357
O O7 0.086621 0.250812 0.214179
O O8 0.198561 0.000000 0.137246
O O9 0.351156 0.500000 0.001046
O O10 0.500000 0.654037 0.000000
O O11 0.507817 0.732064 0.910463
O O12 0.750000 0.250000 0.500000
O O13 0.594905 0.214692 0.639338
O O14 0.610437 0.000000 0.570031
O O15 0.168088 0.000000 0.815586
O O16 0.969913 0.500000 0.274483
#
# Coordination Sequence:
#
# PCOD8097980 Si02
#       6
#     8   8   8   8   8   8
#     4  10  21  39  63  90 118 153 196 240 287 343
#     4  10  20  34  55  81 110 144 190 246 288 325
#     4  10  21  34  50  75 110 153 194 231 280 344
#     4  11  24  42  64  90 120 154 190 234 288 349
#     4   9  19  36  55  78 110 151 193 234 285 340
#     4   9  21  41  63  85 117 160 196 229 285 357
#
# _framework density 20.553629999999998
#
# number of rings (size 3 to 8) (size 9 to 14) (size 15 to 20)
#    0.000    2.167    0.000    2.000    2.333    4.333 
#    0.000    3.333    0.000    0.000    0.000    0.000 
#    0.000    0.000    0.000    0.000    0.000    0.000 
#
# Total GULP energy -297555.346116 kJ/mol
# GULP energy per Si atom -12398.139422 kJ/mol
# Density = 2.050685 g / cm^3
# Si number density = 20.553630 Si / 1000 Ang^3
#
#
#
# Elastic Constant Matrix: (Units=GPa)
#
#
# Indices 1 2 3 4 5 6 
#
# 1 39.3855 16.3044 7.3595 0.0000 0.3548 -0.0001
# 2 16.3044 88.2924 34.7692 0.0003 -7.8949 -0.0002
# 3 7.3595 34.7692 92.9662 0.0001 -3.6257 0.0000
# 4 0.0000 0.0003 0.0001 45.2748 0.0000 1.4585
# 5 0.3548 -7.8949 -3.6257 0.0000 34.6572 0.0000
# 6 -0.0001 -0.0002 0.0000 1.4585 0.0000 20.2915
#
#
#
# Elastic Compliance Matrix: (Units=1/GPa)
#
#
# Indices 1 2 3 4 5 6 
#
# 1 0.027574 -0.005092 -0.000336 0.000000 -0.001477 0.000000
# 2 -0.005092 0.014445 -0.004889 0.000000 0.002831 0.000000
# 3 -0.000336 -0.004889 0.012620 0.000000 0.000210 0.000000
# 4 0.000000 0.000000 0.000000 0.022139 0.000000 -0.001591
# 5 -0.001477 0.002831 0.000210 0.000000 0.029536 0.000000
# 6 0.000000 0.000000 0.000000 -0.001591 0.000000 0.049396
#
#
# Mechanical properties :
#
#
# Convention : Reuss Voigt Hill
#
# Bulk Modulus (GPa) = 29.40729 37.50115 33.45422
# Shear Modulus (GPa) = 26.64146 30.85875 28.75011
#
# Velocity S-wave (km/s) = 3.60417 3.87896 3.74409
# Velocity P-wave (km/s) = 5.62661 6.19249 5.91632
#
# Compressibility (1/GPa) = 0.03400517
#
# Stress axis : x y z
#
# Youngs Moduli (GPa) = 36.26606 69.23023 79.24066
#
# Poissons Ratio (x) = 0.35249 0.02664
# Poissons Ratio (y) = 0.18465 0.38739
# Poissons Ratio (z) = 0.01219 0.33845
#
# Static dielectric constant tensor:
#      x y z
#    x 3.738670 0.000000 -0.195120 
#    y 0.000000 4.077380 0.000000 
#    z -0.195120 0.000000 4.664710 
# 
# 
# High freq. dielectric constant tensor:
#      x y z
#    x 1.797680 0.000000 0.001320 
#    y 0.000000 1.804690 0.000000 
#    z 0.001320 0.000000 1.805100 
# 
# From -- ./inp_files/274018.got.cif
#   From: 2010.06.25/outbox.cif.g09.slc.cpg/sg12_138_cif.got.tgz:274018.got - 2010.06.28 00:19:55.
