data_PCOD8097676
_publ_section_title
;
Structure prediction by ZEFSAII (Michael W. Deem and Ramdas Pophale) SiO2 
 PCOD8097676
Probable space group: C 2/M
;
_chemical_formula_sum "Si O2"
_cell_formula_units_Z 40
_cell_length_a 24.681339
_cell_length_b 8.909211
_cell_length_c 7.251737
_cell_angle_alpha 90.000000
_cell_angle_beta 68.569478
_cell_angle_gamma 90.000000
_cell_volume 1484.345454
_symmetry_space_group_name_H-M "C 2/M"
_symmetry_group_IT_number 12
_symmetry_cell_setting 'monoclinic'
loop_
_space_group_symop_operation_xyz
x,y,z
-x,y,-z
-x,-y,-z
x,-y,z
1/2+x,1/2+y,z
1/2-x,1/2+y,-z
1/2-x,1/2-y,-z
1/2+x,1/2-y,z
loop_
_atom_site_type_symbol
_atom_site_label
_atom_site_fract_x
_atom_site_fract_y
_atom_site_fract_z
Si Si1 0.163936 0.326430 0.190565
Si Si2 0.860781 0.826774 0.360246
Si Si3 0.262893 0.827566 0.271541
Si Si4 0.535611 0.832053 0.641989
Si Si5 0.431933 0.673548 0.903873
O O1 0.159446 0.500000 0.256323
O O2 0.195506 0.228985 0.317147
O O3 0.100538 0.264610 0.218487
O O4 0.203987 0.307125 0.960912
O O5 0.794856 0.773183 0.390276
O O6 0.897404 0.729110 0.466956
O O7 0.859280 0.000000 0.417830
O O8 0.900352 0.793480 0.133814
O O9 0.262026 0.000000 0.335894
O O10 0.500000 0.825388 0.500000
O O11 0.499037 0.728078 0.829642
O O12 0.539262 0.000000 0.716308
O O13 0.430070 0.500000 0.853347
#
# Coordination Sequence:
#
# PCOD8097676 Si02
#       5
#     8   8   8   8   8
#     4   9  16  27  46  74 107 139 170 208 254 302
#     4  10  20  34  54  80 107 136 173 215 258 307
#     4   9  16  27  46  74 107 139 170 208 254 302
#     4  11  24  39  54  74 102 137 176 217 262 312
#     4  10  20  34  54  80 107 136 173 215 258 307
#
# _framework density 26.947904999999999
#
# number of rings (size 3 to 8) (size 9 to 14) (size 15 to 20)
#    0.000    2.200    0.000    3.600    0.000   11.200 
#    0.000    0.000    0.000    1.200    0.000    0.000 
#    0.000    0.000    0.000    0.000    0.000    0.000 
#
# Total GULP energy -248145.156224 kJ/mol
# GULP energy per Si atom -12407.257811 kJ/mol
# Density = 2.688657 g / cm^3
# Si number density = 26.947905 Si / 1000 Ang^3
#
#
#
# Elastic Constant Matrix: (Units=GPa)
#
#
# Indices 1 2 3 4 5 6 
#
# 1 214.6081 64.6421 16.6341 0.0000 -6.1076 0.0000
# 2 64.6421 155.2316 9.7769 0.0000 37.9503 0.0000
# 3 16.6341 9.7769 62.4924 0.0000 16.1519 0.0000
# 4 0.0000 0.0000 0.0000 29.1622 0.0000 10.7817
# 5 -6.1076 37.9503 16.1519 0.0000 45.9171 0.0000
# 6 0.0000 0.0000 0.0000 10.7817 0.0000 50.1265
#
#
#
# Elastic Compliance Matrix: (Units=1/GPa)
#
#
# Indices 1 2 3 4 5 6 
#
# 1 0.005989 -0.003433 -0.002196 0.000000 0.004407 0.000000
# 2 -0.003433 0.010056 0.001767 0.000000 -0.009389 0.000000
# 3 -0.002196 0.001767 0.018440 0.000000 -0.008239 0.000000
# 4 0.000000 0.000000 0.000000 0.037253 0.000000 -0.008013
# 5 0.004407 -0.009389 -0.008239 0.000000 0.033023 0.000000
# 6 0.000000 0.000000 0.000000 -0.008013 0.000000 0.021673
#
#
# Mechanical properties :
#
#
# Convention : Reuss Voigt Hill
#
# Bulk Modulus (GPa) = 37.36765 68.27090 52.81927
# Shear Modulus (GPa) = 34.94593 47.79308 41.36951
#
# Velocity S-wave (km/s) = 3.60501 4.21591 3.92237
# Velocity P-wave (km/s) = 5.58792 7.00627 6.33691
#
# Compressibility (1/GPa) = 0.02676112
#
# Stress axis : x y z
#
# Youngs Moduli (GPa) = 166.96262 99.44524 54.23139
#
# Poissons Ratio (x) = 0.34141 0.11910
# Poissons Ratio (y) = 0.57320 -0.09585
# Poissons Ratio (z) = 0.36666 -0.17576
#
# Static dielectric constant tensor:
#      x y z
#    x 5.649740 0.000000 -0.189510 
#    y 0.000000 4.637170 0.000000 
#    z -0.189510 0.000000 5.280250 
# 
# 
# High freq. dielectric constant tensor:
#      x y z
#    x 2.128260 0.000000 -0.021270 
#    y 0.000000 2.065050 0.000000 
#    z -0.021270 0.000000 2.148720 
# 
# From -- ./inp_files/40456.got.cif
#   From: 2010.06.25/outbox.cif.g09.slc.cpg/sg12_21_cif.got.tgz:40456.got - 2010.06.28 00:19:55.
