data_PCOD8097861
_publ_section_title
;
Structure prediction by ZEFSAII (Michael W. Deem and Ramdas Pophale) SiO2 
 PCOD8097861
Probable space group: C 2/M
;
_chemical_formula_sum "Si O2"
_cell_formula_units_Z 48
_cell_length_a 23.813151
_cell_length_b 12.254989
_cell_length_c 9.316441
_cell_angle_alpha 90.000000
_cell_angle_beta 111.745645
_cell_angle_gamma 90.000000
_cell_volume 2525.338916
_symmetry_space_group_name_H-M "C 2/M"
_symmetry_group_IT_number 12
_symmetry_cell_setting 'monoclinic'
loop_
_space_group_symop_operation_xyz
x,y,z
-x,y,-z
-x,-y,-z
x,-y,z
1/2+x,1/2+y,z
1/2-x,1/2+y,-z
1/2-x,1/2-y,-z
1/2+x,1/2-y,z
loop_
_atom_site_type_symbol
_atom_site_label
_atom_site_fract_x
_atom_site_fract_y
_atom_site_fract_z
Si Si1 0.826940 0.871412 0.324368
Si Si2 0.065190 0.124255 0.068075
Si Si3 0.610868 0.759149 0.867216
Si Si4 0.187443 0.375783 0.161040
Si Si5 0.490457 0.876247 0.659074
Si Si6 0.874426 0.244419 0.642735
O O1 0.868404 0.801344 0.256768
O O2 0.758639 0.859967 0.207668
O O3 0.832953 0.810539 0.482546
O O4 0.846335 0.000000 0.349878
O O5 0.093118 0.142503 0.250756
O O6 0.056420 0.000000 0.025170
O O7 0.108733 0.168244 0.987084
O O8 0.000000 0.183786 0.000000
O O9 0.545497 0.813229 0.785457
O O10 0.657865 0.846575 0.978214
O O11 0.171146 0.500000 0.181085
O O12 0.165513 0.307160 0.277461
O O13 0.500000 0.873462 0.500000
O O14 0.425366 0.824473 0.629196
O O15 0.490135 0.000000 0.717021
#
# Coordination Sequence:
#
# PCOD8097861 Si02
#       6
#     8   8   8   8   8   8
#     4  11  23  40  60  86 117 154 198 241 282 341
#     4  10  20  34  54  83 117 152 187 229 279 342
#     4  11  21  39  60  86 117 154 190 238 291 344
#     4  10  23  40  61  86 116 154 198 240 285 338
#     4  11  22  37  58  87 119 147 187 237 293 350
#     4  11  21  39  60  86 117 154 190 238 291 344
#
# _framework density 19.007349000000001
#
# number of rings (size 3 to 8) (size 9 to 14) (size 15 to 20)
#    0.000    1.333    3.333    3.000    0.000    0.000 
#    0.000    3.333    0.000    8.000    0.000    0.000 
#    0.000    0.000    0.000    0.000    0.000    0.000 
#
# Total GULP energy -297501.275273 kJ/mol
# GULP energy per Si atom -12395.886470 kJ/mol
# Density = 1.896409 g / cm^3
# Si number density = 19.007349 Si / 1000 Ang^3
#
#
#
# Elastic Constant Matrix: (Units=GPa)
#
#
# Indices 1 2 3 4 5 6 
#
# 1 57.0190 27.5599 2.3766 0.0000 5.3008 0.0000
# 2 27.5599 95.4024 29.7771 0.0000 5.2826 0.0000
# 3 2.3766 29.7771 78.8957 0.0000 4.0038 0.0000
# 4 0.0000 0.0000 0.0000 24.7155 0.0000 -3.4312
# 5 5.3008 5.2826 4.0038 0.0000 32.9414 0.0000
# 6 0.0000 0.0000 0.0000 -3.4312 0.0000 7.9965
#
#
#
# Elastic Compliance Matrix: (Units=1/GPa)
#
#
# Indices 1 2 3 4 5 6 
#
# 1 0.020828 -0.006484 0.001949 0.000000 -0.002549 0.000000
# 2 -0.006484 0.013962 -0.005045 0.000000 -0.000582 0.000000
# 3 0.001949 -0.005045 0.014585 0.000000 -0.001277 0.000000
# 4 0.000000 0.000000 0.000000 0.043023 0.000000 0.018461
# 5 -0.002549 -0.000582 -0.001277 0.000000 0.031016 0.000000
# 6 0.000000 0.000000 0.000000 0.018461 0.000000 0.132975
#
#
# Mechanical properties :
#
#
# Convention : Reuss Voigt Hill
#
# Bulk Modulus (GPa) = 33.09548 38.97159 36.03354
# Shear Modulus (GPa) = 17.50580 24.57094 21.03837
#
# Velocity S-wave (km/s) = 3.03809 3.59932 3.33055
# Velocity P-wave (km/s) = 5.45494 6.14992 5.81283
#
# Compressibility (1/GPa) = 0.03021560
#
# Stress axis : x y z
#
# Youngs Moduli (GPa) = 48.01300 71.62403 68.56348
#
# Poissons Ratio (x) = 0.46441 -0.13364
# Poissons Ratio (y) = 0.31131 0.34588
# Poissons Ratio (z) = -0.09358 0.36132
#
# Static dielectric constant tensor:
#      x y z
#    x 3.553020 0.000000 0.133700 
#    y 0.000000 3.584100 0.000000 
#    z 0.133700 0.000000 3.560420 
# 
# 
# High freq. dielectric constant tensor:
#      x y z
#    x 1.742130 0.000000 0.002900 
#    y 0.000000 1.745760 0.000000 
#    z 0.002900 0.000000 1.748740 
# 
# From -- ./inp_files/94900.got.cif
#   From: 2010.06.25/outbox.cif.g09.slc.cpg/sg12_48_cif.got.tgz:94900.got - 2010.06.28 00:19:55.
