data_PCOD8097652
_publ_section_title
;
Structure prediction by ZEFSAII (Michael W. Deem and Ramdas Pophale) SiO2 
 PCOD8097652
Probable space group: C 2/M
;
_chemical_formula_sum "Si O2"
_cell_formula_units_Z 56
_cell_length_a 18.431355
_cell_length_b 8.908241
_cell_length_c 29.104006
_cell_angle_alpha 90.000000
_cell_angle_beta 37.842031
_cell_angle_gamma 90.000000
_cell_volume 2931.615604
_symmetry_space_group_name_H-M "C 2/M"
_symmetry_group_IT_number 12
_symmetry_cell_setting 'monoclinic'
loop_
_space_group_symop_operation_xyz
x,y,z
-x,y,-z
-x,-y,-z
x,-y,z
1/2+x,1/2+y,z
1/2-x,1/2+y,-z
1/2-x,1/2-y,-z
1/2+x,1/2-y,z
loop_
_atom_site_type_symbol
_atom_site_label
_atom_site_fract_x
_atom_site_fract_y
_atom_site_fract_z
Si Si1 0.627430 0.170345 0.432044
Si Si2 0.703815 0.329367 0.567953
Si Si3 0.750618 0.672265 0.867093
Si Si4 0.424170 0.674936 0.127228
Si Si5 0.323867 0.823087 0.003756
Si Si6 0.657733 0.676857 0.731410
Si Si7 0.521004 0.826900 0.721592
O O1 0.500000 0.254396 0.500000
O O2 0.689849 0.181115 0.449560
O O3 0.714634 0.240585 0.349630
O O4 0.602705 0.000000 0.429235
O O5 0.670140 0.500000 0.573528
O O6 0.750000 0.250000 0.500000
O O7 0.587167 0.250008 0.645969
O O8 0.728394 0.500000 0.893013
O O9 0.660625 0.720302 0.872121
O O10 0.882180 0.694269 0.782147
O O11 0.731998 0.777959 0.919864
O O12 0.458639 0.500000 0.108279
O O13 0.541046 0.772585 0.065637
O O14 0.356589 0.714390 0.208088
O O15 0.316623 0.000000 0.001457
O O16 0.250000 0.750000 0.000000
O O17 0.649612 0.500000 0.724888
O O18 0.553794 0.754114 0.754213
O O19 0.557700 0.000000 0.704702
#
# Coordination Sequence:
#
# PCOD8097652 Si02
#       7
#     8   8   8   8   8   8   8
#     4   8  15  29  51  77 103 134 176 222 263 311
#     4  10  20  34  54  79 108 142 181 227 276 327
#     4  10  22  39  59  85 115 147 184 227 276 331
#     4  10  21  38  59  83 114 147 182 229 279 329
#     4  12  25  40  60  84 111 146 187 229 277 333
#     4   9  18  33  54  79 106 141 182 223 272 326
#     4  10  20  35  56  80 108 144 184 224 268 324
#
# _framework density 19.102094000000001
#
# number of rings (size 3 to 8) (size 9 to 14) (size 15 to 20)
#    0.000    2.143    0.000    4.286    0.000    7.429 
#    0.000    4.286    0.000   14.143    0.000    0.000 
#    0.000    0.000    0.000    0.000    0.000    0.000 
#
# Total GULP energy -347216.296415 kJ/mol
# GULP energy per Si atom -12400.582015 kJ/mol
# Density = 1.905862 g / cm^3
# Si number density = 19.102094 Si / 1000 Ang^3
#
#
#
# Elastic Constant Matrix: (Units=GPa)
#
#
# Indices 1 2 3 4 5 6 
#
# 1 118.3117 55.8227 71.4005 -0.0002 -2.9717 0.0019
# 2 55.8227 104.8060 62.1077 -0.0013 3.6349 0.0037
# 3 71.4005 62.1077 132.8234 0.0001 3.5565 -0.0001
# 4 -0.0002 -0.0013 0.0001 31.4046 -0.0001 3.7511
# 5 -2.9717 3.6349 3.5565 -0.0001 41.5982 -0.0004
# 6 0.0019 0.0037 -0.0001 3.7511 -0.0004 26.0318
#
#
#
# Elastic Compliance Matrix: (Units=1/GPa)
#
#
# Indices 1 2 3 4 5 6 
#
# 1 0.013781 -0.004128 -0.005526 0.000000 0.001818 0.000000
# 2 -0.004128 0.014452 -0.004507 0.000001 -0.001172 -0.000002
# 3 -0.005526 -0.004507 0.012636 0.000000 -0.001081 0.000001
# 4 0.000000 0.000001 0.000000 0.032400 0.000000 -0.004669
# 5 0.001818 -0.001172 -0.001081 0.000000 0.024364 0.000000
# 6 0.000000 -0.000002 0.000001 -0.004669 0.000000 0.039087
#
#
# Mechanical properties :
#
#
# Convention : Reuss Voigt Hill
#
# Bulk Modulus (GPa) = 79.71075 81.62252 80.66663
# Shear Modulus (GPa) = 29.54644 30.91429 30.23036
#
# Velocity S-wave (km/s) = 3.93716 4.02726 3.98247
# Velocity P-wave (km/s) = 7.90492 8.02792 7.96666
#
# Compressibility (1/GPa) = 0.01254536
#
# Stress axis : x y z
#
# Youngs Moduli (GPa) = 72.56451 69.19578 79.13923
#
# Poissons Ratio (x) = 0.28565 0.43735
# Poissons Ratio (y) = 0.29956 0.35668
# Poissons Ratio (z) = 0.40102 0.31187
#
# Static dielectric constant tensor:
#      x y z
#    x 3.628290 0.000000 -0.085850 
#    y 0.000000 3.440010 0.000000 
#    z -0.085850 0.000000 3.737220 
# 
# 
# High freq. dielectric constant tensor:
#      x y z
#    x 1.741590 0.000000 -0.002400 
#    y 0.000000 1.727990 0.000000 
#    z -0.002400 0.000000 1.761100 
# 
# From -- ./inp_files/363015.got.cif
#   From: 2010.06.25/outbox.cif.g09.slc.cpg/sg12_182_cif.got.tgz:363015.got - 2010.06.28 00:19:55.
