data_PCOD8097423
_publ_section_title
;
Structure prediction by ZEFSAII (Michael W. Deem and Ramdas Pophale) SiO2 
 PCOD8097423
Probable space group: C 2/M
;
_chemical_formula_sum "Si O2"
_cell_formula_units_Z 40
_cell_length_a 25.178272
_cell_length_b 20.599417
_cell_length_c 8.331737
_cell_angle_alpha 90.000000
_cell_angle_beta 150.399614
_cell_angle_gamma 90.000000
_cell_volume 2134.506057
_symmetry_space_group_name_H-M "C 2/M"
_symmetry_group_IT_number 12
_symmetry_cell_setting 'monoclinic'
loop_
_space_group_symop_operation_xyz
x,y,z
-x,y,-z
-x,-y,-z
x,-y,z
1/2+x,1/2+y,z
1/2-x,1/2+y,-z
1/2-x,1/2-y,-z
1/2+x,1/2-y,z
loop_
_atom_site_type_symbol
_atom_site_label
_atom_site_fract_x
_atom_site_fract_y
_atom_site_fract_z
Si Si1 0.946711 0.635115 0.698612
Si Si2 0.622669 0.426372 0.833482
Si Si3 0.843843 0.317693 0.910185
Si Si4 0.804097 0.572809 0.068841
Si Si5 0.758129 0.184100 0.691980
O O1 0.892984 0.580803 0.443967
O O2 0.855677 0.686260 0.513935
O O3 0.000000 0.603244 0.000000
O O4 0.034154 0.675067 0.827709
O O5 0.500000 0.404008 0.500000
O O6 0.630759 0.500000 0.917439
O O7 0.684027 0.418931 0.824310
O O8 0.678886 0.381941 0.111866
O O9 0.827641 0.245420 0.939559
O O10 0.758032 0.319278 0.541083
O O11 0.818685 0.374069 0.970042
O O12 0.819248 0.500000 0.038253
#
# Coordination Sequence:
#
# PCOD8097423 Si02
#       5
#     8   8   8   8   8
#     4   9  19  35  53  76 107 139 171 209 259 313
#     4   9  19  36  55  75 101 135 173 210 256 312
#     4  10  20  34  53  79 106 133 173 217 255 302
#     4  10  21  35  53  79 106 134 174 218 256 302
#     4   9  20  36  53  75 105 139 171 209 259 311
#
# _framework density 18.739698000000001
#
# number of rings (size 3 to 8) (size 9 to 14) (size 15 to 20)
#    0.000    2.600    0.000    0.600    0.000    9.200 
#    0.000    7.000    0.000    3.600    0.000    0.000 
#    0.000    0.000    0.000    0.000    0.000    0.000 
#
# Total GULP energy -247898.276154 kJ/mol
# GULP energy per Si atom -12394.913808 kJ/mol
# Density = 1.869705 g / cm^3
# Si number density = 18.739698 Si / 1000 Ang^3
#
#
#
# Elastic Constant Matrix: (Units=GPa)
#
#
# Indices 1 2 3 4 5 6 
#
# 1 92.0893 55.5856 54.8450 0.0000 7.9898 0.0000
# 2 55.5856 113.3316 53.5764 0.0000 -4.4556 0.0000
# 3 54.8450 53.5764 93.7445 0.0000 17.3868 0.0000
# 4 0.0000 0.0000 0.0000 24.2062 0.0000 -3.5346
# 5 7.9898 -4.4556 17.3868 0.0000 31.2885 0.0000
# 6 0.0000 0.0000 0.0000 -3.5346 0.0000 23.9479
#
#
#
# Elastic Compliance Matrix: (Units=1/GPa)
#
#
# Indices 1 2 3 4 5 6 
#
# 1 0.018962 -0.005820 -0.007487 0.000000 -0.001510 0.000000
# 2 -0.005820 0.015061 -0.006551 0.000000 0.007271 0.000000
# 3 -0.007487 -0.006551 0.020749 0.000000 -0.010551 0.000000
# 4 0.000000 0.000000 0.000000 0.042222 0.000000 0.006232
# 5 -0.001510 0.007271 -0.010551 0.000000 0.039245 0.000000
# 6 0.000000 0.000000 0.000000 0.006232 0.000000 0.042677
#
#
# Mechanical properties :
#
#
# Convention : Reuss Voigt Hill
#
# Bulk Modulus (GPa) = 66.42487 69.68659 68.05573
# Shear Modulus (GPa) = 22.35613 24.89907 23.62760
#
# Velocity S-wave (km/s) = 3.45771 3.64906 3.55467
# Velocity P-wave (km/s) = 7.17384 7.41765 7.29676
#
# Compressibility (1/GPa) = 0.01505460
#
# Stress axis : x y z
#
# Youngs Moduli (GPa) = 52.73578 66.39571 48.19546
#
# Poissons Ratio (x) = 0.38644 0.36086
# Poissons Ratio (y) = 0.30693 0.31574
# Poissons Ratio (z) = 0.39486 0.43497
#
# Static dielectric constant tensor:
#      x y z
#    x 3.515180 0.000000 0.157930 
#    y 0.000000 3.436030 0.000000 
#    z 0.157930 0.000000 3.550870 
# 
# 
# High freq. dielectric constant tensor:
#      x y z
#    x 1.728090 0.000000 0.012780 
#    y 0.000000 1.723200 0.000000 
#    z 0.012780 0.000000 1.725850 
# 
# From -- ./inp_files/48476.got.cif
#   From: 2010.06.25/outbox.cif.g09.slc.cpg/sg12_25_cif.got.tgz:48476.got - 2010.06.28 00:19:55.
