data_PCOD8097578
_publ_section_title
;
Structure prediction by ZEFSAII (Michael W. Deem and Ramdas Pophale) SiO2 
 PCOD8097578
Probable space group: C 2/M
;
_chemical_formula_sum "Si O2"
_cell_formula_units_Z 40
_cell_length_a 22.197181
_cell_length_b 11.072075
_cell_length_c 13.220733
_cell_angle_alpha 90.000000
_cell_angle_beta 31.019671
_cell_angle_gamma 90.000000
_cell_volume 1674.440680
_symmetry_space_group_name_H-M "C 2/M"
_symmetry_group_IT_number 12
_symmetry_cell_setting 'monoclinic'
loop_
_space_group_symop_operation_xyz
x,y,z
-x,y,-z
-x,-y,-z
x,-y,z
1/2+x,1/2+y,z
1/2-x,1/2+y,-z
1/2-x,1/2-y,-z
1/2+x,1/2-y,z
loop_
_atom_site_type_symbol
_atom_site_label
_atom_site_fract_x
_atom_site_fract_y
_atom_site_fract_z
Si Si1 0.479839 0.365917 0.406136
Si Si2 0.094575 0.225564 0.040334
Si Si3 0.274457 0.213477 0.632228
Si Si4 0.122319 0.367949 0.710877
Si Si5 0.727391 0.363564 0.104081
O O1 0.424326 0.500000 0.485435
O O2 0.380919 0.263313 0.548985
O O3 0.586951 0.355170 0.338053
O O4 0.557223 0.352176 0.190979
O O5 0.177172 0.149035 0.844029
O O6 0.178561 0.342693 0.942640
O O7 0.983743 0.273243 0.137593
O O8 0.219599 0.326271 0.650166
O O9 0.323121 0.119678 0.480467
O O10 0.077701 0.500000 0.806547
O O11 0.747879 0.500000 0.030090
O O12 0.750000 0.250000 0.000000
#
# Coordination Sequence:
#
# PCOD8097578 Si02
#       5
#     8   8   8   8   8
#     4   9  19  35  53  75 105 137 170 212 260 311
#     4  10  20  34  54  78 103 135 175 215 259 312
#     4  10  21  35  52  77 104 133 173 217 261 309
#     4  10  21  36  52  73 104 137 170 213 262 312
#     4   9  18  33  53  78 108 140 175 218 266 315
#
# _framework density 23.888574999999999
#
# number of rings (size 3 to 8) (size 9 to 14) (size 15 to 20)
#    0.000    2.400    0.000    1.800    0.000    5.600 
#    0.000    2.000    0.000    7.200    0.000   19.600 
#    0.000    0.000    0.000    0.000    0.000    0.000 
#
# Total GULP energy -247771.842490 kJ/mol
# GULP energy per Si atom -12388.592125 kJ/mol
# Density = 2.383420 g / cm^3
# Si number density = 23.888575 Si / 1000 Ang^3
#
#
#
# Elastic Constant Matrix: (Units=GPa)
#
#
# Indices 1 2 3 4 5 6 
#
# 1 103.6016 17.8732 8.8580 0.0000 -15.0102 0.0000
# 2 17.8732 82.0373 2.4277 0.0000 -8.3474 0.0000
# 3 8.8580 2.4277 129.8887 0.0000 2.0241 0.0000
# 4 0.0000 0.0000 0.0000 13.6852 0.0000 -3.9040
# 5 -15.0102 -8.3474 2.0241 0.0000 39.2691 0.0000
# 6 0.0000 0.0000 0.0000 -3.9040 0.0000 11.1838
#
#
#
# Elastic Compliance Matrix: (Units=1/GPa)
#
#
# Indices 1 2 3 4 5 6 
#
# 1 0.010578 -0.001909 -0.000743 0.000000 0.003676 0.000000
# 2 -0.001909 0.012813 -0.000141 0.000000 0.002001 0.000000
# 3 -0.000743 -0.000141 0.007763 0.000000 -0.000714 0.000000
# 4 0.000000 0.000000 0.000000 0.081153 0.000000 0.028328
# 5 0.003676 0.002001 -0.000714 0.000000 0.027333 0.000000
# 6 0.000000 0.000000 0.000000 0.028328 0.000000 0.099303
#
#
# Mechanical properties :
#
#
# Convention : Reuss Voigt Hill
#
# Bulk Modulus (GPa) = 39.10808 41.53839 40.32323
# Shear Modulus (GPa) = 19.75890 31.91887 25.83888
#
# Velocity S-wave (km/s) = 2.87910 3.65931 3.29240
# Velocity P-wave (km/s) = 5.24012 5.93972 5.60085
#
# Compressibility (1/GPa) = 0.02557017
#
# Stress axis : x y z
#
# Youngs Moduli (GPa) = 94.53842 78.04462 128.81082
#
# Poissons Ratio (x) = 0.14895 0.09570
# Poissons Ratio (y) = 0.18043 0.01810
# Poissons Ratio (z) = 0.07024 0.01097
#
# Static dielectric constant tensor:
#      x y z
#    x 4.805420 0.000000 -0.006920 
#    y 0.000000 3.718450 0.000000 
#    z -0.006920 0.000000 4.999690 
# 
# 
# High freq. dielectric constant tensor:
#      x y z
#    x 1.970730 0.000000 -0.000460 
#    y 0.000000 1.899440 0.000000 
#    z -0.000460 0.000000 1.981290 
# 
# From -- ./inp_files/141096.got.cif
#   From: 2010.06.25/outbox.cif.g09.slc.cpg/sg12_71_cif.got.tgz:141096.got - 2010.06.28 00:19:55.
