data_PCOD8097187
_publ_section_title
;
Structure prediction by ZEFSAII (Michael W. Deem and Ramdas Pophale) SiO2 
 PCOD8097187
Probable space group: C 2/M
;
_chemical_formula_sum "Si O2"
_cell_formula_units_Z 56
_cell_length_a 24.176688
_cell_length_b 10.893308
_cell_length_c 11.335653
_cell_angle_alpha 90.000000
_cell_angle_beta 107.317733
_cell_angle_gamma 90.000000
_cell_volume 2850.071948
_symmetry_space_group_name_H-M "C 2/M"
_symmetry_group_IT_number 12
_symmetry_cell_setting 'monoclinic'
loop_
_space_group_symop_operation_xyz
x,y,z
-x,y,-z
-x,-y,-z
x,-y,z
1/2+x,1/2+y,z
1/2-x,1/2+y,-z
1/2-x,1/2-y,-z
1/2+x,1/2-y,z
loop_
_atom_site_type_symbol
_atom_site_label
_atom_site_fract_x
_atom_site_fract_y
_atom_site_fract_z
Si Si1 0.060842 0.358316 0.791942
Si Si2 0.179473 0.136555 0.582473
Si Si3 0.176410 0.363246 0.963052
Si Si4 0.347598 0.636544 0.695089
Si Si5 0.431520 0.856520 0.709769
Si Si6 0.754641 0.208675 0.807400
Si Si7 0.436051 0.758128 0.459235
O O1 0.067070 0.500000 0.820977
O O2 0.113778 0.295775 0.899884
O O3 0.071499 0.339428 0.660858
O O4 0.996606 0.317405 0.791974
O O5 0.187529 0.161221 0.448185
O O6 0.218849 0.226799 0.681575
O O7 0.111359 0.150980 0.569473
O O8 0.198430 0.000000 0.629049
O O9 0.165685 0.500000 0.999937
O O10 0.211809 0.368700 0.862282
O O11 0.212002 0.302988 0.089047
O O12 0.378217 0.500000 0.707116
O O13 0.390636 0.752997 0.744313
O O14 0.302454 0.625669 0.773625
O O15 0.427203 0.847892 0.565533
O O16 0.416900 0.000000 0.735454
O O17 0.500000 0.696682 0.500000
#
# Coordination Sequence:
#
# PCOD8097187 Si02
#       7
#     8   8   8   8   8   8   8
#     4   9  16  31  53  80 111 140 184 234 280 329
#     4  10  20  34  52  80 114 149 188 231 276 332
#     4  10  21  35  57  82 107 143 186 238 283 324
#     4  10  22  39  58  82 116 151 187 228 280 341
#     4   9  18  32  56  85 112 144 185 232 282 331
#     4  11  21  37  56  77 111 148 191 229 276 333
#     4   9  16  29  50  79 114 144 181 227 280 331
#
# _framework density 19.648627000000001
#
# number of rings (size 3 to 8) (size 9 to 14) (size 15 to 20)
#    0.000    2.286    1.429    1.714    0.000    3.143 
#    0.000    5.000    0.000    3.429    0.000    0.000 
#    0.000    0.000    0.000    0.000    0.000    0.000 
#
# Total GULP energy -346867.395516 kJ/mol
# GULP energy per Si atom -12388.121268 kJ/mol
# Density = 1.960391 g / cm^3
# Si number density = 19.648627 Si / 1000 Ang^3
#
#
#
# Elastic Constant Matrix: (Units=GPa)
#
#
# Indices 1 2 3 4 5 6 
#
# 1 74.6091 28.3327 39.7619 0.0000 3.6961 0.0000
# 2 28.3327 75.0220 17.0201 0.0000 1.3013 0.0000
# 3 39.7619 17.0201 58.3218 0.0000 10.2084 0.0000
# 4 0.0000 0.0000 0.0000 7.8288 0.0000 3.4764
# 5 3.6961 1.3013 10.2084 0.0000 27.8156 0.0000
# 6 0.0000 0.0000 0.0000 3.4764 0.0000 22.7484
#
#
#
# Elastic Compliance Matrix: (Units=1/GPa)
#
#
# Indices 1 2 3 4 5 6 
#
# 1 0.023153 -0.005468 -0.014636 0.000000 0.002551 0.000000
# 2 -0.005468 0.015588 -0.000877 0.000000 0.000319 0.000000
# 3 -0.014636 -0.000877 0.028889 0.000000 -0.008616 0.000000
# 4 0.000000 0.000000 0.000000 0.137033 0.000000 -0.020942
# 5 0.002551 0.000319 -0.008616 0.000000 0.038759 0.000000
# 6 0.000000 0.000000 0.000000 -0.020942 0.000000 0.047159
#
#
# Mechanical properties :
#
#
# Convention : Reuss Voigt Hill
#
# Bulk Modulus (GPa) = 38.95886 42.02023 40.48954
# Shear Modulus (GPa) = 14.65850 19.86777 17.26314
#
# Velocity S-wave (km/s) = 2.73432 3.18331 2.96732
# Velocity P-wave (km/s) = 5.46256 5.91131 5.69136
#
# Compressibility (1/GPa) = 0.02566810
#
# Stress axis : x y z
#
# Youngs Moduli (GPa) = 43.19052 64.15262 34.61566
#
# Poissons Ratio (x) = 0.35078 0.50663
# Poissons Ratio (y) = 0.23616 0.03036
# Poissons Ratio (z) = 0.63213 0.05627
#
# Static dielectric constant tensor:
#      x y z
#    x 3.942410 0.000000 0.239170 
#    y 0.000000 3.305750 0.000000 
#    z 0.239170 0.000000 3.626700 
# 
# 
# High freq. dielectric constant tensor:
#      x y z
#    x 1.769030 0.000000 0.009180 
#    y 0.000000 1.742740 0.000000 
#    z 0.009180 0.000000 1.760480 
# 
# From -- ./inp_files/165592.got.cif
#   From: 2010.06.25/outbox.cif.g09.slc.cpg/sg12_83_cif.got.tgz:165592.got - 2010.06.28 00:19:55.
