data_PCOD8097249
_publ_section_title
;
Structure prediction by ZEFSAII (Michael W. Deem and Ramdas Pophale) SiO2 
 PCOD8097249
Probable space group: C 2/M
;
_chemical_formula_sum "Si O2"
_cell_formula_units_Z 48
_cell_length_a 14.045878
_cell_length_b 9.112098
_cell_length_c 20.769027
_cell_angle_alpha 90.000000
_cell_angle_beta 91.139197
_cell_angle_gamma 90.000000
_cell_volume 2657.648714
_symmetry_space_group_name_H-M "C 2/M"
_symmetry_group_IT_number 12
_symmetry_cell_setting 'monoclinic'
loop_
_space_group_symop_operation_xyz
x,y,z
-x,y,-z
-x,-y,-z
x,-y,z
1/2+x,1/2+y,z
1/2-x,1/2+y,-z
1/2-x,1/2-y,-z
1/2+x,1/2-y,z
loop_
_atom_site_type_symbol
_atom_site_label
_atom_site_fract_x
_atom_site_fract_y
_atom_site_fract_z
Si Si1 0.403297 0.669802 0.344125
Si Si2 0.748699 0.670624 0.100427
Si Si3 0.882123 0.170003 0.677732
Si Si4 0.732047 0.829348 0.566269
Si Si5 0.892199 0.329982 0.988769
Si Si6 0.253139 0.670418 0.232560
O O1 0.398916 0.500000 0.364602
O O2 0.510553 0.721952 0.333132
O O3 0.362532 0.764623 0.402246
O O4 0.344019 0.699059 0.278728
O O5 0.732271 0.500000 0.113235
O O6 0.836194 0.700571 0.053833
O O7 0.775661 0.749601 0.166562
O O8 0.651768 0.736349 0.069890
O O9 0.822972 0.200679 0.612361
O O10 0.841476 0.263981 0.736207
O O11 0.877273 0.000000 0.697638
O O12 0.750000 0.750000 0.500000
O O13 0.715503 0.000000 0.553315
O O14 0.886816 0.500000 0.968866
O O15 0.000000 0.277437 0.000000
O O16 0.235456 0.500000 0.219335
#
# Coordination Sequence:
#
# PCOD8097249 Si02
#       6
#     8   8   8   8   8   8
#     4   9  19  36  55  75 101 133 170 211 254 301
#     4  10  20  34  53  76 104 136 169 207 251 303
#     4   9  19  36  55  75 101 134 171 210 254 303
#     4  10  20  34  53  76 104 136 170 210 254 303
#     4   9  19  36  55  76 103 134 170 212 255 298
#     4  10  20  34  53  76 103 133 167 210 254 299
#
# _framework density 18.061077999999998
#
# number of rings (size 3 to 8) (size 9 to 14) (size 15 to 20)
#    0.000    2.500    0.000    1.500    0.000    5.000 
#    0.000    6.667    0.000    0.000    0.000    0.000 
#    0.000    0.000    0.000    0.000    0.000    0.000 
#
# Total GULP energy -297709.467782 kJ/mol
# GULP energy per Si atom -12404.561158 kJ/mol
# Density = 1.801997 g / cm^3
# Si number density = 18.061078 Si / 1000 Ang^3
#
#
#
# Elastic Constant Matrix: (Units=GPa)
#
#
# Indices 1 2 3 4 5 6 
#
# 1 131.0376 42.6666 34.2354 0.0000 -7.0917 0.0000
# 2 42.6666 92.4612 56.9955 0.0000 -5.4754 0.0000
# 3 34.2354 56.9955 99.8984 0.0000 -6.9816 0.0000
# 4 0.0000 0.0000 0.0000 39.7146 0.0000 -2.2026
# 5 -7.0917 -5.4754 -6.9816 0.0000 13.3520 0.0000
# 6 0.0000 0.0000 0.0000 -2.2026 0.0000 28.5105
#
#
#
# Elastic Compliance Matrix: (Units=1/GPa)
#
#
# Indices 1 2 3 4 5 6 
#
# 1 0.009170 -0.003466 -0.000959 0.000000 0.002948 0.000000
# 2 -0.003466 0.018041 -0.009047 0.000000 0.000827 0.000000
# 3 -0.000959 -0.009047 0.015783 0.000000 0.004033 0.000000
# 4 0.000000 0.000000 0.000000 0.025288 0.000000 0.001954
# 5 0.002948 0.000827 0.004033 0.000000 0.078908 0.000000
# 6 0.000000 0.000000 0.000000 0.001954 0.000000 0.035226
#
#
# Mechanical properties :
#
#
# Convention : Reuss Voigt Hill
#
# Bulk Modulus (GPa) = 62.31068 65.68801 63.99934
# Shear Modulus (GPa) = 23.28731 28.94873 26.11802
#
# Velocity S-wave (km/s) = 3.59467 4.00787 3.80688
# Velocity P-wave (km/s) = 7.19748 7.60699 7.40507
#
# Compressibility (1/GPa) = 0.01604861
#
# Stress axis : x y z
#
# Youngs Moduli (GPa) = 109.05134 55.43083 63.36113
#
# Poissons Ratio (x) = 0.19210 0.06078
# Poissons Ratio (y) = 0.37793 0.57325
# Poissons Ratio (z) = 0.10461 0.50150
#
# Static dielectric constant tensor:
#      x y z
#    x 3.406710 0.000000 -0.015660 
#    y 0.000000 3.413810 0.000000 
#    z -0.015660 0.000000 3.273620 
# 
# 
# High freq. dielectric constant tensor:
#      x y z
#    x 1.700210 0.000000 -0.002140 
#    y 0.000000 1.706800 0.000000 
#    z -0.002140 0.000000 1.700240 
# 
# From -- ./inp_files/307994.got.cif
#   From: 2010.06.25/outbox.cif.g09.slc.cpg/sg12_154_cif.got.tgz:307994.got - 2010.06.28 00:19:55.
