data_PCOD8097319
_publ_section_title
;
Structure prediction by ZEFSAII (Michael W. Deem and Ramdas Pophale) SiO2 
 PCOD8097319
Probable space group: C 2/M
;
_chemical_formula_sum "Si O2"
_cell_formula_units_Z 40
_cell_length_a 18.241258
_cell_length_b 9.054600
_cell_length_c 22.406879
_cell_angle_alpha 90.000000
_cell_angle_beta 145.014597
_cell_angle_gamma 90.000000
_cell_volume 2121.967206
_symmetry_space_group_name_H-M "C 2/M"
_symmetry_group_IT_number 12
_symmetry_cell_setting 'monoclinic'
loop_
_space_group_symop_operation_xyz
x,y,z
-x,y,-z
-x,-y,-z
x,-y,z
1/2+x,1/2+y,z
1/2-x,1/2+y,-z
1/2-x,1/2-y,-z
1/2+x,1/2-y,z
loop_
_atom_site_type_symbol
_atom_site_label
_atom_site_fract_x
_atom_site_fract_y
_atom_site_fract_z
Si Si1 0.729492 0.824901 0.811777
Si Si2 0.059586 0.327183 0.389654
Si Si3 0.370869 0.674437 0.787976
Si Si4 0.238098 0.327405 0.399053
Si Si5 0.335746 0.325290 0.007772
O O1 0.584617 0.766978 0.709679
O O2 0.812492 0.768677 0.811418
O O3 0.729882 0.000000 0.814145
O O4 0.792700 0.764025 0.914530
O O5 0.066412 0.500000 0.409356
O O6 0.124601 0.292237 0.369615
O O7 0.129508 0.239882 0.489024
O O8 0.353734 0.500000 0.769325
O O9 0.294195 0.753473 0.684821
O O10 0.518380 0.721284 0.884140
O O11 0.257141 0.500000 0.402115
O O12 0.317277 0.500000 0.999509
O O13 0.250000 0.250000 0.000000
#
# Coordination Sequence:
#
# PCOD8097319 Si02
#       5
#     8   8   8   8   8
#     4   9  18  34  55  77 102 135 175 214 251 298
#     4   9  18  34  55  75  99 136 178 214 250 300
#     4  10  20  34  54  78 104 136 173 211 252 303
#     4  10  20  34  53  77 106 136 169 214 261 303
#     4  10  20  35  56  80 105 134 170 211 255 304
#
# _framework density 18.850432999999999
#
# number of rings (size 3 to 8) (size 9 to 14) (size 15 to 20)
#    0.000    2.400    0.000    2.400    0.000    6.400 
#    0.000    7.000    0.000    2.400    0.000    0.000 
#    0.000    0.000    0.000    0.000    0.000    0.000 
#
# Total GULP energy -248057.708831 kJ/mol
# GULP energy per Si atom -12402.885442 kJ/mol
# Density = 1.880753 g / cm^3
# Si number density = 18.850433 Si / 1000 Ang^3
#
#
#
# Elastic Constant Matrix: (Units=GPa)
#
#
# Indices 1 2 3 4 5 6 
#
# 1 105.5929 24.9174 54.1147 -0.0002 -20.2655 0.0000
# 2 24.9174 33.8559 33.3198 -0.0001 -9.7234 0.0000
# 3 54.1147 33.3198 129.2130 -0.0003 -26.2449 -0.0001
# 4 -0.0002 -0.0001 -0.0003 14.8008 -0.0001 -0.6087
# 5 -20.2655 -9.7234 -26.2449 -0.0001 35.1280 0.0000
# 6 0.0000 0.0000 -0.0001 -0.6087 0.0000 27.1481
#
#
#
# Elastic Compliance Matrix: (Units=1/GPa)
#
#
# Indices 1 2 3 4 5 6 
#
# 1 0.013157 -0.005292 -0.003421 0.000000 0.003570 0.000000
# 2 -0.005292 0.042175 -0.008144 0.000000 0.002536 0.000000
# 3 -0.003421 -0.008144 0.012276 0.000000 0.004944 0.000000
# 4 0.000000 0.000000 0.000000 0.067626 0.000001 0.001516
# 5 0.003570 0.002536 0.004944 0.000001 0.034923 0.000000
# 6 0.000000 0.000000 0.000000 0.001516 0.000000 0.036869
#
#
# Mechanical properties :
#
#
# Convention : Reuss Voigt Hill
#
# Bulk Modulus (GPa) = 29.50248 54.81840 42.16044
# Shear Modulus (GPa) = 19.83827 25.83606 22.83716
#
# Velocity S-wave (km/s) = 3.24760 3.70615 3.48443
# Velocity P-wave (km/s) = 5.45411 6.88897 6.21310
#
# Compressibility (1/GPa) = 0.03389546
#
# Stress axis : x y z
#
# Youngs Moduli (GPa) = 76.00376 23.71053 81.45958
#
# Poissons Ratio (x) = 0.12547 0.27864
# Poissons Ratio (y) = 0.40220 0.66342
# Poissons Ratio (z) = 0.25998 0.19310
#
# Static dielectric constant tensor:
#      x y z
#    x 3.546230 0.000000 0.037870 
#    y 0.000000 3.192710 0.000000 
#    z 0.037870 0.000000 3.642730 
# 
# 
# High freq. dielectric constant tensor:
#      x y z
#    x 1.738220 0.000000 -0.000060 
#    y 0.000000 1.704360 0.000000 
#    z -0.000060 0.000000 1.749410 
# 
# From -- ./inp_files/140486.got.cif
#   From: 2010.06.25/outbox.cif.g09.slc.cpg/sg12_71_cif.got.tgz:140486.got - 2010.06.28 00:19:55.
