data_PCOD8097733
_publ_section_title
;
Structure prediction by ZEFSAII (Michael W. Deem and Ramdas Pophale) SiO2 
 PCOD8097733
Probable space group: C 2/M
;
_chemical_formula_sum "Si O2"
_cell_formula_units_Z 56
_cell_length_a 30.760847
_cell_length_b 8.815490
_cell_length_c 20.067596
_cell_angle_alpha 90.000000
_cell_angle_beta 149.101205
_cell_angle_gamma 90.000000
_cell_volume 2794.474621
_symmetry_space_group_name_H-M "C 2/M"
_symmetry_group_IT_number 12
_symmetry_cell_setting 'monoclinic'
loop_
_space_group_symop_operation_xyz
x,y,z
-x,y,-z
-x,-y,-z
x,-y,z
1/2+x,1/2+y,z
1/2-x,1/2+y,-z
1/2-x,1/2-y,-z
1/2+x,1/2-y,z
loop_
_atom_site_type_symbol
_atom_site_label
_atom_site_fract_x
_atom_site_fract_y
_atom_site_fract_z
Si Si1 0.286129 0.179747 0.115038
Si Si2 0.034516 0.177864 0.617679
Si Si3 0.775943 0.179501 0.825608
Si Si4 0.406586 0.320257 0.891715
Si Si5 0.345125 0.334026 0.561027
Si Si6 0.347413 0.165187 0.687743
Si Si7 0.875871 0.678723 0.467117
O O1 0.381046 0.232209 0.253484
O O2 0.228749 0.232495 0.103302
O O3 0.284652 0.000000 0.105588
O O4 0.250000 0.250000 0.000000
O O5 0.000000 0.224427 0.500000
O O6 0.962907 0.229855 0.574486
O O7 0.052925 0.000000 0.648138
O O8 0.863187 0.236008 0.904391
O O9 0.693733 0.240595 0.677291
O O10 0.772455 0.000000 0.816800
O O11 0.409138 0.500000 0.893760
O O12 0.348155 0.261617 0.755972
O O13 0.500000 0.252637 0.000000
O O14 0.386235 0.500000 0.598883
O O15 0.392895 0.257238 0.687203
O O16 0.249585 0.362485 0.458039
O O17 0.345946 0.216962 0.501561
O O18 0.391764 0.000000 0.754718
O O19 0.891199 0.500000 0.479071
#
# Coordination Sequence:
#
# PCOD8097733 Si02
#       7
#     8   8   8   8   8   8   8
#     4  11  23  43  66  90 125 168 212 259 321 383
#     4  11  23  39  62  94 127 157 203 261 313 374
#     4   9  19  36  61  88 115 154 202 252 309 374
#     4  10  20  37  60  84 113 154 203 251 303 364
#     4  10  20  34  54  82 114 152 191 239 297 355
#     4  10  20  34  54  80 113 151 192 241 296 352
#     4  11  20  35  61  89 119 155 198 250 309 371
#
# _framework density 20.039543999999999
#
# number of rings (size 3 to 8) (size 9 to 14) (size 15 to 20)
#    0.000    1.714    2.857    2.143    0.000    2.000 
#    2.571    1.429    0.000    0.000    0.000    0.000 
#    0.000    0.000    0.000    0.000    0.000    0.000 
#
# Total GULP energy -347034.856474 kJ/mol
# GULP energy per Si atom -12394.102017 kJ/mol
# Density = 1.999393 g / cm^3
# Si number density = 20.039544 Si / 1000 Ang^3
#
#
#
# Elastic Constant Matrix: (Units=GPa)
#
#
# Indices 1 2 3 4 5 6 
#
# 1 146.2338 40.9567 72.9534 0.0000 -14.6822 0.0000
# 2 40.9567 49.0656 33.5777 0.0000 -3.5512 0.0000
# 3 72.9534 33.5777 88.4208 0.0000 -7.1814 0.0000
# 4 0.0000 0.0000 0.0000 24.6283 0.0000 -4.6008
# 5 -14.6822 -3.5512 -7.1814 0.0000 38.3915 0.0000
# 6 0.0000 0.0000 0.0000 -4.6008 0.0000 26.2384
#
#
#
# Elastic Compliance Matrix: (Units=1/GPa)
#
#
# Indices 1 2 3 4 5 6 
#
# 1 0.012608 -0.004537 -0.008451 0.000000 0.002821 0.000000
# 2 -0.004537 0.029184 -0.007373 0.000000 -0.000415 0.000000
# 3 -0.008451 -0.007373 0.021084 0.000000 0.000030 0.000000
# 4 0.000000 0.000000 0.000000 0.041979 0.000000 0.007361
# 5 0.002821 -0.000415 0.000030 0.000000 0.027094 0.000000
# 6 0.000000 0.000000 0.000000 0.007361 0.000000 0.039403
#
#
# Mechanical properties :
#
#
# Convention : Reuss Voigt Hill
#
# Bulk Modulus (GPa) = 45.13616 64.29951 54.71784
# Shear Modulus (GPa) = 22.78353 26.93381 24.85867
#
# Velocity S-wave (km/s) = 3.37550 3.67008 3.52587
# Velocity P-wave (km/s) = 6.14527 7.07922 6.62871
#
# Compressibility (1/GPa) = 0.02215518
#
# Stress axis : x y z
#
# Youngs Moduli (GPa) = 79.31335 34.26577 47.42936
#
# Poissons Ratio (x) = 0.15547 0.40080
# Poissons Ratio (y) = 0.35987 0.34968
# Poissons Ratio (z) = 0.67024 0.25263
#
# Static dielectric constant tensor:
#      x y z
#    x 3.947710 0.000000 -0.018090 
#    y 0.000000 3.723480 0.000000 
#    z -0.018090 0.000000 3.490880 
# 
# 
# High freq. dielectric constant tensor:
#      x y z
#    x 1.790280 0.000000 -0.010070 
#    y 0.000000 1.779220 0.000000 
#    z -0.010070 0.000000 1.756880 
# 
# From -- ./inp_files/292509.got.cif
#   From: 2010.06.25/outbox.cif.g09.slc.cpg/sg12_147_cif.got.tgz:292509.got - 2010.06.28 00:19:55.
