data_PCOD8097904
_publ_section_title
;
Structure prediction by ZEFSAII (Michael W. Deem and Ramdas Pophale) SiO2 
 PCOD8097904
Probable space group: C 2/M
;
_chemical_formula_sum "Si O2"
_cell_formula_units_Z 32
_cell_length_a 13.516977
_cell_length_b 22.142557
_cell_length_c 14.300198
_cell_angle_alpha 90.000000
_cell_angle_beta 160.950557
_cell_angle_gamma 90.000000
_cell_volume 1396.941459
_symmetry_space_group_name_H-M "C 2/M"
_symmetry_group_IT_number 12
_symmetry_cell_setting 'monoclinic'
loop_
_space_group_symop_operation_xyz
x,y,z
-x,y,-z
-x,-y,-z
x,-y,z
1/2+x,1/2+y,z
1/2-x,1/2+y,-z
1/2-x,1/2-y,-z
1/2+x,1/2-y,z
loop_
_atom_site_type_symbol
_atom_site_label
_atom_site_fract_x
_atom_site_fract_y
_atom_site_fract_z
Si Si1 0.873801 0.263378 0.484882
Si Si2 0.133183 0.681304 0.020679
Si Si3 0.888509 0.374094 0.189275
Si Si4 0.762047 0.068171 0.661122
O O1 0.000000 0.287567 0.500000
O O2 0.022999 0.200287 0.651869
O O3 0.940266 0.314332 0.620003
O O4 0.524382 0.243970 0.157203
O O5 0.123266 0.628703 0.933932
O O6 0.000000 0.656895 0.000000
O O7 0.106227 0.428186 0.419074
O O8 0.546926 0.385813 0.923900
O O9 0.500000 0.087811 0.500000
O O10 0.876407 0.000000 0.781538
#
# Coordination Sequence:
#
# PCOD8097904 Si02
#       4
#     8   8   8   8
#     4  10  20  34  54  87 123 154 189 231 281 345
#     4  10  21  36  56  87 125 155 188 233 279 341
#     4  12  21  37  63  85 114 158 197 233 293 353
#     4  11  25  42  60  85 114 146 194 254 304 345
#
# _framework density 22.907185999999999
#
# number of rings (size 3 to 8) (size 9 to 14) (size 15 to 20)
#    0.000    1.250    0.000    6.750    0.000    6.000 
#    0.000    0.000    0.000    4.500    0.000    0.000 
#    0.000    0.000    0.000    0.000    0.000    0.000 
#
# Total GULP energy -198264.304940 kJ/mol
# GULP energy per Si atom -12391.519059 kJ/mol
# Density = 2.285505 g / cm^3
# Si number density = 22.907186 Si / 1000 Ang^3
#
#
#
# Elastic Constant Matrix: (Units=GPa)
#
#
# Indices 1 2 3 4 5 6 
#
# 1 112.6305 29.3945 29.4116 -0.0135 -21.3032 -0.0004
# 2 29.3945 47.1465 7.8174 -0.0064 -6.3881 -0.0023
# 3 29.4116 7.8174 93.6448 -0.0275 -6.2595 0.0010
# 4 -0.0135 -0.0064 -0.0275 23.2046 -0.0111 -10.8246
# 5 -21.3032 -6.3881 -6.2595 -0.0111 40.2139 0.0011
# 6 -0.0004 -0.0023 0.0010 -10.8246 0.0011 12.0636
#
#
#
# Elastic Compliance Matrix: (Units=1/GPa)
#
#
# Indices 1 2 3 4 5 6 
#
# 1 0.012303 -0.006495 -0.002986 0.000006 0.005021 0.000005
# 2 -0.006495 0.025345 -0.000037 0.000010 0.000579 0.000013
# 3 -0.002986 -0.000037 0.011635 0.000020 0.000223 0.000017
# 4 0.000006 0.000010 0.000020 0.074120 0.000027 0.066507
# 5 0.005021 0.000579 0.000223 0.000027 0.027654 0.000022
# 6 0.000005 0.000013 0.000017 0.066507 0.000022 0.142571
#
#
# Mechanical properties :
#
#
# Convention : Reuss Voigt Hill
#
# Bulk Modulus (GPa) = 33.06284 42.96319 38.01302
# Shear Modulus (GPa) = 15.49206 27.54963 21.52085
#
# Velocity S-wave (km/s) = 2.60339 3.47171 3.06842
# Velocity P-wave (km/s) = 4.84784 5.90478 5.40222
#
# Compressibility (1/GPa) = 0.03024543
#
# Stress axis : x y z
#
# Youngs Moduli (GPa) = 81.27931 39.45585 85.95059
#
# Poissons Ratio (x) = 0.25628 0.25668
# Poissons Ratio (y) = 0.52793 0.00318
# Poissons Ratio (z) = 0.24273 0.00146
#
# Static dielectric constant tensor:
#      x y z
#    x 4.172490 0.000000 -0.296330 
#    y 0.000000 3.671220 -0.000010 
#    z -0.296330 -0.000010 4.676360 
# 
# 
# High freq. dielectric constant tensor:
#      x y z
#    x 1.897040 0.000000 -0.009490 
#    y 0.000000 1.849190 0.000000 
#    z -0.009490 0.000000 1.941570 
# 
# From -- ./inp_files/217852.got.cif
#   From: 2010.06.25/outbox.cif.g09.slc.cpg/sg12_109_cif.got.tgz:217852.got - 2010.06.28 00:19:55.
