data_PCOD8097534
_publ_section_title
;
Structure prediction by ZEFSAII (Michael W. Deem and Ramdas Pophale) SiO2 
 PCOD8097534
Probable space group: C 2/M
;
_chemical_formula_sum "Si O2"
_cell_formula_units_Z 56
_cell_length_a 18.541434
_cell_length_b 8.982393
_cell_length_c 23.815619
_cell_angle_alpha 90.000000
_cell_angle_beta 55.163710
_cell_angle_gamma 90.000000
_cell_volume 3255.577323
_symmetry_space_group_name_H-M "C 2/M"
_symmetry_group_IT_number 12
_symmetry_cell_setting 'monoclinic'
loop_
_space_group_symop_operation_xyz
x,y,z
-x,y,-z
-x,-y,-z
x,-y,z
1/2+x,1/2+y,z
1/2-x,1/2+y,-z
1/2-x,1/2-y,-z
1/2+x,1/2-y,z
loop_
_atom_site_type_symbol
_atom_site_label
_atom_site_fract_x
_atom_site_fract_y
_atom_site_fract_z
Si Si1 0.183528 0.331991 0.569808
Si Si2 0.842580 0.668571 0.297662
Si Si3 0.685555 0.824908 0.811684
Si Si4 0.497002 0.826559 0.935337
Si Si5 0.339615 0.677369 0.939894
Si Si6 0.846812 0.823223 0.809180
Si Si7 0.468006 0.674309 0.312847
O O1 0.174165 0.500000 0.552478
O O2 0.250000 0.250000 0.500000
O O3 0.219522 0.324495 0.618717
O O4 0.085862 0.256828 0.612926
O O5 0.878754 0.500000 0.274057
O O6 0.792536 0.716455 0.263099
O O7 0.925342 0.778014 0.271720
O O8 0.588989 0.765096 0.869773
O O9 0.760424 0.752606 0.817954
O O10 0.687302 0.000000 0.821464
O O11 0.418924 0.732268 0.943298
O O12 0.481894 0.000000 0.927967
O O13 0.500000 0.798834 0.000000
O O14 0.332283 0.500000 0.947111
O O15 0.355092 0.733036 0.869217
O O16 0.250000 0.750000 0.000000
O O17 0.930830 0.774043 0.734530
O O18 0.841554 0.000000 0.811822
O O19 0.458094 0.500000 0.326661
#
# Coordination Sequence:
#
# PCOD8097534 Si02
#       7
#     8   8   8   8   8   8   8
#     4   9  17  29  48  76 101 128 164 202 246 294
#     4   8  16  28  46  70  94 123 162 202 240 287
#     4   9  16  30  50  71  98 130 167 210 250 296
#     4  10  20  34  54  76 100 134 173 212 260 312
#     4  11  22  36  53  75 103 135 174 217 260 310
#     4   9  18  31  50  74 100 131 168 209 254 302
#     4   9  16  28  48  73  99 126 158 200 247 293
#
# _framework density 17.201249000000001
#
# number of rings (size 3 to 8) (size 9 to 14) (size 15 to 20)
#    0.857    1.857    0.000    2.571    0.000    2.571 
#    0.000    1.429    0.000    6.000    0.000    6.000 
#    0.000    0.000    0.000    0.000    0.000    0.000 
#
# Total GULP energy -346868.581234 kJ/mol
# GULP energy per Si atom -12388.163616 kJ/mol
# Density = 1.716210 g / cm^3
# Si number density = 17.201249 Si / 1000 Ang^3
#
#
#
# Elastic Constant Matrix: (Units=GPa)
#
#
# Indices 1 2 3 4 5 6 
#
# 1 121.8697 38.1918 60.9490 0.0000 -11.1337 0.0001
# 2 38.1918 68.0071 44.4891 -0.0003 -8.8205 -0.0002
# 3 60.9490 44.4891 128.6883 0.0000 -16.1261 0.0000
# 4 0.0000 -0.0003 0.0000 21.7275 0.0000 -3.1495
# 5 -11.1337 -8.8205 -16.1261 0.0000 27.1088 0.0000
# 6 0.0001 -0.0002 0.0000 -3.1495 0.0000 20.4078
#
#
#
# Elastic Compliance Matrix: (Units=1/GPa)
#
#
# Indices 1 2 3 4 5 6 
#
# 1 0.011469 -0.003662 -0.004025 0.000000 0.001124 0.000000
# 2 -0.003662 0.020324 -0.005026 0.000000 0.002119 0.000000
# 3 -0.004025 -0.005026 0.011889 0.000000 0.003784 0.000000
# 4 0.000000 0.000000 0.000000 0.047078 0.000000 0.007265
# 5 0.001124 0.002119 0.003784 0.000000 0.040291 0.000000
# 6 0.000000 0.000000 0.000000 0.007265 0.000000 0.050122
#
#
# Mechanical properties :
#
#
# Convention : Reuss Voigt Hill
#
# Bulk Modulus (GPa) = 54.77922 67.31388 61.04655
# Shear Modulus (GPa) = 23.50917 25.51115 24.51016
#
# Velocity S-wave (km/s) = 3.70092 3.85528 3.77889
# Velocity P-wave (km/s) = 7.08362 7.68347 7.38963
#
# Compressibility (1/GPa) = 0.01825510
#
# Stress axis : x y z
#
# Youngs Moduli (GPa) = 87.19401 49.20361 84.11261
#
# Poissons Ratio (x) = 0.18017 0.33855
# Poissons Ratio (y) = 0.31928 0.42278
# Poissons Ratio (z) = 0.35095 0.24732
#
# Static dielectric constant tensor:
#      x y z
#    x 3.267540 0.000000 0.013830 
#    y 0.000000 3.042380 0.000000 
#    z 0.013830 0.000000 3.231280 
# 
# 
# High freq. dielectric constant tensor:
#      x y z
#    x 1.648030 0.000000 -0.000850 
#    y 0.000000 1.644540 0.000000 
#    z -0.000850 0.000000 1.664860 
# 
# From -- ./inp_files/341916.got.cif
#   From: 2010.06.25/outbox.cif.g09.slc.cpg/sg12_171_cif.got.tgz:341916.got - 2010.06.28 00:19:55.
