data_PCOD8097977
_publ_section_title
;
Structure prediction by ZEFSAII (Michael W. Deem and Ramdas Pophale) SiO2 
 PCOD8097977
Probable space group: C 2/M
;
_chemical_formula_sum "Si O2"
_cell_formula_units_Z 56
_cell_length_a 23.978744
_cell_length_b 13.959047
_cell_length_c 9.151041
_cell_angle_alpha 90.000000
_cell_angle_beta 70.546000
_cell_angle_gamma 90.000000
_cell_volume 2888.168772
_symmetry_space_group_name_H-M "C 2/M"
_symmetry_group_IT_number 12
_symmetry_cell_setting 'monoclinic'
loop_
_space_group_symop_operation_xyz
x,y,z
-x,y,-z
-x,-y,-z
x,-y,z
1/2+x,1/2+y,z
1/2-x,1/2+y,-z
1/2-x,1/2-y,-z
1/2+x,1/2-y,z
loop_
_atom_site_type_symbol
_atom_site_label
_atom_site_fract_x
_atom_site_fract_y
_atom_site_fract_z
Si Si1 0.272022 0.726529 0.822353
Si Si2 0.557680 0.229836 0.528728
Si Si3 0.828457 0.609534 0.594584
Si Si4 0.176821 0.607071 0.737196
Si Si5 0.108410 0.889653 0.291851
Si Si6 0.560592 0.214150 0.861814
Si Si7 0.565936 0.395987 0.007440
O O1 0.286107 0.826710 0.731483
O O2 0.218582 0.678618 0.784457
O O3 0.326950 0.654711 0.786308
O O4 0.250000 0.750000 0.000000
O O5 0.500000 0.190494 0.500000
O O6 0.605480 0.149199 0.450960
O O7 0.575625 0.334018 0.450715
O O8 0.544346 0.241270 0.711027
O O9 0.826793 0.500000 0.652046
O O10 0.806982 0.616983 0.446915
O O11 0.188410 0.500000 0.783192
O O12 0.107368 0.628025 0.827167
O O13 0.114873 0.000000 0.333833
O O14 0.069256 0.880056 0.178836
O O15 0.595880 0.305367 0.902077
O O16 0.500000 0.186727 0.000000
O O17 0.595184 0.500000 0.944360
O O18 0.500000 0.394277 0.000000
#
# Coordination Sequence:
#
# PCOD8097977 Si02
#       7
#     8   8   8   8   8   8   8
#     4  11  22  37  59  85 114 143 181 232 285 333
#     4  10  20  34  55  81 109 145 184 226 276 327
#     4   9  21  40  59  81 111 147 187 228 272 331
#     4  10  21  39  60  81 109 148 188 224 272 333
#     4  10  21  36  53  78 111 145 184 228 275 329
#     4  10  20  35  55  80 111 143 182 229 275 327
#     4   9  17  31  51  73 102 140 177 217 266 318
#
# _framework density 19.389448000000002
#
# number of rings (size 3 to 8) (size 9 to 14) (size 15 to 20)
#    0.000    2.143    0.000    3.429    0.000    3.714 
#    0.000    0.714    0.000    0.000    0.000    0.000 
#    0.000    0.000    0.000    0.000    0.000    0.000 
#
# Total GULP energy -347101.487316 kJ/mol
# GULP energy per Si atom -12396.481690 kJ/mol
# Density = 1.934532 g / cm^3
# Si number density = 19.389448 Si / 1000 Ang^3
#
#
#
# Elastic Constant Matrix: (Units=GPa)
#
#
# Indices 1 2 3 4 5 6 
#
# 1 106.6359 51.7564 55.7587 0.0000 5.2069 0.0000
# 2 51.7564 149.7262 67.0831 0.0000 5.4169 0.0000
# 3 55.7587 67.0831 135.2842 0.0000 0.3817 0.0000
# 4 0.0000 0.0000 0.0000 15.5638 0.0000 -4.1171
# 5 5.2069 5.4169 0.3817 0.0000 24.8813 0.0000
# 6 0.0000 0.0000 0.0000 -4.1171 0.0000 7.8287
#
#
#
# Elastic Compliance Matrix: (Units=1/GPa)
#
#
# Indices 1 2 3 4 5 6 
#
# 1 0.012816 -0.002560 -0.004007 0.000000 -0.002063 0.000000
# 2 -0.002560 0.009180 -0.003493 0.000000 -0.001409 0.000000
# 3 -0.004007 -0.003493 0.010771 0.000000 0.001434 0.000000
# 4 0.000000 0.000000 0.000000 0.074634 0.000000 0.039250
# 5 -0.002063 -0.001409 0.001434 0.000000 0.040907 0.000000
# 6 0.000000 0.000000 0.000000 0.039250 0.000000 0.148376
#
#
# Mechanical properties :
#
#
# Convention : Reuss Voigt Hill
#
# Bulk Modulus (GPa) = 79.06829 82.31584 80.69206
# Shear Modulus (GPa) = 15.57530 24.12465 19.84998
#
# Velocity S-wave (km/s) = 2.83731 3.53117 3.20308
# Velocity P-wave (km/s) = 7.18341 7.69231 7.44221
#
# Compressibility (1/GPa) = 0.01264730
#
# Stress axis : x y z
#
# Youngs Moduli (GPa) = 78.02553 108.93558 92.84000
#
# Poissons Ratio (x) = 0.27891 0.37201
# Poissons Ratio (y) = 0.19977 0.32426
# Poissons Ratio (z) = 0.31264 0.38048
#
# Static dielectric constant tensor:
#      x y z
#    x 3.509990 0.000000 0.087330 
#    y 0.000000 3.880430 0.000000 
#    z 0.087330 0.000000 3.497900 
# 
# 
# High freq. dielectric constant tensor:
#      x y z
#    x 1.759450 0.000000 0.011770 
#    y 0.000000 1.763890 0.000000 
#    z 0.011770 0.000000 1.749370 
# 
# From -- ./inp_files/96780.got.cif
#   From: 2010.06.25/outbox.cif.g09.slc.cpg/sg12_49_cif.got.tgz:96780.got - 2010.06.28 00:19:55.
