data_PCOD8097380
_publ_section_title
;
Structure prediction by ZEFSAII (Michael W. Deem and Ramdas Pophale) SiO2 
 PCOD8097380
Probable space group: C 2/M
;
_chemical_formula_sum "Si O2"
_cell_formula_units_Z 56
_cell_length_a 19.827530
_cell_length_b 8.935712
_cell_length_c 30.266041
_cell_angle_alpha 90.000000
_cell_angle_beta 35.095606
_cell_angle_gamma 90.000000
_cell_volume 3083.030440
_symmetry_space_group_name_H-M "C 2/M"
_symmetry_group_IT_number 12
_symmetry_cell_setting 'monoclinic'
loop_
_space_group_symop_operation_xyz
x,y,z
-x,y,-z
-x,-y,-z
x,-y,z
1/2+x,1/2+y,z
1/2-x,1/2+y,-z
1/2-x,1/2-y,-z
1/2+x,1/2-y,z
loop_
_atom_site_type_symbol
_atom_site_label
_atom_site_fract_x
_atom_site_fract_y
_atom_site_fract_z
Si Si1 0.128245 0.327497 0.945650
Si Si2 0.017014 0.323474 0.230444
Si Si3 0.080266 0.168691 0.499826
Si Si4 0.885558 0.324965 0.654639
Si Si5 0.655305 0.325534 0.231906
Si Si6 0.736365 0.825907 0.053846
Si Si7 0.727081 0.324985 0.655006
O O1 0.130779 0.500000 0.958829
O O2 0.218374 0.297278 0.857654
O O3 0.158535 0.228482 0.971592
O O4 0.000000 0.276004 0.000000
O O5 0.006431 0.500000 0.243596
O O6 0.052530 0.248223 0.257786
O O7 0.112553 0.282231 0.142136
O O8 0.896333 0.257928 0.277129
O O9 0.198649 0.259087 0.425716
O O10 0.000000 0.166766 0.500000
O O11 0.011232 0.251832 0.575973
O O12 0.111882 0.000000 0.497748
O O13 0.905399 0.500000 0.650927
O O14 0.836622 0.251523 0.725056
O O15 0.791628 0.292662 0.666592
O O16 0.626918 0.500000 0.252502
O O17 0.748554 0.000000 0.040180
O O18 0.750000 0.750000 0.000000
O O19 0.708745 0.500000 0.656716
#
# Coordination Sequence:
#
# PCOD8097380 Si02
#       7
#     8   8   8   8   8   8   8
#     4   9  19  36  56  78 105 137 173 215 262 311
#     4  10  21  37  55  76 105 140 176 215 261 311
#     4   9  17  31  52  77 105 137 174 215 259 306
#     4  10  20  34  53  78 108 139 174 216 259 307
#     4  10  20  35  55  77 105 140 175 213 261 314
#     4  10  21  36  55  78 105 138 175 216 261 310
#     4  10  20  34  54  80 108 139 175 215 260 308
#
# _framework density 18.163945999999999
#
# number of rings (size 3 to 8) (size 9 to 14) (size 15 to 20)
#    0.000    2.286    0.000    2.571    0.000    7.143 
#    0.000    5.000    0.000    0.000    0.000    0.000 
#    0.000    0.000    0.000    0.000    0.000    0.000 
#
# Total GULP energy -347292.742889 kJ/mol
# GULP energy per Si atom -12403.312246 kJ/mol
# Density = 1.812260 g / cm^3
# Si number density = 18.163946 Si / 1000 Ang^3
#
#
#
# Elastic Constant Matrix: (Units=GPa)
#
#
# Indices 1 2 3 4 5 6 
#
# 1 86.9356 54.2474 69.6423 0.0001 0.4181 -0.0060
# 2 54.2474 102.0291 57.8263 -0.0030 2.9332 -0.0051
# 3 69.6423 57.8263 103.4036 -0.0006 0.0294 -0.0048
# 4 0.0001 -0.0030 -0.0006 35.0808 0.0017 2.4264
# 5 0.4181 2.9332 0.0294 0.0017 28.2989 0.0064
# 6 -0.0060 -0.0051 -0.0048 2.4264 0.0064 34.6844
#
#
#
# Elastic Compliance Matrix: (Units=1/GPa)
#
#
# Indices 1 2 3 4 5 6 
#
# 1 0.027270 -0.005997 -0.015013 -0.000001 0.000234 0.000002
# 2 -0.005997 0.015730 -0.004757 0.000001 -0.001537 0.000001
# 3 -0.015013 -0.004757 0.022442 0.000000 0.000692 0.000000
# 4 -0.000001 0.000001 0.000000 0.028644 -0.000001 -0.002004
# 5 0.000234 -0.001537 0.000692 -0.000001 0.035492 -0.000007
# 6 0.000002 0.000001 0.000000 -0.002004 -0.000007 0.028972
#
#
# Mechanical properties :
#
#
# Convention : Reuss Voigt Hill
#
# Bulk Modulus (GPa) = 71.90032 72.86670 72.38351
# Shear Modulus (GPa) = 23.28604 26.98965 25.13784
#
# Velocity S-wave (km/s) = 3.58438 3.85891 3.72417
# Velocity P-wave (km/s) = 7.53660 7.74972 7.64390
#
# Compressibility (1/GPa) = 0.01390814
#
# Stress axis : x y z
#
# Youngs Moduli (GPa) = 36.66989 63.57213 44.55920
#
# Poissons Ratio (x) = 0.38126 0.66896
# Poissons Ratio (y) = 0.21992 0.21197
# Poissons Ratio (z) = 0.55052 0.30242
#
# Static dielectric constant tensor:
#      x y z
#    x 3.209000 -0.000030 -0.024550 
#    y -0.000030 3.534300 0.000000 
#    z -0.024550 0.000000 3.427070 
# 
# 
# High freq. dielectric constant tensor:
#      x y z
#    x 1.688280 0.000000 0.000040 
#    y 0.000000 1.721180 0.000000 
#    z 0.000040 0.000000 1.708570 
# 
# From -- ./inp_files/275546.got.cif
#   From: 2010.06.25/outbox.cif.g09.slc.cpg/sg12_138_cif.got.tgz:275546.got - 2010.06.28 00:19:55.
