data_PCOD8097687
_publ_section_title
;
Structure prediction by ZEFSAII (Michael W. Deem and Ramdas Pophale) SiO2 
 PCOD8097687
Probable space group: C 2/M
;
_chemical_formula_sum "Si O2"
_cell_formula_units_Z 48
_cell_length_a 20.573363
_cell_length_b 9.062170
_cell_length_c 31.243036
_cell_angle_alpha 90.000000
_cell_angle_beta 25.219918
_cell_angle_gamma 90.000000
_cell_volume 2481.966718
_symmetry_space_group_name_H-M "C 2/M"
_symmetry_group_IT_number 12
_symmetry_cell_setting 'monoclinic'
loop_
_space_group_symop_operation_xyz
x,y,z
-x,y,-z
-x,-y,-z
x,-y,z
1/2+x,1/2+y,z
1/2-x,1/2+y,-z
1/2-x,1/2-y,-z
1/2+x,1/2-y,z
loop_
_atom_site_type_symbol
_atom_site_label
_atom_site_fract_x
_atom_site_fract_y
_atom_site_fract_z
Si Si1 0.820339 0.170414 0.772298
Si Si2 0.368886 0.671501 0.459189
Si Si3 0.041227 0.324826 0.793225
Si Si4 0.150968 0.823874 0.432884
Si Si5 0.282520 0.824968 0.882237
Si Si6 0.011833 0.326355 0.907423
O O1 0.841090 0.271122 0.801472
O O2 0.669143 0.213875 0.836675
O O3 0.959442 0.203279 0.657802
O O4 0.815761 0.000000 0.789410
O O5 0.330578 0.500000 0.480877
O O6 0.250000 0.750000 0.500000
O O7 0.348266 0.734958 0.519122
O O8 0.049978 0.500000 0.788150
O O9 0.199828 0.261346 0.680155
O O10 0.901684 0.269385 0.847107
O O11 0.016813 0.266161 0.855870
O O12 0.000000 0.761039 0.500000
O O13 0.149037 0.000000 0.433180
O O14 0.269780 0.000000 0.889473
O O15 0.118748 0.756343 0.988972
O O16 0.978786 0.500000 0.928326
#
# Coordination Sequence:
#
# PCOD8097687 Si02
#       6
#     8   8   8   8   8   8
#     4  10  21  36  54  77 105 139 177 214 254 304
#     4  10  20  34  54  80 108 138 172 211 257 307
#     4   9  18  32  51  76 104 134 169 211 259 307
#     4   9  16  29  52  79 103 130 170 216 255 297
#     4  11  22  35  53  78 107 137 171 215 266 314
#     4  10  20  36  56  76 102 137 177 218 257 303
#
# _framework density 19.339502
#
# number of rings (size 3 to 8) (size 9 to 14) (size 15 to 20)
#    0.000    2.167    0.000    3.500    0.000    8.667 
#    0.000    0.833    0.000    1.500    0.000    0.000 
#    0.000    0.000    0.000    0.000    0.000    0.000 
#
# Total GULP energy -297677.967974 kJ/mol
# GULP energy per Si atom -12403.248666 kJ/mol
# Density = 1.929548 g / cm^3
# Si number density = 19.339502 Si / 1000 Ang^3
#
#
#
# Elastic Constant Matrix: (Units=GPa)
#
#
# Indices 1 2 3 4 5 6 
#
# 1 111.3784 21.1137 10.8670 -0.0045 -0.7885 -0.0131
# 2 21.1137 28.7547 17.7561 0.0079 -2.2101 -0.0418
# 3 10.8670 17.7561 84.1811 -0.0056 -5.2559 0.0129
# 4 -0.0045 0.0079 -0.0056 15.0945 -0.0012 -1.1275
# 5 -0.7885 -2.2101 -5.2559 -0.0012 43.8941 0.0071
# 6 -0.0131 -0.0418 0.0129 -1.1275 0.0071 27.4213
#
#
#
# Elastic Compliance Matrix: (Units=1/GPa)
#
#
# Indices 1 2 3 4 5 6 
#
# 1 0.010439 -0.007863 0.000300 0.000007 -0.000172 -0.000007
# 2 -0.007863 0.045953 -0.008606 -0.000024 0.001142 0.000069
# 3 0.000300 -0.008606 0.013732 0.000008 0.001216 -0.000019
# 4 0.000007 -0.000024 0.000008 0.066453 0.000001 0.002732
# 5 -0.000172 0.001142 0.001216 0.000001 0.022982 -0.000005
# 6 -0.000007 0.000069 -0.000019 0.002732 -0.000005 0.036580
#
#
# Mechanical properties :
#
#
# Convention : Reuss Voigt Hill
#
# Bulk Modulus (GPa) = 26.46597 35.97643 31.22120
# Shear Modulus (GPa) = 20.74059 28.92047 24.83053
#
# Velocity S-wave (km/s) = 3.27838 3.87125 3.58708
# Velocity P-wave (km/s) = 5.29575 6.21490 5.77365
#
# Compressibility (1/GPa) = 0.03778437
#
# Stress axis : x y z
#
# Youngs Moduli (GPa) = 95.79899 21.76126 72.82441
#
# Poissons Ratio (x) = 0.17112 -0.02187
# Poissons Ratio (y) = 0.75331 0.62676
# Poissons Ratio (z) = -0.02877 0.18729
#
# Static dielectric constant tensor:
#      x y z
#    x 3.780460 -0.000020 0.047150 
#    y -0.000020 3.190330 0.000120 
#    z 0.047150 0.000120 3.546910 
# 
# 
# High freq. dielectric constant tensor:
#      x y z
#    x 1.771350 0.000000 0.000560 
#    y 0.000000 1.707420 0.000000 
#    z 0.000560 0.000000 1.771960 
# 
# From -- ./inp_files/244635.got.cif
#   From: 2010.06.25/outbox.cif.g09.slc.cpg/sg12_123_cif.got.tgz:244635.got - 2010.06.28 00:19:55.
