data_PCOD8097618
_publ_section_title
;
Structure prediction by ZEFSAII (Michael W. Deem and Ramdas Pophale) SiO2 
 PCOD8097618
Probable space group: C 2/M
;
_chemical_formula_sum "Si O2"
_cell_formula_units_Z 56
_cell_length_a 26.372619
_cell_length_b 9.126896
_cell_length_c 13.335542
_cell_angle_alpha 90.000000
_cell_angle_beta 114.671285
_cell_angle_gamma 90.000000
_cell_volume 2916.862246
_symmetry_space_group_name_H-M "C 2/M"
_symmetry_group_IT_number 12
_symmetry_cell_setting 'monoclinic'
loop_
_space_group_symop_operation_xyz
x,y,z
-x,y,-z
-x,-y,-z
x,-y,z
1/2+x,1/2+y,z
1/2-x,1/2+y,-z
1/2-x,1/2-y,-z
1/2+x,1/2-y,z
loop_
_atom_site_type_symbol
_atom_site_label
_atom_site_fract_x
_atom_site_fract_y
_atom_site_fract_z
Si Si1 0.619342 0.829111 0.940413
Si Si2 0.695059 0.165572 0.817850
Si Si3 0.699436 0.173536 0.402320
Si Si4 0.299458 0.828439 0.823643
Si Si5 0.973569 0.173614 0.248282
Si Si6 0.919604 0.329255 0.612876
Si Si7 0.415985 0.166827 0.379276
O O1 0.666619 0.786995 0.898523
O O2 0.563946 0.734989 0.873972
O O3 0.603780 0.000000 0.916801
O O4 0.643316 0.789837 0.070044
O O5 0.747277 0.266806 0.840648
O O6 0.650282 0.184238 0.691387
O O7 0.716996 0.000000 0.841655
O O8 0.750000 0.250000 0.500000
O O9 0.697023 0.232549 0.286146
O O10 0.642161 0.221543 0.407845
O O11 0.708222 0.000000 0.414673
O O12 0.290625 0.000000 0.814601
O O13 0.949686 0.224682 0.335655
O O14 0.035969 0.236292 0.286532
O O15 0.974554 0.000000 0.244107
O O16 0.927855 0.500000 0.643989
O O17 0.929860 0.294570 0.504664
O O18 0.434121 0.000000 0.367992
#
# Coordination Sequence:
#
# PCOD8097618 Si02
#       7
#     8   8   8   8   8   8   8
#     4   9  19  36  54  74 105 142 176 211 256 314
#     4   9  17  30  51  79 109 140 172 208 258 315
#     4  10  22  39  58  81 107 137 174 214 256 304
#     4  10  20  34  54  79 105 136 177 220 258 300
#     4  11  22  34  52  80 108 133 170 221 268 307
#     4  10  20  36  56  75 103 144 180 209 253 314
#     4   9  18  33  53  77 106 142 177 207 252 317
#
# _framework density 19.198712
#
# number of rings (size 3 to 8) (size 9 to 14) (size 15 to 20)
#    0.000    2.286    0.000    3.857    0.000    7.429 
#    0.000    0.714    0.000    4.286    0.000    0.000 
#    0.000    0.000    0.000    0.000    0.000    0.000 
#
# Total GULP energy -347234.878836 kJ/mol
# GULP energy per Si atom -12401.245673 kJ/mol
# Density = 1.915501 g / cm^3
# Si number density = 19.198712 Si / 1000 Ang^3
#
#
#
# Elastic Constant Matrix: (Units=GPa)
#
#
# Indices 1 2 3 4 5 6 
#
# 1 91.5105 48.0646 55.3088 0.0000 24.4882 0.0000
# 2 48.0646 73.4104 57.9546 0.0000 13.9049 0.0000
# 3 55.3088 57.9546 144.7180 0.0000 15.7598 0.0000
# 4 0.0000 0.0000 0.0000 24.6756 0.0000 9.1574
# 5 24.4882 13.9049 15.7598 0.0000 25.0249 0.0000
# 6 0.0000 0.0000 0.0000 9.1574 0.0000 27.4588
#
#
#
# Elastic Compliance Matrix: (Units=1/GPa)
#
#
# Indices 1 2 3 4 5 6 
#
# 1 0.021076 -0.008787 -0.003029 0.000000 -0.013834 0.000000
# 2 -0.008787 0.024616 -0.006384 0.000000 -0.001058 0.000000
# 3 -0.003029 -0.006384 0.010645 0.000000 -0.000192 0.000000
# 4 0.000000 0.000000 0.000000 0.046250 0.000000 -0.015424
# 5 -0.013834 -0.001058 -0.000192 0.000000 0.054206 0.000000
# 6 0.000000 0.000000 0.000000 -0.015424 0.000000 0.041562
#
#
# Mechanical properties :
#
#
# Convention : Reuss Voigt Hill
#
# Bulk Modulus (GPa) = 50.16215 70.25501 60.20858
# Shear Modulus (GPa) = 20.71227 25.31926 23.01577
#
# Velocity S-wave (km/s) = 3.28813 3.63547 3.46615
# Velocity P-wave (km/s) = 6.37184 7.36853 6.88823
#
# Compressibility (1/GPa) = 0.01993535
#
# Stress axis : x y z
#
# Youngs Moduli (GPa) = 47.44732 40.62385 93.93750
#
# Poissons Ratio (x) = 0.35698 0.28457
# Poissons Ratio (y) = 0.41694 0.59972
# Poissons Ratio (z) = 0.14373 0.25935
#
# Static dielectric constant tensor:
#      x y z
#    x 3.369700 0.000000 0.075280 
#    y 0.000000 3.308420 0.000000 
#    z 0.075280 0.000000 3.789330 
# 
# 
# High freq. dielectric constant tensor:
#      x y z
#    x 1.731990 0.000000 0.015140 
#    y 0.000000 1.729830 0.000000 
#    z 0.015140 0.000000 1.758160 
# 
# From -- ./inp_files/244327.got.cif
#   From: 2010.06.25/outbox.cif.g09.slc.cpg/sg12_123_cif.got.tgz:244327.got - 2010.06.28 00:19:55.
