data_PCOD8097422
_publ_section_title
;
Structure prediction by ZEFSAII (Michael W. Deem and Ramdas Pophale) SiO2 
 PCOD8097422
Probable space group: C 2/M
;
_chemical_formula_sum "Si O2"
_cell_formula_units_Z 64
_cell_length_a 19.449426
_cell_length_b 28.140295
_cell_length_c 8.807236
_cell_angle_alpha 90.000000
_cell_angle_beta 135.716459
_cell_angle_gamma 90.000000
_cell_volume 3365.587796
_symmetry_space_group_name_H-M "C 2/M"
_symmetry_group_IT_number 12
_symmetry_cell_setting 'monoclinic'
loop_
_space_group_symop_operation_xyz
x,y,z
-x,y,-z
-x,-y,-z
x,-y,z
1/2+x,1/2+y,z
1/2-x,1/2+y,-z
1/2-x,1/2-y,-z
1/2+x,1/2-y,z
loop_
_atom_site_type_symbol
_atom_site_label
_atom_site_fract_x
_atom_site_fract_y
_atom_site_fract_z
Si Si1 0.573310 0.867374 0.420630
Si Si2 0.100527 0.552015 0.241897
Si Si3 0.183405 0.805124 0.882267
Si Si4 0.512975 0.308302 0.839282
Si Si5 0.359595 0.126144 0.152751
Si Si6 0.591164 0.765768 0.532878
Si Si7 0.746663 0.552574 0.780156
Si Si8 0.074702 0.118633 0.502581
O O1 0.625240 0.903451 0.387680
O O2 0.597161 0.890828 0.619637
O O3 0.455450 0.863344 0.199483
O O4 0.621801 0.814558 0.495602
O O5 0.092690 0.500000 0.312790
O O6 0.186167 0.548823 0.258180
O O7 0.000000 0.563683 0.000000
O O8 0.181382 0.754816 0.782941
O O9 0.119613 0.838433 0.671545
O O10 0.125525 0.801083 0.953460
O O11 0.293774 0.826090 0.069773
O O12 0.440660 0.269880 0.649492
O O13 0.476418 0.360522 0.729711
O O14 0.500000 0.303632 0.000000
O O15 0.296009 0.082722 0.991376
O O16 0.500000 0.778100 0.500000
O O17 0.723059 0.500000 0.806499
O O18 0.649848 0.578751 0.567563
O O19 0.000000 0.092668 0.500000
#
# Coordination Sequence:
#
# PCOD8097422 Si02
#       8
#     8   8   8   8   8   8   8   8
#     4  11  21  34  53  79 105 133 177 231 263 296
#     4  10  21  37  53  72 104 146 176 209 271 323
#     4   8  17  33  54  73 105 146 173 204 260 326
#     4   9  17  31  54  79 105 142 172 207 258 314
#     4  10  20  34  53  79 103 134 180 222 263 301
#     4   9  17  34  51  75 104 139 177 211 259 311
#     4  10  20  36  58  79 104 140 180 215 263 325
#     4   8  16  33  56  80 108 139 173 214 260 312
#
# _framework density 19.015995
#
# number of rings (size 3 to 8) (size 9 to 14) (size 15 to 20)
#    0.000    2.625    2.500    1.500    0.000    2.750 
#    0.000    1.250    0.000    3.375    0.000    0.000 
#    0.000    0.000    0.000    0.000    0.000    0.000 
#
# Total GULP energy -396485.768607 kJ/mol
# GULP energy per Si atom -12390.180269 kJ/mol
# Density = 1.897271 g / cm^3
# Si number density = 19.015995 Si / 1000 Ang^3
#
#
#
# Elastic Constant Matrix: (Units=GPa)
#
#
# Indices 1 2 3 4 5 6 
#
# 1 65.1490 39.2625 23.3425 0.0000 -10.4850 0.0000
# 2 39.2625 138.8288 42.7113 0.0000 -8.9166 0.0000
# 3 23.3425 42.7113 61.6959 0.0000 -10.2715 0.0000
# 4 0.0000 0.0000 0.0000 14.1224 0.0000 -12.8584
# 5 -10.4850 -8.9166 -10.2715 0.0000 22.4774 0.0000
# 6 0.0000 0.0000 0.0000 -12.8584 0.0000 20.6848
#
#
#
# Elastic Compliance Matrix: (Units=1/GPa)
#
#
# Indices 1 2 3 4 5 6 
#
# 1 0.020174 -0.004166 -0.003742 0.000000 0.006048 0.000000
# 2 -0.004166 0.010026 -0.005440 0.000000 -0.000452 0.000000
# 3 -0.003742 -0.005440 0.022448 0.000000 0.006355 0.000000
# 4 0.000000 0.000000 0.000000 0.163155 0.000000 0.101423
# 5 0.006048 -0.000452 0.006355 0.000000 0.050035 0.000000
# 6 0.000000 0.000000 0.000000 0.101423 0.000000 0.111393
#
#
# Mechanical properties :
#
#
# Convention : Reuss Voigt Hill
#
# Bulk Modulus (GPa) = 38.53138 52.92290 45.72714
# Shear Modulus (GPa) = 12.11896 22.14743 17.13320
#
# Velocity S-wave (km/s) = 2.52723 3.41643 3.00490
# Velocity P-wave (km/s) = 5.36865 6.59195 6.01150
#
# Compressibility (1/GPa) = 0.02595288
#
# Stress axis : x y z
#
# Youngs Moduli (GPa) = 49.56861 99.74241 44.54696
#
# Poissons Ratio (x) = 0.41551 0.16669
# Poissons Ratio (y) = 0.20649 0.24233
# Poissons Ratio (z) = 0.18548 0.54259
#
# Static dielectric constant tensor:
#      x y z
#    x 3.313370 0.000000 0.172240 
#    y 0.000000 3.684480 0.000000 
#    z 0.172240 0.000000 3.445290 
# 
# 
# High freq. dielectric constant tensor:
#      x y z
#    x 1.717170 0.000000 0.012420 
#    y 0.000000 1.744380 0.000000 
#    z 0.012420 0.000000 1.730910 
# 
# From -- ./inp_files/91107.got.cif
#   From: 2010.06.25/outbox.cif.g09.slc.cpg/sg12_46_cif.got.tgz:91107.got - 2010.06.28 00:19:55.
