data_PCOD8097683
_publ_section_title
;
Structure prediction by ZEFSAII (Michael W. Deem and Ramdas Pophale) SiO2 
 PCOD8097683
Probable space group: C 2/M
;
_chemical_formula_sum "Si O2"
_cell_formula_units_Z 56
_cell_length_a 19.200409
_cell_length_b 14.023056
_cell_length_c 17.013220
_cell_angle_alpha 90.000000
_cell_angle_beta 136.935284
_cell_angle_gamma 90.000000
_cell_volume 3127.868165
_symmetry_space_group_name_H-M "C 2/M"
_symmetry_group_IT_number 12
_symmetry_cell_setting 'monoclinic'
loop_
_space_group_symop_operation_xyz
x,y,z
-x,y,-z
-x,-y,-z
x,-y,z
1/2+x,1/2+y,z
1/2-x,1/2+y,-z
1/2-x,1/2-y,-z
1/2+x,1/2-y,z
loop_
_atom_site_type_symbol
_atom_site_label
_atom_site_fract_x
_atom_site_fract_y
_atom_site_fract_z
Si Si1 0.962026 0.391210 0.295870
Si Si2 0.434067 0.222762 0.875702
Si Si3 0.734990 0.110135 0.173121
Si Si4 0.266858 0.283349 0.638789
Si Si5 0.099601 0.608897 0.921618
Si Si6 0.899464 0.755409 0.376012
Si Si7 0.308392 0.889647 0.565841
O O1 0.955973 0.500000 0.319670
O O2 0.884805 0.372904 0.158688
O O3 0.930548 0.327614 0.342559
O O4 0.075385 0.366572 0.359933
O O5 0.357874 0.143976 0.848858
O O6 0.367581 0.302535 0.775199
O O7 0.507090 0.173461 0.873753
O O8 0.500000 0.271297 0.000000
O O9 0.839865 0.163789 0.278750
O O10 0.755142 0.000000 0.206030
O O11 0.703567 0.129657 0.055924
O O12 0.168042 0.292059 0.611711
O O13 0.273960 0.175271 0.610629
O O14 0.262241 0.362238 0.567019
O O15 0.065297 0.500000 0.907696
O O16 0.000000 0.799772 0.500000
O O17 0.290674 0.000000 0.573240
#
# Coordination Sequence:
#
# PCOD8097683 Si02
#       7
#     8   8   8   8   8   8   8
#     4  10  20  34  56  79 102 135 175 222 267 298
#     4   9  16  28  51  79 105 132 167 218 266 302
#     4   9  19  32  49  74 106 142 173 206 256 313
#     4  10  20  34  54  80 108 133 172 218 258 313
#     4   9  16  30  52  78 101 127 173 223 262 300
#     4  11  22  35  49  75 112 144 173 206 254 316
#     4  10  20  35  57  80 102 135 175 221 264 298
#
# _framework density 17.903566999999999
#
# number of rings (size 3 to 8) (size 9 to 14) (size 15 to 20)
#    0.000    2.286    2.857    0.429    0.000    5.714 
#    0.000    0.000    0.000    0.429    0.000    3.000 
#    0.000    0.000    0.000    0.000    0.000    0.000 
#
# Total GULP energy -347099.919590 kJ/mol
# GULP energy per Si atom -12396.425700 kJ/mol
# Density = 1.786282 g / cm^3
# Si number density = 17.903567 Si / 1000 Ang^3
#
#
#
# Elastic Constant Matrix: (Units=GPa)
#
#
# Indices 1 2 3 4 5 6 
#
# 1 72.2821 26.6225 31.1617 0.0000 -6.5264 0.0000
# 2 26.6225 52.5928 29.9666 0.0000 -3.3124 0.0000
# 3 31.1617 29.9666 143.0012 0.0000 -7.0275 0.0000
# 4 0.0000 0.0000 0.0000 21.4359 0.0000 -2.2507
# 5 -6.5264 -3.3124 -7.0275 0.0000 24.7922 0.0000
# 6 0.0000 0.0000 0.0000 -2.2507 0.0000 22.7945
#
#
#
# Elastic Compliance Matrix: (Units=1/GPa)
#
#
# Indices 1 2 3 4 5 6 
#
# 1 0.017841 -0.007618 -0.002140 0.000000 0.003072 0.000000
# 2 -0.007618 0.024910 -0.003544 0.000000 0.000318 0.000000
# 3 -0.002140 -0.003544 0.008266 0.000000 0.001306 0.000000
# 4 0.000000 0.000000 0.000000 0.047139 0.000000 0.004655
# 5 0.003072 0.000318 0.001306 0.000000 0.041557 0.000000
# 6 0.000000 0.000000 0.000000 0.004655 0.000000 0.044330
#
#
# Mechanical properties :
#
#
# Convention : Reuss Voigt Hill
#
# Bulk Modulus (GPa) = 40.96433 49.26419 45.11426
# Shear Modulus (GPa) = 22.85352 25.81287 24.33320
#
# Velocity S-wave (km/s) = 3.57666 3.80119 3.69063
# Velocity P-wave (km/s) = 6.32352 6.84409 6.58894
#
# Compressibility (1/GPa) = 0.02441148
#
# Stress axis : x y z
#
# Youngs Moduli (GPa) = 56.05217 40.14505 120.97362
#
# Poissons Ratio (x) = 0.30582 0.25892
# Poissons Ratio (y) = 0.42700 0.42877
# Poissons Ratio (z) = 0.11997 0.14229
#
# Static dielectric constant tensor:
#      x y z
#    x 3.150100 0.000000 -0.223150 
#    y 0.000000 2.981120 0.000000 
#    z -0.223150 0.000000 3.829820 
# 
# 
# High freq. dielectric constant tensor:
#      x y z
#    x 1.680180 0.000000 -0.020890 
#    y 0.000000 1.656670 0.000000 
#    z -0.020890 0.000000 1.716540 
# 
# From -- ./inp_files/277880.got.cif
#   From: 2010.06.25/outbox.cif.g09.slc.cpg/sg12_139_cif.got.tgz:277880.got - 2010.06.28 00:19:55.
