data_PCOD8097991
_publ_section_title
;
Structure prediction by ZEFSAII (Michael W. Deem and Ramdas Pophale) SiO2 
 PCOD8097991
Probable space group: C 2/M
;
_chemical_formula_sum "Si O2"
_cell_formula_units_Z 48
_cell_length_a 22.548077
_cell_length_b 13.357539
_cell_length_c 15.151990
_cell_angle_alpha 90.000000
_cell_angle_beta 146.900354
_cell_angle_gamma 90.000000
_cell_volume 2492.156177
_symmetry_space_group_name_H-M "C 2/M"
_symmetry_group_IT_number 12
_symmetry_cell_setting 'monoclinic'
loop_
_space_group_symop_operation_xyz
x,y,z
-x,y,-z
-x,-y,-z
x,-y,z
1/2+x,1/2+y,z
1/2-x,1/2+y,-z
1/2-x,1/2-y,-z
1/2+x,1/2-y,z
loop_
_atom_site_type_symbol
_atom_site_label
_atom_site_fract_x
_atom_site_fract_y
_atom_site_fract_z
Si Si1 0.320560 0.884922 0.407522
Si Si2 0.484076 0.619510 0.747878
Si Si3 0.246483 0.385079 0.489433
Si Si4 0.565710 0.693818 0.495261
Si Si5 0.698074 0.886723 0.234906
Si Si6 0.598347 0.310600 0.058235
O O1 0.314769 0.841892 0.501162
O O2 0.407128 0.812705 0.468049
O O3 0.202275 0.874502 0.216873
O O4 0.360037 0.000000 0.449905
O O5 0.487205 0.500000 0.746838
O O6 0.366569 0.662013 0.632030
O O7 0.508472 0.664485 0.681273
O O8 0.573685 0.659998 0.927061
O O9 0.264296 0.500000 0.532081
O O10 0.179018 0.367284 0.315830
O O11 0.500000 0.664460 0.500000
O O12 0.675708 0.628583 0.630455
O O13 0.621815 0.808747 0.088774
O O14 0.664474 0.000000 0.167373
O O15 0.500000 0.340376 0.000000
#
# Coordination Sequence:
#
# PCOD8097991 Si02
#       6
#     8   8   8   8   8   8
#     4  10  20  34  55  81 114 145 176 222 273 322
#     4  10  20  34  55  84 112 138 178 225 270 323
#     4   8  15  30  53  78 104 141 178 214 265 319
#     4  10  22  38  59  80 100 142 197 231 262 308
#     4   9  20  36  54  80 113 144 181 224 267 318
#     4  11  21  31  54  84 118 146 169 211 274 341
#
# _framework density 19.260429999999999
#
# number of rings (size 3 to 8) (size 9 to 14) (size 15 to 20)
#    0.000    2.333    1.667    2.000    2.333    4.667 
#    0.000    4.167    0.000    2.000    0.000    0.000 
#    0.000    0.000    0.000    0.000    0.000    0.000 
#
# Total GULP energy -297539.530047 kJ/mol
# GULP energy per Si atom -12397.480419 kJ/mol
# Density = 1.921659 g / cm^3
# Si number density = 19.260430 Si / 1000 Ang^3
#
#
#
# Elastic Constant Matrix: (Units=GPa)
#
#
# Indices 1 2 3 4 5 6 
#
# 1 49.2837 -10.1332 21.3529 0.0000 -18.1692 0.0000
# 2 -10.1332 103.4355 24.4990 0.0000 -4.7481 0.0000
# 3 21.3529 24.4990 83.1002 0.0000 -16.3598 0.0000
# 4 0.0000 0.0000 0.0000 20.3268 0.0000 -3.7362
# 5 -18.1692 -4.7481 -16.3598 0.0000 20.2611 0.0000
# 6 0.0000 0.0000 0.0000 -3.7362 0.0000 18.4024
#
#
#
# Elastic Compliance Matrix: (Units=1/GPa)
#
#
# Indices 1 2 3 4 5 6 
#
# 1 0.033821 0.005753 -0.004935 0.000000 0.027693 0.000000
# 2 0.005753 0.011372 -0.003913 0.000000 0.004665 0.000000
# 3 -0.004935 -0.003913 0.015937 0.000000 0.007526 0.000000
# 4 0.000000 0.000000 0.000000 0.051103 0.000000 0.010375
# 5 0.027693 0.004665 0.007526 0.000000 0.081359 0.000000
# 6 0.000000 0.000000 0.000000 0.010375 0.000000 0.056447
#
#
# Mechanical properties :
#
#
# Convention : Reuss Voigt Hill
#
# Bulk Modulus (GPa) = 18.20097 34.13964 26.17031
# Shear Modulus (GPa) = 18.21214 25.13811 21.67512
#
# Velocity S-wave (km/s) = 3.07835 3.61663 3.35829
# Velocity P-wave (km/s) = 4.70164 5.93328 5.35300
#
# Compressibility (1/GPa) = 0.05494212
#
# Stress axis : x y z
#
# Youngs Moduli (GPa) = 29.56733 87.93241 62.74786
#
# Poissons Ratio (x) = -0.50591 0.30965
# Poissons Ratio (y) = -0.17011 0.24551
# Poissons Ratio (z) = 0.14591 0.34405
#
# Static dielectric constant tensor:
#      x y z
#    x 3.246310 0.000000 -0.193650 
#    y 0.000000 3.568170 0.000000 
#    z -0.193650 0.000000 3.404550 
# 
# 
# High freq. dielectric constant tensor:
#      x y z
#    x 1.710980 0.000000 -0.016440 
#    y 0.000000 1.767840 0.000000 
#    z -0.016440 0.000000 1.736330 
# 
# From -- ./inp_files/143528.got.cif
#   From: 2010.06.25/outbox.cif.g09.slc.cpg/sg12_72_cif.got.tgz:143528.got - 2010.06.28 00:19:55.
