data_PCOD8097446
_publ_section_title
;
Structure prediction by ZEFSAII (Michael W. Deem and Ramdas Pophale) SiO2 
 PCOD8097446
Probable space group: C 2/M
;
_chemical_formula_sum "Si O2"
_cell_formula_units_Z 56
_cell_length_a 18.085469
_cell_length_b 12.006243
_cell_length_c 15.303935
_cell_angle_alpha 90.000000
_cell_angle_beta 113.778219
_cell_angle_gamma 90.000000
_cell_volume 3040.988281
_symmetry_space_group_name_H-M "C 2/M"
_symmetry_group_IT_number 12
_symmetry_cell_setting 'monoclinic'
loop_
_space_group_symop_operation_xyz
x,y,z
-x,y,-z
-x,-y,-z
x,-y,z
1/2+x,1/2+y,z
1/2-x,1/2+y,-z
1/2-x,1/2-y,-z
1/2+x,1/2-y,z
loop_
_atom_site_type_symbol
_atom_site_label
_atom_site_fract_x
_atom_site_fract_y
_atom_site_fract_z
Si Si1 0.680565 0.739986 0.257241
Si Si2 0.294721 0.871604 0.027199
Si Si3 0.952204 0.762733 0.391744
Si Si4 0.824856 0.623804 0.235917
Si Si5 0.311257 0.373026 0.418001
Si Si6 0.903080 0.128861 0.629965
Si Si7 0.083572 0.625890 0.073306
O O1 0.742169 0.687577 0.217683
O O2 0.730780 0.810432 0.351080
O O3 0.629472 0.650729 0.288321
O O4 0.616098 0.811376 0.173454
O O5 0.342348 0.866671 0.141267
O O6 0.251260 0.000000 0.003583
O O7 0.250000 0.750000 0.000000
O O8 0.354426 0.869639 0.975708
O O9 0.903436 0.662193 0.325728
O O10 0.887143 0.856268 0.388825
O O11 0.000000 0.719372 0.500000
O O12 0.012532 0.808944 0.347104
O O13 0.809106 0.500000 0.260313
O O14 0.286237 0.500000 0.404988
O O15 0.336559 0.332759 0.526869
O O16 0.921779 0.000000 0.626687
O O17 0.067039 0.500000 0.095935
O O18 0.000000 0.681114 0.000000
#
# Coordination Sequence:
#
# PCOD8097446 Si02
#       7
#     8   8   8   8   8   8   8
#     4  11  20  34  56  79 111 140 183 221 275 329
#     4  10  20  39  62  85 112 148 190 234 283 337
#     4   9  19  35  55  80 109 142 182 223 267 326
#     4  10  21  36  57  80 109 146 181 223 277 331
#     4   9  18  34  55  79 107 142 184 224 265 323
#     4  10  20  34  53  79 111 145 178 223 278 326
#     4  10  22  38  58  81 110 144 183 231 280 330
#
# _framework density 18.415065999999999
#
# number of rings (size 3 to 8) (size 9 to 14) (size 15 to 20)
#    0.000    2.143    1.429    1.714    2.000    2.000 
#    0.000    1.429    0.000    3.000    0.000    0.000 
#    0.000    0.000    0.000    0.000    0.000    0.000 
#
# Total GULP energy -346892.973453 kJ/mol
# GULP energy per Si atom -12389.034766 kJ/mol
# Density = 1.837315 g / cm^3
# Si number density = 18.415066 Si / 1000 Ang^3
#
#
#
# Elastic Constant Matrix: (Units=GPa)
#
#
# Indices 1 2 3 4 5 6 
#
# 1 49.1006 22.4475 36.4343 0.0000 5.3465 0.0000
# 2 22.4475 91.1364 40.8626 0.0000 13.7771 0.0000
# 3 36.4343 40.8626 100.4729 0.0000 7.6975 0.0000
# 4 0.0000 0.0000 0.0000 29.9998 0.0000 -2.1838
# 5 5.3465 13.7771 7.6975 0.0000 33.3711 0.0000
# 6 0.0000 0.0000 0.0000 -2.1838 0.0000 19.4042
#
#
#
# Elastic Compliance Matrix: (Units=1/GPa)
#
#
# Indices 1 2 3 4 5 6 
#
# 1 0.028540 -0.002731 -0.009136 0.000000 -0.001338 0.000000
# 2 -0.002731 0.014334 -0.004499 0.000000 -0.004442 0.000000
# 3 -0.009136 -0.004499 0.015108 0.000000 -0.000164 0.000000
# 4 0.000000 0.000000 0.000000 0.033609 0.000000 0.003783
# 5 -0.001338 -0.004442 -0.000164 0.000000 0.032052 0.000000
# 6 0.000000 0.000000 0.000000 0.003783 0.000000 0.051961
#
#
# Mechanical properties :
#
#
# Convention : Reuss Voigt Hill
#
# Bulk Modulus (GPa) = 39.60425 48.91099 44.25762
# Shear Modulus (GPa) = 23.06771 25.95271 24.51021
#
# Velocity S-wave (km/s) = 3.54312 3.75816 3.65223
# Velocity P-wave (km/s) = 6.18801 6.74164 6.47075
#
# Compressibility (1/GPa) = 0.02524981
#
# Stress axis : x y z
#
# Youngs Moduli (GPa) = 35.03863 69.76423 66.18883
#
# Poissons Ratio (x) = 0.19053 0.60472
# Poissons Ratio (y) = 0.09569 0.29778
# Poissons Ratio (z) = 0.32012 0.31387
#
# Static dielectric constant tensor:
#      x y z
#    x 3.266250 0.000000 -0.047700 
#    y 0.000000 3.657480 0.000000 
#    z -0.047700 0.000000 3.400460 
# 
# 
# High freq. dielectric constant tensor:
#      x y z
#    x 1.708180 0.000000 -0.008890 
#    y 0.000000 1.713090 0.000000 
#    z -0.008890 0.000000 1.717880 
# 
# From -- ./inp_files/223129.got.cif
#   From: 2010.06.25/outbox.cif.g09.slc.cpg/sg12_112_cif.got.tgz:223129.got - 2010.06.28 00:19:55.
