data_PCOD8097550
_publ_section_title
;
Structure prediction by ZEFSAII (Michael W. Deem and Ramdas Pophale) SiO2 
 PCOD8097550
Probable space group: C 2/M
;
_chemical_formula_sum "Si O2"
_cell_formula_units_Z 64
_cell_length_a 14.414833
_cell_length_b 9.482477
_cell_length_c 29.439482
_cell_angle_alpha 90.000000
_cell_angle_beta 120.876516
_cell_angle_gamma 90.000000
_cell_volume 3453.728561
_symmetry_space_group_name_H-M "C 2/M"
_symmetry_group_IT_number 12
_symmetry_cell_setting 'monoclinic'
loop_
_space_group_symop_operation_xyz
x,y,z
-x,y,-z
-x,-y,-z
x,-y,z
1/2+x,1/2+y,z
1/2-x,1/2+y,-z
1/2-x,1/2-y,-z
1/2+x,1/2-y,z
loop_
_atom_site_type_symbol
_atom_site_label
_atom_site_fract_x
_atom_site_fract_y
_atom_site_fract_z
Si Si1 0.058407 0.659691 0.896921
Si Si2 0.203080 0.836013 0.879414
Si Si3 0.774621 0.664786 0.284203
Si Si4 0.889571 0.332334 0.991368
Si Si5 0.786700 0.836742 0.629146
Si Si6 0.516211 0.336013 0.644986
Si Si7 0.579617 0.336673 0.559498
Si Si8 0.815452 0.659304 0.816579
O O1 0.091610 0.500000 0.894428
O O2 0.092628 0.755753 0.863081
O O3 0.930097 0.673306 0.870339
O O4 0.118287 0.712604 0.957825
O O5 0.292317 0.772281 0.936484
O O6 0.228383 0.805285 0.833405
O O7 0.186709 0.000000 0.884144
O O8 0.793029 0.500000 0.279593
O O9 0.715980 0.690784 0.317570
O O10 0.695189 0.730108 0.226804
O O11 0.889783 0.742870 0.308935
O O12 0.893299 0.500000 0.987858
O O13 0.000000 0.266691 0.000000
O O14 0.901372 0.787380 0.637057
O O15 0.690603 0.749013 0.582008
O O16 0.766467 0.000000 0.612698
O O17 0.538023 0.500000 0.661848
O O18 0.517997 0.308595 0.591430
O O19 0.500000 0.284785 0.500000
O O20 0.609868 0.500000 0.561501
O O21 0.799338 0.500000 0.793823
#
# Coordination Sequence:
#
# PCOD8097550 Si02
#       8
#     8   8   8   8   8   8   8   8
#     4  10  20  34  54  78 103 132 168 208 250 302
#     4  10  20  34  54  77 101 132 168 205 249 305
#     4  10  21  36  54  76 101 129 169 222 265 298
#     4   9  15  30  55  76  98 133 171 202 240 301
#     4   9  19  35  54  76 102 137 178 215 256 305
#     4   9  18  35  56  76 104 142 178 210 253 311
#     4   9  18  32  51  79 113 144 175 213 254 297
#     4  10  21  37  54  73 100 136 171 203 253 317
#
# _framework density 18.530698999999998
#
# number of rings (size 3 to 8) (size 9 to 14) (size 15 to 20)
#    0.000    2.500    1.250    0.750    0.000    3.750 
#    0.000    3.750    0.000    0.750    0.000    0.000 
#    0.000    0.000    0.000    0.000    0.000    0.000 
#
# Total GULP energy -396786.768769 kJ/mol
# GULP energy per Si atom -12399.586524 kJ/mol
# Density = 1.848852 g / cm^3
# Si number density = 18.530699 Si / 1000 Ang^3
#
#
#
# Elastic Constant Matrix: (Units=GPa)
#
#
# Indices 1 2 3 4 5 6 
#
# 1 105.0908 36.4679 16.8328 0.0000 -5.6105 0.0000
# 2 36.4679 58.4813 37.0089 0.0000 -3.6189 0.0000
# 3 16.8328 37.0089 87.3238 0.0000 -1.2698 0.0000
# 4 0.0000 0.0000 0.0000 28.8309 0.0000 1.2281
# 5 -5.6105 -3.6189 -1.2698 0.0000 16.4656 0.0000
# 6 0.0000 0.0000 0.0000 1.2281 0.0000 28.7702
#
#
#
# Elastic Compliance Matrix: (Units=1/GPa)
#
#
# Indices 1 2 3 4 5 6 
#
# 1 0.012332 -0.008275 0.001166 0.000000 0.002473 0.000000
# 2 -0.008275 0.029238 -0.010756 0.000000 0.002777 0.000000
# 3 0.001166 -0.010756 0.015775 0.000000 -0.000750 0.000000
# 4 0.000000 0.000000 0.000000 0.034748 0.000000 -0.001483
# 5 0.002473 0.002777 -0.000750 0.000000 0.062128 0.000000
# 6 0.000000 0.000000 0.000000 -0.001483 0.000000 0.034822
#
#
# Mechanical properties :
#
#
# Convention : Reuss Voigt Hill
#
# Bulk Modulus (GPa) = 46.26472 47.94611 47.10541
# Shear Modulus (GPa) = 21.55374 25.51908 23.53641
#
# Velocity S-wave (km/s) = 3.41418 3.71499 3.56776
# Velocity P-wave (km/s) = 6.36890 6.65820 6.51515
#
# Compressibility (1/GPa) = 0.02161474
#
# Stress axis : x y z
#
# Youngs Moduli (GPa) = 81.08704 34.20184 63.39333
#
# Poissons Ratio (x) = 0.28302 -0.07390
# Poissons Ratio (y) = 0.67099 0.68186
# Poissons Ratio (z) = -0.09453 0.36788
#
# Static dielectric constant tensor:
#      x y z
#    x 3.404660 0.000000 -0.040320 
#    y 0.000000 3.230430 0.000000 
#    z -0.040320 0.000000 3.344700 
# 
# 
# High freq. dielectric constant tensor:
#      x y z
#    x 1.721770 0.000000 -0.004000 
#    y 0.000000 1.702210 0.000000 
#    z -0.004000 0.000000 1.714840 
# 
# From -- ./inp_files/375114.got.cif
#   From: 2010.06.25/outbox.cif.g09.slc.cpg/sg12_188_cif.got.tgz:375114.got - 2010.06.28 00:19:55.
