data_PCOD8097961
_publ_section_title
;
Structure prediction by ZEFSAII (Michael W. Deem and Ramdas Pophale) SiO2 
 PCOD8097961
Probable space group: C 2/M
;
_chemical_formula_sum "Si O2"
_cell_formula_units_Z 64
_cell_length_a 18.638786
_cell_length_b 8.888742
_cell_length_c 20.156386
_cell_angle_alpha 90.000000
_cell_angle_beta 90.796748
_cell_angle_gamma 90.000000
_cell_volume 3339.093634
_symmetry_space_group_name_H-M "C 2/M"
_symmetry_group_IT_number 12
_symmetry_cell_setting 'monoclinic'
loop_
_space_group_symop_operation_xyz
x,y,z
-x,y,-z
-x,-y,-z
x,-y,z
1/2+x,1/2+y,z
1/2-x,1/2+y,-z
1/2-x,1/2-y,-z
1/2+x,1/2-y,z
loop_
_atom_site_type_symbol
_atom_site_label
_atom_site_fract_x
_atom_site_fract_y
_atom_site_fract_z
Si Si1 0.171214 0.324362 0.267569
Si Si2 0.921070 0.679022 0.002545
Si Si3 0.672923 0.822611 0.879762
Si Si4 0.679780 0.174811 0.115653
Si Si5 0.076099 0.825413 0.372407
Si Si6 0.179300 0.323954 0.731246
Si Si7 0.672416 0.324790 0.500422
Si Si8 0.423592 0.177080 0.388506
O O1 0.169073 0.500000 0.284057
O O2 0.155677 0.290278 0.190309
O O3 0.107262 0.243009 0.305362
O O4 0.248955 0.262336 0.290415
O O5 0.923939 0.500000 0.005953
O O6 0.881091 0.731151 0.935338
O O7 0.884393 0.743674 0.068902
O O8 0.000000 0.749271 0.000000
O O9 0.749909 0.765111 0.903159
O O10 0.654972 0.770506 0.804397
O O11 0.673577 0.000000 0.884212
O O12 0.696968 0.000000 0.106764
O O13 0.135234 0.798899 0.429434
O O14 0.002850 0.744009 0.391406
O O15 0.059049 0.000000 0.361845
O O16 0.198134 0.500000 0.729907
O O17 0.113949 0.284347 0.681946
O O18 0.680928 0.500000 0.517118
O O19 0.750000 0.250000 0.500000
O O20 0.623398 0.248605 0.554650
O O21 0.428387 0.000000 0.400556
#
# Coordination Sequence:
#
# PCOD8097961 Si02
#       8
#     8   8   8   8   8   8   8   8
#     4  10  20  34  55  81 107 139 179 222 267 316
#     4   9  17  29  48  74 102 135 175 216 260 310
#     4   9  17  31  53  76 100 136 176 213 257 311
#     4   9  18  32  51  76 104 133 171 220 263 305
#     4  11  24  40  57  80 112 145 177 218 266 316
#     4   9  19  35  54  79 109 139 176 221 265 313
#     4  11  24  41  61  84 110 142 181 224 267 313
#     4  11  23  38  58  84 113 144 178 219 267 318
#
# _framework density 19.166878000000001
#
# number of rings (size 3 to 8) (size 9 to 14) (size 15 to 20)
#    0.000    2.125    0.000    3.000    0.000    9.000 
#    0.000    3.750    0.000    1.500    0.000    0.000 
#    0.000    0.000    0.000    0.000    0.000    0.000 
#
# Total GULP energy -396859.254132 kJ/mol
# GULP energy per Si atom -12401.851692 kJ/mol
# Density = 1.912325 g / cm^3
# Si number density = 19.166878 Si / 1000 Ang^3
#
#
#
# Elastic Constant Matrix: (Units=GPa)
#
#
# Indices 1 2 3 4 5 6 
#
# 1 128.9197 44.6980 58.5359 0.0000 -25.5967 0.0000
# 2 44.6980 64.4381 40.0388 0.0000 -7.5318 0.0000
# 3 58.5359 40.0388 97.5642 0.0000 -20.2948 0.0000
# 4 0.0000 0.0000 0.0000 18.6606 0.0000 2.9493
# 5 -25.5967 -7.5318 -20.2948 0.0000 28.7517 0.0000
# 6 0.0000 0.0000 0.0000 2.9493 0.0000 30.3338
#
#
#
# Elastic Compliance Matrix: (Units=1/GPa)
#
#
# Indices 1 2 3 4 5 6 
#
# 1 0.012959 -0.005702 -0.003922 0.000000 0.007275 0.000000
# 2 -0.005702 0.023350 -0.006968 0.000000 -0.003878 0.000000
# 3 -0.003922 -0.006968 0.016827 0.000000 0.006561 0.000000
# 4 0.000000 0.000000 0.000000 0.054425 0.000000 -0.005292
# 5 0.007275 -0.003878 0.006561 0.000000 0.044872 0.000000
# 6 0.000000 0.000000 0.000000 -0.005292 0.000000 0.033481
#
#
# Mechanical properties :
#
#
# Convention : Reuss Voigt Hill
#
# Bulk Modulus (GPa) = 50.11930 64.16303 57.14117
# Shear Modulus (GPa) = 22.14849 25.39252 23.77050
#
# Velocity S-wave (km/s) = 3.40304 3.64375 3.52545
# Velocity P-wave (km/s) = 6.45342 7.15899 6.81534
#
# Compressibility (1/GPa) = 0.01995239
#
# Stress axis : x y z
#
# Youngs Moduli (GPa) = 77.16828 42.82576 59.42832
#
# Poissons Ratio (x) = 0.24419 0.23306
# Poissons Ratio (y) = 0.44000 0.41412
# Poissons Ratio (z) = 0.30263 0.29843
#
# Static dielectric constant tensor:
#      x y z
#    x 3.577240 0.000000 -0.005370 
#    y 0.000000 3.453530 0.000000 
#    z -0.005370 0.000000 3.760540 
# 
# 
# High freq. dielectric constant tensor:
#      x y z
#    x 1.747060 0.000000 -0.002830 
#    y 0.000000 1.736170 0.000000 
#    z -0.002830 0.000000 1.760990 
# 
# From -- ./inp_files/314096.got.cif
#   From: 2010.06.25/outbox.cif.g09.slc.cpg/sg12_158_cif.got.tgz:314096.got - 2010.06.28 00:19:55.
