data_PCOD8097674
_publ_section_title
;
Structure prediction by ZEFSAII (Michael W. Deem and Ramdas Pophale) SiO2 
 PCOD8097674
Probable space group: C 2/M
;
_chemical_formula_sum "Si O2"
_cell_formula_units_Z 48
_cell_length_a 20.314127
_cell_length_b 9.431689
_cell_length_c 26.474877
_cell_angle_alpha 90.000000
_cell_angle_beta 149.954377
_cell_angle_gamma 90.000000
_cell_volume 2539.744403
_symmetry_space_group_name_H-M "C 2/M"
_symmetry_group_IT_number 12
_symmetry_cell_setting 'monoclinic'
loop_
_space_group_symop_operation_xyz
x,y,z
-x,y,-z
-x,-y,-z
x,-y,z
1/2+x,1/2+y,z
1/2-x,1/2+y,-z
1/2-x,1/2-y,-z
1/2+x,1/2-y,z
loop_
_atom_site_type_symbol
_atom_site_label
_atom_site_fract_x
_atom_site_fract_y
_atom_site_fract_z
Si Si1 0.974977 0.167045 0.270736
Si Si2 0.256866 0.337022 0.724138
Si Si3 0.268071 0.331887 0.618229
Si Si4 0.529276 0.834403 0.076129
Si Si5 0.234264 0.664856 0.040440
Si Si6 0.995045 0.336964 0.608710
O O1 0.103250 0.220502 0.325847
O O2 0.847496 0.210583 0.154332
O O3 0.964104 0.245320 0.316358
O O4 0.980881 0.000000 0.284853
O O5 0.303535 0.500000 0.757112
O O6 0.272551 0.272642 0.678301
O O7 0.344639 0.248963 0.820953
O O8 0.105236 0.322693 0.638983
O O9 0.259693 0.500000 0.615753
O O10 0.139998 0.274463 0.503945
O O11 0.563058 0.000000 0.099793
O O12 0.500000 0.784188 0.000000
O O13 0.405258 0.796580 0.028297
O O14 0.246396 0.500000 0.035494
O O15 0.250000 0.750000 0.000000
O O16 0.978087 0.500000 0.614453
#
# Coordination Sequence:
#
# PCOD8097674 Si02
#       6
#     8   8   8   8   8   8
#     4  10  20  35  55  77 104 139 174 209 255 311
#     4  10  20  35  56  79 103 135 176 218 257 302
#     4   9  18  34  55  78 105 137 172 211 257 308
#     4  10  21  37  55  76 106 141 174 212 260 310
#     4  10  21  36  55  79 106 138 174 214 260 307
#     4  10  20  34  54  80 107 135 170 214 261 306
#
# _framework density 18.899539000000001
#
# number of rings (size 3 to 8) (size 9 to 14) (size 15 to 20)
#    0.000    2.167    0.000    3.000    0.000    7.000 
#    0.000    1.667    0.000    2.000    0.000    0.000 
#    0.000    0.000    0.000    0.000    0.000    0.000 
#
# Total GULP energy -297703.481514 kJ/mol
# GULP energy per Si atom -12404.311730 kJ/mol
# Density = 1.885652 g / cm^3
# Si number density = 18.899539 Si / 1000 Ang^3
#
#
#
# Elastic Constant Matrix: (Units=GPa)
#
#
# Indices 1 2 3 4 5 6 
#
# 1 80.2461 24.8313 8.9124 0.0001 -14.9065 0.0000
# 2 24.8313 36.1470 29.1109 0.0000 -8.0464 -0.0001
# 3 8.9124 29.1109 96.8201 -0.0002 -5.5658 -0.0001
# 4 0.0001 0.0000 -0.0002 24.7876 0.0000 -3.4744
# 5 -14.9065 -8.0464 -5.5658 0.0000 38.2665 0.0000
# 6 0.0000 -0.0001 -0.0001 -3.4744 0.0000 31.0683
#
#
#
# Elastic Compliance Matrix: (Units=1/GPa)
#
#
# Indices 1 2 3 4 5 6 
#
# 1 0.016900 -0.012669 0.002500 0.000000 0.004283 0.000000
# 2 -0.012669 0.047486 -0.012929 0.000000 0.003169 0.000000
# 3 0.002500 -0.012929 0.014003 0.000000 0.000292 0.000000
# 4 0.000000 0.000000 0.000000 0.040985 0.000000 0.004583
# 5 0.004283 0.003169 0.000292 0.000000 0.028510 0.000000
# 6 0.000000 0.000000 0.000000 0.004583 0.000000 0.032700
#
#
# Mechanical properties :
#
#
# Convention : Reuss Voigt Hill
#
# Bulk Modulus (GPa) = 31.06449 37.65803 34.36126
# Shear Modulus (GPa) = 21.05164 28.84839 24.95002
#
# Velocity S-wave (km/s) = 3.34109 3.91116 3.63731
# Velocity P-wave (km/s) = 5.59966 6.35334 5.98837
#
# Compressibility (1/GPa) = 0.03219110
#
# Stress axis : x y z
#
# Youngs Moduli (GPa) = 59.17150 21.05879 71.41571
#
# Poissons Ratio (x) = 0.26680 -0.17853
# Poissons Ratio (y) = 0.74967 0.92335
# Poissons Ratio (z) = -0.14792 0.27227
#
# Static dielectric constant tensor:
#      x y z
#    x 3.579640 0.000000 0.064450 
#    y 0.000000 3.201650 0.000000 
#    z 0.064450 0.000000 3.447800 
# 
# 
# High freq. dielectric constant tensor:
#      x y z
#    x 1.750580 0.000000 0.003050 
#    y 0.000000 1.706360 0.000000 
#    z 0.003050 0.000000 1.749450 
# 
# From -- ./inp_files/153577.got.cif
#   From: 2010.06.25/outbox.cif.g09.slc.cpg/sg12_77_cif.got.tgz:153577.got - 2010.06.28 00:19:55.
