data_PCOD8097184
_publ_section_title
;
Structure prediction by ZEFSAII (Michael W. Deem and Ramdas Pophale) SiO2 
 PCOD8097184
Probable space group: C 2/M
;
_chemical_formula_sum "Si O2"
_cell_formula_units_Z 56
_cell_length_a 28.640147
_cell_length_b 8.858287
_cell_length_c 17.242549
_cell_angle_alpha 90.000000
_cell_angle_beta 136.700388
_cell_angle_gamma 90.000000
_cell_volume 3000.077269
_symmetry_space_group_name_H-M "C 2/M"
_symmetry_group_IT_number 12
_symmetry_cell_setting 'monoclinic'
loop_
_space_group_symop_operation_xyz
x,y,z
-x,y,-z
-x,-y,-z
x,-y,z
1/2+x,1/2+y,z
1/2-x,1/2+y,-z
1/2-x,1/2-y,-z
1/2+x,1/2-y,z
loop_
_atom_site_type_symbol
_atom_site_label
_atom_site_fract_x
_atom_site_fract_y
_atom_site_fract_z
Si Si1 0.382501 0.824287 0.565094
Si Si2 0.307368 0.321105 0.340208
Si Si3 0.542462 0.324536 0.917705
Si Si4 0.333603 0.321754 0.825623
Si Si5 0.522473 0.673482 0.720219
Si Si6 0.429143 0.675985 0.383043
Si Si7 0.400638 0.823403 0.763749
O O1 0.325916 0.731553 0.449603
O O2 0.457265 0.777439 0.626944
O O3 0.374634 0.784679 0.646149
O O4 0.371816 0.000000 0.536046
O O5 0.301129 0.500000 0.330381
O O6 0.235961 0.250682 0.228073
O O7 0.363930 0.255346 0.348514
O O8 0.526921 0.500000 0.913955
O O9 0.557395 0.291584 0.844964
O O10 0.477708 0.232099 0.869338
O O11 0.607773 0.269506 0.044123
O O12 0.325754 0.500000 0.813960
O O13 0.350263 0.262764 0.760122
O O14 0.497400 0.500000 0.686101
O O15 0.576325 0.706342 0.716256
O O16 0.500000 0.747202 0.500000
O O17 0.429464 0.500000 0.403227
O O18 0.398039 0.000000 0.778079
#
# Coordination Sequence:
#
# PCOD8097184 Si02
#       7
#     8   8   8   8   8   8   8
#     4  10  20  34  52  80 112 137 169 218 270 316
#     4  11  22  36  55  78 107 143 181 216 261 318
#     4   9  19  35  57  81 106 141 179 218 263 309
#     4  11  23  38  53  75 109 144 180 220 265 314
#     4   9  16  32  57  81 106 137 177 218 257 309
#     4   9  16  30  55  84 106 132 175 219 258 310
#     4  10  21  36  57  82 106 137 179 221 264 314
#
# _framework density 18.666187000000001
#
# number of rings (size 3 to 8) (size 9 to 14) (size 15 to 20)
#    0.000    2.143    1.429    2.143    0.000    5.143 
#    0.000    2.857    0.000    0.000    0.000    0.000 
#    0.000    0.000    0.000    0.000    0.000    0.000 
#
# Total GULP energy -347232.166207 kJ/mol
# GULP energy per Si atom -12401.148793 kJ/mol
# Density = 1.862370 g / cm^3
# Si number density = 18.666187 Si / 1000 Ang^3
#
#
#
# Elastic Constant Matrix: (Units=GPa)
#
#
# Indices 1 2 3 4 5 6 
#
# 1 120.3074 25.9845 39.9989 0.0000 7.5036 0.0000
# 2 25.9845 51.7884 19.3943 0.0000 4.0590 0.0000
# 3 39.9989 19.3943 65.3244 0.0000 7.5229 0.0000
# 4 0.0000 0.0000 0.0000 28.5340 0.0000 5.1495
# 5 7.5036 4.0590 7.5229 0.0000 24.9069 0.0000
# 6 0.0000 0.0000 0.0000 5.1495 0.0000 23.3579
#
#
#
# Elastic Compliance Matrix: (Units=1/GPa)
#
#
# Indices 1 2 3 4 5 6 
#
# 1 0.010957 -0.003316 -0.005602 0.000000 -0.001069 0.000000
# 2 -0.003316 0.022794 -0.004584 0.000000 -0.001331 0.000000
# 3 -0.005602 -0.004584 0.020533 0.000000 -0.003767 0.000000
# 4 0.000000 0.000000 0.000000 0.036498 0.000000 -0.008046
# 5 -0.001069 -0.001331 -0.003767 0.000000 0.041826 0.000000
# 6 0.000000 0.000000 0.000000 -0.008046 0.000000 0.044586
#
#
# Mechanical properties :
#
#
# Convention : Reuss Voigt Hill
#
# Bulk Modulus (GPa) = 36.65500 45.35283 41.00392
# Shear Modulus (GPa) = 23.44213 25.49592 24.46902
#
# Velocity S-wave (km/s) = 3.54766 3.69980 3.62453
# Velocity P-wave (km/s) = 6.03829 6.52694 6.28736
#
# Compressibility (1/GPa) = 0.02728141
#
# Stress axis : x y z
#
# Youngs Moduli (GPa) = 91.26288 43.87108 48.70242
#
# Poissons Ratio (x) = 0.14549 0.27282
# Poissons Ratio (y) = 0.30265 0.22323
# Poissons Ratio (z) = 0.51123 0.20108
#
# Static dielectric constant tensor:
#      x y z
#    x 3.560150 0.000000 -0.122190 
#    y 0.000000 3.321450 0.000000 
#    z -0.122190 0.000000 3.433280 
# 
# 
# High freq. dielectric constant tensor:
#      x y z
#    x 1.726260 0.000000 -0.012110 
#    y 0.000000 1.714650 0.000000 
#    z -0.012110 0.000000 1.715530 
# 
# From -- ./inp_files/281604.got.cif
#   From: 2010.06.25/outbox.cif.g09.slc.cpg/sg12_141_cif.got.tgz:281604.got - 2010.06.28 00:19:55.
