data_PCOD8097163
_publ_section_title
;
Structure prediction by ZEFSAII (Michael W. Deem and Ramdas Pophale) SiO2 
 PCOD8097163
Probable space group: C 2/M
;
_chemical_formula_sum "Si O2"
_cell_formula_units_Z 40
_cell_length_a 8.443300
_cell_length_b 28.939103
_cell_length_c 15.273089
_cell_angle_alpha 90.000000
_cell_angle_beta 148.645913
_cell_angle_gamma 90.000000
_cell_volume 1941.776618
_symmetry_space_group_name_H-M "C 2/M"
_symmetry_group_IT_number 12
_symmetry_cell_setting 'monoclinic'
loop_
_space_group_symop_operation_xyz
x,y,z
-x,y,-z
-x,-y,-z
x,-y,z
1/2+x,1/2+y,z
1/2-x,1/2+y,-z
1/2-x,1/2-y,-z
1/2+x,1/2-y,z
loop_
_atom_site_type_symbol
_atom_site_label
_atom_site_fract_x
_atom_site_fract_y
_atom_site_fract_z
Si Si1 0.355176 0.628754 0.660788
Si Si2 0.215040 0.448198 0.175952
Si Si3 0.715613 0.698765 0.518555
Si Si4 0.356259 0.052136 0.665632
Si Si5 0.229514 0.864676 0.189376
O O1 0.483575 0.582474 0.677673
O O2 0.435125 0.670729 0.633397
O O3 0.470781 0.636802 0.815464
O O4 0.000000 0.622160 0.500000
O O5 0.317154 0.500000 0.199811
O O6 0.032585 0.447134 0.181061
O O7 0.000000 0.427006 0.000000
O O8 0.500000 0.696750 0.500000
O O9 0.750000 0.750000 0.500000
O O10 0.042899 0.678928 0.702967
O O11 0.565424 0.088489 0.713039
O O12 0.000000 0.066289 0.500000
O O13 0.393954 0.000000 0.644259
O O14 0.000000 0.861616 0.000000
#
# Coordination Sequence:
#
# PCOD8097163 Si02
#       5
#     8   8   8   8   8
#     4  10  21  36  57  85 114 150 192 231 282 342
#     4  10  20  34  52  78 114 154 194 235 280 328
#     4  11  23  44  67  85 112 149 188 234 292 353
#     4  10  20  35  56  82 116 161 203 235 280 341
#     4  11  22  37  59  90 122 151 192 242 291 339
#
# _framework density 20.599691
#
# number of rings (size 3 to 8) (size 9 to 14) (size 15 to 20)
#    0.000    1.600    0.000    7.200    0.000    1.600 
#    0.000    5.000    0.000    0.000    0.000    0.000 
#    0.000    0.000    0.000    0.000    0.000    0.000 
#
# Total GULP energy -247931.907343 kJ/mol
# GULP energy per Si atom -12396.595367 kJ/mol
# Density = 2.055280 g / cm^3
# Si number density = 20.599691 Si / 1000 Ang^3
#
#
#
# Elastic Constant Matrix: (Units=GPa)
#
#
# Indices 1 2 3 4 5 6 
#
# 1 133.5477 64.7466 27.4698 0.0000 -18.5144 0.0000
# 2 64.7466 152.5837 44.7468 0.0000 4.1894 0.0000
# 3 27.4698 44.7468 84.2192 0.0000 -22.4157 0.0000
# 4 0.0000 0.0000 0.0000 19.0148 0.0000 -8.8987
# 5 -18.5144 4.1894 -22.4157 0.0000 31.4165 0.0000
# 6 0.0000 0.0000 0.0000 -8.8987 0.0000 32.9633
#
#
#
# Elastic Compliance Matrix: (Units=1/GPa)
#
#
# Indices 1 2 3 4 5 6 
#
# 1 0.010865 -0.005243 0.001397 0.000000 0.008099 0.000000
# 2 -0.005243 0.010959 -0.006572 0.000000 -0.009240 0.000000
# 3 0.001397 -0.006572 0.018964 0.000000 0.015230 0.000000
# 4 0.000000 0.000000 0.000000 0.060196 0.000000 0.016250
# 5 0.008099 -0.009240 0.015230 0.000000 0.048702 0.000000
# 6 0.000000 0.000000 0.000000 0.016250 0.000000 0.034724
#
#
# Mechanical properties :
#
#
# Convention : Reuss Voigt Hill
#
# Bulk Modulus (GPa) = 50.11810 71.58633 60.85222
# Shear Modulus (GPa) = 23.59644 32.23809 27.91727
#
# Velocity S-wave (km/s) = 3.38816 3.96027 3.68534
# Velocity P-wave (km/s) = 6.29988 7.46581 6.90749
#
# Compressibility (1/GPa) = 0.01995287
#
# Stress axis : x y z
#
# Youngs Moduli (GPa) = 92.03820 91.24515 52.73218
#
# Poissons Ratio (x) = 0.47836 -0.07368
# Poissons Ratio (y) = 0.48251 0.34658
# Poissons Ratio (z) = -0.12859 0.59970
#
# Static dielectric constant tensor:
#      x y z
#    x 4.245100 0.000000 -0.576400 
#    y 0.000000 3.665410 0.000000 
#    z -0.576400 0.000000 3.908660 
# 
# 
# High freq. dielectric constant tensor:
#      x y z
#    x 1.814080 0.000000 -0.027720 
#    y 0.000000 1.801210 0.000000 
#    z -0.027720 0.000000 1.800000 
# 
# From -- ./inp_files/41424.got.cif
#   From: 2010.06.25/outbox.cif.g09.slc.cpg/sg12_21_cif.got.tgz:41424.got - 2010.06.28 00:19:55.
