data_PCOD8097304
_publ_section_title
;
Structure prediction by ZEFSAII (Michael W. Deem and Ramdas Pophale) SiO2 
 PCOD8097304
Probable space group: C 2/M
;
_chemical_formula_sum "Si O2"
_cell_formula_units_Z 64
_cell_length_a 18.828740
_cell_length_b 8.985244
_cell_length_c 24.891901
_cell_angle_alpha 90.000000
_cell_angle_beta 55.512255
_cell_angle_gamma 90.000000
_cell_volume 3471.096931
_symmetry_space_group_name_H-M "C 2/M"
_symmetry_group_IT_number 12
_symmetry_cell_setting 'monoclinic'
loop_
_space_group_symop_operation_xyz
x,y,z
-x,y,-z
-x,-y,-z
x,-y,z
1/2+x,1/2+y,z
1/2-x,1/2+y,-z
1/2-x,1/2-y,-z
1/2+x,1/2-y,z
loop_
_atom_site_type_symbol
_atom_site_label
_atom_site_fract_x
_atom_site_fract_y
_atom_site_fract_z
Si Si1 0.807118 0.676677 0.810999
Si Si2 0.409338 0.827796 0.562258
Si Si3 0.252052 0.672007 0.442437
Si Si4 0.467836 0.176883 0.812053
Si Si5 0.189654 0.826244 0.305197
Si Si6 0.850413 0.673850 0.310061
Si Si7 0.526052 0.176098 0.071213
Si Si8 0.362705 0.823819 0.075238
O O1 0.803840 0.500000 0.809215
O O2 0.889856 0.733738 0.808765
O O3 0.813451 0.740676 0.749035
O O4 0.724131 0.735271 0.877572
O O5 0.500000 0.772427 0.500000
O O6 0.339371 0.799965 0.546286
O O7 0.387608 0.731556 0.624106
O O8 0.413176 0.000000 0.577984
O O9 0.272042 0.500000 0.442301
O O10 0.250000 0.750000 0.500000
O O11 0.328142 0.740388 0.374077
O O12 0.557549 0.234313 0.748971
O O13 0.457489 0.243551 0.876692
O O14 0.469205 0.000000 0.814560
O O15 0.281260 0.791130 0.293319
O O16 0.177151 0.000000 0.299928
O O17 0.852319 0.500000 0.322866
O O18 0.433352 0.229026 0.088676
O O19 0.523031 0.000000 0.074511
O O20 0.603087 0.223669 0.998371
O O21 0.345488 0.000000 0.086778
#
# Coordination Sequence:
#
# PCOD8097304 Si02
#       8
#     8   8   8   8   8   8   8   8
#     4  11  22  33  48  73 106 138 165 201 253 308
#     4   9  19  36  56  77 103 136 170 204 249 305
#     4  10  20  34  53  77 105 134 166 206 250 297
#     4   9  18  32  50  73 101 134 169 203 246 303
#     4  10  20  35  56  77  98 129 172 218 254 290
#     4   9  18  35  57  75  94 128 174 214 247 291
#     4   8  15  31  55  78  98 128 172 212 246 292
#     4   9  17  32  56  79  98 127 170 215 251 290
#
# _framework density 18.437974000000001
#
# number of rings (size 3 to 8) (size 9 to 14) (size 15 to 20)
#    0.000    2.625    0.000    2.625    0.000    4.750 
#    0.000    7.500    0.000    3.000    0.000    0.000 
#    0.000    0.000    0.000    0.000    0.000    0.000 
#
# Total GULP energy -396820.641189 kJ/mol
# GULP energy per Si atom -12400.645037 kJ/mol
# Density = 1.839601 g / cm^3
# Si number density = 18.437974 Si / 1000 Ang^3
#
#
#
# Elastic Constant Matrix: (Units=GPa)
#
#
# Indices 1 2 3 4 5 6 
#
# 1 113.4357 46.0807 101.9327 0.0000 -3.3389 0.0004
# 2 46.0807 61.4229 60.1787 -0.0001 4.0738 0.0007
# 3 101.9327 60.1787 183.1471 0.0000 -0.3093 0.0000
# 4 0.0000 -0.0001 0.0000 32.9694 0.0000 -2.4764
# 5 -3.3389 4.0738 -0.3093 0.0000 37.1016 0.0000
# 6 0.0004 0.0007 0.0000 -2.4764 0.0000 23.4105
#
#
#
# Elastic Compliance Matrix: (Units=1/GPa)
#
#
# Indices 1 2 3 4 5 6 
#
# 1 0.019097 -0.006003 -0.008652 0.000000 0.002306 0.000000
# 2 -0.006003 0.026171 -0.005264 0.000000 -0.003458 -0.000001
# 3 -0.008652 -0.005264 0.012005 0.000000 -0.000101 0.000000
# 4 0.000000 0.000000 0.000000 0.030574 0.000000 0.003234
# 5 0.002306 -0.003458 -0.000101 0.000000 0.027539 0.000000
# 6 0.000000 -0.000001 0.000000 0.003234 0.000000 0.043058
#
#
# Mechanical properties :
#
#
# Convention : Reuss Voigt Hill
#
# Bulk Modulus (GPa) = 57.35786 86.04333 71.70059
# Shear Modulus (GPa) = 24.49851 28.68386 26.59119
#
# Velocity S-wave (km/s) = 3.64909 3.94851 3.80175
# Velocity P-wave (km/s) = 6.99504 8.21920 7.63170
#
# Compressibility (1/GPa) = 0.01743440
#
# Stress axis : x y z
#
# Youngs Moduli (GPa) = 52.36492 38.21051 83.29751
#
# Poissons Ratio (x) = 0.22937 0.72071
# Poissons Ratio (y) = 0.31433 0.43850
# Poissons Ratio (z) = 0.45307 0.20115
#
# Static dielectric constant tensor:
#      x y z
#    x 3.504010 0.000000 0.042380 
#    y 0.000000 3.172230 0.000000 
#    z 0.042380 0.000000 3.668960 
# 
# 
# High freq. dielectric constant tensor:
#      x y z
#    x 1.712130 0.000000 0.000610 
#    y 0.000000 1.691720 0.000000 
#    z 0.000610 0.000000 1.731340 
# 
# From -- ./inp_files/345959.got.cif
#   From: 2010.06.25/outbox.cif.g09.slc.cpg/sg12_173_cif.got.tgz:345959.got - 2010.06.28 00:19:55.
