data_PCOD8097821
_publ_section_title
;
Structure prediction by ZEFSAII (Michael W. Deem and Ramdas Pophale) SiO2 
 PCOD8097821
Probable space group: C 2/M
;
_chemical_formula_sum "Si O2"
_cell_formula_units_Z 48
_cell_length_a 24.776724
_cell_length_b 9.072862
_cell_length_c 11.227680
_cell_angle_alpha 90.000000
_cell_angle_beta 70.108277
_cell_angle_gamma 90.000000
_cell_volume 2373.350460
_symmetry_space_group_name_H-M "C 2/M"
_symmetry_group_IT_number 12
_symmetry_cell_setting 'monoclinic'
loop_
_space_group_symop_operation_xyz
x,y,z
-x,y,-z
-x,-y,-z
x,-y,z
1/2+x,1/2+y,z
1/2-x,1/2+y,-z
1/2-x,1/2-y,-z
1/2+x,1/2-y,z
loop_
_atom_site_type_symbol
_atom_site_label
_atom_site_fract_x
_atom_site_fract_y
_atom_site_fract_z
Si Si1 0.566016 0.173077 0.187477
Si Si2 0.867547 0.673063 0.099142
Si Si3 0.173580 0.168679 0.482211
Si Si4 0.034027 0.164144 0.852882
Si Si5 0.723307 0.671714 0.698239
Si Si6 0.436056 0.670608 0.577639
O O1 0.504980 0.252455 0.213559
O O2 0.590088 0.235188 0.293470
O O3 0.554984 0.000000 0.201809
O O4 0.611485 0.211849 0.049689
O O5 0.865243 0.500000 0.122096
O O6 0.909022 0.742598 0.167538
O O7 0.805135 0.744654 0.167798
O O8 0.212292 0.270187 0.367778
O O9 0.184964 0.208810 0.610712
O O10 0.106446 0.196103 0.502668
O O11 0.191137 0.000000 0.444187
O O12 0.050031 0.000000 0.792845
O O13 0.000000 0.149751 0.000000
O O14 0.725512 0.500000 0.725962
O O15 0.500000 0.727737 0.500000
O O16 0.437736 0.500000 0.614378
#
# Coordination Sequence:
#
# PCOD8097821 Si02
#       6
#     8   8   8   8   8   8
#     4  10  21  36  53  80 116 151 188 232 282 338
#     4  10  20  34  54  82 116 149 185 233 288 336
#     4   9  20  39  58  82 115 148 186 235 285 333
#     4   9  17  30  50  76 108 146 186 228 273 326
#     4  10  20  35  60  88 112 145 190 235 283 338
#     4  10  22  39  60  83 112 152 191 231 282 340
#
# _framework density 20.224572999999999
#
# number of rings (size 3 to 8) (size 9 to 14) (size 15 to 20)
#    0.000    2.333    0.000    2.000    2.333    5.667 
#    0.000    0.833    0.000    0.000    0.000    0.000 
#    0.000    0.000    0.000    0.000    0.000    0.000 
#
# Total GULP energy -297630.481876 kJ/mol
# GULP energy per Si atom -12401.270078 kJ/mol
# Density = 2.017854 g / cm^3
# Si number density = 20.224573 Si / 1000 Ang^3
#
#
#
# Elastic Constant Matrix: (Units=GPa)
#
#
# Indices 1 2 3 4 5 6 
#
# 1 87.6640 28.2994 30.5306 0.0000 -9.9260 0.0000
# 2 28.2994 99.9275 42.3612 0.0000 -13.4358 0.0000
# 3 30.5306 42.3612 73.1081 0.0000 -14.3334 0.0000
# 4 0.0000 0.0000 0.0000 32.2082 0.0000 -2.7483
# 5 -9.9260 -13.4358 -14.3334 0.0000 31.9233 0.0000
# 6 0.0000 0.0000 0.0000 -2.7483 0.0000 31.7671
#
#
#
# Elastic Compliance Matrix: (Units=1/GPa)
#
#
# Indices 1 2 3 4 5 6 
#
# 1 0.013687 -0.001822 -0.004360 0.000000 0.001531 0.000000
# 2 -0.001822 0.013669 -0.006736 0.000000 0.002162 0.000000
# 3 -0.004360 -0.006736 0.020374 0.000000 0.004957 0.000000
# 4 0.000000 0.000000 0.000000 0.031279 0.000000 0.002706
# 5 0.001531 0.002162 0.004957 0.000000 0.034937 0.000000
# 6 0.000000 0.000000 0.000000 0.002706 0.000000 0.031713
#
#
# Mechanical properties :
#
#
# Convention : Reuss Voigt Hill
#
# Bulk Modulus (GPa) = 45.67202 51.45356 48.56279
# Shear Modulus (GPa) = 27.96527 29.81361 28.88944
#
# Velocity S-wave (km/s) = 3.72255 3.84360 3.78356
# Velocity P-wave (km/s) = 6.41155 6.72265 6.56894
#
# Compressibility (1/GPa) = 0.02189524
#
# Stress axis : x y z
#
# Youngs Moduli (GPa) = 73.06108 73.15642 49.08255
#
# Poissons Ratio (x) = 0.13329 0.21400
# Poissons Ratio (y) = 0.13312 0.33060
# Poissons Ratio (z) = 0.31854 0.49275
#
# Static dielectric constant tensor:
#      x y z
#    x 3.547800 0.000000 -0.075170 
#    y 0.000000 3.686630 0.000000 
#    z -0.075170 0.000000 3.548250 
# 
# 
# High freq. dielectric constant tensor:
#      x y z
#    x 1.771020 0.000000 -0.010620 
#    y 0.000000 1.794570 0.000000 
#    z -0.010620 0.000000 1.783810 
# 
# From -- ./inp_files/172934.got.cif
#   From: 2010.06.25/outbox.cif.g09.slc.cpg/sg12_87_cif.got.tgz:172934.got - 2010.06.28 00:19:55.
