data_PCOD8097475
_publ_section_title
;
Structure prediction by ZEFSAII (Michael W. Deem and Ramdas Pophale) SiO2 
 PCOD8097475
Probable space group: C 2/M
;
_chemical_formula_sum "Si O2"
_cell_formula_units_Z 64
_cell_length_a 17.180036
_cell_length_b 17.800068
_cell_length_c 17.170089
_cell_angle_alpha 90.000000
_cell_angle_beta 139.856478
_cell_angle_gamma 90.000000
_cell_volume 3385.158166
_symmetry_space_group_name_H-M "C 2/M"
_symmetry_group_IT_number 12
_symmetry_cell_setting 'monoclinic'
loop_
_space_group_symop_operation_xyz
x,y,z
-x,y,-z
-x,-y,-z
x,-y,z
1/2+x,1/2+y,z
1/2-x,1/2+y,-z
1/2-x,1/2-y,-z
1/2+x,1/2-y,z
loop_
_atom_site_type_symbol
_atom_site_label
_atom_site_fract_x
_atom_site_fract_y
_atom_site_fract_z
Si Si1 0.723663 0.659594 0.183604
Si Si2 0.875122 0.087272 0.038496
Si Si3 0.360259 0.087602 0.041589
Si Si4 0.886568 0.164902 0.734282
Si Si5 0.027723 0.587321 0.608853
Si Si6 0.612053 0.842132 0.260137
Si Si7 0.713065 0.911948 0.483738
Si Si8 0.638874 0.178572 0.109807
O O1 0.682879 0.641089 0.240198
O O2 0.860251 0.634237 0.273706
O O3 0.720414 0.747862 0.161899
O O4 0.635522 0.614315 0.058644
O O5 0.978264 0.133588 0.161098
O O6 0.908857 0.000000 0.066402
O O7 0.750332 0.104668 0.986494
O O8 0.477642 0.125720 0.168930
O O9 0.386465 0.000000 0.052889
O O10 0.329382 0.119331 0.932546
O O11 0.891016 0.253694 0.727045
O O12 0.820933 0.129628 0.609856
O O13 0.061852 0.500000 0.641157
O O14 0.000000 0.611267 0.500000
O O15 0.913115 0.608310 0.572591
O O16 0.705616 0.882102 0.389835
O O17 0.661057 0.859889 0.210711
O O18 0.740014 0.000000 0.505672
O O19 0.500000 0.205843 0.000000
#
# Coordination Sequence:
#
# PCOD8097475 Si02
#       8
#     8   8   8   8   8   8   8   8
#     4  11  20  35  56  81 115 147 183 225 267 325
#     4  11  23  35  54  84 113 147 187 221 267 333
#     4  10  21  38  58  83 112 140 179 233 284 325
#     4  11  23  38  54  78 116 153 180 223 277 322
#     4  10  20  34  53  80 112 148 183 219 266 318
#     4  10  21  37  58  84 108 138 188 233 272 328
#     4  11  22  37  58  82 111 148 188 226 271 325
#     4   9  20  37  58  84 111 140 178 230 286 331
#
# _framework density 18.90606
#
# number of rings (size 3 to 8) (size 9 to 14) (size 15 to 20)
#    0.000    1.625    1.250    4.875    0.000    9.750 
#    0.000    0.000    0.000    0.000    0.000    2.625 
#    0.000    0.000    0.000    0.000    0.000    0.000 
#
# Total GULP energy -396974.457228 kJ/mol
# GULP energy per Si atom -12405.451788 kJ/mol
# Density = 1.886303 g / cm^3
# Si number density = 18.906060 Si / 1000 Ang^3
#
#
#
# Elastic Constant Matrix: (Units=GPa)
#
#
# Indices 1 2 3 4 5 6 
#
# 1 44.3437 31.3476 33.4498 -0.0003 -10.2408 -0.0004
# 2 31.3476 78.7603 44.8670 -0.0002 2.3675 -0.0003
# 3 33.4498 44.8670 131.9755 -0.0003 -11.4650 -0.0006
# 4 -0.0003 -0.0002 -0.0003 39.6081 -0.0003 0.6789
# 5 -10.2408 2.3675 -11.4650 -0.0003 30.5408 -0.0004
# 6 -0.0004 -0.0003 -0.0006 0.6789 -0.0004 5.7941
#
#
#
# Elastic Compliance Matrix: (Units=1/GPa)
#
#
# Indices 1 2 3 4 5 6 
#
# 1 0.037610 -0.013024 -0.004054 0.000000 0.012099 0.000003
# 2 -0.013024 0.020593 -0.004360 0.000000 -0.007600 -0.000001
# 3 -0.004054 -0.004360 0.010335 0.000000 0.002859 0.000001
# 4 0.000000 0.000000 0.000000 0.025298 0.000000 -0.002964
# 5 0.012099 -0.007600 0.002859 0.000000 0.038462 0.000004
# 6 0.000003 -0.000001 0.000001 -0.002964 0.000004 0.172938
#
#
# Mechanical properties :
#
#
# Convention : Reuss Voigt Hill
#
# Bulk Modulus (GPa) = 38.96704 52.71203 45.83954
# Shear Modulus (GPa) = 14.01875 24.88291 19.45083
#
# Velocity S-wave (km/s) = 2.72600 3.63179 3.21099
# Velocity P-wave (km/s) = 5.52844 6.74745 6.16814
#
# Compressibility (1/GPa) = 0.02566271
#
# Stress axis : x y z
#
# Youngs Moduli (GPa) = 26.58879 48.56127 96.75653
#
# Poissons Ratio (x) = 0.63244 0.39223
# Poissons Ratio (y) = 0.34628 0.42187
# Poissons Ratio (z) = 0.10779 0.21173
#
# Static dielectric constant tensor:
#      x y z
#    x 3.437820 0.000000 -0.182810 
#    y 0.000000 3.423730 0.000000 
#    z -0.182810 0.000000 3.577360 
# 
# 
# High freq. dielectric constant tensor:
#      x y z
#    x 1.726270 0.000000 -0.012440 
#    y 0.000000 1.737500 0.000000 
#    z -0.012440 0.000000 1.742410 
# 
# From -- ./inp_files/278195.got.cif
#   From: 2010.06.25/outbox.cif.g09.slc.cpg/sg12_140_cif.got.tgz:278195.got - 2010.06.28 00:19:55.
