data_PCOD8097286
_publ_section_title
;
Structure prediction by ZEFSAII (Michael W. Deem and Ramdas Pophale) SiO2 
 PCOD8097286
Probable space group: C 2/M
;
_chemical_formula_sum "Si O2"
_cell_formula_units_Z 64
_cell_length_a 19.821365
_cell_length_b 19.889712
_cell_length_c 13.372929
_cell_angle_alpha 90.000000
_cell_angle_beta 134.392232
_cell_angle_gamma 90.000000
_cell_volume 3767.314449
_symmetry_space_group_name_H-M "C 2/M"
_symmetry_group_IT_number 12
_symmetry_cell_setting 'monoclinic'
loop_
_space_group_symop_operation_xyz
x,y,z
-x,y,-z
-x,-y,-z
x,-y,z
1/2+x,1/2+y,z
1/2-x,1/2+y,-z
1/2-x,1/2-y,-z
1/2+x,1/2-y,z
loop_
_atom_site_type_symbol
_atom_site_label
_atom_site_fract_x
_atom_site_fract_y
_atom_site_fract_z
Si Si1 0.267005 0.815873 0.151234
Si Si2 0.108562 0.422636 0.607712
Si Si3 0.394638 0.576824 0.361798
Si Si4 0.061282 0.769980 0.306425
Si Si5 0.665666 0.855455 0.472709
Si Si6 0.315333 0.730414 0.743280
Si Si7 0.713607 0.643979 0.581775
Si Si8 0.859222 0.811906 0.166775
O O1 0.331700 0.878019 0.252885
O O2 0.183634 0.803333 0.146190
O O3 0.331217 0.749204 0.210888
O O4 0.221234 0.830122 0.996965
O O5 0.123908 0.500000 0.653742
O O6 0.139230 0.412756 0.524354
O O7 0.000000 0.400948 0.500000
O O8 0.500000 0.597404 0.500000
O O9 0.387838 0.500000 0.320346
O O10 0.325534 0.587364 0.384504
O O11 0.367084 0.621250 0.238931
O O12 0.075734 0.690704 0.348067
O O13 0.085965 0.778661 0.213453
O O14 0.124468 0.817517 0.441836
O O15 0.953660 0.791146 0.207233
O O16 0.736607 0.802439 0.592728
O O17 0.719584 0.889596 0.434439
O O18 0.282697 0.807759 0.717447
#
# Coordination Sequence:
#
# PCOD8097286 Si02
#       8
#     8   8   8   8   8   8   8   8
#     4  10  21  34  51  75 100 131 171 208 258 309
#     4  10  20  34  53  77 102 128 164 211 261 310
#     4  11  22  33  49  74 102 140 180 211 249 300
#     4   9  16  28  50  76 100 129 162 207 255 292
#     4   8  16  28  50  78  99 124 163 206 257 301
#     4   8  15  29  49  74  99 125 163 209 255 297
#     4   9  15  30  50  72 102 129 163 213 250 287
#     4  11  21  33  51  73 103 136 173 212 253 303
#
# _framework density 16.988229
#
# number of rings (size 3 to 8) (size 9 to 14) (size 15 to 20)
#    0.000    2.500    2.500    2.250    0.000    2.000 
#    0.000    0.000    0.000    0.000    0.000    3.500 
#    0.000    8.000    0.000    0.000    0.000    0.000 
#
# Total GULP energy -396610.233131 kJ/mol
# GULP energy per Si atom -12394.069785 kJ/mol
# Density = 1.694956 g / cm^3
# Si number density = 16.988229 Si / 1000 Ang^3
#
#
#
# Elastic Constant Matrix: (Units=GPa)
#
#
# Indices 1 2 3 4 5 6 
#
# 1 116.2833 39.5231 35.7036 0.0000 -5.9132 0.0000
# 2 39.5231 72.4737 42.6586 0.0000 -6.0988 0.0000
# 3 35.7036 42.6586 62.6262 0.0000 -7.2664 0.0000
# 4 0.0000 0.0000 0.0000 16.7849 0.0000 4.4068
# 5 -5.9132 -6.0988 -7.2664 0.0000 21.7226 0.0000
# 6 0.0000 0.0000 0.0000 4.4068 0.0000 15.6652
#
#
#
# Elastic Compliance Matrix: (Units=1/GPa)
#
#
# Indices 1 2 3 4 5 6 
#
# 1 0.011048 -0.003849 -0.003592 0.000000 0.000725 0.000000
# 2 -0.003849 0.024408 -0.014313 0.000000 0.001017 0.000000
# 3 -0.003592 -0.014313 0.028283 0.000000 0.004465 0.000000
# 4 0.000000 0.000000 0.000000 0.064329 0.000000 -0.018096
# 5 0.000725 0.001017 0.004465 0.000000 0.048011 0.000000
# 6 0.000000 0.000000 0.000000 -0.018096 0.000000 0.068927
#
#
# Mechanical properties :
#
#
# Convention : Reuss Voigt Hill
#
# Bulk Modulus (GPa) = 49.43306 54.12822 51.78064
# Shear Modulus (GPa) = 16.93434 19.73438 18.33436
#
# Velocity S-wave (km/s) = 3.16068 3.41200 3.28874
# Velocity P-wave (km/s) = 6.51778 6.88866 6.70579
#
# Compressibility (1/GPa) = 0.02022938
#
# Stress axis : x y z
#
# Youngs Moduli (GPa) = 90.51500 40.97058 35.35659
#
# Poissons Ratio (x) = 0.15771 0.12701
# Poissons Ratio (y) = 0.34843 0.50606
# Poissons Ratio (z) = 0.32515 0.58641
#
# Static dielectric constant tensor:
#      x y z
#    x 3.582960 0.000000 -0.183710 
#    y 0.000000 2.915080 0.000000 
#    z -0.183710 0.000000 2.907080 
# 
# 
# High freq. dielectric constant tensor:
#      x y z
#    x 1.674480 0.000000 -0.010520 
#    y 0.000000 1.631970 0.000000 
#    z -0.010520 0.000000 1.628770 
# 
# From -- ./inp_files/169689.got.cif
#   From: 2010.06.25/outbox.cif.g09.slc.cpg/sg12_85_cif.got.tgz:169689.got - 2010.06.28 00:19:55.
