data_PCOD8097003
_publ_section_title
;
Structure prediction by ZEFSAII (Michael W. Deem and Ramdas Pophale) SiO2 
 PCOD8097003
Probable space group: C 2/M
;
_chemical_formula_sum "Si O2"
_cell_formula_units_Z 48
_cell_length_a 8.592786
_cell_length_b 11.060673
_cell_length_c 27.035348
_cell_angle_alpha 90.000000
_cell_angle_beta 115.145325
_cell_angle_gamma 90.000000
_cell_volume 2325.990111
_symmetry_space_group_name_H-M "C 2/M"
_symmetry_group_IT_number 12
_symmetry_cell_setting 'monoclinic'
loop_
_space_group_symop_operation_xyz
x,y,z
-x,y,-z
-x,-y,-z
x,-y,z
1/2+x,1/2+y,z
1/2-x,1/2+y,-z
1/2-x,1/2-y,-z
1/2+x,1/2-y,z
loop_
_atom_site_type_symbol
_atom_site_label
_atom_site_fract_x
_atom_site_fract_y
_atom_site_fract_z
Si Si1 0.359482 0.229614 0.385125
Si Si2 0.235869 0.635641 0.800882
Si Si3 0.445446 0.786400 0.128658
Si Si4 0.373374 0.135788 0.941966
Si Si5 0.685975 0.639323 0.456995
Si Si6 0.529350 0.137478 0.314452
O O1 0.483670 0.337662 0.420852
O O2 0.294231 0.146698 0.421151
O O3 0.461294 0.143237 0.361435
O O4 0.203754 0.287562 0.333594
O O5 0.281029 0.500000 0.791079
O O6 0.413515 0.707086 0.823883
O O7 0.149631 0.632687 0.843483
O O8 0.106702 0.693189 0.742944
O O9 0.538977 0.866970 0.100204
O O10 0.306113 0.704937 0.081846
O O11 0.330344 0.000000 0.952335
O O12 0.500000 0.195065 0.000000
O O13 0.708426 0.500000 0.480750
O O14 0.750000 0.750000 0.500000
O O15 0.569330 0.000000 0.305451
#
# Coordination Sequence:
#
# PCOD8097003 Si02
#       6
#     8   8   8   8   8   8
#     4  10  22  38  58  82 112 144 182 224 270 322
#     4  10  20  34  54  79 106 138 176 218 266 318
#     4  10  20  34  52  76 106 136 174 220 266 314
#     4  10  20  34  52  74 102 138 177 217 264 316
#     4  11  24  40  60  86 115 148 187 229 275 327
#     4  10  20  36  57  80 108 142 178 219 268 321
#
# _framework density 20.636372000000001
#
# number of rings (size 3 to 8) (size 9 to 14) (size 15 to 20)
#    0.000    1.833    0.000    4.000    0.000    5.333 
#    0.000    0.000    0.000   24.000    0.000    0.000 
#    0.000    0.000    0.000    0.000    0.000    0.000 
#
# Total GULP energy -297579.564634 kJ/mol
# GULP energy per Si atom -12399.148526 kJ/mol
# Density = 2.058940 g / cm^3
# Si number density = 20.636372 Si / 1000 Ang^3
#
#
#
# Elastic Constant Matrix: (Units=GPa)
#
#
# Indices 1 2 3 4 5 6 
#
# 1 74.6477 14.7023 13.6834 0.0000 17.4717 0.0000
# 2 14.7023 90.5548 27.5686 0.0000 17.2874 0.0000
# 3 13.6834 27.5686 93.6795 0.0000 27.6130 0.0000
# 4 0.0000 0.0000 0.0000 21.8234 0.0000 5.4389
# 5 17.4717 17.2874 27.6130 0.0000 38.3994 0.0000
# 6 0.0000 0.0000 0.0000 5.4389 0.0000 1.4291
#
#
#
# Elastic Compliance Matrix: (Units=1/GPa)
#
#
# Indices 1 2 3 4 5 6 
#
# 1 0.015121 -0.001254 0.000028 0.000000 -0.006335 0.000000
# 2 -0.001254 0.012656 -0.002576 0.000000 -0.003275 0.000000
# 3 0.000028 -0.002576 0.014074 0.000000 -0.008973 0.000000
# 4 0.000000 0.000000 0.000000 0.889916 0.000000 -3.386866
# 5 -0.006335 -0.003275 -0.008973 0.000000 0.036852 0.000000
# 6 0.000000 0.000000 0.000000 -3.386866 0.000000 13.589563
#
#
# Mechanical properties :
#
#
# Convention : Reuss Voigt Hill
#
# Bulk Modulus (GPa) = 29.20030 41.19896 35.19963
# Shear Modulus (GPa) = 0.34300 25.85890 13.10095
#
# Velocity S-wave (km/s) = 0.40813 3.54372 2.52235
# Velocity P-wave (km/s) = 3.79509 6.06230 5.05738
#
# Compressibility (1/GPa) = 0.03424622
#
# Stress axis : x y z
#
# Youngs Moduli (GPa) = 66.13321 79.01352 71.05449
#
# Poissons Ratio (x) = 0.09908 -0.00198
# Poissons Ratio (y) = 0.08293 0.18304
# Poissons Ratio (z) = -0.00184 0.20355
#
# Static dielectric constant tensor:
#      x y z
#    x 3.755620 0.000000 0.190260 
#    y 0.000000 3.416160 0.000000 
#    z 0.190260 0.000000 3.834490 
# 
# 
# High freq. dielectric constant tensor:
#      x y z
#    x 1.815080 0.000000 0.008820 
#    y 0.000000 1.790680 0.000000 
#    z 0.008820 0.000000 1.816080 
# 
# From -- ./inp_files/331981.got.cif
#   From: 2010.06.25/outbox.cif.g09.slc.cpg/sg12_166_cif.got.tgz:331981.got - 2010.06.28 00:19:55.
