data_PCOD8097758
_publ_section_title
;
Structure prediction by ZEFSAII (Michael W. Deem and Ramdas Pophale) SiO2 
 PCOD8097758
Probable space group: C 2/M
;
_chemical_formula_sum "Si O2"
_cell_formula_units_Z 64
_cell_length_a 18.308591
_cell_length_b 8.758238
_cell_length_c 20.798686
_cell_angle_alpha 90.000000
_cell_angle_beta 90.163453
_cell_angle_gamma 90.000000
_cell_volume 3335.076474
_symmetry_space_group_name_H-M "C 2/M"
_symmetry_group_IT_number 12
_symmetry_cell_setting 'monoclinic'
loop_
_space_group_symop_operation_xyz
x,y,z
-x,y,-z
-x,-y,-z
x,-y,z
1/2+x,1/2+y,z
1/2-x,1/2+y,-z
1/2-x,1/2-y,-z
1/2+x,1/2-y,z
loop_
_atom_site_type_symbol
_atom_site_label
_atom_site_fract_x
_atom_site_fract_y
_atom_site_fract_z
Si Si1 0.456404 0.818463 0.799393
Si Si2 0.208312 0.320566 0.058619
Si Si3 0.550875 0.176956 0.440778
Si Si4 0.292180 0.319888 0.559838
Si Si5 0.049193 0.678689 0.680883
Si Si6 0.956224 0.318948 0.940592
Si Si7 0.293783 0.319129 0.323067
Si Si8 0.292256 0.181198 0.800303
O O1 0.512294 0.756265 0.745973
O O2 0.485166 0.766273 0.870192
O O3 0.374203 0.754671 0.787275
O O4 0.453545 0.000000 0.794552
O O5 0.214621 0.500000 0.052711
O O6 0.125955 0.263378 0.051891
O O7 0.236764 0.265713 0.129205
O O8 0.250000 0.250000 0.000000
O O9 0.500000 0.223509 0.500000
O O10 0.622823 0.278815 0.443198
O O11 0.507289 0.212571 0.375910
O O12 0.574024 0.000000 0.444886
O O13 0.282584 0.500000 0.557964
O O14 0.250000 0.250000 0.500000
O O15 0.257762 0.255925 0.624556
O O16 0.067887 0.500000 0.685428
O O17 0.123137 0.769029 0.667557
O O18 0.961548 0.500000 0.944471
O O19 0.000000 0.243062 0.000000
O O20 0.288083 0.500000 0.329956
O O21 0.264073 0.260985 0.253803
O O22 0.297560 0.000000 0.799778
#
# Coordination Sequence:
#
# PCOD8097758 Si02
#       8
#     8   8   8   8   8   8   8   8
#     4   8  14  27  47  68  94 132 175 215 260 317
#     4   9  17  30  49  73 102 136 175 219 269 325
#     4  10  21  38  60  84 112 146 180 216 264 320
#     4  12  25  41  62  87 115 145 182 226 269 317
#     4  10  20  34  54  81 111 140 175 222 273 323
#     4   8  14  25  43  68  95 126 169 218 262 308
#     4  11  22  37  57  80 110 147 186 226 271 325
#     4   8  16  32  52  73 100 140 183 218 263 326
#
# _framework density 19.189964
#
# number of rings (size 3 to 8) (size 9 to 14) (size 15 to 20)
#    0.000    2.500    0.000    4.500    0.000    4.750 
#    0.000    2.500    0.000    3.375    0.000    0.000 
#    0.000    0.000    0.000    0.000    0.000    0.000 
#
# Total GULP energy -396668.823522 kJ/mol
# GULP energy per Si atom -12395.900735 kJ/mol
# Density = 1.914629 g / cm^3
# Si number density = 19.189964 Si / 1000 Ang^3
#
#
#
# Elastic Constant Matrix: (Units=GPa)
#
#
# Indices 1 2 3 4 5 6 
#
# 1 108.2180 38.8688 75.8005 0.0000 -3.9547 0.0000
# 2 38.8688 55.7547 42.9126 0.0000 1.3967 0.0000
# 3 75.8005 42.9126 176.7505 0.0000 -6.8373 0.0000
# 4 0.0000 0.0000 0.0000 19.2659 0.0000 -6.3569
# 5 -3.9547 1.3967 -6.8373 0.0000 38.6989 0.0000
# 6 0.0000 0.0000 0.0000 -6.3569 0.0000 24.7343
#
#
#
# Elastic Compliance Matrix: (Units=1/GPa)
#
#
# Indices 1 2 3 4 5 6 
#
# 1 0.015078 -0.006870 -0.004762 0.000000 0.000948 0.000000
# 2 -0.006870 0.025307 -0.003283 0.000000 -0.002195 0.000000
# 3 -0.004762 -0.003283 0.008541 0.000000 0.001141 0.000000
# 4 0.000000 0.000000 0.000000 0.056715 0.000000 0.014576
# 5 0.000948 -0.002195 0.001141 0.000000 0.026218 0.000000
# 6 0.000000 0.000000 0.000000 0.014576 0.000000 0.044176
#
#
# Mechanical properties :
#
#
# Convention : Reuss Voigt Hill
#
# Bulk Modulus (GPa) = 52.36576 72.87633 62.62105
# Shear Modulus (GPa) = 23.55935 28.74923 26.15429
#
# Velocity S-wave (km/s) = 3.50764 3.87478 3.69577
# Velocity P-wave (km/s) = 6.61454 7.62084 7.13545
#
# Compressibility (1/GPa) = 0.01909645
#
# Stress axis : x y z
#
# Youngs Moduli (GPa) = 66.32112 39.51482 117.08397
#
# Poissons Ratio (x) = 0.27148 0.55751
# Poissons Ratio (y) = 0.45565 0.38435
# Poissons Ratio (z) = 0.31580 0.12971
#
# Static dielectric constant tensor:
#      x y z
#    x 3.098650 0.000000 0.391660 
#    y 0.000000 3.093830 0.000000 
#    z 0.391660 0.000000 3.445310 
# 
# 
# High freq. dielectric constant tensor:
#      x y z
#    x 1.746510 0.000000 0.000200 
#    y 0.000000 1.703830 0.000000 
#    z 0.000200 0.000000 1.771830 
# 
# From -- ./inp_files/314116.got.cif
#   From: 2010.06.25/outbox.cif.g09.slc.cpg/sg12_158_cif.got.tgz:314116.got - 2010.06.28 00:19:55.
