data_PCOD8097012
_publ_section_title
;
Structure prediction by ZEFSAII (Michael W. Deem and Ramdas Pophale) SiO2 
 PCOD8097012
Probable space group: C 2/M
;
_chemical_formula_sum "Si O2"
_cell_formula_units_Z 56
_cell_length_a 15.251901
_cell_length_b 13.692438
_cell_length_c 16.976191
_cell_angle_alpha 90.000000
_cell_angle_beta 130.201135
_cell_angle_gamma 90.000000
_cell_volume 2707.790992
_symmetry_space_group_name_H-M "C 2/M"
_symmetry_group_IT_number 12
_symmetry_cell_setting 'monoclinic'
loop_
_space_group_symop_operation_xyz
x,y,z
-x,y,-z
-x,-y,-z
x,-y,z
1/2+x,1/2+y,z
1/2-x,1/2+y,-z
1/2-x,1/2-y,-z
1/2+x,1/2-y,z
loop_
_atom_site_type_symbol
_atom_site_label
_atom_site_fract_x
_atom_site_fract_y
_atom_site_fract_z
Si Si1 0.066192 0.268530 0.460040
Si Si2 0.371389 0.885669 0.267887
Si Si3 0.968746 0.112253 0.681433
Si Si4 0.075715 0.606408 0.121222
Si Si5 0.776675 0.882941 0.138506
Si Si6 0.253450 0.388508 0.650807
Si Si7 0.866296 0.617261 0.090497
O O1 0.089005 0.170395 0.424010
O O2 0.185719 0.319434 0.551077
O O3 0.000000 0.237485 0.500000
O O4 0.992406 0.343160 0.365388
O O5 0.271387 0.859724 0.272729
O O6 0.335962 0.844341 0.160804
O O7 0.390348 0.000000 0.271561
O O8 0.888871 0.123310 0.712542
O O9 0.094502 0.156209 0.773687
O O10 0.977676 0.000000 0.660316
O O11 0.109656 0.500000 0.174487
O O12 0.195129 0.658680 0.162852
O O13 0.993871 0.658905 0.138961
O O14 0.000000 0.593157 0.000000
O O15 0.773496 0.000000 0.137961
O O16 0.731395 0.845514 0.027070
O O17 0.212881 0.500000 0.612544
O O18 0.871468 0.500000 0.089774
#
# Coordination Sequence:
#
# PCOD8097012 Si02
#       7
#     8   8   8   8   8   8   8
#     4  10  20  35  54  74  97 128 167 218 265 298
#     4   9  17  31  53  79 101 125 166 215 257 295
#     4  10  20  34  52  74 103 140 172 199 247 313
#     4   7  10  19  38  64  95 131 165 196 235 282
#     4   8  14  26  44  68 102 139 169 199 242 299
#     4   9  18  34  55  76 100 132 170 211 255 303
#     4   8  13  24  45  73 102 131 167 210 247 284
#
# _framework density 20.681063999999999
#
# number of rings (size 3 to 8) (size 9 to 14) (size 15 to 20)
#    0.000    3.286    0.000    2.571    0.000    2.000 
#    0.000    5.714    0.000    7.714    0.000    0.000 
#    0.000    0.000    0.000    0.000    0.000    7.429 
#
# Total GULP energy -346909.769465 kJ/mol
# GULP energy per Si atom -12389.634624 kJ/mol
# Density = 2.063399 g / cm^3
# Si number density = 20.681064 Si / 1000 Ang^3
#
#
#
# Elastic Constant Matrix: (Units=GPa)
#
#
# Indices 1 2 3 4 5 6 
#
# 1 150.6381 30.8043 81.4825 0.0000 4.3650 0.0000
# 2 30.8043 37.4571 28.9632 0.0000 -4.0417 0.0000
# 3 81.4825 28.9632 102.9772 0.0000 -8.1621 0.0000
# 4 0.0000 0.0000 0.0000 20.8270 0.0000 -4.4934
# 5 4.3650 -4.0417 -8.1621 0.0000 35.5708 0.0000
# 6 0.0000 0.0000 0.0000 -4.4934 0.0000 13.2584
#
#
#
# Elastic Compliance Matrix: (Units=1/GPa)
#
#
# Indices 1 2 3 4 5 6 
#
# 1 0.012441 -0.003588 -0.009155 0.000000 -0.004035 0.000000
# 2 -0.003588 0.035254 -0.006849 0.000000 0.002874 0.000000
# 3 -0.009155 -0.006849 0.019259 0.000000 0.004764 0.000000
# 4 0.000000 0.000000 0.000000 0.051802 0.000000 0.017556
# 5 -0.004035 0.002874 0.004764 0.000000 0.030028 0.000000
# 6 0.000000 0.000000 0.000000 0.017556 0.000000 0.081374
#
#
# Mechanical properties :
#
#
# Convention : Reuss Voigt Hill
#
# Bulk Modulus (GPa) = 36.00921 63.73025 49.86973
# Shear Modulus (GPa) = 17.94709 23.91942 20.93325
#
# Velocity S-wave (km/s) = 2.94905 3.40455 3.18495
# Velocity P-wave (km/s) = 5.38937 6.80715 6.13932
#
# Compressibility (1/GPa) = 0.02777067
#
# Stress axis : x y z
#
# Youngs Moduli (GPa) = 80.37887 28.36592 51.92456
#
# Poissons Ratio (x) = 0.10177 0.47537
# Poissons Ratio (y) = 0.28839 0.35561
# Poissons Ratio (z) = 0.73586 0.19426
#
# Static dielectric constant tensor:
#      x y z
#    x 4.163730 0.000000 -0.073520 
#    y 0.000000 3.389990 0.000000 
#    z -0.073520 0.000000 3.608730 
# 
# 
# High freq. dielectric constant tensor:
#      x y z
#    x 1.820460 0.000000 -0.002650 
#    y 0.000000 1.788900 0.000000 
#    z -0.002650 0.000000 1.781360 
# 
# From -- ./inp_files/270379.got.cif
#   From: 2010.06.25/outbox.cif.g09.slc.cpg/sg12_136_cif.got.tgz:270379.got - 2010.06.28 00:19:55.
