data_PCOD8097971
_publ_section_title
;
Structure prediction by ZEFSAII (Michael W. Deem and Ramdas Pophale) SiO2 
 PCOD8097971
Probable space group: C 2/M
;
_chemical_formula_sum "Si O2"
_cell_formula_units_Z 56
_cell_length_a 10.811542
_cell_length_b 18.268084
_cell_length_c 13.839987
_cell_angle_alpha 90.000000
_cell_angle_beta 108.045344
_cell_angle_gamma 90.000000
_cell_volume 2599.027182
_symmetry_space_group_name_H-M "C 2/M"
_symmetry_group_IT_number 12
_symmetry_cell_setting 'monoclinic'
loop_
_space_group_symop_operation_xyz
x,y,z
-x,y,-z
-x,-y,-z
x,-y,z
1/2+x,1/2+y,z
1/2-x,1/2+y,-z
1/2-x,1/2-y,-z
1/2+x,1/2-y,z
loop_
_atom_site_type_symbol
_atom_site_label
_atom_site_fract_x
_atom_site_fract_y
_atom_site_fract_z
Si Si1 0.656747 0.655685 0.532668
Si Si2 0.643787 0.176698 0.072930
Si Si3 0.651317 0.344462 0.043070
Si Si4 0.969927 0.081536 0.665328
Si Si5 0.753800 0.414948 0.248810
Si Si6 0.631609 0.183092 0.576302
Si Si7 0.755204 0.581617 0.738739
O O1 0.529782 0.627156 0.436713
O O2 0.625781 0.729027 0.586195
O O3 0.750070 0.665162 0.464352
O O4 0.734871 0.600256 0.620714
O O5 0.653541 0.263526 0.089390
O O6 0.655317 0.138154 0.180495
O O7 0.500000 0.155221 0.000000
O O8 0.765140 0.151268 0.035490
O O9 0.729461 0.399649 0.130892
O O10 0.500000 0.369864 0.000000
O O11 0.875939 0.109140 0.726126
O O12 0.110872 0.084129 0.749160
O O13 0.929221 0.000000 0.624171
O O14 0.793467 0.500000 0.272474
O O15 0.860853 0.359436 0.318980
O O16 0.500000 0.152521 0.500000
O O17 0.815795 0.500000 0.761490
#
# Coordination Sequence:
#
# PCOD8097971 Si02
#       7
#     8   8   8   8   8   8   8
#     4  10  20  34  55  81 108 142 183 223 267 322
#     4  10  23  40  57  83 115 144 183 233 278 327
#     4  10  21  40  64  83 105 144 189 233 280 327
#     4   9  18  33  54  84 115 140 177 228 272 315
#     4  10  21  36  56  82 110 141 181 229 275 323
#     4  10  21  36  54  78 109 144 181 221 265 322
#     4  11  21  34  56  82 112 148 179 218 275 332
#
# _framework density 21.546524000000002
#
# number of rings (size 3 to 8) (size 9 to 14) (size 15 to 20)
#    0.000    2.000    0.000    3.429    0.000    4.286 
#    0.000    5.714    0.000    0.000    0.000    0.000 
#    0.000    0.000    0.000    0.000    0.000    0.000 
#
# Total GULP energy -346985.257076 kJ/mol
# GULP energy per Si atom -12392.330610 kJ/mol
# Density = 2.149748 g / cm^3
# Si number density = 21.546524 Si / 1000 Ang^3
#
#
#
# Elastic Constant Matrix: (Units=GPa)
#
#
# Indices 1 2 3 4 5 6 
#
# 1 53.2529 0.0938 12.4121 0.0000 12.3799 0.0000
# 2 0.0938 92.8016 50.3443 0.0000 6.5693 0.0000
# 3 12.4121 50.3443 110.6686 0.0000 16.3060 0.0000
# 4 0.0000 0.0000 0.0000 40.0663 0.0000 1.7010
# 5 12.3799 6.5693 16.3060 0.0000 31.1444 0.0000
# 6 0.0000 0.0000 0.0000 1.7010 0.0000 20.8594
#
#
#
# Elastic Compliance Matrix: (Units=1/GPa)
#
#
# Indices 1 2 3 4 5 6 
#
# 1 0.021011 0.001576 -0.001944 0.000000 -0.007667 0.000000
# 2 0.001576 0.014430 -0.006718 0.000000 -0.000153 0.000000
# 3 -0.001944 -0.006718 0.012990 0.000000 -0.004611 0.000000
# 4 0.000000 0.000000 0.000000 0.025045 0.000000 -0.002042
# 5 -0.007667 -0.000153 -0.004611 0.000000 0.037602 0.000000
# 6 0.000000 0.000000 0.000000 -0.002042 0.000000 0.048107
#
#
# Mechanical properties :
#
#
# Convention : Reuss Voigt Hill
#
# Bulk Modulus (GPa) = 29.19060 42.49149 35.84105
# Shear Modulus (GPa) = 27.05977 31.33888 29.19932
#
# Velocity S-wave (km/s) = 3.54768 3.81790 3.68526
# Velocity P-wave (km/s) = 5.50985 6.26089 5.89734
#
# Compressibility (1/GPa) = 0.03425760
#
# Stress axis : x y z
#
# Youngs Moduli (GPa) = 47.59439 69.30202 76.98410
#
# Poissons Ratio (x) = -0.10922 0.14964
# Poissons Ratio (y) = -0.07501 0.51721
# Poissons Ratio (z) = 0.09251 0.46560
#
# Static dielectric constant tensor:
#      x y z
#    x 3.987450 0.000000 0.136670 
#    y 0.000000 3.900440 0.000000 
#    z 0.136670 0.000000 3.721930 
# 
# 
# High freq. dielectric constant tensor:
#      x y z
#    x 1.848100 0.000000 0.002780 
#    y 0.000000 1.841080 0.000000 
#    z 0.002780 0.000000 1.843280 
# 
# From -- ./inp_files/206738.got.cif
#   From: 2010.06.25/outbox.cif.g09.slc.cpg/sg12_104_cif.got.tgz:206738.got - 2010.06.28 00:19:55.
