data_PCOD8097517
_publ_section_title
;
Structure prediction by ZEFSAII (Michael W. Deem and Ramdas Pophale) SiO2 
 PCOD8097517
Probable space group: C 2/M
;
_chemical_formula_sum "Si O2"
_cell_formula_units_Z 56
_cell_length_a 18.727055
_cell_length_b 17.307773
_cell_length_c 9.516917
_cell_angle_alpha 90.000000
_cell_angle_beta 113.875854
_cell_angle_gamma 90.000000
_cell_volume 2820.686791
_symmetry_space_group_name_H-M "C 2/M"
_symmetry_group_IT_number 12
_symmetry_cell_setting 'monoclinic'
loop_
_space_group_symop_operation_xyz
x,y,z
-x,y,-z
-x,-y,-z
x,-y,z
1/2+x,1/2+y,z
1/2-x,1/2+y,-z
1/2-x,1/2-y,-z
1/2+x,1/2-y,z
loop_
_atom_site_type_symbol
_atom_site_label
_atom_site_fract_x
_atom_site_fract_y
_atom_site_fract_z
Si Si1 0.792523 0.331230 0.057784
Si Si2 0.425220 0.352404 0.851243
Si Si3 0.210975 0.408396 0.366408
Si Si4 0.087979 0.675402 0.084498
Si Si5 0.511538 0.588152 0.673022
Si Si6 0.821188 0.911348 0.216843
Si Si7 0.746610 0.410298 0.284962
O O1 0.799436 0.354620 0.227039
O O2 0.750000 0.250000 0.000000
O O3 0.874199 0.333164 0.040489
O O4 0.739220 0.400421 0.956446
O O5 0.409385 0.263931 0.869692
O O6 0.447523 0.362104 0.705089
O O7 0.345822 0.399220 0.818346
O O8 0.500000 0.384248 0.000000
O O9 0.202893 0.500000 0.344433
O O10 0.131676 0.371703 0.241880
O O11 0.283679 0.377057 0.330292
O O12 0.228550 0.383388 0.539322
O O13 0.000000 0.643987 0.000000
O O14 0.500000 0.593672 0.500000
O O15 0.504738 0.500000 0.721634
O O16 0.597055 0.627064 0.764985
O O17 0.841015 0.000000 0.260326
O O18 0.767563 0.500000 0.278504
#
# Coordination Sequence:
#
# PCOD8097517 Si02
#       7
#     8   8   8   8   8   8   8
#     4  11  21  38  57  83 115 152 193 243 286 349
#     4  11  22  36  55  87 127 161 196 235 290 358
#     4   9  20  40  63  88 115 152 206 254 297 348
#     4  10  23  42  61  86 120 156 199 243 298 359
#     4  10  20  34  53  83 121 157 191 230 280 345
#     4   9  18  34  57  81 113 155 196 233 280 348
#     4  11  22  38  62  90 118 153 199 252 299 352
#
# _framework density 19.853321000000001
#
# number of rings (size 3 to 8) (size 9 to 14) (size 15 to 20)
#    0.000    1.857    1.429    2.571    2.000    6.000 
#    2.571    0.714    0.000    1.714    0.000    0.000 
#    0.000    0.000    0.000    0.000    0.000    0.000 
#
# Total GULP energy -347072.960056 kJ/mol
# GULP energy per Si atom -12395.462859 kJ/mol
# Density = 1.980813 g / cm^3
# Si number density = 19.853321 Si / 1000 Ang^3
#
#
#
# Elastic Constant Matrix: (Units=GPa)
#
#
# Indices 1 2 3 4 5 6 
#
# 1 141.4723 30.4773 46.1067 0.0000 -10.3824 0.0000
# 2 30.4773 45.4773 28.2623 0.0000 -7.8977 0.0000
# 3 46.1067 28.2623 96.0403 0.0000 -15.4612 0.0000
# 4 0.0000 0.0000 0.0000 18.4204 0.0000 2.5238
# 5 -10.3824 -7.8977 -15.4612 0.0000 36.2335 0.0000
# 6 0.0000 0.0000 0.0000 2.5238 0.0000 24.9260
#
#
#
# Elastic Compliance Matrix: (Units=1/GPa)
#
#
# Indices 1 2 3 4 5 6 
#
# 1 0.008962 -0.004043 -0.003051 0.000000 0.000385 0.000000
# 2 -0.004043 0.028977 -0.006180 0.000000 0.002520 0.000000
# 3 -0.003051 -0.006180 0.014322 0.000000 0.003890 0.000000
# 4 0.000000 0.000000 0.000000 0.055051 0.000000 -0.005574
# 5 0.000385 0.002520 0.003890 0.000000 0.029918 0.000000
# 6 0.000000 0.000000 0.000000 -0.005574 0.000000 0.040683
#
#
# Mechanical properties :
#
#
# Convention : Reuss Voigt Hill
#
# Bulk Modulus (GPa) = 38.89191 54.74249 46.81720
# Shear Modulus (GPa) = 23.47045 27.79221 25.63133
#
# Velocity S-wave (km/s) = 3.44203 3.74555 3.59700
# Velocity P-wave (km/s) = 5.95222 6.80727 6.39405
#
# Compressibility (1/GPa) = 0.02571229
#
# Stress axis : x y z
#
# Youngs Moduli (GPa) = 111.58166 34.50974 69.82339
#
# Poissons Ratio (x) = 0.13953 0.21301
# Poissons Ratio (y) = 0.45116 0.43154
# Poissons Ratio (z) = 0.34040 0.21329
#
# Static dielectric constant tensor:
#      x y z
#    x 3.978070 0.000000 -0.098810 
#    y 0.000000 3.428190 0.000000 
#    z -0.098810 0.000000 3.750970 
# 
# 
# High freq. dielectric constant tensor:
#      x y z
#    x 1.780190 0.000000 -0.014620 
#    y 0.000000 1.756810 0.000000 
#    z -0.014620 0.000000 1.774510 
# 
# From -- ./inp_files/75894.got.cif
#   From: 2010.06.25/outbox.cif.g09.slc.cpg/sg12_38_cif.got.tgz:75894.got - 2010.06.28 00:19:55.
