data_PCOD8097653
_publ_section_title
;
Structure prediction by ZEFSAII (Michael W. Deem and Ramdas Pophale) SiO2 
 PCOD8097653
Probable space group: C 2/M
;
_chemical_formula_sum "Si O2"
_cell_formula_units_Z 56
_cell_length_a 18.139451
_cell_length_b 8.889983
_cell_length_c 22.558095
_cell_angle_alpha 90.000000
_cell_angle_beta 52.544005
_cell_angle_gamma 90.000000
_cell_volume 2887.685454
_symmetry_space_group_name_H-M "C 2/M"
_symmetry_group_IT_number 12
_symmetry_cell_setting 'monoclinic'
loop_
_space_group_symop_operation_xyz
x,y,z
-x,y,-z
-x,-y,-z
x,-y,z
1/2+x,1/2+y,z
1/2-x,1/2+y,-z
1/2-x,1/2-y,-z
1/2+x,1/2-y,z
loop_
_atom_site_type_symbol
_atom_site_label
_atom_site_fract_x
_atom_site_fract_y
_atom_site_fract_z
Si Si1 0.012696 0.325515 0.369465
Si Si2 0.839305 0.829001 0.930583
Si Si3 0.631130 0.824191 0.775006
Si Si4 0.327213 0.677535 0.503382
Si Si5 0.808720 0.325059 0.638351
Si Si6 0.958249 0.675143 0.779156
Si Si7 0.515172 0.672313 0.926227
O O1 0.982463 0.500000 0.385519
O O2 0.098471 0.294217 0.370306
O O3 0.039466 0.275049 0.290191
O O4 0.928555 0.224870 0.432669
O O5 0.872527 0.758413 0.852259
O O6 0.918361 0.810543 0.940552
O O7 0.813790 0.000000 0.930143
O O8 0.750000 0.750000 0.000000
O O9 0.722509 0.726938 0.719831
O O10 0.556325 0.781295 0.761038
O O11 0.592109 0.777629 0.858264
O O12 0.655236 0.000000 0.762493
O O13 0.316940 0.500000 0.504713
O O14 0.250000 0.750000 0.500000
O O15 0.310828 0.728094 0.578247
O O16 0.798868 0.500000 0.626919
O O17 0.938643 0.500000 0.795985
O O18 0.550447 0.500000 0.908105
O O19 0.500000 0.730970 0.000000
#
# Coordination Sequence:
#
# PCOD8097653 Si02
#       7
#     8   8   8   8   8   8   8
#     4  10  22  40  61  86 117 152 189 232 283 337
#     4  10  20  34  54  79 108 142 182 229 278 332
#     4  10  20  35  57  83 112 147 189 237 285 337
#     4  12  25  41  63  88 116 151 191 234 280 335
#     4  11  23  39  60  86 118 153 189 232 282 337
#     4   9  19  37  58  79 107 145 187 229 276 332
#     4   9  19  36  56  77 105 145 190 233 281 339
#
# _framework density 19.392693000000001
#
# number of rings (size 3 to 8) (size 9 to 14) (size 15 to 20)
#    0.000    1.857    0.000    3.857    0.000    7.143 
#    0.000    5.714    0.000    0.000    0.000    0.000 
#    0.000    0.000    0.000    0.000    0.000    0.000 
#
# Total GULP energy -347341.995471 kJ/mol
# GULP energy per Si atom -12405.071267 kJ/mol
# Density = 1.934855 g / cm^3
# Si number density = 19.392693 Si / 1000 Ang^3
#
#
#
# Elastic Constant Matrix: (Units=GPa)
#
#
# Indices 1 2 3 4 5 6 
#
# 1 87.3233 52.5636 63.0931 -0.0001 4.4702 -0.0001
# 2 52.5636 105.9657 66.5417 -0.0001 -11.0771 0.0000
# 3 63.0931 66.5417 142.6108 0.0000 -1.3432 0.0000
# 4 -0.0001 -0.0001 0.0000 36.8505 0.0000 0.6519
# 5 4.4702 -11.0771 -1.3432 0.0000 40.1870 0.0000
# 6 -0.0001 0.0000 0.0000 0.6519 0.0000 28.0469
#
#
#
# Elastic Compliance Matrix: (Units=1/GPa)
#
#
# Indices 1 2 3 4 5 6 
#
# 1 0.019803 -0.006704 -0.005673 0.000000 -0.004240 0.000000
# 2 -0.006704 0.016120 -0.004508 0.000000 0.005038 0.000000
# 3 -0.005673 -0.004508 0.011623 0.000000 -0.000223 0.000000
# 4 0.000000 0.000000 0.000000 0.027148 0.000000 -0.000631
# 5 -0.004240 0.005038 -0.000223 0.000000 0.026737 0.000000
# 6 0.000000 0.000000 0.000000 -0.000631 0.000000 0.035669
#
#
# Mechanical properties :
#
#
# Convention : Reuss Voigt Hill
#
# Bulk Modulus (GPa) = 72.58977 77.81074 75.20025
# Shear Modulus (GPa) = 28.49603 31.26362 29.87983
#
# Velocity S-wave (km/s) = 3.83746 4.01950 3.92953
# Velocity P-wave (km/s) = 7.55960 7.85828 7.71039
#
# Compressibility (1/GPa) = 0.01377605
#
# Stress axis : x y z
#
# Youngs Moduli (GPa) = 50.49699 62.03424 86.03387
#
# Poissons Ratio (x) = 0.41588 0.48808
# Poissons Ratio (y) = 0.33854 0.38785
# Poissons Ratio (z) = 0.28647 0.27966
#
# Static dielectric constant tensor:
#      x y z
#    x 3.673670 0.000000 0.221430 
#    y 0.000000 3.568910 0.000000 
#    z 0.221430 0.000000 4.219660 
# 
# 
# High freq. dielectric constant tensor:
#      x y z
#    x 1.754110 0.000000 0.002000 
#    y 0.000000 1.759120 0.000000 
#    z 0.002000 0.000000 1.770710 
# 
# From -- ./inp_files/275641.got.cif
#   From: 2010.06.25/outbox.cif.g09.slc.cpg/sg12_138_cif.got.tgz:275641.got - 2010.06.28 00:19:55.
