data_PCOD8097303
_publ_section_title
;
Structure prediction by ZEFSAII (Michael W. Deem and Ramdas Pophale) SiO2 
 PCOD8097303
Probable space group: C 2/M
;
_chemical_formula_sum "Si O2"
_cell_formula_units_Z 64
_cell_length_a 14.543026
_cell_length_b 9.620836
_cell_length_c 29.747578
_cell_angle_alpha 90.000000
_cell_angle_beta 119.998304
_cell_angle_gamma 90.000000
_cell_volume 3604.601488
_symmetry_space_group_name_H-M "C 2/M"
_symmetry_group_IT_number 12
_symmetry_cell_setting 'monoclinic'
loop_
_space_group_symop_operation_xyz
x,y,z
-x,y,-z
-x,-y,-z
x,-y,z
1/2+x,1/2+y,z
1/2-x,1/2+y,-z
1/2-x,1/2-y,-z
1/2+x,1/2-y,z
loop_
_atom_site_type_symbol
_atom_site_label
_atom_site_fract_x
_atom_site_fract_y
_atom_site_fract_z
Si Si1 0.386178 0.157771 0.769395
Si Si2 0.264905 0.338421 0.131094
Si Si3 0.465476 0.837856 0.692504
Si Si4 0.663329 0.839750 0.426407
Si Si5 0.562443 0.660045 0.059010
Si Si6 0.162546 0.157951 0.753039
Si Si7 0.523305 0.342608 0.866501
Si Si8 0.401459 0.337936 0.507277
O O1 0.416792 0.213177 0.727768
O O2 0.259929 0.168706 0.742582
O O3 0.439481 0.246404 0.821236
O O4 0.424635 0.000000 0.785633
O O5 0.232565 0.500000 0.125203
O O6 0.166131 0.251332 0.090284
O O7 0.303405 0.287206 0.189437
O O8 0.357285 0.306976 0.118175
O O9 0.380569 0.802726 0.633371
O O10 0.572463 0.753600 0.709630
O O11 0.493528 0.000000 0.700058
O O12 0.598640 0.747934 0.446487
O O13 0.789230 0.807334 0.455351
O O14 0.643389 0.000000 0.434304
O O15 0.597567 0.500000 0.062260
O O16 0.484579 0.680716 0.082224
O O17 0.500000 0.712657 0.000000
O O18 0.120665 0.000000 0.746716
O O19 0.494873 0.500000 0.845883
O O20 0.500000 0.289393 0.500000
O O21 0.414139 0.500000 0.522359
#
# Coordination Sequence:
#
# PCOD8097303 Si02
#       8
#     8   8   8   8   8   8   8   8
#     4  10  20  34  53  77 104 137 176 214 257 311
#     4  10  20  35  55  79 104 134 173 216 264 313
#     4  10  21  35  52  77 110 143 175 215 263 313
#     4   9  19  35  52  77 112 142 174 220 266 312
#     4  10  22  38  55  78 106 137 175 219 267 320
#     4  10  20  34  53  78 106 137 176 219 260 312
#     4  10  20  35  55  76 104 137 170 214 264 314
#     4   9  18  34  58  82 104 140 185 222 264 314
#
# _framework density 17.755082999999999
#
# number of rings (size 3 to 8) (size 9 to 14) (size 15 to 20)
#    0.000    2.250    2.500    0.000    0.000    4.000 
#    0.000    2.500    0.000    0.000    0.000    0.000 
#    0.000    0.000    0.000    0.000    0.000    0.000 
#
# Total GULP energy -396880.499360 kJ/mol
# GULP energy per Si atom -12402.515605 kJ/mol
# Density = 1.771467 g / cm^3
# Si number density = 17.755083 Si / 1000 Ang^3
#
#
#
# Elastic Constant Matrix: (Units=GPa)
#
#
# Indices 1 2 3 4 5 6 
#
# 1 99.8422 33.6773 27.1624 0.0000 0.1464 0.0000
# 2 33.6773 50.1829 35.8733 0.0000 6.1840 0.0000
# 3 27.1624 35.8733 90.0897 0.0000 5.4518 0.0000
# 4 0.0000 0.0000 0.0000 29.5858 0.0000 4.2349
# 5 0.1464 6.1840 5.4518 0.0000 24.5147 0.0000
# 6 0.0000 0.0000 0.0000 4.2349 0.0000 30.0133
#
#
#
# Elastic Compliance Matrix: (Units=1/GPa)
#
#
# Indices 1 2 3 4 5 6 
#
# 1 0.013089 -0.008585 -0.000663 0.000000 0.002235 0.000000
# 2 -0.008585 0.034014 -0.010582 0.000000 -0.006176 0.000000
# 3 -0.000663 -0.010582 0.015561 0.000000 -0.000787 0.000000
# 4 0.000000 0.000000 0.000000 0.034497 0.000000 -0.004868
# 5 0.002235 -0.006176 -0.000787 0.000000 0.042512 0.000000
# 6 0.000000 0.000000 0.000000 -0.004868 0.000000 0.034005
#
#
# Mechanical properties :
#
#
# Convention : Reuss Voigt Hill
#
# Bulk Modulus (GPa) = 43.47122 48.17119 45.82120
# Shear Modulus (GPa) = 22.62378 26.38289 24.50333
#
# Velocity S-wave (km/s) = 3.57349 3.85896 3.71897
# Velocity P-wave (km/s) = 6.44697 6.85896 6.65615
#
# Compressibility (1/GPa) = 0.02300373
#
# Stress axis : x y z
#
# Youngs Moduli (GPa) = 76.40155 29.39942 64.26197
#
# Poissons Ratio (x) = 0.25240 0.04260
# Poissons Ratio (y) = 0.65593 0.68003
# Poissons Ratio (z) = 0.05065 0.31111
#
# Static dielectric constant tensor:
#      x y z
#    x 3.392580 0.000000 -0.106730 
#    y 0.000000 3.293450 0.000000 
#    z -0.106730 0.000000 3.238500 
# 
# 
# High freq. dielectric constant tensor:
#      x y z
#    x 1.694520 0.000000 -0.005220 
#    y 0.000000 1.684560 0.000000 
#    z -0.005220 0.000000 1.680400 
# 
# From -- ./inp_files/359866.got.cif
#   From: 2010.06.25/outbox.cif.g09.slc.cpg/sg12_180_cif.got.tgz:359866.got - 2010.06.28 00:19:55.
