data_PCOD8097101
_publ_section_title
;
Structure prediction by ZEFSAII (Michael W. Deem and Ramdas Pophale) SiO2 
 PCOD8097101
Probable space group: C 2/M
;
_chemical_formula_sum "Si O2"
_cell_formula_units_Z 56
_cell_length_a 17.936933
_cell_length_b 10.490837
_cell_length_c 14.928801
_cell_angle_alpha 90.000000
_cell_angle_beta 84.883396
_cell_angle_gamma 90.000000
_cell_volume 2798.009905
_symmetry_space_group_name_H-M "C 2/M"
_symmetry_group_IT_number 12
_symmetry_cell_setting 'monoclinic'
loop_
_space_group_symop_operation_xyz
x,y,z
-x,y,-z
-x,-y,-z
x,-y,z
1/2+x,1/2+y,z
1/2-x,1/2+y,-z
1/2-x,1/2-y,-z
1/2+x,1/2-y,z
loop_
_atom_site_type_symbol
_atom_site_label
_atom_site_fract_x
_atom_site_fract_y
_atom_site_fract_z
Si Si1 0.180985 0.348575 0.009539
Si Si2 0.277751 0.855228 0.315545
Si Si3 0.015026 0.864742 0.601309
Si Si4 0.622900 0.225743 0.340419
Si Si5 0.565461 0.858633 0.167209
Si Si6 0.117096 0.358752 0.544462
Si Si7 0.900883 0.647857 0.167377
O O1 0.205147 0.500000 0.015878
O O2 0.131517 0.327835 0.926889
O O3 0.250000 0.250000 0.000000
O O4 0.129062 0.298197 0.096760
O O5 0.205273 0.771181 0.308547
O O6 0.301206 0.850564 0.418231
O O7 0.343257 0.794852 0.246734
O O8 0.259725 0.000000 0.288166
O O9 0.067676 0.741896 0.605711
O O10 0.000000 0.883983 0.500000
O O11 0.935266 0.842987 0.657473
O O12 0.049028 0.000000 0.634545
O O13 0.596476 0.131336 0.265159
O O14 0.621208 0.161004 0.438074
O O15 0.483984 0.788193 0.168939
O O16 0.553045 0.000000 0.130511
O O17 0.082893 0.500000 0.565054
O O18 0.909081 0.500000 0.190126
#
# Coordination Sequence:
#
# PCOD8097101 Si02
#       7
#     8   8   8   8   8   8   8
#     4  10  20  36  60  87 113 142 178 222 272 322
#     4  10  20  34  52  76 106 142 184 228 272 321
#     4   9  19  34  52  74 103 140 178 219 268 321
#     4  11  20  32  52  78 111 144 179 222 274 327
#     4  10  20  34  55  83 112 143 182 225 267 318
#     4  10  21  36  55  78 106 143 185 228 272 319
#     4   9  18  34  56  80 107 142 184 225 266 318
#
# _framework density 20.014223999999999
#
# number of rings (size 3 to 8) (size 9 to 14) (size 15 to 20)
#    0.000    2.143    0.000    3.429    0.000    6.571 
#    0.000    2.143    0.000    7.714    0.000    0.000 
#    0.000    0.000    0.000    0.000    0.000    0.000 
#
# Total GULP energy -346883.159664 kJ/mol
# GULP energy per Si atom -12388.684274 kJ/mol
# Density = 1.996867 g / cm^3
# Si number density = 20.014224 Si / 1000 Ang^3
#
#
#
# Elastic Constant Matrix: (Units=GPa)
#
#
# Indices 1 2 3 4 5 6 
#
# 1 157.3035 54.9541 52.1212 0.0000 -14.4390 0.0000
# 2 54.9541 98.5372 15.9887 0.0000 -5.4950 0.0000
# 3 52.1212 15.9887 107.2023 0.0000 -1.7047 0.0000
# 4 0.0000 0.0000 0.0000 24.4308 0.0000 -1.9932
# 5 -14.4390 -5.4950 -1.7047 0.0000 36.9035 0.0000
# 6 0.0000 0.0000 0.0000 -1.9932 0.0000 25.1414
#
#
#
# Elastic Compliance Matrix: (Units=1/GPa)
#
#
# Indices 1 2 3 4 5 6 
#
# 1 0.009480 -0.004496 -0.003893 0.000000 0.002860 0.000000
# 2 -0.004496 0.012613 0.000307 0.000000 0.000133 0.000000
# 3 -0.003893 0.000307 0.011160 0.000000 -0.000962 0.000000
# 4 0.000000 0.000000 0.000000 0.041198 0.000000 0.003266
# 5 0.002860 0.000133 -0.000962 0.000000 0.028192 0.000000
# 6 0.000000 0.000000 0.000000 0.003266 0.000000 0.040034
#
#
# Mechanical properties :
#
#
# Convention : Reuss Voigt Hill
#
# Bulk Modulus (GPa) = 58.51736 67.68567 63.10152
# Shear Modulus (GPa) = 30.38784 33.29373 31.84079
#
# Velocity S-wave (km/s) = 3.90078 4.08303 3.99295
# Velocity P-wave (km/s) = 7.04198 7.49136 7.27014
#
# Compressibility (1/GPa) = 0.01708895
#
# Stress axis : x y z
#
# Youngs Moduli (GPa) = 105.48173 79.28026 89.60584
#
# Poissons Ratio (x) = 0.35644 0.34886
# Poissons Ratio (y) = 0.47424 -0.02749
# Poissons Ratio (z) = 0.41067 -0.02432
#
# Static dielectric constant tensor:
#      x y z
#    x 3.762710 0.000000 -0.123620 
#    y 0.000000 3.852390 0.000000 
#    z -0.123620 0.000000 3.740980 
# 
# 
# High freq. dielectric constant tensor:
#      x y z
#    x 1.784470 0.000000 -0.003200 
#    y 0.000000 1.747780 0.000000 
#    z -0.003200 0.000000 1.784750 
# 
# From -- ./inp_files/213388.got.cif
#   From: 2010.06.25/outbox.cif.g09.slc.cpg/sg12_107_cif.got.tgz:213388.got - 2010.06.28 00:19:55.
