data_PCOD8097397
_publ_section_title
;
Structure prediction by ZEFSAII (Michael W. Deem and Ramdas Pophale) SiO2 
 PCOD8097397
Probable space group: C 2/M
;
_chemical_formula_sum "Si O2"
_cell_formula_units_Z 56
_cell_length_a 18.604834
_cell_length_b 8.991123
_cell_length_c 29.297667
_cell_angle_alpha 90.000000
_cell_angle_beta 142.671163
_cell_angle_gamma 90.000000
_cell_volume 2971.829342
_symmetry_space_group_name_H-M "C 2/M"
_symmetry_group_IT_number 12
_symmetry_cell_setting 'monoclinic'
loop_
_space_group_symop_operation_xyz
x,y,z
-x,y,-z
-x,-y,-z
x,-y,z
1/2+x,1/2+y,z
1/2-x,1/2+y,-z
1/2-x,1/2-y,-z
1/2+x,1/2-y,z
loop_
_atom_site_type_symbol
_atom_site_label
_atom_site_fract_x
_atom_site_fract_y
_atom_site_fract_z
Si Si1 0.753987 0.826482 0.370097
Si Si2 0.079868 0.826286 0.630321
Si Si3 0.720512 0.826424 0.938372
Si Si4 0.363608 0.829653 0.937472
Si Si5 0.328203 0.176791 0.500049
Si Si6 0.515155 0.826943 0.771280
Si Si7 0.342467 0.329791 0.231875
O O1 0.842149 0.781402 0.373981
O O2 0.780539 0.726414 0.426999
O O3 0.620898 0.790332 0.286450
O O4 0.768237 0.000000 0.390216
O O5 0.155666 0.787897 0.713797
O O6 0.963168 0.727457 0.572733
O O7 0.044925 0.000000 0.610517
O O8 0.823766 0.784359 0.955778
O O9 0.595303 0.768592 0.854049
O O10 0.717776 0.000000 0.945766
O O11 0.750000 0.750000 0.000000
O O12 0.289637 0.796789 0.853798
O O13 0.343323 0.000000 0.943049
O O14 0.500000 0.794873 0.000000
O O15 0.250000 0.250000 0.500000
O O16 0.319821 0.000000 0.500360
O O17 0.555719 0.756849 0.743978
O O18 0.537437 0.000000 0.776406
O O19 0.376793 0.500000 0.242437
#
# Coordination Sequence:
#
# PCOD8097397 Si02
#       7
#     8   8   8   8   8   8   8
#     4  10  21  38  59  83 112 143 176 218 268 318
#     4  10  21  37  57  82 112 143 176 218 267 317
#     4  10  20  34  53  78 109 143 181 224 269 318
#     4   9  18  33  54  79 108 142 180 223 270 320
#     4  12  25  40  59  82 109 142 181 221 264 317
#     4   9  19  35  55  78 105 141 181 221 266 318
#     4   9  18  33  54  79 106 140 181 222 265 317
#
# _framework density 18.843612
#
# number of rings (size 3 to 8) (size 9 to 14) (size 15 to 20)
#    0.000    2.143    0.000    3.000    0.000    7.714 
#    0.000    4.286    0.000    1.714    0.000    0.000 
#    0.000    0.000    0.000    0.000    0.000    0.000 
#
# Total GULP energy -347203.138294 kJ/mol
# GULP energy per Si atom -12400.112082 kJ/mol
# Density = 1.880072 g / cm^3
# Si number density = 18.843612 Si / 1000 Ang^3
#
#
#
# Elastic Constant Matrix: (Units=GPa)
#
#
# Indices 1 2 3 4 5 6 
#
# 1 143.2982 58.7536 87.4987 0.0000 -1.8066 0.0000
# 2 58.7536 74.1628 56.7810 0.0000 -3.5188 -0.0001
# 3 87.4987 56.7810 134.0887 0.0000 -5.7868 0.0000
# 4 0.0000 0.0000 0.0000 27.9133 0.0000 -1.6195
# 5 -1.8066 -3.5188 -5.7868 0.0000 40.4633 0.0000
# 6 0.0000 -0.0001 0.0000 -1.6195 0.0000 32.4578
#
#
#
# Elastic Compliance Matrix: (Units=1/GPa)
#
#
# Indices 1 2 3 4 5 6 
#
# 1 0.013045 -0.005665 -0.006147 0.000000 -0.000789 0.000000
# 2 -0.005665 0.022424 -0.005761 0.000000 0.000873 0.000000
# 3 -0.006147 -0.005761 0.013962 0.000000 0.001221 0.000000
# 4 0.000000 0.000000 0.000000 0.035929 0.000000 0.001793
# 5 -0.000789 0.000873 0.001221 0.000000 0.024929 0.000000
# 6 0.000000 0.000000 0.000000 0.001793 0.000000 0.030899
#
#
# Mechanical properties :
#
#
# Convention : Reuss Voigt Hill
#
# Bulk Modulus (GPa) = 70.01370 84.17957 77.09663
# Shear Modulus (GPa) = 27.60947 30.06797 28.83872
#
# Velocity S-wave (km/s) = 3.83193 3.99890 3.91631
# Velocity P-wave (km/s) = 7.53751 8.12966 7.83918
#
# Compressibility (1/GPa) = 0.01428292
#
# Stress axis : x y z
#
# Youngs Moduli (GPa) = 76.65747 44.59413 71.62506
#
# Poissons Ratio (x) = 0.25264 0.44031
# Poissons Ratio (y) = 0.43429 0.41265
# Poissons Ratio (z) = 0.47125 0.25692
#
# Static dielectric constant tensor:
#      x y z
#    x 2.014610 0.000000 1.141780 
#    y 0.000000 3.463610 0.000000 
#    z 1.141780 0.000000 2.873300 
# 
# 
# High freq. dielectric constant tensor:
#      x y z
#    x 1.728420 0.000000 -0.000420 
#    y 0.000000 1.726120 0.000000 
#    z -0.000420 0.000000 1.749100 
# 
# From -- ./inp_files/342327.got.cif
#   From: 2010.06.25/outbox.cif.g09.slc.cpg/sg12_172_cif.got.tgz:342327.got - 2010.06.28 00:19:55.
