data_PCOD8097667
_publ_section_title
;
Structure prediction by ZEFSAII (Michael W. Deem and Ramdas Pophale) SiO2 
 PCOD8097667
Probable space group: C 2/M
;
_chemical_formula_sum "Si O2"
_cell_formula_units_Z 56
_cell_length_a 14.975617
_cell_length_b 9.309518
_cell_length_c 21.896898
_cell_angle_alpha 90.000000
_cell_angle_beta 90.167512
_cell_angle_gamma 90.000000
_cell_volume 3052.759980
_symmetry_space_group_name_H-M "C 2/M"
_symmetry_group_IT_number 12
_symmetry_cell_setting 'monoclinic'
loop_
_space_group_symop_operation_xyz
x,y,z
-x,y,-z
-x,-y,-z
x,-y,z
1/2+x,1/2+y,z
1/2-x,1/2+y,-z
1/2-x,1/2-y,-z
1/2+x,1/2-y,z
loop_
_atom_site_type_symbol
_atom_site_label
_atom_site_fract_x
_atom_site_fract_y
_atom_site_fract_z
Si Si1 0.150399 0.167579 0.566374
Si Si2 0.486614 0.831808 0.354228
Si Si3 0.355032 0.164980 0.554958
Si Si4 0.504224 0.829492 0.215888
Si Si5 0.838058 0.668029 0.866483
Si Si6 0.847630 0.331769 0.131107
Si Si7 0.338506 0.162831 0.998944
O O1 0.096906 0.244099 0.620145
O O2 0.255192 0.195223 0.578726
O O3 0.120624 0.235024 0.501977
O O4 0.126977 0.000000 0.565194
O O5 0.577011 0.797161 0.390976
O O6 0.502207 0.777310 0.285551
O O7 0.463139 0.000000 0.356769
O O8 0.364947 0.000000 0.533572
O O9 0.593992 0.770608 0.184041
O O10 0.417667 0.769423 0.180197
O O11 0.504644 0.000000 0.210998
O O12 0.818571 0.500000 0.856158
O O13 0.745406 0.751033 0.859667
O O14 0.885707 0.693928 0.933597
O O15 0.830247 0.500000 0.141913
O O16 0.890380 0.304334 0.062750
O O17 0.307172 0.000000 0.000073
O O18 0.250000 0.250000 0.000000
#
# Coordination Sequence:
#
# PCOD8097667 Si02
#       7
#     8   8   8   8   8   8   8
#     4  10  20  34  54  80 103 123 156 202 243 279
#     4  10  20  35  52  70  98 135 167 194 233 288
#     4   9  19  35  54  75 100 130 160 192 238 291
#     4   9  19  33  49  70  96 130 169 200 233 285
#     4   9  17  31  50  71  95 126 164 203 242 288
#     4   9  17  31  49  70  97 126 158 202 251 290
#     4   8  14  25  45  70  93 119 155 200 247 289
#
# _framework density 18.344055000000001
#
# number of rings (size 3 to 8) (size 9 to 14) (size 15 to 20)
#    0.000    2.857    0.000    0.857    0.000    4.571 
#    0.000    6.429    0.000    0.000    0.000   10.000 
#    0.000    0.000    0.000    0.000    0.000    0.000 
#
# Total GULP energy -346971.559400 kJ/mol
# GULP energy per Si atom -12391.841407 kJ/mol
# Density = 1.830230 g / cm^3
# Si number density = 18.344055 Si / 1000 Ang^3
#
#
#
# Elastic Constant Matrix: (Units=GPa)
#
#
# Indices 1 2 3 4 5 6 
#
# 1 85.5169 27.7837 58.3718 0.0000 -3.2679 0.0000
# 2 27.7837 44.5608 36.5931 0.0000 -5.1210 0.0000
# 3 58.3718 36.5931 142.9042 0.0000 -7.3524 0.0000
# 4 0.0000 0.0000 0.0000 20.0157 0.0000 -4.0499
# 5 -3.2679 -5.1210 -7.3524 0.0000 29.4537 0.0000
# 6 0.0000 0.0000 0.0000 -4.0499 0.0000 25.2631
#
#
#
# Elastic Compliance Matrix: (Units=1/GPa)
#
#
# Indices 1 2 3 4 5 6 
#
# 1 0.017555 -0.006455 -0.005547 0.000000 -0.000559 0.000000
# 2 -0.006455 0.031085 -0.005148 0.000000 0.003403 0.000000
# 3 -0.005547 -0.005148 0.010640 0.000000 0.001146 0.000000
# 4 0.000000 0.000000 0.000000 0.051636 0.000000 0.008278
# 5 -0.000559 0.003403 0.001146 0.000000 0.034767 0.000000
# 6 0.000000 0.000000 0.000000 0.008278 0.000000 0.040910
#
#
# Mechanical properties :
#
#
# Convention : Reuss Voigt Hill
#
# Bulk Modulus (GPa) = 40.03039 57.60879 48.81959
# Shear Modulus (GPa) = 21.81306 24.96207 23.38756
#
# Velocity S-wave (km/s) = 3.45209 3.69287 3.57450
# Velocity P-wave (km/s) = 6.14480 7.04669 6.61114
#
# Compressibility (1/GPa) = 0.02498102
#
# Stress axis : x y z
#
# Youngs Moduli (GPa) = 56.96222 32.17024 93.98072
#
# Poissons Ratio (x) = 0.20767 0.52128
# Poissons Ratio (y) = 0.36771 0.48380
# Poissons Ratio (z) = 0.31595 0.16561
#
# Static dielectric constant tensor:
#      x y z
#    x 3.228800 0.000000 -0.010550 
#    y 0.000000 3.186480 0.000000 
#    z -0.010550 0.000000 3.834530 
# 
# 
# High freq. dielectric constant tensor:
#      x y z
#    x 1.702560 0.000000 -0.000430 
#    y 0.000000 1.692010 0.000000 
#    z -0.000430 0.000000 1.720070 
# 
# From -- ./inp_files/309068.got.cif
#   From: 2010.06.25/outbox.cif.g09.slc.cpg/sg12_155_cif.got.tgz:309068.got - 2010.06.28 00:19:55.
