data_PCOD8097900
_publ_section_title
;
Structure prediction by ZEFSAII (Michael W. Deem and Ramdas Pophale) SiO2 
 PCOD8097900
Probable space group: C 2/M
;
_chemical_formula_sum "Si O2"
_cell_formula_units_Z 64
_cell_length_a 33.829101
_cell_length_b 17.928077
_cell_length_c 9.066021
_cell_angle_alpha 90.000000
_cell_angle_beta 141.523760
_cell_angle_gamma 90.000000
_cell_volume 3421.085617
_symmetry_space_group_name_H-M "C 2/M"
_symmetry_group_IT_number 12
_symmetry_cell_setting 'monoclinic'
loop_
_space_group_symop_operation_xyz
x,y,z
-x,y,-z
-x,-y,-z
x,-y,z
1/2+x,1/2+y,z
1/2-x,1/2+y,-z
1/2-x,1/2-y,-z
1/2+x,1/2-y,z
loop_
_atom_site_type_symbol
_atom_site_label
_atom_site_fract_x
_atom_site_fract_y
_atom_site_fract_z
Si Si1 0.567836 0.582313 0.249196
Si Si2 0.513841 0.209900 0.208028
Si Si3 0.144774 0.300150 0.861271
Si Si4 0.555376 0.691012 0.766372
Si Si5 0.762819 0.193026 0.407610
Si Si6 0.147352 0.918136 0.190791
Si Si7 0.955284 0.416633 0.509659
Si Si8 0.142727 0.216204 0.580484
O O1 0.558430 0.500000 0.295914
O O2 0.605416 0.571883 0.210632
O O3 0.607033 0.635240 0.476854
O O4 0.500000 0.617168 0.000000
O O5 0.473683 0.276202 0.167328
O O6 0.502432 0.130029 0.250073
O O7 0.588815 0.221943 0.429709
O O8 0.500000 0.204889 0.000000
O O9 0.086672 0.258091 0.768918
O O10 0.113504 0.377450 0.715244
O O11 0.177052 0.242038 0.834340
O O12 0.198617 0.324922 0.133597
O O13 0.500000 0.656529 0.500000
O O14 0.608745 0.629292 0.956624
O O15 0.750000 0.250000 0.500000
O O16 0.787444 0.120236 0.565868
O O17 0.814032 0.224026 0.438485
O O18 0.163031 0.000000 0.169609
O O19 0.941414 0.500000 0.528246
O O20 0.000000 0.420541 0.500000
#
# Coordination Sequence:
#
# PCOD8097900 Si02
#       8
#     8   8   8   8   8   8   8   8
#     4   9  17  31  52  81 117 155 189 227 287 352
#     4  11  20  33  59  87 119 146 187 239 292 351
#     4  11  21  37  59  86 112 150 197 241 284 346
#     4  12  20  37  60  91 119 150 188 234 295 350
#     4  11  22  38  61  80 110 155 201 244 277 338
#     4  10  22  37  56  85 118 150 192 238 286 342
#     4  10  20  37  58  84 117 149 189 241 300 355
#     4  10  20  34  54  86 110 147 194 241 284 335
#
# _framework density 18.707512000000001
#
# number of rings (size 3 to 8) (size 9 to 14) (size 15 to 20)
#    0.000    1.500    5.000    3.000    0.000    1.000 
#    0.000    0.625    0.000    3.000    0.000    0.000 
#    0.000    0.000    0.000    0.000    0.000    0.000 
#
# Total GULP energy -396421.728858 kJ/mol
# GULP energy per Si atom -12388.179027 kJ/mol
# Density = 1.866493 g / cm^3
# Si number density = 18.707512 Si / 1000 Ang^3
#
#
#
# Elastic Constant Matrix: (Units=GPa)
#
#
# Indices 1 2 3 4 5 6 
#
# 1 72.4761 25.9131 20.7796 0.0000 -4.1737 0.0000
# 2 25.9131 111.1326 40.6396 0.0000 -10.6815 0.0000
# 3 20.7796 40.6396 88.6974 0.0000 -11.9267 0.0000
# 4 0.0000 0.0000 0.0000 39.7657 0.0000 11.0335
# 5 -4.1737 -10.6815 -11.9267 0.0000 30.3798 0.0000
# 6 0.0000 0.0000 0.0000 11.0335 0.0000 28.4313
#
#
#
# Elastic Compliance Matrix: (Units=1/GPa)
#
#
# Indices 1 2 3 4 5 6 
#
# 1 0.015457 -0.002725 -0.002339 0.000000 0.000247 0.000000
# 2 -0.002725 0.011401 -0.004325 0.000000 0.001936 0.000000
# 3 -0.002339 -0.004325 0.014312 0.000000 0.003777 0.000000
# 4 0.000000 0.000000 0.000000 0.028182 0.000000 -0.010937
# 5 0.000247 0.001936 0.003777 0.000000 0.035114 0.000000
# 6 0.000000 0.000000 0.000000 -0.010937 0.000000 0.039417
#
#
# Mechanical properties :
#
#
# Convention : Reuss Voigt Hill
#
# Bulk Modulus (GPa) = 44.66048 49.66340 47.16194
# Shear Modulus (GPa) = 29.39008 32.04695 30.71852
#
# Velocity S-wave (km/s) = 3.96792 4.14339 4.05661
# Velocity P-wave (km/s) = 6.70204 7.03528 6.87068
#
# Compressibility (1/GPa) = 0.02239116
#
# Stress axis : x y z
#
# Youngs Moduli (GPa) = 64.69611 87.70856 69.87194
#
# Poissons Ratio (x) = 0.23900 0.16346
# Poissons Ratio (y) = 0.17629 0.30221
# Poissons Ratio (z) = 0.15135 0.37936
#
# Static dielectric constant tensor:
#      x y z
#    x 3.371190 0.000000 0.002520 
#    y 0.000000 4.393900 0.000000 
#    z 0.002520 0.000000 3.252960 
# 
# 
# High freq. dielectric constant tensor:
#      x y z
#    x 1.719890 0.000000 -0.003090 
#    y 0.000000 1.717530 0.000000 
#    z -0.003090 0.000000 1.726020 
# 
# From -- ./inp_files/112872.got.cif
#   From: 2010.06.25/outbox.cif.g09.slc.cpg/sg12_57_cif.got.tgz:112872.got - 2010.06.28 00:19:55.
