data_PCOD8097141
_publ_section_title
;
Structure prediction by ZEFSAII (Michael W. Deem and Ramdas Pophale) SiO2 
 PCOD8097141
Probable space group: C 2/M
;
_chemical_formula_sum "Si O2"
_cell_formula_units_Z 56
_cell_length_a 8.659043
_cell_length_b 27.862010
_cell_length_c 18.465776
_cell_angle_alpha 90.000000
_cell_angle_beta 139.587068
_cell_angle_gamma 90.000000
_cell_volume 2888.154423
_symmetry_space_group_name_H-M "C 2/M"
_symmetry_group_IT_number 12
_symmetry_cell_setting 'monoclinic'
loop_
_space_group_symop_operation_xyz
x,y,z
-x,y,-z
-x,-y,-z
x,-y,z
1/2+x,1/2+y,z
1/2-x,1/2+y,-z
1/2-x,1/2-y,-z
1/2+x,1/2-y,z
loop_
_atom_site_type_symbol
_atom_site_label
_atom_site_fract_x
_atom_site_fract_y
_atom_site_fract_z
Si Si1 0.477859 0.392389 0.337543
Si Si2 0.564663 0.053911 0.240540
Si Si3 0.698341 0.804981 0.288123
Si Si4 0.761431 0.365979 0.304087
Si Si5 0.962116 0.723810 0.615581
Si Si6 0.262889 0.359154 0.871145
Si Si7 0.630570 0.944808 0.427941
O O1 0.262042 0.430567 0.251808
O O2 0.383608 0.348527 0.351768
O O3 0.543856 0.370713 0.282407
O O4 0.689845 0.417683 0.455563
O O5 0.330697 0.086690 0.151407
O O6 0.696296 0.058343 0.366160
O O7 0.479163 0.000000 0.194736
O O8 0.670621 0.792527 0.360954
O O9 0.435622 0.822007 0.167649
O O10 0.811854 0.759146 0.287427
O O11 0.679288 0.351440 0.193471
O O12 0.941945 0.323278 0.393408
O O13 0.879334 0.418417 0.348225
O O14 0.750000 0.750000 0.500000
O O15 0.500000 0.349972 0.000000
O O16 0.606695 0.000000 0.444271
#
# Coordination Sequence:
#
# PCOD8097141 Si02
#       7
#     8   8   8   8   8   8   8
#     4  11  20  33  52  80 116 146 175 220 273 330
#     4   9  19  34  54  80 108 144 188 225 266 328
#     4  10  22  36  55  81 108 142 184 222 265 325
#     4  10  22  36  54  82 111 142 185 226 269 327
#     4  11  21  36  55  79 112 146 179 218 268 324
#     4   9  20  41  62  78 104 142 186 236 280 316
#     4  10  20  34  52  77 113 153 183 214 267 330
#
# _framework density 19.389544999999998
#
# number of rings (size 3 to 8) (size 9 to 14) (size 15 to 20)
#    0.000    2.000    0.000    4.286    0.000    7.714 
#    0.000    5.714    0.000    0.857    0.000    0.000 
#    0.000    0.000    0.000    0.000    0.000    0.000 
#
# Total GULP energy -347005.234588 kJ/mol
# GULP energy per Si atom -12393.044092 kJ/mol
# Density = 1.934541 g / cm^3
# Si number density = 19.389545 Si / 1000 Ang^3
#
#
#
# Elastic Constant Matrix: (Units=GPa)
#
#
# Indices 1 2 3 4 5 6 
#
# 1 124.0503 58.3555 44.0548 0.0000 5.3139 0.0000
# 2 58.3555 127.9863 43.0046 0.0000 5.3402 0.0000
# 3 44.0548 43.0046 94.2742 0.0000 11.7755 0.0000
# 4 0.0000 0.0000 0.0000 16.0988 0.0000 0.8627
# 5 5.3139 5.3402 11.7755 0.0000 12.6424 0.0000
# 6 0.0000 0.0000 0.0000 0.8627 0.0000 30.1263
#
#
#
# Elastic Compliance Matrix: (Units=1/GPa)
#
#
# Indices 1 2 3 4 5 6 
#
# 1 0.011117 -0.003925 -0.003427 0.000000 0.000177 0.000000
# 2 -0.003925 0.010613 -0.003003 0.000000 -0.000037 0.000000
# 3 -0.003427 -0.003003 0.014983 0.000000 -0.011247 0.000000
# 4 0.000000 0.000000 0.000000 0.062212 0.000000 -0.001781
# 5 0.000177 -0.000037 -0.011247 0.000000 0.089516 0.000000
# 6 0.000000 0.000000 0.000000 -0.001781 0.000000 0.033245
#
#
# Mechanical properties :
#
#
# Convention : Reuss Voigt Hill
#
# Bulk Modulus (GPa) = 62.48066 70.79340 66.63703
# Shear Modulus (GPa) = 20.18333 25.16658 22.67495
#
# Velocity S-wave (km/s) = 3.22986 3.60661 3.42342
# Velocity P-wave (km/s) = 6.79729 7.34397 7.07591
#
# Compressibility (1/GPa) = 0.01600495
#
# Stress axis : x y z
#
# Youngs Moduli (GPa) = 89.95322 94.22121 66.74078
#
# Poissons Ratio (x) = 0.36979 0.22870
# Poissons Ratio (y) = 0.35304 0.20041
# Poissons Ratio (z) = 0.30825 0.28293
#
# Static dielectric constant tensor:
#      x y z
#    x 3.812430 0.000000 0.093630 
#    y 0.000000 4.550320 0.000000 
#    z 0.093630 0.000000 3.097290 
# 
# 
# High freq. dielectric constant tensor:
#      x y z
#    x 1.763670 0.000000 0.009680 
#    y 0.000000 1.776800 0.000000 
#    z 0.009680 0.000000 1.699920 
# 
# From -- ./inp_files/259872.got.cif
#   From: 2010.06.25/outbox.cif.g09.slc.cpg/sg12_130_cif.got.tgz:259872.got - 2010.06.28 00:19:55.
