data_PCOD8097955
_publ_section_title
;
Structure prediction by ZEFSAII (Michael W. Deem and Ramdas Pophale) SiO2 
 PCOD8097955
Probable space group: C 2/M
;
_chemical_formula_sum "Si O2"
_cell_formula_units_Z 48
_cell_length_a 14.702001
_cell_length_b 9.056314
_cell_length_c 20.185380
_cell_angle_alpha 90.000000
_cell_angle_beta 69.985640
_cell_angle_gamma 90.000000
_cell_volume 2525.288689
_symmetry_space_group_name_H-M "C 2/M"
_symmetry_group_IT_number 12
_symmetry_cell_setting 'monoclinic'
loop_
_space_group_symop_operation_xyz
x,y,z
-x,y,-z
-x,-y,-z
x,-y,z
1/2+x,1/2+y,z
1/2-x,1/2+y,-z
1/2-x,1/2-y,-z
1/2+x,1/2-y,z
loop_
_atom_site_type_symbol
_atom_site_label
_atom_site_fract_x
_atom_site_fract_y
_atom_site_fract_z
Si Si1 0.696820 0.674230 0.573666
Si Si2 0.487812 0.827608 0.331809
Si Si3 0.942653 0.173105 0.078481
Si Si4 0.456876 0.329170 0.810483
Si Si5 0.295053 0.829762 0.686535
Si Si6 0.740415 0.828388 0.828409
O O1 0.690835 0.500000 0.563496
O O2 0.750000 0.750000 0.500000
O O3 0.589464 0.740283 0.605007
O O4 0.756751 0.715072 0.624336
O O5 0.485853 0.768340 0.257195
O O6 0.591116 0.794555 0.339478
O O7 0.462557 0.000000 0.337842
O O8 0.839835 0.253778 0.105569
O O9 0.005773 0.215353 0.126726
O O10 0.922619 0.000000 0.079118
O O11 0.000000 0.229999 0.000000
O O12 0.477625 0.500000 0.788598
O O13 0.343069 0.294202 0.836825
O O14 0.236578 0.736781 0.755360
O O15 0.274381 0.000000 0.707921
O O16 0.718527 0.000000 0.828815
#
# Coordination Sequence:
#
# PCOD8097955 Si02
#       6
#     8   8   8   8   8   8
#     4  11  23  38  55  78 109 143 175 212 260 311
#     4  10  20  36  58  82 105 135 177 219 259 308
#     4  10  21  36  53  74 105 145 180 210 256 319
#     4   9  19  36  55  77 106 138 173 216 265 311
#     4   9  20  38  58  78 105 141 176 211 258 316
#     4  10  20  34  55  81 106 133 172 223 267 303
#
# _framework density 19.007728
#
# number of rings (size 3 to 8) (size 9 to 14) (size 15 to 20)
#    0.000    2.167    0.000    2.500    0.000    9.000 
#    0.000    3.333    0.000    0.000    0.000    0.000 
#    0.000    0.000    0.000    0.000    0.000    0.000 
#
# Total GULP energy -297733.636260 kJ/mol
# GULP energy per Si atom -12405.568178 kJ/mol
# Density = 1.896447 g / cm^3
# Si number density = 19.007728 Si / 1000 Ang^3
#
#
#
# Elastic Constant Matrix: (Units=GPa)
#
#
# Indices 1 2 3 4 5 6 
#
# 1 72.0645 35.6787 48.0064 0.0000 -18.0405 0.0000
# 2 35.6787 72.7466 50.1089 0.0000 -17.9966 0.0000
# 3 48.0064 50.1089 122.3782 0.0000 -29.9881 0.0000
# 4 0.0000 0.0000 0.0000 35.7841 0.0000 -7.6217
# 5 -18.0405 -17.9966 -29.9881 0.0000 31.2960 0.0000
# 6 0.0000 0.0000 0.0000 -7.6217 0.0000 32.2562
#
#
#
# Elastic Compliance Matrix: (Units=1/GPa)
#
#
# Indices 1 2 3 4 5 6 
#
# 1 0.021079 -0.006019 -0.004803 0.000000 0.004088 0.000000
# 2 -0.006019 0.021379 -0.005529 0.000000 0.003527 0.000000
# 3 -0.004803 -0.005529 0.014195 0.000000 0.007654 0.000000
# 4 0.000000 0.000000 0.000000 0.029426 0.000000 0.006953
# 5 0.004088 0.003527 0.007654 0.000000 0.043671 0.000000
# 6 0.000000 0.000000 0.000000 0.006953 0.000000 0.032645
#
#
# Mechanical properties :
#
#
# Convention : Reuss Voigt Hill
#
# Bulk Modulus (GPa) = 41.74928 59.41970 50.58449
# Shear Modulus (GPa) = 24.62095 28.76029 26.69062
#
# Velocity S-wave (km/s) = 3.60295 3.89406 3.75133
# Velocity P-wave (km/s) = 6.27060 7.17962 6.74045
#
# Compressibility (1/GPa) = 0.02395251
#
# Stress axis : x y z
#
# Youngs Moduli (GPa) = 47.44049 46.77510 70.44930
#
# Poissons Ratio (x) = 0.28153 0.33835
# Poissons Ratio (y) = 0.28554 0.38948
# Poissons Ratio (z) = 0.22784 0.25860
#
# Static dielectric constant tensor:
#      x y z
#    x 3.640100 0.000000 -0.054990 
#    y 0.000000 3.497290 0.000000 
#    z -0.054990 0.000000 3.462380 
# 
# 
# High freq. dielectric constant tensor:
#      x y z
#    x 1.749310 0.000000 -0.005920 
#    y 0.000000 1.741910 0.000000 
#    z -0.005920 0.000000 1.734660 
# 
# From -- ./inp_files/308269.got.cif
#   From: 2010.06.25/outbox.cif.g09.slc.cpg/sg12_155_cif.got.tgz:308269.got - 2010.06.28 00:19:55.
