data_PCOD8097328
_publ_section_title
;
Structure prediction by ZEFSAII (Michael W. Deem and Ramdas Pophale) SiO2 
 PCOD8097328
Probable space group: C 2/M
;
_chemical_formula_sum "Si O2"
_cell_formula_units_Z 48
_cell_length_a 19.088488
_cell_length_b 8.946841
_cell_length_c 29.557749
_cell_angle_alpha 90.000000
_cell_angle_beta 30.799648
_cell_angle_gamma 90.000000
_cell_volume 2584.725624
_symmetry_space_group_name_H-M "C 2/M"
_symmetry_group_IT_number 12
_symmetry_cell_setting 'monoclinic'
loop_
_space_group_symop_operation_xyz
x,y,z
-x,y,-z
-x,-y,-z
x,-y,z
1/2+x,1/2+y,z
1/2-x,1/2+y,-z
1/2-x,1/2-y,-z
1/2+x,1/2-y,z
loop_
_atom_site_type_symbol
_atom_site_label
_atom_site_fract_x
_atom_site_fract_y
_atom_site_fract_z
Si Si1 0.921901 0.326116 0.752403
Si Si2 0.663061 0.825198 0.783069
Si Si3 0.027465 0.824907 0.366975
Si Si4 0.890372 0.674975 0.523746
Si Si5 0.400675 0.324183 0.273404
Si Si6 0.612381 0.673119 0.901609
O O1 0.957601 0.500000 0.733184
O O2 0.996100 0.253568 0.668005
O O3 0.760372 0.295713 0.840871
O O4 0.975814 0.249773 0.767891
O O5 0.823375 0.784274 0.696255
O O6 0.595057 0.738689 0.779459
O O7 0.589439 0.771022 0.869572
O O8 0.638830 0.000000 0.790210
O O9 0.914209 0.764299 0.464278
O O10 0.008074 0.000000 0.370554
O O11 0.906249 0.500000 0.504956
O O12 0.741370 0.718812 0.623961
O O13 0.000000 0.728309 0.500000
O O14 0.422495 0.500000 0.259315
O O15 0.595159 0.500000 0.897987
O O16 0.500000 0.724926 0.000000
#
# Coordination Sequence:
#
# PCOD8097328 Si02
#       6
#     8   8   8   8   8   8
#     4  10  21  37  57  80 111 143 176 222 274 324
#     4  10  20  34  55  83 112 142 179 221 269 322
#     4  10  20  34  54  79 108 144 186 227 267 317
#     4  10  20  34  53  77 106 144 190 230 266 310
#     4  11  22  36  55  79 111 147 183 225 270 317
#     4   9  19  38  63  86 107 137 177 219 267 326
#
# _framework density 18.570636
#
# number of rings (size 3 to 8) (size 9 to 14) (size 15 to 20)
#    0.000    2.000    1.667    2.000    0.000    4.667 
#    0.000    0.833    0.000    0.000    0.000    0.000 
#    0.000    0.000    0.000    0.000    0.000    0.000 
#
# Total GULP energy -297746.116298 kJ/mol
# GULP energy per Si atom -12406.088179 kJ/mol
# Density = 1.852837 g / cm^3
# Si number density = 18.570636 Si / 1000 Ang^3
#
#
#
# Elastic Constant Matrix: (Units=GPa)
#
#
# Indices 1 2 3 4 5 6 
#
# 1 135.7392 62.5983 48.0841 -0.0007 11.8948 0.0002
# 2 62.5983 86.5273 43.9499 -0.0024 9.8282 0.0041
# 3 48.0841 43.9499 93.5557 0.0013 20.5177 -0.0054
# 4 -0.0007 -0.0024 0.0013 24.9918 0.0008 3.4884
# 5 11.8948 9.8282 20.5177 0.0008 22.8773 -0.0007
# 6 0.0002 0.0041 -0.0054 3.4884 -0.0007 38.2579
#
#
#
# Elastic Compliance Matrix: (Units=1/GPa)
#
#
# Indices 1 2 3 4 5 6 
#
# 1 0.011541 -0.007007 -0.002470 0.000000 -0.000775 0.000000
# 2 -0.007007 0.019433 -0.005597 0.000002 0.000314 -0.000003
# 3 -0.002470 -0.005597 0.017152 -0.000002 -0.011694 0.000003
# 4 0.000000 0.000002 -0.000002 0.040529 -0.000001 -0.003695
# 5 -0.000775 0.000314 -0.011694 -0.000001 0.054468 -0.000001
# 6 0.000000 -0.000003 0.000003 -0.003695 -0.000001 0.026475
#
#
# Mechanical properties :
#
#
# Convention : Reuss Voigt Hill
#
# Bulk Modulus (GPa) = 55.61973 69.45411 62.53692
# Shear Modulus (GPa) = 24.30250 27.97139 26.13694
#
# Velocity S-wave (km/s) = 3.62145 3.88521 3.75565
# Velocity P-wave (km/s) = 6.89217 7.58997 7.24947
#
# Compressibility (1/GPa) = 0.01797923
#
# Stress axis : x y z
#
# Youngs Moduli (GPa) = 86.64482 51.45801 58.30099
#
# Poissons Ratio (x) = 0.36056 0.14401
# Poissons Ratio (y) = 0.60711 0.32630
# Poissons Ratio (z) = 0.21403 0.28800
#
# Static dielectric constant tensor:
#      x y z
#    x 3.394330 0.000000 0.052360 
#    y 0.000000 3.402600 0.000010 
#    z 0.052360 0.000010 3.288450 
# 
# 
# High freq. dielectric constant tensor:
#      x y z
#    x 1.723740 0.000000 0.009710 
#    y 0.000000 1.728980 0.000000 
#    z 0.009710 0.000000 1.704210 
# 
# From -- ./inp_files/221707.got.cif
#   From: 2010.06.25/outbox.cif.g09.slc.cpg/sg12_111_cif.got.tgz:221707.got - 2010.06.28 00:19:55.
