data_PCOD8097096
_publ_section_title
;
Structure prediction by ZEFSAII (Michael W. Deem and Ramdas Pophale) SiO2 
 PCOD8097096
Probable space group: C 2/M
;
_chemical_formula_sum "Si O2"
_cell_formula_units_Z 56
_cell_length_a 19.212841
_cell_length_b 8.498114
_cell_length_c 26.123503
_cell_angle_alpha 90.000000
_cell_angle_beta 42.789580
_cell_angle_gamma 90.000000
_cell_volume 2897.424915
_symmetry_space_group_name_H-M "C 2/M"
_symmetry_group_IT_number 12
_symmetry_cell_setting 'monoclinic'
loop_
_space_group_symop_operation_xyz
x,y,z
-x,y,-z
-x,-y,-z
x,-y,z
1/2+x,1/2+y,z
1/2-x,1/2+y,-z
1/2-x,1/2-y,-z
1/2+x,1/2-y,z
loop_
_atom_site_type_symbol
_atom_site_label
_atom_site_fract_x
_atom_site_fract_y
_atom_site_fract_z
Si Si1 0.485098 0.314175 0.699457
Si Si2 0.199650 0.184569 0.131627
Si Si3 0.164750 0.185586 0.405975
Si Si4 0.615230 0.316440 0.722613
Si Si5 0.514127 0.686316 0.571900
Si Si6 0.439541 0.182295 0.879422
Si Si7 0.583291 0.683399 0.997090
O O1 0.487415 0.500000 0.692455
O O2 0.375330 0.263038 0.781633
O O3 0.574120 0.257659 0.689723
O O4 0.507049 0.236234 0.632181
O O5 0.145925 0.221711 0.106232
O O6 0.224069 0.000000 0.119776
O O7 0.303162 0.281298 0.085021
O O8 0.265660 0.281772 0.338863
O O9 0.084082 0.241392 0.407005
O O10 0.119032 0.235440 0.486236
O O11 0.187021 0.000000 0.391511
O O12 0.593101 0.500000 0.742306
O O13 0.554409 0.225124 0.799708
O O14 0.511658 0.500000 0.576385
O O15 0.432613 0.218857 0.942857
O O16 0.417518 0.000000 0.882108
O O17 0.570695 0.500000 0.016020
O O18 0.500000 0.737983 0.000000
#
# Coordination Sequence:
#
# PCOD8097096 Si02
#       7
#     8   8   8   8   8   8   8
#     4   8  16  31  51  74 101 135 173 214 258 308
#     4  10  20  36  58  82 109 142 182 224 269 321
#     4   9  17  30  51  76 102 136 177 220 263 312
#     4  10  20  34  52  76 106 137 172 217 269 320
#     4   8  15  30  50  73 102 137 178 218 259 310
#     4  11  22  38  60  81 105 140 182 223 268 324
#     4  11  24  40  57  81 114 145 176 218 265 313
#
# _framework density 19.327506
#
# number of rings (size 3 to 8) (size 9 to 14) (size 15 to 20)
#    0.000    2.429    0.000    4.714    0.000    2.857 
#    0.000    2.857    0.000    8.571    0.000    0.000 
#    0.000    0.000    0.000    0.000    0.000    0.000 
#
# Total GULP energy -347167.751410 kJ/mol
# GULP energy per Si atom -12398.848265 kJ/mol
# Density = 1.928352 g / cm^3
# Si number density = 19.327506 Si / 1000 Ang^3
#
#
#
# Elastic Constant Matrix: (Units=GPa)
#
#
# Indices 1 2 3 4 5 6 
#
# 1 45.9520 5.0739 16.6111 -0.0001 -10.9278 -0.0013
# 2 5.0739 42.2192 6.0787 0.0003 -0.1640 -0.0030
# 3 16.6111 6.0787 64.6416 -0.0002 -16.0364 0.0002
# 4 -0.0001 0.0003 -0.0002 27.0630 0.0000 -7.2171
# 5 -10.9278 -0.1640 -16.0364 0.0000 36.6562 0.0001
# 6 -0.0013 -0.0030 0.0002 -7.2171 0.0001 20.8361
#
#
#
# Elastic Compliance Matrix: (Units=1/GPa)
#
#
# Indices 1 2 3 4 5 6 
#
# 1 0.025050 -0.002284 -0.004905 0.000000 0.005312 0.000001
# 2 -0.002284 0.024251 -0.002059 0.000001 -0.001473 0.000004
# 3 -0.004905 -0.002059 0.018575 0.000000 0.006655 -0.000001
# 4 0.000000 0.000001 0.000000 0.040711 0.000000 0.014101
# 5 0.005312 -0.001473 0.006655 0.000000 0.031769 0.000000
# 6 0.000001 0.000004 -0.000001 0.014101 0.000000 0.052878
#
#
# Mechanical properties :
#
#
# Convention : Reuss Voigt Hill
#
# Bulk Modulus (GPa) = 20.25065 23.14892 21.69978
# Shear Modulus (GPa) = 21.91162 25.24768 23.57965
#
# Velocity S-wave (km/s) = 3.37070 3.61821 3.49665
# Velocity P-wave (km/s) = 5.06450 5.42756 5.24917
#
# Compressibility (1/GPa) = 0.04938114
#
# Stress axis : x y z
#
# Youngs Moduli (GPa) = 39.91987 41.23526 53.83626
#
# Poissons Ratio (x) = 0.09417 0.26405
# Poissons Ratio (y) = 0.09117 0.11085
# Poissons Ratio (z) = 0.19579 0.08491
#
# Static dielectric constant tensor:
#      x y z
#    x 3.681580 0.000000 0.203470 
#    y 0.000000 3.236790 0.000000 
#    z 0.203470 0.000000 3.818500 
# 
# 
# High freq. dielectric constant tensor:
#      x y z
#    x 1.745570 0.000000 0.001460 
#    y 0.000000 1.730010 0.000000 
#    z 0.001460 0.000000 1.764440 
# 
# From -- ./inp_files/362969.got.cif
#   From: 2010.06.25/outbox.cif.g09.slc.cpg/sg12_182_cif.got.tgz:362969.got - 2010.06.28 00:19:55.
