data_PCOD8097990
_publ_section_title
;
Structure prediction by ZEFSAII (Michael W. Deem and Ramdas Pophale) SiO2 
 PCOD8097990
Probable space group: C 2/M
;
_chemical_formula_sum "Si O2"
_cell_formula_units_Z 64
_cell_length_a 31.441582
_cell_length_b 9.023413
_cell_length_c 16.334277
_cell_angle_alpha 90.000000
_cell_angle_beta 44.708808
_cell_angle_gamma 90.000000
_cell_volume 3260.180839
_symmetry_space_group_name_H-M "C 2/M"
_symmetry_group_IT_number 12
_symmetry_cell_setting 'monoclinic'
loop_
_space_group_symop_operation_xyz
x,y,z
-x,y,-z
-x,-y,-z
x,-y,z
1/2+x,1/2+y,z
1/2-x,1/2+y,-z
1/2-x,1/2-y,-z
1/2+x,1/2-y,z
loop_
_atom_site_type_symbol
_atom_site_label
_atom_site_fract_x
_atom_site_fract_y
_atom_site_fract_z
Si Si1 0.335607 0.672778 0.826262
Si Si2 0.998045 0.326676 0.175343
Si Si3 0.201808 0.672368 0.960123
Si Si4 0.930244 0.673502 0.581246
Si Si5 0.190083 0.169397 0.553742
Si Si6 0.897107 0.327007 0.442847
Si Si7 0.086206 0.168618 0.826201
Si Si8 0.385890 0.674382 0.028316
O O1 0.345568 0.500000 0.830174
O O2 0.332701 0.756966 0.915862
O O3 0.391101 0.734249 0.698527
O O4 0.273342 0.701748 0.862992
O O5 0.011165 0.500000 0.152230
O O6 0.956266 0.284650 0.309509
O O7 0.966984 0.273202 0.133681
O O8 0.060688 0.239904 0.101306
O O9 0.186233 0.500000 0.980321
O O10 0.177037 0.751316 0.912582
O O11 0.919105 0.500000 0.611439
O O12 0.910110 0.720753 0.517812
O O13 0.000000 0.714615 0.500000
O O14 0.250000 0.250000 0.500000
O O15 0.161478 0.241373 0.511147
O O16 0.144916 0.185591 0.690750
O O17 0.205127 0.000000 0.512566
O O18 0.883046 0.500000 0.454162
O O19 0.061915 0.000000 0.858813
O O20 0.103509 0.220950 0.892794
O O21 0.381612 0.500000 0.022032
#
# Coordination Sequence:
#
# PCOD8097990 Si02
#       8
#     8   8   8   8   8   8   8   8
#     4  10  22  41  62  87 117 149 190 243 296 344
#     4  10  20  34  55  81 113 150 188 234 283 336
#     4  10  22  40  61  84 114 152 192 236 292 353
#     4  10  22  39  62  89 119 160 200 240 294 353
#     4  10  20  36  58  82 110 149 191 235 288 342
#     4   9  20  38  56  81 115 152 194 235 285 347
#     4   9  20  37  53  75 111 150 186 229 281 340
#     4  11  22  35  55  83 112 146 190 233 282 341
#
# _framework density 19.630814000000001
#
# number of rings (size 3 to 8) (size 9 to 14) (size 15 to 20)
#    0.000    2.125    0.000    2.250    1.750    6.750 
#    0.000    3.750    0.000    0.000    0.000    0.000 
#    0.000    0.000    0.000    0.000    0.000    0.000 
#
# Total GULP energy -396930.961239 kJ/mol
# GULP energy per Si atom -12404.092539 kJ/mol
# Density = 1.958613 g / cm^3
# Si number density = 19.630814 Si / 1000 Ang^3
#
#
#
# Elastic Constant Matrix: (Units=GPa)
#
#
# Indices 1 2 3 4 5 6 
#
# 1 102.1434 45.3403 32.6210 0.0002 -5.6378 0.0000
# 2 45.3403 86.9378 33.3810 -0.0013 -5.3359 0.0008
# 3 32.6210 33.3810 67.4909 0.0001 -1.0375 0.0001
# 4 0.0002 -0.0013 0.0001 29.8199 0.0000 -1.9458
# 5 -5.6378 -5.3359 -1.0375 0.0000 24.8722 0.0000
# 6 0.0000 0.0008 0.0001 -1.9458 0.0000 38.2804
#
#
#
# Elastic Compliance Matrix: (Units=1/GPa)
#
#
# Indices 1 2 3 4 5 6 
#
# 1 0.013538 -0.005496 -0.003799 0.000000 0.001731 0.000000
# 2 -0.005496 0.016621 -0.005532 0.000001 0.002089 0.000000
# 3 -0.003799 -0.005532 0.019370 0.000000 -0.001240 0.000000
# 4 0.000000 0.000001 0.000000 0.033646 0.000000 0.001710
# 5 0.001731 0.002089 -0.001240 0.000000 0.040994 0.000000
# 6 0.000000 0.000000 0.000000 0.001710 0.000000 0.026210
#
#
# Mechanical properties :
#
#
# Convention : Reuss Voigt Hill
#
# Bulk Modulus (GPa) = 50.31245 53.25074 51.78159
# Shear Modulus (GPa) = 26.78675 28.27651 27.53163
#
# Velocity S-wave (km/s) = 3.69796 3.79940 3.74902
# Velocity P-wave (km/s) = 6.62708 6.81412 6.72125
#
# Compressibility (1/GPa) = 0.01987580
#
# Stress axis : x y z
#
# Youngs Moduli (GPa) = 73.86378 60.16445 51.62576
#
# Poissons Ratio (x) = 0.33065 0.19612
# Poissons Ratio (y) = 0.40594 0.28561
# Poissons Ratio (z) = 0.28060 0.33285
#
# Static dielectric constant tensor:
#      x y z
#    x 3.708450 0.000000 0.025180 
#    y 0.000000 3.616960 0.000000 
#    z 0.025180 0.000000 3.551220 
# 
# 
# High freq. dielectric constant tensor:
#      x y z
#    x 1.774950 0.000000 -0.001550 
#    y 0.000000 1.769960 0.000000 
#    z -0.001550 0.000000 1.759640 
# 
# From -- ./inp_files/249853.got.cif
#   From: 2010.06.25/outbox.cif.g09.slc.cpg/sg12_125_cif.got.tgz:249853.got - 2010.06.28 00:19:55.
