data_PCOD8097616
_publ_section_title
;
Structure prediction by ZEFSAII (Michael W. Deem and Ramdas Pophale) SiO2 
 PCOD8097616
Probable space group: C 2/M
;
_chemical_formula_sum "Si O2"
_cell_formula_units_Z 56
_cell_length_a 18.298238
_cell_length_b 9.054171
_cell_length_c 22.732702
_cell_angle_alpha 90.000000
_cell_angle_beta 52.622595
_cell_angle_gamma 90.000000
_cell_volume 2992.865099
_symmetry_space_group_name_H-M "C 2/M"
_symmetry_group_IT_number 12
_symmetry_cell_setting 'monoclinic'
loop_
_space_group_symop_operation_xyz
x,y,z
-x,y,-z
-x,-y,-z
x,-y,z
1/2+x,1/2+y,z
1/2-x,1/2+y,-z
1/2-x,1/2-y,-z
1/2+x,1/2-y,z
loop_
_atom_site_type_symbol
_atom_site_label
_atom_site_fract_x
_atom_site_fract_y
_atom_site_fract_z
Si Si1 0.027019 0.173530 0.351504
Si Si2 0.838800 0.828875 0.931983
Si Si3 0.621225 0.826674 0.780461
Si Si4 0.171413 0.826232 0.501100
Si Si5 0.814173 0.175087 0.638232
Si Si6 0.951578 0.673989 0.782186
Si Si7 0.512414 0.670037 0.928596
O O1 0.099721 0.226428 0.364936
O O2 0.047075 0.266518 0.284024
O O3 0.926558 0.214352 0.423732
O O4 0.036627 0.000000 0.333080
O O5 0.867877 0.752415 0.856860
O O6 0.917451 0.806140 0.941531
O O7 0.818106 0.000000 0.929929
O O8 0.750000 0.750000 0.000000
O O9 0.719675 0.762957 0.712203
O O10 0.547884 0.784526 0.766013
O O11 0.594591 0.754296 0.855550
O O12 0.625125 0.000000 0.789017
O O13 0.250000 0.750000 0.500000
O O14 0.174209 0.763031 0.433379
O O15 0.189349 0.000000 0.493098
O O16 0.810226 0.000000 0.637373
O O17 0.933997 0.500000 0.790895
O O18 0.541707 0.500000 0.917380
O O19 0.500000 0.735889 0.000000
#
# Coordination Sequence:
#
# PCOD8097616 Si02
#       7
#     8   8   8   8   8   8   8
#     4  10  20  34  54  79 105 136 175 216 259 308
#     4  10  20  35  55  78 106 139 176 217 260 310
#     4   9  18  33  53  74  98 133 174 212 252 304
#     4  10  20  35  56  79 105 139 176 214 258 311
#     4   9  18  34  54  77 105 136 172 214 260 310
#     4  10  20  35  54  76 105 139 174 214 261 311
#     4   9  19  35  53  74 102 134 168 210 259 307
#
# _framework density 18.711167
#
# number of rings (size 3 to 8) (size 9 to 14) (size 15 to 20)
#    0.000    2.429    0.000    2.143    0.000    6.000 
#    0.000    5.000    0.000    1.714    0.000    0.000 
#    0.000    0.000    0.000    0.000    0.000    0.000 
#
# Total GULP energy -347271.934290 kJ/mol
# GULP energy per Si atom -12402.569082 kJ/mol
# Density = 1.866858 g / cm^3
# Si number density = 18.711167 Si / 1000 Ang^3
#
#
#
# Elastic Constant Matrix: (Units=GPa)
#
#
# Indices 1 2 3 4 5 6 
#
# 1 117.5278 45.3747 90.3815 0.0000 5.1869 0.0001
# 2 45.3747 60.7785 63.4075 0.0000 -0.3225 0.0002
# 3 90.3815 63.4075 187.7327 0.0000 5.6014 0.0001
# 4 0.0000 0.0000 0.0000 28.9696 0.0000 4.2695
# 5 5.1869 -0.3225 5.6014 0.0000 41.4956 0.0000
# 6 0.0001 0.0002 0.0001 4.2695 0.0000 25.1366
#
#
#
# Elastic Compliance Matrix: (Units=1/GPa)
#
#
# Indices 1 2 3 4 5 6 
#
# 1 0.014674 -0.005602 -0.005137 0.000000 -0.001184 0.000000
# 2 -0.005602 0.027620 -0.006686 0.000000 0.001817 0.000000
# 3 -0.005137 -0.006686 0.010081 0.000000 -0.000771 0.000000
# 4 0.000000 0.000000 0.000000 0.035405 0.000000 -0.006014
# 5 -0.001184 0.001817 -0.000771 0.000000 0.024365 0.000000
# 6 0.000000 0.000000 0.000000 -0.006014 0.000000 0.040804
#
#
# Mechanical properties :
#
#
# Convention : Reuss Voigt Hill
#
# Bulk Modulus (GPa) = 57.06094 84.92961 70.99528
# Shear Modulus (GPa) = 25.82066 30.24537 28.03302
#
# Velocity S-wave (km/s) = 3.71881 4.02485 3.87485
# Velocity P-wave (km/s) = 7.00009 8.19070 7.61869
#
# Compressibility (1/GPa) = 0.01752512
#
# Stress axis : x y z
#
# Youngs Moduli (GPa) = 68.14555 36.20514 99.19340
#
# Poissons Ratio (x) = 0.20282 0.50960
# Poissons Ratio (y) = 0.38175 0.66322
# Poissons Ratio (z) = 0.35009 0.24207
#
# Static dielectric constant tensor:
#      x y z
#    x 3.516020 0.000000 -0.013370 
#    y 0.000000 3.296400 0.000000 
#    z -0.013370 0.000000 3.789770 
# 
# 
# High freq. dielectric constant tensor:
#      x y z
#    x 1.726610 0.000000 0.001100 
#    y 0.000000 1.708420 0.000000 
#    z 0.001100 0.000000 1.744260 
# 
# From -- ./inp_files/342322.got.cif
#   From: 2010.06.25/outbox.cif.g09.slc.cpg/sg12_172_cif.got.tgz:342322.got - 2010.06.28 00:19:55.
