data_PCOD8097794
_publ_section_title
;
Structure prediction by ZEFSAII (Michael W. Deem and Ramdas Pophale) SiO2 
 PCOD8097794
Probable space group: C 2/M
;
_chemical_formula_sum "Si O2"
_cell_formula_units_Z 64
_cell_length_a 28.148174
_cell_length_b 9.163288
_cell_length_c 14.219585
_cell_angle_alpha 90.000000
_cell_angle_beta 114.451865
_cell_angle_gamma 90.000000
_cell_volume 3338.700665
_symmetry_space_group_name_H-M "C 2/M"
_symmetry_group_IT_number 12
_symmetry_cell_setting 'monoclinic'
loop_
_space_group_symop_operation_xyz
x,y,z
-x,y,-z
-x,-y,-z
x,-y,z
1/2+x,1/2+y,z
1/2-x,1/2+y,-z
1/2-x,1/2-y,-z
1/2+x,1/2-y,z
loop_
_atom_site_type_symbol
_atom_site_label
_atom_site_fract_x
_atom_site_fract_y
_atom_site_fract_z
Si Si1 0.529489 0.326764 0.433501
Si Si2 0.225727 0.827541 0.069024
Si Si3 0.606811 0.333329 0.997846
Si Si4 0.262037 0.331985 0.279443
Si Si5 0.927143 0.328015 0.847587
Si Si6 0.146625 0.168133 0.511476
Si Si7 0.488926 0.667255 0.200833
Si Si8 0.326304 0.829576 0.648000
O O1 0.500000 0.259573 0.500000
O O2 0.530535 0.500000 0.443116
O O3 0.588728 0.265966 0.479128
O O4 0.498640 0.275824 0.314766
O O5 0.255847 0.771703 0.185368
O O6 0.232914 0.000000 0.065847
O O7 0.250000 0.750000 0.000000
O O8 0.165191 0.781551 0.023557
O O9 0.606620 0.500000 0.033906
O O10 0.572317 0.317772 0.874597
O O11 0.581643 0.232529 0.055991
O O12 0.250916 0.500000 0.241539
O O13 0.320808 0.312926 0.365812
O O14 0.221886 0.281087 0.326921
O O15 0.933430 0.500000 0.860295
O O16 0.979461 0.262031 0.847866
O O17 0.879269 0.281607 0.742545
O O18 0.177445 0.248753 0.454040
O O19 0.142992 0.000000 0.478823
O O20 0.507801 0.500000 0.207632
O O21 0.324589 0.000000 0.625922
#
# Coordination Sequence:
#
# PCOD8097794 Si02
#       8
#     8   8   8   8   8   8   8   8
#     4   9  18  33  54  80 107 139 181 229 276 320
#     4  11  24  41  61  84 112 149 193 238 285 334
#     4  10  22  38  58  84 111 147 189 233 279 331
#     4  10  21  38  58  84 115 147 187 233 281 336
#     4  11  21  34  56  84 115 151 184 224 281 342
#     4  10  20  34  58  86 110 145 189 231 278 335
#     4  10  20  36  58  83 113 145 185 234 280 331
#     4  10  20  34  54  81 116 151 181 225 283 337
#
# _framework density 19.169134
#
# number of rings (size 3 to 8) (size 9 to 14) (size 15 to 20)
#    0.000    1.875    2.500    1.500    0.000    5.000 
#    0.000    3.750    0.000    1.500    0.000    0.000 
#    0.000    0.000    0.000    0.000    0.000    0.000 
#
# Total GULP energy -396905.502626 kJ/mol
# GULP energy per Si atom -12403.296957 kJ/mol
# Density = 1.912550 g / cm^3
# Si number density = 19.169134 Si / 1000 Ang^3
#
#
#
# Elastic Constant Matrix: (Units=GPa)
#
#
# Indices 1 2 3 4 5 6 
#
# 1 88.1548 30.2230 68.8387 0.0000 -19.7262 0.0000
# 2 30.2230 48.5783 47.1568 0.0000 -7.0563 0.0000
# 3 68.8387 47.1568 132.6008 0.0000 -4.3484 0.0000
# 4 0.0000 0.0000 0.0000 29.4047 0.0000 -3.1616
# 5 -19.7262 -7.0563 -4.3484 0.0000 30.9869 0.0000
# 6 0.0000 0.0000 0.0000 -3.1616 0.0000 25.1599
#
#
#
# Elastic Compliance Matrix: (Units=1/GPa)
#
#
# Indices 1 2 3 4 5 6 
#
# 1 0.023640 -0.002010 -0.011130 0.000000 0.013029 0.000000
# 2 -0.002010 0.032614 -0.010401 0.000000 0.004687 0.000000
# 3 -0.011130 -0.010401 0.016786 0.000000 -0.007098 0.000000
# 4 0.000000 0.000000 0.000000 0.034474 0.000000 0.004332
# 5 0.013029 0.004687 -0.007098 0.000000 0.040638 0.000000
# 6 0.000000 0.000000 0.000000 0.004332 0.000000 0.040290
#
#
# Mechanical properties :
#
#
# Convention : Reuss Voigt Hill
#
# Bulk Modulus (GPa) = 38.52675 62.41901 50.47288
# Shear Modulus (GPa) = 20.47700 25.31798 22.89749
#
# Velocity S-wave (km/s) = 3.27192 3.63818 3.45990
# Velocity P-wave (km/s) = 5.86651 7.09094 6.50758
#
# Compressibility (1/GPa) = 0.02595599
#
# Stress axis : x y z
#
# Youngs Moduli (GPa) = 42.30118 30.66206 59.57433
#
# Poissons Ratio (x) = 0.06164 0.66308
# Poissons Ratio (y) = 0.08504 0.61963
# Poissons Ratio (z) = 0.47082 0.31891
#
# Static dielectric constant tensor:
#      x y z
#    x 3.579980 0.000000 0.129210 
#    y 0.000000 3.314540 0.000000 
#    z 0.129210 0.000000 3.716270 
# 
# 
# High freq. dielectric constant tensor:
#      x y z
#    x 1.744440 0.000000 0.010350 
#    y 0.000000 1.726300 0.000000 
#    z 0.010350 0.000000 1.756420 
# 
# From -- ./inp_files/249167.got.cif
#   From: 2010.06.25/outbox.cif.g09.slc.cpg/sg12_125_cif.got.tgz:249167.got - 2010.06.28 00:19:55.
