data_PCOD8097277
_publ_section_title
;
Structure prediction by ZEFSAII (Michael W. Deem and Ramdas Pophale) SiO2 
 PCOD8097277
Probable space group: C 2/M
;
_chemical_formula_sum "Si O2"
_cell_formula_units_Z 56
_cell_length_a 8.727789
_cell_length_b 19.043630
_cell_length_c 22.120287
_cell_angle_alpha 90.000000
_cell_angle_beta 126.287739
_cell_angle_gamma 90.000000
_cell_volume 2963.530361
_symmetry_space_group_name_H-M "C 2/M"
_symmetry_group_IT_number 12
_symmetry_cell_setting 'monoclinic'
loop_
_space_group_symop_operation_xyz
x,y,z
-x,y,-z
-x,-y,-z
x,-y,z
1/2+x,1/2+y,z
1/2-x,1/2+y,-z
1/2-x,1/2-y,-z
1/2+x,1/2-y,z
loop_
_atom_site_type_symbol
_atom_site_label
_atom_site_fract_x
_atom_site_fract_y
_atom_site_fract_z
Si Si1 0.315502 0.825744 0.922691
Si Si2 0.871679 0.580921 0.628526
Si Si3 0.249576 0.580855 0.783808
Si Si4 0.320011 0.827032 0.500000
Si Si5 0.513897 0.419079 0.628526
Si Si6 0.952569 0.825744 0.922690
Si Si7 0.601850 0.419146 0.783809
O O1 0.357835 0.750000 0.905224
O O2 0.266218 0.875966 0.855405
O O3 0.145523 0.820686 0.930349
O O4 0.500000 0.856322 0.000000
O O5 0.896352 0.500000 0.613525
O O6 0.880630 0.630768 0.573331
O O7 0.672347 0.592256 0.614898
O O8 0.040550 0.602736 0.713045
O O9 0.256847 0.500000 0.804448
O O10 0.299997 0.624033 0.855405
O O11 0.396040 0.597434 0.764027
O O12 0.500000 0.818673 0.500000
O O13 0.250000 0.750000 0.500000
O O14 0.160637 0.869231 0.426668
O O15 0.444223 0.500000 0.613525
O O16 0.598585 0.397265 0.713045
O O17 0.000000 0.856322 0.000000
O O18 0.656498 0.500000 0.804449
#
# Coordination Sequence:
#
# PCOD8097277 Si02
#       7
#     8   8   8   8   8   8   8
#     4  10  20  34  53  76 105 141 179 221 268 322
#     4  10  21  38  60  85 113 145 182 224 270 324
#     4   9  19  36  56  79 107 141 182 224 268 319
#     4  12  25  40  59  83 113 147 183 226 273 322
#     4  10  21  38  60  85 113 145 182 224 270 324
#     4  10  20  34  53  76 105 141 179 221 268 322
#     4   9  19  36  56  79 107 141 182 224 268 319
#
# _framework density 18.896381000000002
#
# number of rings (size 3 to 8) (size 9 to 14) (size 15 to 20)
#    0.000    2.000    0.000    4.286    0.000    7.429 
#    0.000    2.857    0.000    0.000    0.000    0.000 
#    0.000    0.000    0.000    0.000    0.000    0.000 
#
# Total GULP energy -347298.615545 kJ/mol
# GULP energy per Si atom -12403.521984 kJ/mol
# Density = 1.885337 g / cm^3
# Si number density = 18.896381 Si / 1000 Ang^3
#
#
#
# Elastic Constant Matrix: (Units=GPa)
#
#
# Indices 1 2 3 4 5 6 
#
# 1 105.9990 56.6426 64.6568 -0.0001 -1.3234 0.0000
# 2 56.6426 104.0885 93.5013 0.0000 -1.9374 0.0000
# 3 64.6568 93.5013 156.7448 -0.0001 -1.3442 0.0000
# 4 -0.0001 0.0000 -0.0001 -35.5248 -0.0002 3.4303
# 5 -1.3234 -1.9374 -1.3442 -0.0002 33.2605 0.0000
# 6 0.0000 0.0000 0.0000 3.4303 0.0000 29.7527
#
#
#
# Elastic Compliance Matrix: (Units=1/GPa)
#
#
# Indices 1 2 3 4 5 6 
#
# 1 0.013781 -0.005152 -0.002610 0.000000 0.000143 0.000000
# 2 -0.005152 0.022641 -0.011375 0.000000 0.000654 0.000000
# 3 -0.002610 -0.011375 0.014240 0.000000 -0.000191 0.000000
# 4 0.000000 0.000000 0.000000 -0.027839 0.000000 0.003210
# 5 0.000143 0.000654 -0.000191 0.000000 0.030102 0.000000
# 6 0.000000 0.000000 0.000000 0.003210 0.000000 0.033240
#
#
# Mechanical properties :
#
#
# Convention : Reuss Voigt Hill
#
# Bulk Modulus (GPa) = 80.72342 88.49261 84.60802
# Shear Modulus (GPa) = 38.88979 15.63312 27.26145
#
# Velocity S-wave (km/s) = 4.54150 2.87942 3.80238
# Velocity P-wave (km/s) = 8.38523 7.61491 8.00933
#
# Compressibility (1/GPa) = 0.01238798
#
# Stress axis : x y z
#
# Youngs Moduli (GPa) = 72.56357 44.16776 70.22369
#
# Poissons Ratio (x) = 0.22755 0.18329
# Poissons Ratio (y) = 0.37385 0.79879
# Poissons Ratio (z) = 0.18940 0.50241
#
# Static dielectric constant tensor:
#      x y z
#    x 3.533220 0.000000 -0.005700 
#    y 0.000000 3.493790 0.000000 
#    z -0.005700 0.000000 3.641710 
# 
# 
# High freq. dielectric constant tensor:
#      x y z
#    x 1.742920 0.000000 -0.000210 
#    y 0.000000 1.730180 0.000000 
#    z -0.000210 0.000000 1.746870 
# 
# From -- ./inp_files/333408.got.cif
#   From: 2010.06.25/outbox.cif.g09.slc.cpg/sg12_167_cif.got.tgz:333408.got - 2010.06.28 00:19:55.
