data_PCOD8097752
_publ_section_title
;
Structure prediction by ZEFSAII (Michael W. Deem and Ramdas Pophale) SiO2 
 PCOD8097752
Probable space group: C 2/M
;
_chemical_formula_sum "Si O2"
_cell_formula_units_Z 56
_cell_length_a 20.270833
_cell_length_b 9.243685
_cell_length_c 30.775297
_cell_angle_alpha 90.000000
_cell_angle_beta 29.925093
_cell_angle_gamma 90.000000
_cell_volume 2876.762910
_symmetry_space_group_name_H-M "C 2/M"
_symmetry_group_IT_number 12
_symmetry_cell_setting 'monoclinic'
loop_
_space_group_symop_operation_xyz
x,y,z
-x,y,-z
-x,-y,-z
x,-y,z
1/2+x,1/2+y,z
1/2-x,1/2+y,-z
1/2-x,1/2-y,-z
1/2+x,1/2-y,z
loop_
_atom_site_type_symbol
_atom_site_label
_atom_site_fract_x
_atom_site_fract_y
_atom_site_fract_z
Si Si1 0.420332 0.836753 0.429972
Si Si2 0.973960 0.333028 0.783544
Si Si3 0.581439 0.671300 0.888396
Si Si4 0.396001 0.166333 0.595105
Si Si5 0.648008 0.166955 0.763075
Si Si6 0.129578 0.167974 0.624020
Si Si7 0.690214 0.670723 0.917590
O O1 0.542553 0.818341 0.392244
O O2 0.285538 0.799273 0.532353
O O3 0.444306 0.730260 0.376141
O O4 0.412352 0.000000 0.416323
O O5 0.979369 0.500000 0.765806
O O6 0.826882 0.268495 0.859514
O O7 0.013860 0.316380 0.811318
O O8 0.078796 0.244715 0.695912
O O9 0.585403 0.500000 0.877620
O O10 0.634035 0.750734 0.816144
O O11 0.675378 0.714413 0.875415
O O12 0.433414 0.728330 0.983571
O O13 0.500000 0.222631 0.500000
O O14 0.266604 0.265026 0.667153
O O15 0.357328 0.000000 0.606932
O O16 0.679778 0.000000 0.754245
O O17 0.096945 0.000000 0.645811
O O18 0.685597 0.500000 0.923717
#
# Coordination Sequence:
#
# PCOD8097752 Si02
#       7
#     8   8   8   8   8   8   8
#     4   9  19  35  54  76 105 145 185 228 280 329
#     4  10  21  37  55  78 113 153 185 222 278 340
#     4   9  18  37  63  86 107 140 191 239 273 328
#     4  10  21  38  59  79 105 148 198 237 270 322
#     4  11  24  37  53  83 121 152 181 229 290 341
#     4  10  20  34  54  81 110 138 182 235 276 325
#     4   8  17  36  62  85 106 142 191 234 274 328
#
# _framework density 19.466322999999999
#
# number of rings (size 3 to 8) (size 9 to 14) (size 15 to 20)
#    0.000    2.429    0.000    2.571    2.000    4.286 
#    0.000    2.143    0.000    0.000    0.000    0.000 
#    0.000    0.000    0.000    0.000    0.000    0.000 
#
# Total GULP energy -347220.960925 kJ/mol
# GULP energy per Si atom -12400.748604 kJ/mol
# Density = 1.942202 g / cm^3
# Si number density = 19.466323 Si / 1000 Ang^3
#
#
#
# Elastic Constant Matrix: (Units=GPa)
#
#
# Indices 1 2 3 4 5 6 
#
# 1 93.8615 36.6591 47.9570 -0.0007 -7.9798 0.0110
# 2 36.6591 72.5591 41.2552 -0.0033 3.3537 0.0192
# 3 47.9570 41.2552 95.7010 -0.0003 4.7204 0.0032
# 4 -0.0007 -0.0033 -0.0003 18.6520 -0.0004 2.8741
# 5 -7.9798 3.3537 4.7204 -0.0004 31.0986 0.0003
# 6 0.0110 0.0192 0.0032 2.8741 0.0003 23.2303
#
#
#
# Elastic Compliance Matrix: (Units=1/GPa)
#
#
# Indices 1 2 3 4 5 6 
#
# 1 0.016279 -0.004887 -0.006330 0.000000 0.005665 -0.000003
# 2 -0.004887 0.019743 -0.005939 0.000005 -0.002482 -0.000014
# 3 -0.006330 -0.005939 0.016353 -0.000002 -0.003466 0.000006
# 4 0.000000 0.000005 -0.000002 0.054655 0.000001 -0.006762
# 5 0.005665 -0.002482 -0.003466 0.000001 0.034403 -0.000001
# 6 -0.000003 -0.000014 0.000006 -0.006762 -0.000001 0.043884
#
#
# Mechanical properties :
#
#
# Convention : Reuss Voigt Hill
#
# Bulk Modulus (GPa) = 55.36869 57.09603 56.23236
# Shear Modulus (GPa) = 22.15823 23.67952 22.91887
#
# Velocity S-wave (km/s) = 3.37751 3.49153 3.43499
# Velocity P-wave (km/s) = 6.61174 6.75638 6.68445
#
# Compressibility (1/GPa) = 0.01806075
#
# Stress axis : x y z
#
# Youngs Moduli (GPa) = 61.43023 50.65166 61.15240
#
# Poissons Ratio (x) = 0.24754 0.38710
# Poissons Ratio (y) = 0.30022 0.36320
# Poissons Ratio (z) = 0.38886 0.30084
#
# Static dielectric constant tensor:
#      x y z
#    x 3.706550 -0.000010 -0.217990 
#    y -0.000010 3.371720 0.000010 
#    z -0.217990 0.000010 3.622850 
# 
# 
# High freq. dielectric constant tensor:
#      x y z
#    x 1.766650 0.000000 -0.002180 
#    y 0.000000 1.736660 0.000000 
#    z -0.002180 0.000000 1.754310 
# 
# From -- ./inp_files/380662.got.cif
#   From: 2010.06.25/outbox.cif.g09.slc.cpg/sg12_191_cif.got.tgz:380662.got - 2010.06.28 00:19:55.
