data_PCOD8097202
_publ_section_title
;
Structure prediction by ZEFSAII (Michael W. Deem and Ramdas Pophale) SiO2 
 PCOD8097202
Probable space group: C 2/M
;
_chemical_formula_sum "Si O2"
_cell_formula_units_Z 64
_cell_length_a 29.066021
_cell_length_b 9.001136
_cell_length_c 13.991332
_cell_angle_alpha 90.000000
_cell_angle_beta 104.606069
_cell_angle_gamma 90.000000
_cell_volume 3542.214366
_symmetry_space_group_name_H-M "C 2/M"
_symmetry_group_IT_number 12
_symmetry_cell_setting 'monoclinic'
loop_
_space_group_symop_operation_xyz
x,y,z
-x,y,-z
-x,-y,-z
x,-y,z
1/2+x,1/2+y,z
1/2-x,1/2+y,-z
1/2-x,1/2-y,-z
1/2+x,1/2-y,z
loop_
_atom_site_type_symbol
_atom_site_label
_atom_site_fract_x
_atom_site_fract_y
_atom_site_fract_z
Si Si1 0.299634 0.174994 0.315656
Si Si2 0.525051 0.323584 0.224751
Si Si3 0.799048 0.670931 0.522187
Si Si4 0.563691 0.826168 0.913521
Si Si5 0.112139 0.326356 0.748836
Si Si6 0.100941 0.674152 0.139674
Si Si7 0.300936 0.828169 0.730074
Si Si8 0.986405 0.323688 0.386202
O O1 0.322678 0.215391 0.432799
O O2 0.337930 0.243945 0.260935
O O3 0.247228 0.240765 0.271014
O O4 0.293837 0.000000 0.298563
O O5 0.523323 0.500000 0.230304
O O6 0.483416 0.266124 0.133385
O O7 0.574491 0.270585 0.205516
O O8 0.521336 0.255292 0.329060
O O9 0.787279 0.500000 0.511138
O O10 0.750000 0.750000 0.500000
O O11 0.824169 0.709436 0.636555
O O12 0.604238 0.789199 0.856248
O O13 0.550144 0.000000 0.902818
O O14 0.583448 0.777647 0.026012
O O15 0.115662 0.500000 0.732189
O O16 0.067179 0.268133 0.663790
O O17 0.091673 0.500000 0.154170
O O18 0.157262 0.711055 0.173719
O O19 0.286882 0.000000 0.728486
O O20 0.991767 0.500000 0.375070
O O21 0.000000 0.273891 0.500000
#
# Coordination Sequence:
#
# PCOD8097202 Si02
#       8
#     8   8   8   8   8   8   8   8
#     4   9  16  28  47  68  93 127 161 194 239 296
#     4  11  22  34  51  76 105 132 160 201 253 305
#     4   8  14  25  42  63  88 118 151 189 232 280
#     4   9  18  35  55  72  94 127 169 210 248 299
#     4   8  15  29  50  74  96 124 165 205 241 287
#     4  10  20  34  53  73  95 128 168 211 255 298
#     4   9  18  31  46  68  96 123 159 207 250 290
#     4   9  18  34  56  79 104 136 172 205 237 285
#
# _framework density 18.067795
#
# number of rings (size 3 to 8) (size 9 to 14) (size 15 to 20)
#    0.000    2.875    0.000    2.250    0.000    3.750 
#    0.000    6.875    0.000    4.500    0.000    0.000 
#    0.000    0.000    0.000    0.000    0.000    0.000 
#
# Total GULP energy -396441.553061 kJ/mol
# GULP energy per Si atom -12388.798533 kJ/mol
# Density = 1.802667 g / cm^3
# Si number density = 18.067795 Si / 1000 Ang^3
#
#
#
# Elastic Constant Matrix: (Units=GPa)
#
#
# Indices 1 2 3 4 5 6 
#
# 1 118.2271 31.4889 51.4039 0.0000 -14.5572 0.0000
# 2 31.4889 42.0906 32.7804 0.0000 -4.4645 0.0000
# 3 51.4039 32.7804 115.1285 0.0000 -5.4876 0.0000
# 4 0.0000 0.0000 0.0000 14.6546 0.0000 1.3137
# 5 -14.5572 -4.4645 -5.4876 0.0000 21.7225 0.0000
# 6 0.0000 0.0000 0.0000 1.3137 0.0000 20.5465
#
#
#
# Elastic Compliance Matrix: (Units=1/GPa)
#
#
# Indices 1 2 3 4 5 6 
#
# 1 0.012301 -0.005783 -0.003552 0.000000 0.006158 0.000000
# 2 -0.005783 0.033617 -0.006928 0.000000 0.001283 0.000000
# 3 -0.003552 -0.006928 0.012210 0.000000 -0.000720 0.000000
# 4 0.000000 0.000000 0.000000 0.068631 0.000000 -0.004388
# 5 0.006158 0.001283 -0.000720 0.000000 0.050244 0.000000
# 6 0.000000 0.000000 0.000000 -0.004388 0.000000 0.048951
#
#
# Mechanical properties :
#
#
# Convention : Reuss Voigt Hill
#
# Bulk Modulus (GPa) = 39.06121 56.31027 47.68574
# Shear Modulus (GPa) = 18.72553 22.03626 20.38089
#
# Velocity S-wave (km/s) = 3.22281 3.49613 3.36225
# Velocity P-wave (km/s) = 5.95944 6.89427 6.44383
#
# Compressibility (1/GPa) = 0.02560085
#
# Stress axis : x y z
#
# Youngs Moduli (GPa) = 81.29238 29.74706 81.89751
#
# Poissons Ratio (x) = 0.17203 0.29092
# Poissons Ratio (y) = 0.47013 0.56741
# Poissons Ratio (z) = 0.28877 0.20610
#
# Static dielectric constant tensor:
#      x y z
#    x 3.364290 0.000000 -0.155210 
#    y 0.000000 3.107850 0.000000 
#    z -0.155210 0.000000 3.300210 
# 
# 
# High freq. dielectric constant tensor:
#      x y z
#    x 1.691060 0.000000 -0.009520 
#    y 0.000000 1.674430 0.000000 
#    z -0.009520 0.000000 1.702320 
# 
# From -- ./inp_files/244180.got.cif
#   From: 2010.06.25/outbox.cif.g09.slc.cpg/sg12_123_cif.got.tgz:244180.got - 2010.06.28 00:19:55.
