data_PCOD8097412
_publ_section_title
;
Structure prediction by ZEFSAII (Michael W. Deem and Ramdas Pophale) SiO2 
 PCOD8097412
Probable space group: C 2/M
;
_chemical_formula_sum "Si O2"
_cell_formula_units_Z 48
_cell_length_a 20.750735
_cell_length_b 8.090515
_cell_length_c 26.973716
_cell_angle_alpha 90.000000
_cell_angle_beta 35.352945
_cell_angle_gamma 90.000000
_cell_volume 2620.218595
_symmetry_space_group_name_H-M "C 2/M"
_symmetry_group_IT_number 12
_symmetry_cell_setting 'monoclinic'
loop_
_space_group_symop_operation_xyz
x,y,z
-x,y,-z
-x,-y,-z
x,-y,z
1/2+x,1/2+y,z
1/2-x,1/2+y,-z
1/2-x,1/2-y,-z
1/2+x,1/2-y,z
loop_
_atom_site_type_symbol
_atom_site_label
_atom_site_fract_x
_atom_site_fract_y
_atom_site_fract_z
Si Si1 0.891558 0.000000 0.635915
Si Si2 0.458990 0.809422 0.753303
Si Si3 0.372660 0.803590 0.071440
Si Si4 0.804913 0.319568 0.416964
Si Si5 0.180861 0.311318 0.256364
Si Si6 0.238000 0.188188 0.062951
Si Si7 0.356238 0.500000 0.543082
O O1 0.842724 0.170164 0.688330
O O2 0.857857 0.000000 0.600274
O O3 0.024262 0.000000 0.558029
O O4 0.583776 0.728167 0.673073
O O5 0.407277 0.782600 0.731842
O O6 0.388139 0.714062 0.839214
O O7 0.459052 0.000000 0.769860
O O8 0.304924 0.714943 0.157742
O O9 0.326053 0.734327 0.047584
O O10 0.354875 0.000000 0.086687
O O11 0.500000 0.752412 0.000000
O O12 0.850233 0.500000 0.404449
O O13 0.750000 0.250000 0.500000
O O14 0.710532 0.335791 0.433486
O O15 0.171002 0.500000 0.283904
O O16 0.268853 0.000000 0.041429
O O17 0.250000 0.250000 0.000000
#
# Coordination Sequence:
#
# PCOD8097412 Si02
#       7
#     4   8   8   8   8   8   4
#     4  11  20  40  57  82 120 150 189 228 284 350
#     4   9  18  33  54  79 107 134 188 233 273 331
#     4   9  18  36  57  82 107 144 197 239 276 336
#     4   9  18  34  54  82 106 139 182 228 277 320
#     4  10  20  34  59  85 108 151 189 234 283 333
#     4  10  20  34  53  78 110 148 183 227 287 340
#     4   9  22  36  58  82 116 151 181 230 287 339
#
# _framework density 18.319082000000002
#
# number of rings (size 3 to 8) (size 9 to 14) (size 15 to 20)
#    0.500    2.000    0.833    1.500    1.167    1.667 
#    3.000    2.500    0.000    0.000    0.000    0.000 
#    0.000    0.000    0.000    0.000    0.000    0.000 
#
# Total GULP energy -297345.469058 kJ/mol
# GULP energy per Si atom -12389.394544 kJ/mol
# Density = 1.827739 g / cm^3
# Si number density = 18.319082 Si / 1000 Ang^3
#
#
#
# Elastic Constant Matrix: (Units=GPa)
#
#
# Indices 1 2 3 4 5 6 
#
# 1 95.2995 22.8634 78.1498 -0.0361 -14.6291 0.0408
# 2 22.8634 66.6293 38.5881 -0.0622 5.2367 -0.0139
# 3 78.1498 38.5881 146.4749 0.0063 -10.2314 -0.0206
# 4 -0.0361 -0.0622 0.0063 29.4507 0.0034 3.0841
# 5 -14.6291 5.2367 -10.2314 0.0034 33.5494 -0.0297
# 6 0.0408 -0.0139 -0.0206 3.0841 -0.0297 24.9620
#
#
#
# Elastic Compliance Matrix: (Units=1/GPa)
#
#
# Indices 1 2 3 4 5 6 
#
# 1 0.019734 -0.001625 -0.009689 0.000026 0.005904 -0.000037
# 2 -0.001625 0.018467 -0.004341 0.000039 -0.004915 -0.000001
# 3 -0.009689 -0.004341 0.013173 -0.000027 0.000470 0.000028
# 4 0.000026 0.000039 -0.000027 0.034400 -0.000010 -0.004250
# 5 0.005904 -0.004915 0.000470 -0.000010 0.033292 0.000029
# 6 -0.000037 -0.000001 0.000028 -0.004250 0.000029 0.040586
#
#
# Mechanical properties :
#
#
# Convention : Reuss Voigt Hill
#
# Bulk Modulus (GPa) = 49.83920 65.28959 57.56439
# Shear Modulus (GPa) = 25.29726 28.84590 27.07158
#
# Velocity S-wave (km/s) = 3.72011 3.97247 3.84836
# Velocity P-wave (km/s) = 6.76147 7.53381 7.15807
#
# Compressibility (1/GPa) = 0.02006453
#
# Stress axis : x y z
#
# Youngs Moduli (GPa) = 50.67275 54.15201 75.91293
#
# Poissons Ratio (x) = 0.08797 0.73550
# Poissons Ratio (y) = 0.08232 0.32957
# Poissons Ratio (z) = 0.49095 0.23510
#
# Static dielectric constant tensor:
#      x y z
#    x 3.054490 -0.000020 -0.359930 
#    y -0.000020 3.301550 0.000020 
#    z -0.359930 0.000020 3.516860 
# 
# 
# High freq. dielectric constant tensor:
#      x y z
#    x 1.695390 0.000000 -0.012250 
#    y 0.000000 1.696310 0.000000 
#    z -0.012250 0.000000 1.719750 
# 
# From -- ./inp_files/367136.got.cif
#   From: 2010.06.25/outbox.cif.g09.slc.cpg/sg12_184_cif.got.tgz:367136.got - 2010.06.28 00:19:55.
