data_PCOD8097022
_publ_section_title
;
Structure prediction by ZEFSAII (Michael W. Deem and Ramdas Pophale) SiO2 
 PCOD8097022
Probable space group: C 2/M
;
_chemical_formula_sum "Si O2"
_cell_formula_units_Z 56
_cell_length_a 22.468133
_cell_length_b 9.503049
_cell_length_c 16.690830
_cell_angle_alpha 90.000000
_cell_angle_beta 120.093121
_cell_angle_gamma 90.000000
_cell_volume 3083.402605
_symmetry_space_group_name_H-M "C 2/M"
_symmetry_group_IT_number 12
_symmetry_cell_setting 'monoclinic'
loop_
_space_group_symop_operation_xyz
x,y,z
-x,y,-z
-x,-y,-z
x,-y,z
1/2+x,1/2+y,z
1/2-x,1/2+y,-z
1/2-x,1/2-y,-z
1/2+x,1/2-y,z
loop_
_atom_site_type_symbol
_atom_site_label
_atom_site_fract_x
_atom_site_fract_y
_atom_site_fract_z
Si Si1 0.441527 0.162425 0.317713
Si Si2 0.589396 0.335455 0.249633
Si Si3 0.839728 0.332857 0.383756
Si Si4 0.703920 0.666783 0.207049
Si Si5 0.399708 0.163345 0.588028
Si Si6 0.565894 0.660886 0.839403
Si Si7 0.299597 0.663915 0.975817
O O1 0.401448 0.219543 0.368321
O O2 0.521849 0.187861 0.386076
O O3 0.413326 0.245145 0.222002
O O4 0.424278 0.000000 0.290084
O O5 0.600061 0.500000 0.273864
O O6 0.633093 0.286290 0.201953
O O7 0.618295 0.253597 0.346205
O O8 0.509776 0.297602 0.178688
O O9 0.839539 0.500000 0.385084
O O10 0.767739 0.272776 0.301671
O O11 0.852490 0.280187 0.483104
O O12 0.708148 0.500000 0.205567
O O13 0.707273 0.725076 0.118792
O O14 0.386208 0.000000 0.598502
O O15 0.565834 0.500000 0.810286
O O16 0.620924 0.686426 0.946356
O O17 0.279026 0.500000 0.967116
O O18 0.250000 0.750000 0.000000
#
# Coordination Sequence:
#
# PCOD8097022 Si02
#       7
#     8   8   8   8   8   8   8
#     4   9  16  28  48  71  94 122 156 191 230 278
#     4   9  18  33  49  67  93 124 158 191 226 272
#     4   9  16  27  45  69  94 121 156 196 233 270
#     4   9  18  31  48  69  93 123 158 193 227 271
#     4   9  17  29  47  70  94 121 155 195 234 272
#     4   9  18  31  48  70  96 123 151 190 234 272
#     4  10  20  34  52  74  97 121 151 188 232 278
#
# _framework density 18.161753000000001
#
# number of rings (size 3 to 8) (size 9 to 14) (size 15 to 20)
#    0.000    2.857    0.000    1.286    0.000    4.571 
#    0.000    4.286    0.000    5.143    0.000    5.000 
#    0.000    0.000    0.000    0.000    0.000    0.000 
#
# Total GULP energy -347157.735389 kJ/mol
# GULP energy per Si atom -12398.490550 kJ/mol
# Density = 1.812042 g / cm^3
# Si number density = 18.161753 Si / 1000 Ang^3
#
#
#
# Elastic Constant Matrix: (Units=GPa)
#
#
# Indices 1 2 3 4 5 6 
#
# 1 114.7868 32.2353 71.2298 0.0000 -18.3233 0.0000
# 2 32.2353 35.2183 36.6758 0.0000 -5.2619 0.0000
# 3 71.2298 36.6758 147.8089 0.0000 -3.8729 0.0000
# 4 0.0000 0.0000 0.0000 24.9537 0.0000 -3.8511
# 5 -18.3233 -5.2619 -3.8729 0.0000 27.9715 0.0000
# 6 0.0000 0.0000 0.0000 -3.8511 0.0000 19.8989
#
#
#
# Elastic Compliance Matrix: (Units=1/GPa)
#
#
# Indices 1 2 3 4 5 6 
#
# 1 0.015369 -0.007258 -0.005397 0.000000 0.007955 0.000000
# 2 -0.007258 0.042714 -0.007040 0.000000 0.002306 0.000000
# 3 -0.005397 -0.007040 0.011026 0.000000 -0.003333 0.000000
# 4 0.000000 0.000000 0.000000 0.041308 0.000000 0.007994
# 5 0.007955 0.002306 -0.003333 0.000000 0.040934 0.000000
# 6 0.000000 0.000000 0.000000 0.007994 0.000000 0.051801
#
#
# Mechanical properties :
#
#
# Convention : Reuss Voigt Hill
#
# Bulk Modulus (GPa) = 33.65005 64.23286 48.94145
# Shear Modulus (GPa) = 19.80592 25.07636 22.44114
#
# Velocity S-wave (km/s) = 3.30590 3.71984 3.51896
# Velocity P-wave (km/s) = 5.75675 7.34122 6.59673
#
# Compressibility (1/GPa) = 0.02971764
#
# Stress axis : x y z
#
# Youngs Moduli (GPa) = 65.06580 23.41141 90.69560
#
# Poissons Ratio (x) = 0.16993 0.48948
# Poissons Ratio (y) = 0.47228 0.63853
# Poissons Ratio (z) = 0.35116 0.16483
#
# Static dielectric constant tensor:
#      x y z
#    x 3.443150 0.000000 0.045460 
#    y 0.000000 3.067680 0.000000 
#    z 0.045460 0.000000 3.562070 
# 
# 
# High freq. dielectric constant tensor:
#      x y z
#    x 1.706790 0.000000 0.003980 
#    y 0.000000 1.664430 0.000000 
#    z 0.003980 0.000000 1.709510 
# 
# From -- ./inp_files/174783.got.cif
#   From: 2010.06.25/outbox.cif.g09.slc.cpg/sg12_88_cif.got.tgz:174783.got - 2010.06.28 00:19:55.
