data_PCOD8097561
_publ_section_title
;
Structure prediction by ZEFSAII (Michael W. Deem and Ramdas Pophale) SiO2 
 PCOD8097561
Probable space group: C 2/M
;
_chemical_formula_sum "Si O2"
_cell_formula_units_Z 48
_cell_length_a 14.638388
_cell_length_b 9.431921
_cell_length_c 28.018728
_cell_angle_alpha 90.000000
_cell_angle_beta 40.937765
_cell_angle_gamma 90.000000
_cell_volume 2534.787041
_symmetry_space_group_name_H-M "C 2/M"
_symmetry_group_IT_number 12
_symmetry_cell_setting 'monoclinic'
loop_
_space_group_symop_operation_xyz
x,y,z
-x,y,-z
-x,-y,-z
x,-y,z
1/2+x,1/2+y,z
1/2-x,1/2+y,-z
1/2-x,1/2-y,-z
1/2+x,1/2-y,z
loop_
_atom_site_type_symbol
_atom_site_label
_atom_site_fract_x
_atom_site_fract_y
_atom_site_fract_z
Si Si1 0.913347 0.165297 0.392728
Si Si2 0.915030 0.831494 0.989425
Si Si3 0.869798 0.338985 0.748022
Si Si4 0.627358 0.838587 0.143344
Si Si5 0.432736 0.334705 0.164181
Si Si6 0.090958 0.664415 0.510337
O O1 0.951971 0.242298 0.427150
O O2 0.755358 0.189799 0.437048
O O3 0.009240 0.230610 0.313736
O O4 0.945676 0.000000 0.386606
O O5 0.982340 0.771149 0.914479
O O6 0.929855 0.000000 0.984364
O O7 0.754041 0.786286 0.059484
O O8 0.000000 0.765741 0.000000
O O9 0.919382 0.500000 0.718066
O O10 0.828565 0.320772 0.819317
O O11 0.730889 0.302282 0.773504
O O12 0.491360 0.743893 0.187550
O O13 0.588688 0.000000 0.147147
O O14 0.461209 0.500000 0.158174
O O15 0.060093 0.500000 0.534206
O O16 0.000000 0.711905 0.500000
#
# Coordination Sequence:
#
# PCOD8097561 Si02
#       6
#     8   8   8   8   8   8
#     4  10  21  36  57  85 113 140 174 220 263 302
#     4   9  15  30  55  76  98 135 184 227 267 323
#     4  10  21  37  54  74 107 149 183 212 260 326
#     4  10  20  34  54  78 104 138 181 229 274 317
#     4  10  20  34  54  77 102 139 183 225 271 323
#     4   9  19  38  62  85 110 142 177 210 254 316
#
# _framework density 18.936503999999999
#
# number of rings (size 3 to 8) (size 9 to 14) (size 15 to 20)
#    0.000    2.333    1.667    1.000    0.000    3.667 
#    0.000    5.000    0.000    1.000    0.000    0.000 
#    0.000    0.000    0.000    0.000    0.000    0.000 
#
# Total GULP energy -297584.569933 kJ/mol
# GULP energy per Si atom -12399.357081 kJ/mol
# Density = 1.889340 g / cm^3
# Si number density = 18.936504 Si / 1000 Ang^3
#
#
#
# Elastic Constant Matrix: (Units=GPa)
#
#
# Indices 1 2 3 4 5 6 
#
# 1 105.7845 39.4358 14.0305 0.0000 -14.5646 0.0001
# 2 39.4358 64.4470 40.1418 0.0001 -9.4410 0.0000
# 3 14.0305 40.1418 82.2455 0.0000 -7.2075 0.0000
# 4 0.0000 0.0001 0.0000 30.4413 0.0000 -0.6512
# 5 -14.5646 -9.4410 -7.2075 0.0000 17.6087 0.0000
# 6 0.0001 0.0000 0.0000 -0.6512 0.0000 29.0327
#
#
#
# Elastic Compliance Matrix: (Units=1/GPa)
#
#
# Indices 1 2 3 4 5 6 
#
# 1 0.013391 -0.008742 0.002637 0.000000 0.007468 0.000000
# 2 -0.008742 0.029079 -0.012414 0.000000 0.003278 0.000000
# 3 0.002637 -0.012414 0.018022 0.000000 0.002902 0.000000
# 4 0.000000 0.000000 0.000000 0.032866 0.000000 0.000737
# 5 0.007468 0.003278 0.002902 0.000000 0.065913 0.000000
# 6 0.000000 0.000000 0.000000 0.000737 0.000000 0.034460
#
#
# Mechanical properties :
#
#
# Convention : Reuss Voigt Hill
#
# Bulk Modulus (GPa) = 42.63855 48.85482 45.74668
# Shear Modulus (GPa) = 20.95675 26.00779 23.48227
#
# Velocity S-wave (km/s) = 3.33030 3.70999 3.52526
# Velocity P-wave (km/s) = 6.11174 6.64886 6.38595
#
# Compressibility (1/GPa) = 0.02345296
#
# Stress axis : x y z
#
# Youngs Moduli (GPa) = 74.67836 34.38951 55.48767
#
# Poissons Ratio (x) = 0.30065 -0.14632
# Poissons Ratio (y) = 0.65287 0.68881
# Poissons Ratio (z) = -0.19693 0.42690
#
# Static dielectric constant tensor:
#      x y z
#    x 3.468450 0.000000 -0.051620 
#    y 0.000000 3.238630 0.000000 
#    z -0.051620 0.000000 3.393710 
# 
# 
# High freq. dielectric constant tensor:
#      x y z
#    x 1.740620 0.000000 -0.005160 
#    y 0.000000 1.714110 0.000000 
#    z -0.005160 0.000000 1.731920 
# 
# From -- ./inp_files/360310.got.cif
#   From: 2010.06.25/outbox.cif.g09.slc.cpg/sg12_181_cif.got.tgz:360310.got - 2010.06.28 00:19:55.
