data_PCOD8097067
_publ_section_title
;
Structure prediction by ZEFSAII (Michael W. Deem and Ramdas Pophale) SiO2 
 PCOD8097067
Probable space group: C 2/M
;
_chemical_formula_sum "Si O2"
_cell_formula_units_Z 64
_cell_length_a 20.384581
_cell_length_b 8.819697
_cell_length_c 19.762897
_cell_angle_alpha 90.000000
_cell_angle_beta 90.044920
_cell_angle_gamma 90.000000
_cell_volume 3553.087707
_symmetry_space_group_name_H-M "C 2/M"
_symmetry_group_IT_number 12
_symmetry_cell_setting 'monoclinic'
loop_
_space_group_symop_operation_xyz
x,y,z
-x,y,-z
-x,-y,-z
x,-y,z
1/2+x,1/2+y,z
1/2-x,1/2+y,-z
1/2-x,1/2-y,-z
1/2+x,1/2-y,z
loop_
_atom_site_type_symbol
_atom_site_label
_atom_site_fract_x
_atom_site_fract_y
_atom_site_fract_z
Si Si1 0.440611 0.678204 0.046741
Si Si2 0.556414 0.678846 0.799021
Si Si3 0.694980 0.821473 0.953761
Si Si4 0.300295 0.679627 0.694185
Si Si5 0.058576 0.179086 0.451477
Si Si6 0.191595 0.678351 0.799971
Si Si7 0.053605 0.822055 0.298936
Si Si8 0.697416 0.180053 0.449797
O O1 0.428257 0.500000 0.039339
O O2 0.457820 0.724581 0.123543
O O3 0.375595 0.762982 0.021489
O O4 0.500000 0.733665 0.000000
O O5 0.560546 0.500000 0.790568
O O6 0.624973 0.746259 0.773494
O O7 0.498654 0.751583 0.752862
O O8 0.707572 0.769411 0.876407
O O9 0.697817 0.000000 0.961492
O O10 0.750000 0.750000 0.000000
O O11 0.297255 0.500000 0.680216
O O12 0.250180 0.732965 0.751784
O O13 0.372604 0.728766 0.719798
O O14 0.283498 0.765156 0.625117
O O15 0.037407 0.226322 0.375699
O O16 0.125293 0.263686 0.471972
O O17 0.000000 0.232382 0.500000
O O18 0.071800 0.000000 0.456901
O O19 0.182041 0.500000 0.796566
O O20 0.047567 0.000000 0.290830
O O21 0.750000 0.250000 0.500000
O O22 0.699958 0.000000 0.453483
#
# Coordination Sequence:
#
# PCOD8097067 Si02
#       8
#     8   8   8   8   8   8   8   8
#     4   9  18  32  50  72  99 132 171 212 252 299
#     4   9  17  30  49  72  98 129 165 205 247 298
#     4  10  20  34  52  75 104 137 173 213 259 308
#     4   9  18  35  55  74  99 132 171 212 255 303
#     4   9  18  34  54  75 102 135 170 208 252 302
#     4   9  19  34  52  74 101 133 167 209 258 305
#     4   8  15  29  49  71  94 123 160 200 242 290
#     4  11  22  36  54  77 106 138 174 214 256 303
#
# _framework density 18.012501
#
# number of rings (size 3 to 8) (size 9 to 14) (size 15 to 20)
#    0.000    2.750    0.000    2.250    0.000    3.500 
#    0.000    7.500    0.000    0.000    0.000    0.000 
#    0.000    0.000    0.000    0.000    0.000    0.000 
#
# Total GULP energy -396785.775715 kJ/mol
# GULP energy per Si atom -12399.555491 kJ/mol
# Density = 1.797150 g / cm^3
# Si number density = 18.012501 Si / 1000 Ang^3
#
#
#
# Elastic Constant Matrix: (Units=GPa)
#
#
# Indices 1 2 3 4 5 6 
#
# 1 182.0662 49.7305 116.7544 0.0000 2.0058 0.0000
# 2 49.7305 50.9382 35.3663 0.0000 2.5784 0.0000
# 3 116.7544 35.3663 111.7782 0.0000 0.9730 0.0000
# 4 0.0000 0.0000 0.0000 21.7229 0.0000 0.4128
# 5 2.0058 2.5784 0.9730 0.0000 45.8372 0.0000
# 6 0.0000 0.0000 0.0000 0.4128 0.0000 31.6714
#
#
#
# Elastic Compliance Matrix: (Units=1/GPa)
#
#
# Indices 1 2 3 4 5 6 
#
# 1 0.017858 -0.005740 -0.016836 0.000000 -0.000101 0.000000
# 2 -0.005740 0.027075 -0.002560 0.000000 -0.001217 0.000000
# 3 -0.016836 -0.002560 0.027339 0.000000 0.000300 0.000000
# 4 0.000000 0.000000 0.000000 0.046046 0.000000 -0.000600
# 5 -0.000101 -0.001217 0.000300 0.000000 0.021883 0.000000
# 6 0.000000 0.000000 0.000000 -0.000600 0.000000 0.031582
#
#
# Mechanical properties :
#
#
# Convention : Reuss Voigt Hill
#
# Bulk Modulus (GPa) = 45.45548 83.16499 64.31024
# Shear Modulus (GPa) = 21.79711 29.37506 25.58609
#
# Velocity S-wave (km/s) = 3.48244 4.04272 3.77299
# Velocity P-wave (km/s) = 6.43895 8.24999 7.40008
#
# Compressibility (1/GPa) = 0.02199955
#
# Stress axis : x y z
#
# Youngs Moduli (GPa) = 55.99724 36.93469 36.57765
#
# Poissons Ratio (x) = 0.21202 0.61582
# Poissons Ratio (y) = 0.32144 0.09364
# Poissons Ratio (z) = 0.94277 0.09455
#
# Static dielectric constant tensor:
#      x y z
#    x 3.624250 0.000000 0.034540 
#    y 0.000000 3.141070 0.000000 
#    z 0.034540 0.000000 3.237480 
# 
# 
# High freq. dielectric constant tensor:
#      x y z
#    x 1.706310 0.000000 0.001130 
#    y 0.000000 1.679740 0.000000 
#    z 0.001130 0.000000 1.697700 
# 
# From -- ./inp_files/314219.got.cif
#   From: 2010.06.25/outbox.cif.g09.slc.cpg/sg12_158_cif.got.tgz:314219.got - 2010.06.28 00:19:55.
