data_PCOD8097684
_publ_section_title
;
Structure prediction by ZEFSAII (Michael W. Deem and Ramdas Pophale) SiO2 
 PCOD8097684
Probable space group: C 2/M
;
_chemical_formula_sum "Si O2"
_cell_formula_units_Z 64
_cell_length_a 20.647605
_cell_length_b 18.224289
_cell_length_c 9.116456
_cell_angle_alpha 90.000000
_cell_angle_beta 89.999954
_cell_angle_gamma 90.000000
_cell_volume 3430.412272
_symmetry_space_group_name_H-M "C 2/M"
_symmetry_group_IT_number 12
_symmetry_cell_setting 'monoclinic'
loop_
_space_group_symop_operation_xyz
x,y,z
-x,y,-z
-x,-y,-z
x,-y,z
1/2+x,1/2+y,z
1/2-x,1/2+y,-z
1/2-x,1/2-y,-z
1/2+x,1/2-y,z
loop_
_atom_site_type_symbol
_atom_site_label
_atom_site_fract_x
_atom_site_fract_y
_atom_site_fract_z
Si Si1 0.128434 0.414802 0.827750
Si Si2 0.625861 0.415355 0.329442
Si Si3 0.374139 0.415355 0.329442
Si Si4 0.255921 0.835929 0.330594
Si Si5 0.128435 0.414802 0.172250
Si Si6 0.000000 0.587110 0.334405
Si Si7 0.244079 0.664071 0.330593
Si Si8 0.500000 0.587349 0.165539
O O1 0.140757 0.500000 0.789577
O O2 0.187952 0.367629 0.770106
O O3 0.063736 0.384675 0.749438
O O4 0.120117 0.402831 1.000000
O O5 0.637553 0.500000 0.289308
O O6 0.611543 0.404538 0.500000
O O7 0.688855 0.371557 0.278309
O O8 0.564240 0.382198 0.244222
O O9 0.362447 0.500000 0.289308
O O10 0.311145 0.371557 0.278308
O O11 0.435761 0.382198 0.244223
O O12 0.250000 0.750000 0.305490
O O13 0.270623 0.855556 0.500000
O O14 0.140758 0.500000 0.210422
O O15 0.063737 0.384675 0.250563
O O16 0.187952 0.367628 0.229891
O O17 0.000000 0.500000 0.334452
O O18 0.000000 0.618344 0.500000
O O19 0.500000 0.500000 0.176136
O O20 0.500000 0.616030 0.000000
#
# Coordination Sequence:
#
# PCOD8097684 Si02
#       8
#     8   8   8   8   8   8   8   8
#     4  10  20  34  54  80 108 137 171 214 264 316
#     4   9  17  31  52  75  99 129 165 205 249 298
#     4   9  17  31  52  75  99 129 165 205 249 298
#     4  10  21  36  53  75 104 139 178 216 255 304
#     4  10  20  34  54  80 108 137 171 214 264 316
#     4   9  17  31  54  81 106 133 169 215 262 309
#     4  10  21  36  53  75 104 139 178 216 255 304
#     4   9  17  29  48  75 102 125 157 205 254 299
#
# _framework density 18.656649000000002
#
# number of rings (size 3 to 8) (size 9 to 14) (size 15 to 20)
#    0.000    2.500    0.000    2.250    0.000    7.000 
#    0.000    3.750    0.000    3.000    0.000    0.000 
#    0.000    0.000    0.000    0.000    0.000    0.000 
#
# Total GULP energy -396880.444785 kJ/mol
# GULP energy per Si atom -12402.513900 kJ/mol
# Density = 1.861419 g / cm^3
# Si number density = 18.656649 Si / 1000 Ang^3
#
#
#
# Elastic Constant Matrix: (Units=GPa)
#
#
# Indices 1 2 3 4 5 6 
#
# 1 187.2479 54.3454 84.1972 0.0000 0.0008 0.0000
# 2 54.3454 51.0046 36.1094 0.0000 0.0004 0.0000
# 3 84.1972 36.1094 106.0620 0.0000 0.0008 0.0000
# 4 0.0000 0.0000 0.0000 18.4780 0.0000 -0.0003
# 5 0.0008 0.0004 0.0008 0.0000 30.7950 0.0000
# 6 0.0000 0.0000 0.0000 -0.0003 0.0000 -4.4950
#
#
#
# Elastic Compliance Matrix: (Units=1/GPa)
#
#
# Indices 1 2 3 4 5 6 
#
# 1 0.009674 -0.006417 -0.005495 0.000000 0.000000 0.000000
# 2 -0.006417 0.030090 -0.005150 0.000000 0.000000 0.000000
# 3 -0.005495 -0.005150 0.015544 0.000000 0.000000 0.000000
# 4 0.000000 0.000000 0.000000 0.054119 0.000000 -0.000003
# 5 0.000000 0.000000 0.000000 0.000000 0.032473 0.000000
# 6 0.000000 0.000000 0.000000 -0.000003 0.000000 -0.222467
#
#
# Mechanical properties :
#
#
# Convention : Reuss Voigt Hill
#
# Bulk Modulus (GPa) = 47.20667 77.06870 62.13769
# Shear Modulus (GPa) = -126.95433 20.26641 -53.34396
#
# Velocity S-wave (km/s) = -8.25806 3.29946 -5.35299
# Velocity P-wave (km/s) = 8.09750 7.47756 2.19723
#
# Compressibility (1/GPa) = 0.02118345
#
# Stress axis : x y z
#
# Youngs Moduli (GPa) = 103.37250 33.23403 64.33503
#
# Poissons Ratio (x) = 0.21328 0.35350
# Poissons Ratio (y) = 0.66338 0.33131
# Poissons Ratio (z) = 0.56800 0.17115
#
# Static dielectric constant tensor:
#      x y z
#    x 3.639250 0.000000 0.000000 
#    y 0.000000 3.093130 0.000000 
#    z 0.000000 0.000000 3.454280 
# 
# 
# High freq. dielectric constant tensor:
#      x y z
#    x 1.741420 0.000000 0.000000 
#    y 0.000000 1.688510 0.000000 
#    z 0.000000 0.000000 1.726250 
# 
# From -- ./inp_files/87989.got.cif
#   From: 2010.06.25/outbox.cif.g09.slc.cpg/sg12_44_cif.got.tgz:87989.got - 2010.06.28 00:19:55.
