data_PCOD8097734
_publ_section_title
;
Structure prediction by ZEFSAII (Michael W. Deem and Ramdas Pophale) SiO2 
 PCOD8097734
Probable space group: C 2/M
;
_chemical_formula_sum "Si O2"
_cell_formula_units_Z 64
_cell_length_a 15.469588
_cell_length_b 8.822759
_cell_length_c 30.635489
_cell_angle_alpha 90.000000
_cell_angle_beta 51.184728
_cell_angle_gamma 90.000000
_cell_volume 3257.922245
_symmetry_space_group_name_H-M "C 2/M"
_symmetry_group_IT_number 12
_symmetry_cell_setting 'monoclinic'
loop_
_space_group_symop_operation_xyz
x,y,z
-x,y,-z
-x,-y,-z
x,-y,z
1/2+x,1/2+y,z
1/2-x,1/2+y,-z
1/2-x,1/2-y,-z
1/2+x,1/2-y,z
loop_
_atom_site_type_symbol
_atom_site_label
_atom_site_fract_x
_atom_site_fract_y
_atom_site_fract_z
Si Si1 0.013690 0.825999 0.167453
Si Si2 0.113678 0.676342 0.940276
Si Si3 0.326500 0.673855 0.163305
Si Si4 0.530692 0.179693 0.557941
Si Si5 0.573402 0.821535 0.238771
Si Si6 0.207873 0.321674 0.057741
Si Si7 0.909087 0.679556 0.366104
Si Si8 0.675140 0.179410 0.431864
O O1 0.023505 0.755874 0.211935
O O2 0.087753 0.740872 0.108132
O O3 0.886583 0.809976 0.191210
O O4 0.051728 0.000000 0.157523
O O5 0.142104 0.500000 0.937446
O O6 0.106990 0.720151 0.891692
O O7 0.210523 0.779584 0.928941
O O8 0.000000 0.718622 0.000000
O O9 0.331831 0.500000 0.145425
O O10 0.199746 0.729178 0.207632
O O11 0.557730 0.247990 0.597032
O O12 0.625040 0.233906 0.494158
O O13 0.409201 0.232310 0.579766
O O14 0.530859 0.000000 0.559434
O O15 0.502297 0.766751 0.302596
O O16 0.564849 0.000000 0.234468
O O17 0.200475 0.500000 0.053796
O O18 0.250000 0.250000 0.000000
O O19 0.902026 0.500000 0.370774
O O20 0.791895 0.741544 0.386838
O O21 0.691759 0.000000 0.425874
#
# Coordination Sequence:
#
# PCOD8097734 Si02
#       8
#     8   8   8   8   8   8   8   8
#     4  11  23  40  63  89 114 146 194 244 293 346
#     4  11  23  38  59  89 120 149 187 235 288 344
#     4  10  22  40  61  84 112 150 191 234 289 352
#     4   8  16  32  54  80 113 153 191 234 289 353
#     4  10  22  40  58  80 113 156 195 236 291 352
#     4  12  24  39  60  87 121 155 190 233 287 349
#     4  10  20  34  54  80 113 151 194 237 290 346
#     4   9  17  32  55  82 112 148 194 240 289 344
#
# _framework density 19.644421999999999
#
# number of rings (size 3 to 8) (size 9 to 14) (size 15 to 20)
#    0.000    1.875    1.250    3.750    0.000    5.500 
#    0.000    4.375    0.000    0.000    0.000    0.000 
#    0.000    0.000    0.000    0.000    0.000    0.000 
#
# Total GULP energy -396855.089146 kJ/mol
# GULP energy per Si atom -12401.721536 kJ/mol
# Density = 1.959971 g / cm^3
# Si number density = 19.644422 Si / 1000 Ang^3
#
#
#
# Elastic Constant Matrix: (Units=GPa)
#
#
# Indices 1 2 3 4 5 6 
#
# 1 128.0975 28.4502 62.4082 -0.0006 -7.1524 -0.0006
# 2 28.4502 50.4099 43.4192 -0.0016 -0.2049 -0.0013
# 3 62.4082 43.4192 127.6369 0.0001 -10.8405 0.0001
# 4 -0.0006 -0.0016 0.0001 25.2937 -0.0001 -0.1239
# 5 -7.1524 -0.2049 -10.8405 -0.0001 29.6359 -0.0001
# 6 -0.0006 -0.0013 0.0001 -0.1239 -0.0001 31.3165
#
#
#
# Elastic Compliance Matrix: (Units=1/GPa)
#
#
# Indices 1 2 3 4 5 6 
#
# 1 0.010429 -0.002205 -0.004269 0.000000 0.000940 0.000000
# 2 -0.002205 0.028861 -0.009049 0.000002 -0.003643 0.000001
# 3 -0.004269 -0.009049 0.013322 -0.000001 0.003780 0.000000
# 4 0.000000 0.000002 -0.000001 0.039536 0.000000 0.000156
# 5 0.000940 -0.003643 0.003780 0.000000 0.035327 0.000000
# 6 0.000000 0.000001 0.000000 0.000156 0.000000 0.031933
#
#
# Mechanical properties :
#
#
# Convention : Reuss Voigt Hill
#
# Bulk Modulus (GPa) = 46.37160 63.85551 55.11356
# Shear Modulus (GPa) = 25.29817 28.70699 27.00258
#
# Velocity S-wave (km/s) = 3.59249 3.82688 3.71154
# Velocity P-wave (km/s) = 6.39255 7.21824 6.81791
#
# Compressibility (1/GPa) = 0.02156492
#
# Stress axis : x y z
#
# Youngs Moduli (GPa) = 95.88966 34.64854 75.06582
#
# Poissons Ratio (x) = 0.07639 0.32048
# Poissons Ratio (y) = 0.21140 0.67930
# Poissons Ratio (z) = 0.40938 0.31355
#
# Static dielectric constant tensor:
#      x y z
#    x 3.818660 0.000000 0.055690 
#    y 0.000000 3.383130 0.000000 
#    z 0.055690 0.000000 3.660080 
# 
# 
# High freq. dielectric constant tensor:
#      x y z
#    x 1.780230 0.000000 -0.000550 
#    y 0.000000 1.748910 0.000000 
#    z -0.000550 0.000000 1.761880 
# 
# From -- ./inp_files/375376.got.cif
#   From: 2010.06.25/outbox.cif.g09.slc.cpg/sg12_188_cif.got.tgz:375376.got - 2010.06.28 00:19:55.
