data_PCOD8097431
_publ_section_title
;
Structure prediction by ZEFSAII (Michael W. Deem and Ramdas Pophale) SiO2 
 PCOD8097431
Probable space group: C 2/M
;
_chemical_formula_sum "Si O2"
_cell_formula_units_Z 64
_cell_length_a 19.013605
_cell_length_b 8.818977
_cell_length_c 22.525878
_cell_angle_alpha 90.000000
_cell_angle_beta 64.914634
_cell_angle_gamma 90.000000
_cell_volume 3420.879676
_symmetry_space_group_name_H-M "C 2/M"
_symmetry_group_IT_number 12
_symmetry_cell_setting 'monoclinic'
loop_
_space_group_symop_operation_xyz
x,y,z
-x,y,-z
-x,-y,-z
x,-y,z
1/2+x,1/2+y,z
1/2-x,1/2+y,-z
1/2-x,1/2-y,-z
1/2+x,1/2-y,z
loop_
_atom_site_type_symbol
_atom_site_label
_atom_site_fract_x
_atom_site_fract_y
_atom_site_fract_z
Si Si1 0.344396 0.174584 0.128599
Si Si2 0.644393 0.320853 0.374106
Si Si3 0.020086 0.177601 0.609236
Si Si4 0.006738 0.325300 0.135552
Si Si5 0.418214 0.670783 0.996563
Si Si6 0.545751 0.321480 0.242862
Si Si7 0.802141 0.678713 0.761482
Si Si8 0.675832 0.679266 0.496263
O O1 0.421944 0.196567 0.138806
O O2 0.357503 0.231232 0.056570
O O3 0.279833 0.278391 0.181314
O O4 0.317969 0.000000 0.136545
O O5 0.649214 0.500000 0.360325
O O6 0.555285 0.263759 0.399829
O O7 0.696997 0.238139 0.306415
O O8 0.675895 0.275383 0.427176
O O9 0.098889 0.250089 0.554915
O O10 0.010672 0.218804 0.681867
O O11 0.026001 0.000000 0.597007
O O12 0.029588 0.500000 0.133056
O O13 0.005734 0.249205 0.199996
O O14 0.072052 0.246143 0.071429
O O15 0.386537 0.500000 0.000284
O O16 0.500000 0.670674 0.000000
O O17 0.555006 0.500000 0.231541
O O18 0.630645 0.253417 0.223156
O O19 0.813176 0.500000 0.758137
O O20 0.678875 0.500000 0.503167
O O21 0.750000 0.750000 0.500000
#
# Coordination Sequence:
#
# PCOD8097431 Si02
#       8
#     8   8   8   8   8   8   8   8
#     4  10  20  35  55  79 109 143 179 220 267 317
#     4   9  18  35  57  76  98 136 181 218 258 312
#     4   8  16  33  56  76  96 132 179 216 250 305
#     4  10  20  34  54  80 109 141 178 220 266 315
#     4   9  17  31  52  78 107 140 180 220 261 314
#     4  10  20  36  57  79 106 140 178 220 268 320
#     4  11  22  36  55  79 108 140 178 223 268 317
#     4  10  20  34  53  79 109 137 169 214 265 314
#
# _framework density 18.708639000000002
#
# number of rings (size 3 to 8) (size 9 to 14) (size 15 to 20)
#    0.000    2.375    0.000    3.750    0.000    6.000 
#    0.000    6.250    0.000    3.750    0.000    0.000 
#    0.000    0.000    0.000    0.000    0.000    0.000 
#
# Total GULP energy -396827.338336 kJ/mol
# GULP energy per Si atom -12400.854323 kJ/mol
# Density = 1.866606 g / cm^3
# Si number density = 18.708639 Si / 1000 Ang^3
#
#
#
# Elastic Constant Matrix: (Units=GPa)
#
#
# Indices 1 2 3 4 5 6 
#
# 1 49.3646 18.7688 24.5526 0.0000 -3.3786 0.0000
# 2 18.7688 75.7158 19.8951 -0.0002 7.3051 -0.0008
# 3 24.5526 19.8951 68.6107 0.0001 -6.8167 0.0003
# 4 0.0000 -0.0002 0.0001 29.7882 0.0000 2.8704
# 5 -3.3786 7.3051 -6.8167 0.0000 26.3315 0.0000
# 6 0.0000 -0.0008 0.0003 2.8704 0.0000 29.3282
#
#
#
# Elastic Compliance Matrix: (Units=1/GPa)
#
#
# Indices 1 2 3 4 5 6 
#
# 1 0.026052 -0.004690 -0.007699 0.000000 0.002651 0.000000
# 2 -0.004690 0.015862 -0.003508 0.000000 -0.005911 0.000000
# 3 -0.007699 -0.003508 0.018830 0.000000 0.004860 0.000000
# 4 0.000000 0.000000 0.000000 0.033890 0.000000 -0.003317
# 5 0.002651 -0.005911 0.004860 0.000000 0.041215 0.000000
# 6 0.000000 0.000000 0.000000 -0.003317 0.000000 0.034421
#
#
# Mechanical properties :
#
#
# Convention : Reuss Voigt Hill
#
# Bulk Modulus (GPa) = 34.54460 35.56935 35.05698
# Shear Modulus (GPa) = 23.61652 25.78788 24.70220
#
# Velocity S-wave (km/s) = 3.55679 3.71670 3.63762
# Velocity P-wave (km/s) = 5.94746 6.12144 6.03508
#
# Compressibility (1/GPa) = 0.02894809
#
# Stress axis : x y z
#
# Youngs Moduli (GPa) = 38.38539 63.04343 53.10577
#
# Poissons Ratio (x) = 0.29571 0.40887
# Poissons Ratio (y) = 0.18005 0.18631
# Poissons Ratio (z) = 0.29554 0.22117
#
# Static dielectric constant tensor:
#      x y z
#    x 3.311750 0.000000 -0.014140 
#    y 0.000000 3.389720 0.000000 
#    z -0.014140 0.000000 3.671800 
# 
# 
# High freq. dielectric constant tensor:
#      x y z
#    x 1.707620 0.000000 0.000100 
#    y 0.000000 1.721470 0.000000 
#    z 0.000100 0.000000 1.740440 
# 
# From -- ./inp_files/319898.got.cif
#   From: 2010.06.25/outbox.cif.g09.slc.cpg/sg12_160_cif.got.tgz:319898.got - 2010.06.28 00:19:55.
