data_PCOD8097375
_publ_section_title
;
Structure prediction by ZEFSAII (Michael W. Deem and Ramdas Pophale) SiO2 
 PCOD8097375
Probable space group: C 2/M
;
_chemical_formula_sum "Si O2"
_cell_formula_units_Z 64
_cell_length_a 14.557352
_cell_length_b 9.380957
_cell_length_c 26.669413
_cell_angle_alpha 90.000000
_cell_angle_beta 105.546917
_cell_angle_gamma 90.000000
_cell_volume 3508.768550
_symmetry_space_group_name_H-M "C 2/M"
_symmetry_group_IT_number 12
_symmetry_cell_setting 'monoclinic'
loop_
_space_group_symop_operation_xyz
x,y,z
-x,y,-z
-x,-y,-z
x,-y,z
1/2+x,1/2+y,z
1/2-x,1/2+y,-z
1/2-x,1/2-y,-z
1/2+x,1/2-y,z
loop_
_atom_site_type_symbol
_atom_site_label
_atom_site_fract_x
_atom_site_fract_y
_atom_site_fract_z
Si Si1 0.271857 0.834469 0.053255
Si Si2 0.891044 0.333653 0.492841
Si Si3 0.262958 0.836679 0.771908
Si Si4 0.852471 0.160681 0.871982
Si Si5 0.221100 0.666101 0.424044
Si Si6 0.123492 0.331344 0.307628
Si Si7 0.952909 0.837503 0.246394
Si Si8 0.439192 0.334562 0.129159
O O1 0.180632 0.816589 0.075878
O O2 0.362565 0.768430 0.093773
O O3 0.291717 0.000000 0.043940
O O4 0.250000 0.750000 0.000000
O O5 0.882782 0.500000 0.478724
O O6 0.857541 0.301157 0.544707
O O7 0.820011 0.249791 0.445687
O O8 0.000000 0.281236 0.500000
O O9 0.291898 0.758901 0.826693
O O10 0.316607 0.775230 0.731248
O O11 0.151354 0.817862 0.745771
O O12 0.290473 0.000000 0.784362
O O13 0.964135 0.194751 0.886953
O O14 0.833300 0.000000 0.851001
O O15 0.247036 0.500000 0.426589
O O16 0.176242 0.719357 0.365502
O O17 0.110641 0.500000 0.305652
O O18 0.020020 0.260559 0.290041
O O19 0.955020 0.788538 0.188884
O O20 0.988085 0.000000 0.255524
O O21 0.406400 0.500000 0.120893
#
# Coordination Sequence:
#
# PCOD8097375 Si02
#       8
#     8   8   8   8   8   8   8   8
#     4  11  24  40  59  83 110 140 177 222 270 319
#     4   9  18  34  56  78 103 140 186 228 270 319
#     4  10  20  34  53  78 107 141 177 215 262 316
#     4  10  21  37  58  81 106 139 177 216 262 315
#     4   9  19  35  52  76 110 143 178 224 273 319
#     4  10  21  35  52  78 113 145 176 220 270 320
#     4  10  20  34  54  79 107 142 179 217 261 314
#     4  10  20  37  59  81 108 140 177 220 265 314
#
# _framework density 18.240017999999999
#
# number of rings (size 3 to 8) (size 9 to 14) (size 15 to 20)
#    0.000    2.125    2.500    0.375    0.000    4.250 
#    0.000    2.500    0.000    0.000    0.000    0.000 
#    0.000    0.000    0.000    0.000    0.000    0.000 
#
# Total GULP energy -396885.139297 kJ/mol
# GULP energy per Si atom -12402.660603 kJ/mol
# Density = 1.819850 g / cm^3
# Si number density = 18.240018 Si / 1000 Ang^3
#
#
#
# Elastic Constant Matrix: (Units=GPa)
#
#
# Indices 1 2 3 4 5 6 
#
# 1 90.8351 31.8739 22.2447 0.0000 7.9370 0.0000
# 2 31.8739 60.7015 39.4287 0.0000 10.6600 0.0000
# 3 22.2447 39.4287 83.2407 0.0000 10.3287 0.0000
# 4 0.0000 0.0000 0.0000 31.7944 0.0000 7.7752
# 5 7.9370 10.6600 10.3287 0.0000 23.3878 0.0000
# 6 0.0000 0.0000 0.0000 7.7752 0.0000 31.3686
#
#
#
# Elastic Compliance Matrix: (Units=1/GPa)
#
#
# Indices 1 2 3 4 5 6 
#
# 1 0.013546 -0.006682 -0.000278 0.000000 -0.001429 0.000000
# 2 -0.006682 0.027975 -0.010754 0.000000 -0.005734 0.000000
# 3 -0.000278 -0.010754 0.017522 0.000000 -0.002742 0.000000
# 4 0.000000 0.000000 0.000000 0.033482 0.000000 -0.008299
# 5 -0.001429 -0.005734 -0.002742 0.000000 0.047067 0.000000
# 6 0.000000 0.000000 0.000000 -0.008299 0.000000 0.033936
#
#
# Mechanical properties :
#
#
# Convention : Reuss Voigt Hill
#
# Bulk Modulus (GPa) = 42.34386 46.87466 44.60926
# Shear Modulus (GPa) = 23.05999 26.72549 24.89274
#
# Velocity S-wave (km/s) = 3.55949 3.83196 3.69824
# Velocity P-wave (km/s) = 6.33707 6.73299 6.53803
#
# Compressibility (1/GPa) = 0.02361617
#
# Stress axis : x y z
#
# Youngs Moduli (GPa) = 73.81995 35.74661 57.07248
#
# Poissons Ratio (x) = 0.23885 0.01585
# Poissons Ratio (y) = 0.49325 0.61374
# Poissons Ratio (z) = 0.02051 0.38441
#
# Static dielectric constant tensor:
#      x y z
#    x 3.550160 0.000000 -0.066540 
#    y 0.000000 3.342580 0.000000 
#    z -0.066540 0.000000 3.449550 
# 
# 
# High freq. dielectric constant tensor:
#      x y z
#    x 1.717220 0.000000 -0.003890 
#    y 0.000000 1.703970 0.000000 
#    z -0.003890 0.000000 1.701170 
# 
# From -- ./inp_files/338927.got.cif
#   From: 2010.06.25/outbox.cif.g09.slc.cpg/sg12_170_cif.got.tgz:338927.got - 2010.06.28 00:19:55.
