data_PCOD8097076
_publ_section_title
;
Structure prediction by ZEFSAII (Michael W. Deem and Ramdas Pophale) SiO2 
 PCOD8097076
Probable space group: C 2/M
;
_chemical_formula_sum "Si O2"
_cell_formula_units_Z 64
_cell_length_a 14.854091
_cell_length_b 9.161832
_cell_length_c 25.086593
_cell_angle_alpha 90.000000
_cell_angle_beta 74.225273
_cell_angle_gamma 90.000000
_cell_volume 3285.471650
_symmetry_space_group_name_H-M "C 2/M"
_symmetry_group_IT_number 12
_symmetry_cell_setting 'monoclinic'
loop_
_space_group_symop_operation_xyz
x,y,z
-x,y,-z
-x,-y,-z
x,-y,z
1/2+x,1/2+y,z
1/2-x,1/2+y,-z
1/2-x,1/2-y,-z
1/2+x,1/2-y,z
loop_
_atom_site_type_symbol
_atom_site_label
_atom_site_fract_x
_atom_site_fract_y
_atom_site_fract_z
Si Si1 0.885788 0.835671 0.951829
Si Si2 0.442726 0.830989 0.843263
Si Si3 0.202899 0.329145 0.633564
Si Si4 0.913804 0.327181 0.446469
Si Si5 0.878541 0.672498 0.569789
Si Si6 0.637705 0.168901 0.760378
Si Si7 0.258777 0.671621 0.167305
Si Si8 0.176304 0.335219 0.942449
O O1 0.949708 0.759752 0.896815
O O2 0.779359 0.835677 0.949954
O O3 0.921730 0.000000 0.955376
O O4 0.893923 0.746418 0.005719
O O5 0.531637 0.790913 0.792979
O O6 0.350035 0.789899 0.824755
O O7 0.440097 0.000000 0.859905
O O8 0.219652 0.500000 0.623164
O O9 0.143023 0.262131 0.594259
O O10 0.302800 0.251071 0.618782
O O11 0.147893 0.294812 0.696569
O O12 0.916475 0.500000 0.442996
O O13 0.865877 0.279912 0.509891
O O14 0.020495 0.271580 0.426491
O O15 0.867907 0.500000 0.578194
O O16 0.712252 0.266972 0.779962
O O17 0.659677 0.000000 0.769036
O O18 0.276998 0.500000 0.161470
O O19 0.324571 0.749349 0.113074
O O20 0.140504 0.500000 0.938663
#
# Coordination Sequence:
#
# PCOD8097076 Si02
#       8
#     8   8   8   8   8   8   8   8
#     4   9  16  27  48  78 106 132 167 213 261 308
#     4   9  19  36  55  74 100 137 175 211 259 317
#     4  10  20  34  52  75 105 140 175 214 259 305
#     4   8  16  32  54  79 108 141 173 207 255 313
#     4   9  17  32  55  81 107 137 174 213 254 305
#     4  10  22  38  53  72 102 140 179 214 255 312
#     4  10  20  35  56  79 102 131 173 223 265 303
#     4   9  16  28  49  76 106 138 168 203 258 324
#
# _framework density 19.479699
#
# number of rings (size 3 to 8) (size 9 to 14) (size 15 to 20)
#    0.000    2.750    0.000    2.250    0.000    5.500 
#    0.000    5.000    0.000    3.750    0.000    0.000 
#    0.000    0.000    0.000    0.000    0.000    0.000 
#
# Total GULP energy -396829.216916 kJ/mol
# GULP energy per Si atom -12400.913029 kJ/mol
# Density = 1.943536 g / cm^3
# Si number density = 19.479699 Si / 1000 Ang^3
#
#
#
# Elastic Constant Matrix: (Units=GPa)
#
#
# Indices 1 2 3 4 5 6 
#
# 1 63.9035 29.4354 42.3825 0.0000 -11.3432 0.0000
# 2 29.4354 79.2853 48.2318 0.0000 -8.7935 0.0000
# 3 42.3825 48.2318 116.7188 0.0000 -19.4407 0.0000
# 4 0.0000 0.0000 0.0000 29.8992 0.0000 -0.8665
# 5 -11.3432 -8.7935 -19.4407 0.0000 29.9115 0.0000
# 6 0.0000 0.0000 0.0000 -0.8665 0.0000 24.3750
#
#
#
# Elastic Compliance Matrix: (Units=1/GPa)
#
#
# Indices 1 2 3 4 5 6 
#
# 1 0.021988 -0.004373 -0.005610 0.000000 0.003407 0.000000
# 2 -0.004373 0.017724 -0.005769 0.000000 -0.000197 0.000000
# 3 -0.005610 -0.005769 0.013851 0.000000 0.005179 0.000000
# 4 0.000000 0.000000 0.000000 0.033480 0.000000 0.001190
# 5 0.003407 -0.000197 0.005179 0.000000 0.038032 0.000000
# 6 0.000000 0.000000 0.000000 0.001190 0.000000 0.041068
#
#
# Mechanical properties :
#
#
# Convention : Reuss Voigt Hill
#
# Bulk Modulus (GPa) = 45.33144 55.55633 50.44388
# Shear Modulus (GPa) = 24.39029 26.16102 25.27565
#
# Velocity S-wave (km/s) = 3.54232 3.66866 3.60604
# Velocity P-wave (km/s) = 6.32870 6.82110 6.57951
#
# Compressibility (1/GPa) = 0.02205975
#
# Stress axis : x y z
#
# Youngs Moduli (GPa) = 45.47910 56.42157 72.19609
#
# Poissons Ratio (x) = 0.24672 0.40501
# Poissons Ratio (y) = 0.19887 0.41650
# Poissons Ratio (z) = 0.25513 0.32550
#
# Static dielectric constant tensor:
#      x y z
#    x 3.507770 0.000000 0.083850 
#    y 0.000000 3.422160 0.000000 
#    z 0.083850 0.000000 3.576820 
# 
# 
# High freq. dielectric constant tensor:
#      x y z
#    x 1.752170 0.000000 -0.001010 
#    y 0.000000 1.744320 0.000000 
#    z -0.001010 0.000000 1.756270 
# 
# From -- ./inp_files/359741.got.cif
#   From: 2010.06.25/outbox.cif.g09.slc.cpg/sg12_180_cif.got.tgz:359741.got - 2010.06.28 00:19:55.
