data_PCOD8097536
_publ_section_title
;
Structure prediction by ZEFSAII (Michael W. Deem and Ramdas Pophale) SiO2 
 PCOD8097536
Probable space group: C 2/M
;
_chemical_formula_sum "Si O2"
_cell_formula_units_Z 44
_cell_length_a 9.080111
_cell_length_b 10.262146
_cell_length_c 27.786358
_cell_angle_alpha 90.000000
_cell_angle_beta 122.063400
_cell_angle_gamma 90.000000
_cell_volume 2194.223175
_symmetry_space_group_name_H-M "C 2/M"
_symmetry_group_IT_number 12
_symmetry_cell_setting 'monoclinic'
loop_
_space_group_symop_operation_xyz
x,y,z
-x,y,-z
-x,-y,-z
x,-y,z
1/2+x,1/2+y,z
1/2-x,1/2+y,-z
1/2-x,1/2-y,-z
1/2+x,1/2-y,z
loop_
_atom_site_type_symbol
_atom_site_label
_atom_site_fract_x
_atom_site_fract_y
_atom_site_fract_z
Si Si1 0.361127 0.853710 0.620682
Si Si2 0.518687 0.849523 0.198363
Si Si3 0.070243 0.351962 0.563872
Si Si4 0.614036 0.856873 0.925399
Si Si5 0.500000 0.713480 0.000000
Si Si6 0.188289 0.646842 0.744167
O O1 0.217085 0.746697 0.607519
O O2 0.412016 0.843307 0.573625
O O3 0.524383 0.823105 0.682468
O O4 0.290438 0.000000 0.619386
O O5 0.447323 0.791552 0.135266
O O6 0.669820 0.755521 0.243613
O O7 0.361056 0.841027 0.208443
O O8 0.584271 0.000000 0.206423
O O9 0.144678 0.500000 0.574891
O O10 0.000000 0.307459 0.500000
O O11 0.523703 0.795078 0.955745
O O12 0.537317 0.000000 0.911280
O O13 0.823606 0.868008 0.964175
O O14 0.258629 0.500000 0.745771
#
# Coordination Sequence:
#
# PCOD8097536 Si02
#       6
#     8   8   8   8   4   8
#     4  10  21  36  55  79 107 139 177 219 262 312
#     4  10  21  36  55  79 107 138 175 217 261 312
#     4  10  21  36  54  79 109 140 177 219 262 312
#     4  10  20  35  53  76 104 134 171 213 256 307
#     4  10  20  34  54  76 102 136 170 208 260 308
#     4  10  21  37  55  79 108 138 176 219 262 312
#
# _framework density 20.052654
#
# number of rings (size 3 to 8) (size 9 to 14) (size 15 to 20)
#    0.000    2.000    0.000    3.273    0.000    2.545 
#    0.000    4.545    0.000    0.000    0.000    0.000 
#    0.000    0.000    0.000    0.000    0.000    0.000 
#
# Total GULP energy -272727.981986 kJ/mol
# GULP energy per Si atom -12396.726454 kJ/mol
# Density = 2.000701 g / cm^3
# Si number density = 20.052654 Si / 1000 Ang^3
#
#
#
# Elastic Constant Matrix: (Units=GPa)
#
#
# Indices 1 2 3 4 5 6 
#
# 1 48.5875 18.2545 -1.6518 0.0000 -4.6993 0.0000
# 2 18.2545 87.3643 14.5693 0.0000 19.9265 0.0000
# 3 -1.6518 14.5693 66.9971 0.0000 -10.6470 0.0000
# 4 0.0000 0.0000 0.0000 31.8876 0.0000 6.9323
# 5 -4.6993 19.9265 -10.6470 0.0000 34.9277 0.0000
# 6 0.0000 0.0000 0.0000 6.9323 0.0000 22.9576
#
#
#
# Elastic Compliance Matrix: (Units=1/GPa)
#
#
# Indices 1 2 3 4 5 6 
#
# 1 0.024471 -0.007744 0.003692 0.000000 0.008836 0.000000
# 2 -0.007744 0.016878 -0.005840 0.000000 -0.012451 0.000000
# 3 0.003692 -0.005840 0.017756 0.000000 0.009241 0.000000
# 4 0.000000 0.000000 0.000000 0.033563 0.000000 -0.010135
# 5 0.008836 -0.012451 0.009241 0.000000 0.039740 0.000000
# 6 0.000000 0.000000 0.000000 -0.010135 0.000000 0.046619
#
#
# Mechanical properties :
#
#
# Convention : Reuss Voigt Hill
#
# Bulk Modulus (GPa) = 25.43254 29.47699 27.45477
# Shear Modulus (GPa) = 23.59393 29.40637 26.50015
#
# Velocity S-wave (km/s) = 3.43388 3.83359 3.63923
# Velocity P-wave (km/s) = 5.33221 5.85892 5.60176
#
# Compressibility (1/GPa) = 0.03931971
#
# Stress axis : x y z
#
# Youngs Moduli (GPa) = 40.86467 59.24769 56.32038
#
# Poissons Ratio (x) = 0.45882 -0.20791
# Poissons Ratio (y) = 0.31646 0.32891
# Poissons Ratio (z) = -0.15085 0.34601
#
# Static dielectric constant tensor:
#      x y z
#    x 3.517470 0.000000 -0.314390 
#    y 0.000000 3.615740 0.000000 
#    z -0.314390 0.000000 3.799990 
# 
# 
# High freq. dielectric constant tensor:
#      x y z
#    x 1.772140 0.000000 -0.020400 
#    y 0.000000 1.780640 0.000000 
#    z -0.020400 0.000000 1.795760 
# 
# From -- ./inp_files/299232.got.cif
#   From: 2010.06.25/outbox.cif.g09.slc.cpg/sg12_150_cif.got.tgz:299232.got - 2010.06.28 00:19:55.
