data_PCOD8097512
_publ_section_title
;
Structure prediction by ZEFSAII (Michael W. Deem and Ramdas Pophale) SiO2 
 PCOD8097512
Probable space group: C 2/M
;
_chemical_formula_sum "Si O2"
_cell_formula_units_Z 44
_cell_length_a 13.311235
_cell_length_b 22.138530
_cell_length_c 7.021204
_cell_angle_alpha 90.000000
_cell_angle_beta 91.687053
_cell_angle_gamma 90.000000
_cell_volume 2068.189989
_symmetry_space_group_name_H-M "C 2/M"
_symmetry_group_IT_number 12
_symmetry_cell_setting 'monoclinic'
loop_
_space_group_symop_operation_xyz
x,y,z
-x,y,-z
-x,-y,-z
x,-y,z
1/2+x,1/2+y,z
1/2-x,1/2+y,-z
1/2-x,1/2-y,-z
1/2+x,1/2-y,z
loop_
_atom_site_type_symbol
_atom_site_label
_atom_site_fract_x
_atom_site_fract_y
_atom_site_fract_z
Si Si1 0.363329 0.226894 0.164155
Si Si2 0.609500 0.897751 0.040327
Si Si3 0.733464 0.566458 0.220911
Si Si4 0.500000 0.262560 0.500000
Si Si5 0.888915 0.429034 0.551728
Si Si6 0.358770 0.690827 0.820111
O O1 0.426260 0.223436 0.363414
O O2 0.246501 0.226106 0.219212
O O3 0.389510 0.168825 0.043382
O O4 0.394553 0.284384 0.030951
O O5 0.638002 0.891979 0.261940
O O6 0.500000 0.927443 0.000000
O O7 0.691731 0.941328 0.952215
O O8 0.684174 0.500000 0.256238
O O9 0.803685 0.589431 0.397300
O O10 0.651814 0.617823 0.170564
O O11 0.566644 0.300667 0.353782
O O12 0.887380 0.500000 0.592821
O O13 0.000000 0.407959 0.500000
#
# Coordination Sequence:
#
# PCOD8097512 Si02
#       6
#     8   8   8   4   8   8
#     4  10  24  41  62  94 127 158 201 251 309 373
#     4  11  20  32  54  86 122 159 197 242 299 365
#     4  10  22  38  58  85 120 162 207 254 304 360
#     4  12  22  42  69  88 117 166 206 254 308 366
#     4  10  20  34  53  82 123 166 206 241 287 355
#     4  10  23  42  62  91 125 158 202 256 308 366
#
# _framework density 21.274640000000002
#
# number of rings (size 3 to 8) (size 9 to 14) (size 15 to 20)
#    0.000    1.636    1.818    2.727    0.000   10.909 
#    1.636    0.455    0.000    2.182    0.000    0.000 
#    0.000    0.000    0.000    0.000    0.000    0.000 
#
# Total GULP energy -272660.224993 kJ/mol
# GULP energy per Si atom -12393.646591 kJ/mol
# Density = 2.122622 g / cm^3
# Si number density = 21.274640 Si / 1000 Ang^3
#
#
#
# Elastic Constant Matrix: (Units=GPa)
#
#
# Indices 1 2 3 4 5 6 
#
# 1 58.6156 10.1142 33.4986 0.0000 -16.6490 0.0000
# 2 10.1142 90.6700 30.4771 0.0000 2.8652 0.0000
# 3 33.4986 30.4771 155.0471 0.0000 -0.4704 0.0000
# 4 0.0000 0.0000 0.0000 26.7311 0.0000 1.7625
# 5 -16.6490 2.8652 -0.4704 0.0000 43.7502 0.0000
# 6 0.0000 0.0000 0.0000 1.7625 0.0000 33.0456
#
#
#
# Elastic Compliance Matrix: (Units=1/GPa)
#
#
# Indices 1 2 3 4 5 6 
#
# 1 0.022290 -0.001226 -0.004549 0.000000 0.008514 0.000000
# 2 -0.001226 0.011905 -0.002079 0.000000 -0.001269 0.000000
# 3 -0.004549 -0.002079 0.007837 0.000000 -0.001511 0.000000
# 4 0.000000 0.000000 0.000000 0.037542 0.000000 -0.002002
# 5 0.008514 -0.001269 -0.001511 0.000000 0.026164 0.000000
# 6 0.000000 0.000000 0.000000 -0.002002 0.000000 0.030368
#
#
# Mechanical properties :
#
#
# Convention : Reuss Voigt Hill
#
# Bulk Modulus (GPa) = 37.99031 50.27917 44.13474
# Shear Modulus (GPa) = 31.13574 36.05491 33.59533
#
# Velocity S-wave (km/s) = 3.82974 4.12118 3.97813
# Velocity P-wave (km/s) = 6.11978 6.80663 6.47232
#
# Compressibility (1/GPa) = 0.02632250
#
# Stress axis : x y z
#
# Youngs Moduli (GPa) = 44.86353 84.00039 127.60746
#
# Poissons Ratio (x) = 0.10302 0.58048
# Poissons Ratio (y) = 0.05502 0.26529
# Poissons Ratio (z) = 0.20408 0.17463
#
# Static dielectric constant tensor:
#      x y z
#    x 3.960690 0.000000 0.051880 
#    y 0.000000 3.657900 0.000000 
#    z 0.051880 0.000000 4.133630 
# 
# 
# High freq. dielectric constant tensor:
#      x y z
#    x 1.810370 0.000000 -0.005160 
#    y 0.000000 1.824460 0.000000 
#    z -0.005160 0.000000 1.847740 
# 
# From -- ./inp_files/12139.got.cif
#   From: 2010.06.25/outbox.cif.g09.slc.cpg/sg12_7_cif.got.tgz:12139.got - 2010.06.28 00:19:55.
