data_PCOD8097869
_publ_section_title
;
Structure prediction by ZEFSAII (Michael W. Deem and Ramdas Pophale) SiO2 
 PCOD8097869
Probable space group: C 2/M
;
_chemical_formula_sum "Si O2"
_cell_formula_units_Z 56
_cell_length_a 29.844204
_cell_length_b 9.313412
_cell_length_c 11.847745
_cell_angle_alpha 90.000000
_cell_angle_beta 60.157006
_cell_angle_gamma 90.000000
_cell_volume 2856.406872
_symmetry_space_group_name_H-M "C 2/M"
_symmetry_group_IT_number 12
_symmetry_cell_setting 'monoclinic'
loop_
_space_group_symop_operation_xyz
x,y,z
-x,y,-z
-x,-y,-z
x,-y,z
1/2+x,1/2+y,z
1/2-x,1/2+y,-z
1/2-x,1/2-y,-z
1/2+x,1/2-y,z
loop_
_atom_site_type_symbol
_atom_site_label
_atom_site_fract_x
_atom_site_fract_y
_atom_site_fract_z
Si Si1 0.617387 0.663689 0.010580
Si Si2 0.357507 0.844130 0.218412
Si Si3 0.082915 0.662023 0.638755
Si Si4 0.662413 0.835442 0.361620
Si Si5 0.257432 0.659667 0.601548
Si Si6 0.804844 0.332100 0.929680
Si Si7 0.501784 0.664493 0.126197
O O1 0.636744 0.500000 0.998343
O O2 0.655780 0.767330 0.029071
O O3 0.557328 0.678713 0.118421
O O4 0.617468 0.712507 0.880008
O O5 0.368497 0.819668 0.337193
O O6 0.297140 0.847745 0.267592
O O7 0.381186 0.000000 0.152509
O O8 0.061701 0.500000 0.663213
O O9 0.106078 0.704019 0.486041
O O10 0.036273 0.759679 0.738405
O O11 0.704995 0.731420 0.357313
O O12 0.663911 0.812589 0.226020
O O13 0.675778 0.000000 0.377175
O O14 0.277496 0.500000 0.545899
O O15 0.250000 0.750000 0.500000
O O16 0.794562 0.500000 0.968319
O O17 0.750000 0.250000 0.000000
O O18 0.484457 0.500000 0.138296
O O19 0.500000 0.730406 0.000000
#
# Coordination Sequence:
#
# PCOD8097869 Si02
#       7
#     8   8   8   8   8   8   8
#     4  11  23  39  61  87 121 158 199 249 298 355
#     4  10  20  34  54  83 118 152 193 243 293 354
#     4  10  20  36  58  85 117 151 193 244 297 354
#     4  10  22  41  59  83 118 156 197 248 301 352
#     4  11  21  33  52  81 117 153 190 237 290 355
#     4  11  24  43  67  90 120 158 203 250 296 356
#     4  10  21  38  58  87 123 158 198 245 299 357
#
# _framework density 19.605051
#
# number of rings (size 3 to 8) (size 9 to 14) (size 15 to 20)
#    0.000    1.571    2.857    2.143    0.000    6.571 
#    0.000    0.714    0.000    4.286    0.000    0.000 
#    0.000    0.000    0.000    0.000    0.000    0.000 
#
# Total GULP energy -347074.760013 kJ/mol
# GULP energy per Si atom -12395.527143 kJ/mol
# Density = 1.956043 g / cm^3
# Si number density = 19.605051 Si / 1000 Ang^3
#
#
#
# Elastic Constant Matrix: (Units=GPa)
#
#
# Indices 1 2 3 4 5 6 
#
# 1 70.0608 39.0268 24.9359 0.0000 -9.2658 0.0000
# 2 39.0268 106.0917 50.0376 0.0000 -6.2272 0.0000
# 3 24.9359 50.0376 117.3863 0.0000 -11.2531 0.0000
# 4 0.0000 0.0000 0.0000 30.0177 0.0000 -4.0035
# 5 -9.2658 -6.2272 -11.2531 0.0000 27.1234 0.0000
# 6 0.0000 0.0000 0.0000 -4.0035 0.0000 32.8397
#
#
#
# Elastic Compliance Matrix: (Units=1/GPa)
#
#
# Indices 1 2 3 4 5 6 
#
# 1 0.018630 -0.006164 -0.000891 0.000000 0.004579 0.000000
# 2 -0.006164 0.013848 -0.004677 0.000000 -0.000867 0.000000
# 3 -0.000891 -0.004677 0.011007 0.000000 0.003189 0.000000
# 4 0.000000 0.000000 0.000000 0.033864 0.000000 0.004128
# 5 0.004579 -0.000867 0.003189 0.000000 0.039557 0.000000
# 6 0.000000 0.000000 0.000000 0.004128 0.000000 0.030954
#
#
# Mechanical properties :
#
#
# Convention : Reuss Voigt Hill
#
# Bulk Modulus (GPa) = 49.94542 57.94884 53.94713
# Shear Modulus (GPa) = 28.09020 29.96538 29.02779
#
# Velocity S-wave (km/s) = 3.78935 3.91378 3.85207
# Velocity P-wave (km/s) = 6.68406 7.07431 6.88195
#
# Compressibility (1/GPa) = 0.02002185
#
# Stress axis : x y z
#
# Youngs Moduli (GPa) = 53.67764 72.21165 90.84884
#
# Poissons Ratio (x) = 0.44512 0.08094
# Poissons Ratio (y) = 0.33088 0.42487
# Poissons Ratio (z) = 0.04782 0.33771
#
# Static dielectric constant tensor:
#      x y z
#    x 3.517490 0.000000 -0.057240 
#    y 0.000000 3.988170 0.000000 
#    z -0.057240 0.000000 3.626430 
# 
# 
# High freq. dielectric constant tensor:
#      x y z
#    x 1.747930 0.000000 -0.007930 
#    y 0.000000 1.771640 0.000000 
#    z -0.007930 0.000000 1.761920 
# 
# From -- ./inp_files/181012.got.cif
#   From: 2010.06.25/outbox.cif.g09.slc.cpg/sg12_91_cif.got.tgz:181012.got - 2010.06.28 00:19:55.
