data_PCOD8097770
_publ_section_title
;
Structure prediction by ZEFSAII (Michael W. Deem and Ramdas Pophale) SiO2 
 PCOD8097770
Probable space group: C 2/M
;
_chemical_formula_sum "Si O2"
_cell_formula_units_Z 56
_cell_length_a 22.576233
_cell_length_b 9.113764
_cell_length_c 15.556753
_cell_angle_alpha 90.000000
_cell_angle_beta 61.554254
_cell_angle_gamma 90.000000
_cell_volume 2814.425458
_symmetry_space_group_name_H-M "C 2/M"
_symmetry_group_IT_number 12
_symmetry_cell_setting 'monoclinic'
loop_
_space_group_symop_operation_xyz
x,y,z
-x,y,-z
-x,-y,-z
x,-y,z
1/2+x,1/2+y,z
1/2-x,1/2+y,-z
1/2-x,1/2-y,-z
1/2+x,1/2-y,z
loop_
_atom_site_type_symbol
_atom_site_label
_atom_site_fract_x
_atom_site_fract_y
_atom_site_fract_z
Si Si1 0.564326 0.831277 0.322507
Si Si2 0.792207 0.168108 0.229753
Si Si3 0.931057 0.831737 0.409974
Si Si4 0.697453 0.670218 0.975045
Si Si5 0.568684 0.670267 0.787074
Si Si6 0.433959 0.830510 0.880777
Si Si7 0.666271 0.670917 0.372156
O O1 0.492778 0.765990 0.401239
O O2 0.575007 0.809112 0.214284
O O3 0.624713 0.747888 0.325927
O O4 0.566449 0.000000 0.348343
O O5 0.776930 0.188521 0.139813
O O6 0.868204 0.217896 0.198530
O O7 0.741596 0.266112 0.320568
O O8 0.782301 0.000000 0.265049
O O9 0.912604 0.794819 0.324714
O O10 0.866035 0.796061 0.512552
O O11 0.953677 0.000000 0.404915
O O12 0.693086 0.500000 0.004343
O O13 0.750000 0.750000 0.000000
O O14 0.624255 0.741855 0.031529
O O15 0.550130 0.500000 0.812350
O O16 0.505422 0.765927 0.861851
O O17 0.429938 0.000000 0.910334
O O18 0.668540 0.500000 0.349956
#
# Coordination Sequence:
#
# PCOD8097770 Si02
#       7
#     8   8   8   8   8   8   8
#     4  10  20  34  54  81 111 143 181 223 268 322
#     4  10  23  40  57  79 108 143 184 226 265 318
#     4   9  19  35  55  80 109 142 181 223 268 321
#     4  11  23  39  59  84 112 142 179 221 269 324
#     4   9  19  39  61  79 106 145 184 221 266 318
#     4  10  21  37  58  84 112 142 179 224 271 320
#     4  11  22  34  52  80 112 145 181 224 273 320
#
# _framework density 19.897490000000001
#
# number of rings (size 3 to 8) (size 9 to 14) (size 15 to 20)
#    0.000    2.000    0.000    3.000    0.000   10.857 
#    0.000    2.857    0.000    0.000    0.000    0.000 
#    0.000    0.000    0.000    0.000    0.000    0.000 
#
# Total GULP energy -347349.789449 kJ/mol
# GULP energy per Si atom -12405.349623 kJ/mol
# Density = 1.985220 g / cm^3
# Si number density = 19.897490 Si / 1000 Ang^3
#
#
#
# Elastic Constant Matrix: (Units=GPa)
#
#
# Indices 1 2 3 4 5 6 
#
# 1 102.2292 45.5398 23.0803 0.0000 -13.4359 0.0000
# 2 45.5398 112.6768 46.3901 0.0000 -18.4944 -0.0001
# 3 23.0803 46.3901 71.7977 0.0000 -25.3080 0.0000
# 4 0.0000 0.0000 0.0000 32.9638 0.0000 -9.7365
# 5 -13.4359 -18.4944 -25.3080 0.0000 28.6705 0.0000
# 6 0.0000 -0.0001 0.0000 -9.7365 0.0000 36.6096
#
#
#
# Elastic Compliance Matrix: (Units=1/GPa)
#
#
# Indices 1 2 3 4 5 6 
#
# 1 0.012131 -0.004420 -0.000065 0.000000 0.002776 0.000000
# 2 -0.004420 0.013736 -0.007347 0.000000 0.000304 0.000000
# 3 -0.000065 -0.007347 0.024700 0.000000 0.017033 0.000000
# 4 0.000000 0.000000 0.000000 0.032923 0.000000 0.008756
# 5 0.002776 0.000304 0.017033 0.000000 0.051412 0.000000
# 6 0.000000 0.000000 0.000000 0.008756 0.000000 0.029644
#
#
# Mechanical properties :
#
#
# Convention : Reuss Voigt Hill
#
# Bulk Modulus (GPa) = 37.17192 57.41380 47.29286
# Shear Modulus (GPa) = 25.35783 31.09501 28.22642
#
# Velocity S-wave (km/s) = 3.57378 3.95747 3.77051
# Velocity P-wave (km/s) = 5.97925 7.05687 6.54030
#
# Compressibility (1/GPa) = 0.02690202
#
# Stress axis : x y z
#
# Youngs Moduli (GPa) = 82.43629 72.79986 40.48541
#
# Poissons Ratio (x) = 0.32180 0.00263
# Poissons Ratio (y) = 0.36440 0.29746
# Poissons Ratio (z) = 0.00535 0.53488
#
# Static dielectric constant tensor:
#      x y z
#    x 3.581950 0.000000 -0.057710 
#    y 0.000000 3.715300 0.000000 
#    z -0.057710 0.000000 3.617590 
# 
# 
# High freq. dielectric constant tensor:
#      x y z
#    x 1.775010 0.000000 -0.005780 
#    y 0.000000 1.780610 0.000000 
#    z -0.005780 0.000000 1.777510 
# 
# From -- ./inp_files/281013.got.cif
#   From: 2010.06.25/outbox.cif.g09.slc.cpg/sg12_141_cif.got.tgz:281013.got - 2010.06.28 00:19:55.
