data_PCOD8097637
_publ_section_title
;
Structure prediction by ZEFSAII (Michael W. Deem and Ramdas Pophale) SiO2 
 PCOD8097637
Probable space group: C 2/M
;
_chemical_formula_sum "Si O2"
_cell_formula_units_Z 40
_cell_length_a 26.178368
_cell_length_b 8.595801
_cell_length_c 16.568826
_cell_angle_alpha 90.000000
_cell_angle_beta 146.727632
_cell_angle_gamma 90.000000
_cell_volume 2045.464906
_symmetry_space_group_name_H-M "C 2/M"
_symmetry_group_IT_number 12
_symmetry_cell_setting 'monoclinic'
loop_
_space_group_symop_operation_xyz
x,y,z
-x,y,-z
-x,-y,-z
x,-y,z
1/2+x,1/2+y,z
1/2-x,1/2+y,-z
1/2-x,1/2-y,-z
1/2+x,1/2-y,z
loop_
_atom_site_type_symbol
_atom_site_label
_atom_site_fract_x
_atom_site_fract_y
_atom_site_fract_z
Si Si1 0.017534 0.818282 0.357300
Si Si2 0.311985 0.821274 0.324360
Si Si3 0.377697 0.818194 0.637651
Si Si4 0.673802 0.818432 0.840489
Si Si5 0.790325 0.322248 0.678675
O O1 0.102670 0.780586 0.529729
O O2 0.027467 0.730566 0.283181
O O3 0.923994 0.764315 0.276275
O O4 0.012595 0.000000 0.334160
O O5 0.292238 0.783332 0.205420
O O6 0.217496 0.781783 0.250540
O O7 0.339399 0.000000 0.373023
O O8 0.300217 0.708357 0.495410
O O9 0.379121 0.785654 0.736884
O O10 0.355169 0.000000 0.592660
O O11 0.661860 0.000000 0.840918
O O12 0.750000 0.750000 0.000000
O O13 0.792536 0.500000 0.709979
#
# Coordination Sequence:
#
# PCOD8097637 Si02
#       5
#     8   8   8   8   8
#     4  11  21  33  54  81 107 138 175 214 256 303
#     4  10  20  34  54  79 107 138 172 213 259 306
#     4   9  16  27  45  72 106 138 168 207 254 301
#     4  11  24  40  56  75 102 137 175 216 264 313
#     4   9  16  26  45  74 105 136 169 207 253 302
#
# _framework density 19.555457000000001
#
# number of rings (size 3 to 8) (size 9 to 14) (size 15 to 20)
#    0.000    2.000    0.000    7.200    0.000    8.000 
#    0.000    0.000    0.000    1.200    0.000    8.400 
#    0.000    0.000    0.000    0.000    0.000    0.000 
#
# Total GULP energy -247850.255483 kJ/mol
# GULP energy per Si atom -12392.512774 kJ/mol
# Density = 1.951095 g / cm^3
# Si number density = 19.555457 Si / 1000 Ang^3
#
#
#
# Elastic Constant Matrix: (Units=GPa)
#
#
# Indices 1 2 3 4 5 6 
#
# 1 173.4613 56.8766 35.6670 0.0000 -21.2134 0.0000
# 2 56.8766 95.4671 23.4611 0.0000 -6.7415 0.0000
# 3 35.6670 23.4611 42.0099 0.0000 -16.3445 0.0000
# 4 0.0000 0.0000 0.0000 21.8695 0.0000 1.4363
# 5 -21.2134 -6.7415 -16.3445 0.0000 10.8663 0.0000
# 6 0.0000 0.0000 0.0000 1.4363 0.0000 37.5249
#
#
#
# Elastic Compliance Matrix: (Units=1/GPa)
#
#
# Indices 1 2 3 4 5 6 
#
# 1 0.009036 -0.004550 0.001529 0.000000 0.017117 0.000000
# 2 -0.004550 0.014622 -0.010196 0.000000 -0.015148 0.000000
# 3 0.001529 -0.010196 0.064851 0.000000 0.094206 0.000000
# 4 0.000000 0.000000 0.000000 0.045841 0.000000 -0.001755
# 5 0.017117 -0.015148 0.094206 0.000000 0.257744 0.000000
# 6 0.000000 0.000000 0.000000 -0.001755 0.000000 0.026716
#
#
# Mechanical properties :
#
#
# Convention : Reuss Voigt Hill
#
# Bulk Modulus (GPa) = 16.10956 60.32753 38.21855
# Shear Modulus (GPa) = 10.73108 27.04772 18.88940
#
# Velocity S-wave (km/s) = 2.34508 3.72308 3.11133
# Velocity P-wave (km/s) = 3.94821 7.02838 5.70029
#
# Compressibility (1/GPa) = 0.06207495
#
# Stress axis : x y z
#
# Youngs Moduli (GPa) = 110.66959 68.39112 15.41985
#
# Poissons Ratio (x) = 0.31121 -0.02358
# Poissons Ratio (y) = 0.50359 0.15722
# Poissons Ratio (z) = -0.16924 0.69731
#
# Static dielectric constant tensor:
#      x y z
#    x 4.550470 0.000000 0.087220 
#    y 0.000000 3.640930 0.000000 
#    z 0.087220 0.000000 2.924740 
# 
# 
# High freq. dielectric constant tensor:
#      x y z
#    x 1.799520 0.000000 -0.000100 
#    y 0.000000 1.776200 0.000000 
#    z -0.000100 0.000000 1.683140 
# 
# From -- ./inp_files/229482.got.cif
#   From: 2010.06.25/outbox.cif.g09.slc.cpg/sg12_115_cif.got.tgz:229482.got - 2010.06.28 00:19:55.
