data_PCOD8097354
_publ_section_title
;
Structure prediction by ZEFSAII (Michael W. Deem and Ramdas Pophale) SiO2 
 PCOD8097354
Probable space group: C 2/M
;
_chemical_formula_sum "Si O2"
_cell_formula_units_Z 40
_cell_length_a 15.756006
_cell_length_b 9.502344
_cell_length_c 27.521907
_cell_angle_alpha 90.000000
_cell_angle_beta 148.367403
_cell_angle_gamma 90.000000
_cell_volume 2161.107563
_symmetry_space_group_name_H-M "C 2/M"
_symmetry_group_IT_number 12
_symmetry_cell_setting 'monoclinic'
loop_
_space_group_symop_operation_xyz
x,y,z
-x,y,-z
-x,-y,-z
x,-y,z
1/2+x,1/2+y,z
1/2-x,1/2+y,-z
1/2-x,1/2-y,-z
1/2+x,1/2-y,z
loop_
_atom_site_type_symbol
_atom_site_label
_atom_site_fract_x
_atom_site_fract_y
_atom_site_fract_z
Si Si1 0.672251 0.659470 0.896121
Si Si2 0.953342 0.837302 0.701117
Si Si3 0.840297 0.166487 0.284926
Si Si4 0.165536 0.835183 0.607922
Si Si5 0.012431 0.663386 0.900258
O O1 0.642276 0.500000 0.899340
O O2 0.613230 0.679139 0.812463
O O3 0.568769 0.760668 0.879127
O O4 0.864750 0.695131 0.995119
O O5 0.806637 0.744546 0.648458
O O6 0.011121 0.779936 0.676329
O O7 0.897151 0.000000 0.672055
O O8 0.852358 0.224225 0.345867
O O9 0.669999 0.214430 0.177379
O O10 0.852715 0.000000 0.291910
O O11 0.000000 0.802666 0.500000
O O12 0.207898 0.000000 0.628440
O O13 0.009699 0.500000 0.885584
#
# Coordination Sequence:
#
# PCOD8097354 Si02
#       5
#     8   8   8   8   8
#     4   9  17  28  47  76 103 130 168 209 244 288
#     4  10  20  34  53  78 106 132 166 212 256 299
#     4   9  18  33  53  76 103 136 169 205 252 303
#     4  10  21  38  57  75  99 133 172 211 254 307
#     4   9  16  29  50  72 100 138 171 199 242 298
#
# _framework density 18.509029000000002
#
# number of rings (size 3 to 8) (size 9 to 14) (size 15 to 20)
#    0.000    2.600    2.000    0.000    0.000    2.000 
#    0.000    6.000    0.000    0.000    0.000    7.000 
#    0.000    0.000    0.000    0.000    0.000    0.000 
#
# Total GULP energy -247848.663341 kJ/mol
# GULP energy per Si atom -12392.433167 kJ/mol
# Density = 1.846690 g / cm^3
# Si number density = 18.509029 Si / 1000 Ang^3
#
#
#
# Elastic Constant Matrix: (Units=GPa)
#
#
# Indices 1 2 3 4 5 6 
#
# 1 150.3530 40.2862 77.8770 0.0000 16.9262 0.0000
# 2 40.2862 38.1698 38.5091 0.0000 4.0682 0.0000
# 3 77.8770 38.5091 117.7187 0.0001 8.5102 0.0000
# 4 0.0000 0.0000 0.0001 19.5052 0.0000 5.3406
# 5 16.9262 4.0682 8.5102 0.0000 15.6957 0.0000
# 6 0.0000 0.0000 0.0000 5.3406 0.0000 23.7570
#
#
#
# Elastic Compliance Matrix: (Units=1/GPa)
#
#
# Indices 1 2 3 4 5 6 
#
# 1 0.012071 -0.006565 -0.005225 0.000000 -0.008483 0.000000
# 2 -0.006565 0.042843 -0.009764 0.000000 0.001269 0.000000
# 3 -0.005225 -0.009764 0.015149 0.000000 -0.000048 0.000000
# 4 0.000000 0.000000 0.000000 0.054631 0.000000 -0.012281
# 5 -0.008483 0.001269 -0.000048 0.000000 0.072557 0.000000
# 6 0.000000 0.000000 0.000000 -0.012281 0.000000 0.044854
#
#
# Mechanical properties :
#
#
# Convention : Reuss Voigt Hill
#
# Bulk Modulus (GPa) = 37.09785 68.84291 52.97038
# Shear Modulus (GPa) = 16.99534 21.76288 19.37911
#
# Velocity S-wave (km/s) = 3.03350 3.43271 3.23926
# Velocity P-wave (km/s) = 5.68824 7.27917 6.53232
#
# Compressibility (1/GPa) = 0.02695574
#
# Stress axis : x y z
#
# Youngs Moduli (GPa) = 82.84008 23.34092 66.01143
#
# Poissons Ratio (x) = 0.15324 0.34491
# Poissons Ratio (y) = 0.54386 0.64452
# Poissons Ratio (z) = 0.43283 0.22789
#
# Static dielectric constant tensor:
#      x y z
#    x 3.494390 0.000000 -0.081170 
#    y 0.000000 3.206790 0.000000 
#    z -0.081170 0.000000 3.659910 
# 
# 
# High freq. dielectric constant tensor:
#      x y z
#    x 1.709230 0.000000 -0.001950 
#    y 0.000000 1.689170 0.000000 
#    z -0.001950 0.000000 1.728170 
# 
# From -- ./inp_files/140304.got.cif
#   From: 2010.06.25/outbox.cif.g09.slc.cpg/sg12_71_cif.got.tgz:140304.got - 2010.06.28 00:19:55.
