data_PCOD8097666
_publ_section_title
;
Structure prediction by ZEFSAII (Michael W. Deem and Ramdas Pophale) SiO2 
 PCOD8097666
Probable space group: C 2/M
;
_chemical_formula_sum "Si O2"
_cell_formula_units_Z 64
_cell_length_a 8.844582
_cell_length_b 23.689720
_cell_length_c 28.297540
_cell_angle_alpha 90.000000
_cell_angle_beta 147.686442
_cell_angle_gamma 90.000000
_cell_volume 3169.393524
_symmetry_space_group_name_H-M "C 2/M"
_symmetry_group_IT_number 12
_symmetry_cell_setting 'monoclinic'
loop_
_space_group_symop_operation_xyz
x,y,z
-x,y,-z
-x,-y,-z
x,-y,z
1/2+x,1/2+y,z
1/2-x,1/2+y,-z
1/2-x,1/2-y,-z
1/2+x,1/2-y,z
loop_
_atom_site_type_symbol
_atom_site_label
_atom_site_fract_x
_atom_site_fract_y
_atom_site_fract_z
Si Si1 0.184424 0.681782 0.595480
Si Si2 0.867432 0.650599 0.916203
Si Si3 0.371110 0.236325 0.323433
Si Si4 0.907485 0.564023 0.747810
Si Si5 0.757959 0.727050 0.137860
Si Si6 0.681982 0.122612 0.908198
Si Si7 0.224756 0.938707 0.394769
Si Si8 0.757656 0.849930 0.782095
O O1 0.477460 0.707779 0.654900
O O2 0.042283 0.716989 0.600580
O O3 0.240089 0.617228 0.628506
O O4 0.000000 0.682690 0.500000
O O5 0.921391 0.718052 0.923733
O O6 0.538956 0.631175 0.828588
O O7 0.019443 0.617333 0.914473
O O8 0.000000 0.629816 0.000000
O O9 0.441419 0.185745 0.305736
O O10 0.042484 0.249915 0.236568
O O11 0.003107 0.500000 0.765803
O O12 0.567108 0.569805 0.652899
O O13 0.012443 0.584397 0.826578
O O14 0.062936 0.599243 0.748078
O O15 0.812010 0.688196 0.106425
O O16 0.616522 0.688467 0.141369
O O17 0.000000 0.099846 0.000000
O O18 0.500000 0.941332 0.500000
O O19 0.205427 0.000000 0.362546
#
# Coordination Sequence:
#
# PCOD8097666 Si02
#       8
#     8   8   8   8   8   8   8   8
#     4  11  22  36  58  88 125 162 201 250 307 372
#     4  11  21  33  53  84 120 153 195 245 300 360
#     4  11  21  35  55  87 123 162 197 248 306 373
#     4  10  22  42  65  85 115 161 204 253 310 369
#     4  10  20  34  54  79 116 162 197 240 297 361
#     4  11  23  37  58  86 121 160 206 248 299 370
#     4   9  20  39  66  93 117 155 210 260 300 353
#     4  10  21  35  57  84 117 156 193 251 306 362
#
# _framework density 20.193138000000001
#
# number of rings (size 3 to 8) (size 9 to 14) (size 15 to 20)
#    0.000    1.625    1.250    5.250    5.250    1.750 
#    0.000    1.250    0.000    1.500    0.000    4.375 
#    0.000    0.000    0.000    0.000    0.000    0.000 
#
# Total GULP energy -396604.968482 kJ/mol
# GULP energy per Si atom -12393.905265 kJ/mol
# Density = 2.014718 g / cm^3
# Si number density = 20.193138 Si / 1000 Ang^3
#
#
#
# Elastic Constant Matrix: (Units=GPa)
#
#
# Indices 1 2 3 4 5 6 
#
# 1 114.3997 35.4535 36.2198 0.0384 0.3555 0.0561
# 2 35.4535 101.0142 32.1725 0.0421 3.9268 0.0635
# 3 36.2198 32.1725 86.5183 0.1116 9.6250 0.1846
# 4 0.0384 0.0421 0.1116 49.5352 0.0272 38.0792
# 5 0.3555 3.9268 9.6250 0.0272 33.3221 0.0471
# 6 0.0561 0.0635 0.1846 38.0792 0.0471 54.5178
#
#
#
# Elastic Compliance Matrix: (Units=1/GPa)
#
#
# Indices 1 2 3 4 5 6 
#
# 1 0.010710 -0.002649 -0.003637 -0.000002 0.001249 0.000005
# 2 -0.002649 0.011885 -0.003263 -0.000002 -0.000430 0.000001
# 3 -0.003637 -0.003263 0.014720 0.000010 -0.003829 -0.000046
# 4 -0.000002 -0.000002 0.000010 0.043596 0.000005 -0.030451
# 5 0.001249 -0.000430 -0.003829 0.000005 0.031153 -0.000018
# 6 0.000005 0.000001 -0.000046 -0.030451 -0.000018 0.039612
#
#
# Mechanical properties :
#
#
# Convention : Reuss Voigt Hill
#
# Bulk Modulus (GPa) = 54.89373 56.62487 55.75930
# Shear Modulus (GPa) = 28.27295 40.68077 34.47686
#
# Velocity S-wave (km/s) = 3.74589 4.49328 4.13650
# Velocity P-wave (km/s) = 6.77881 7.41768 7.10543
#
# Compressibility (1/GPa) = 0.01821702
#
# Stress axis : x y z
#
# Youngs Moduli (GPa) = 93.37072 84.13803 67.93316
#
# Poissons Ratio (x) = 0.22288 0.24710
# Poissons Ratio (y) = 0.24734 0.22165
# Poissons Ratio (z) = 0.33963 0.27453
#
# Static dielectric constant tensor:
#      x y z
#    x 3.625800 -0.000020 0.016490 
#    y -0.000020 3.855230 -0.000030 
#    z 0.016490 -0.000030 3.668010 
# 
# 
# High freq. dielectric constant tensor:
#      x y z
#    x 1.779930 0.000000 0.007530 
#    y 0.000000 1.774560 0.000000 
#    z 0.007530 0.000000 1.787790 
# 
# From -- ./inp_files/373302.got.cif
#   From: 2010.06.25/outbox.cif.g09.slc.cpg/sg12_187_cif.got.tgz:373302.got - 2010.06.28 00:19:55.
