data_PCOD8097738
_publ_section_title
;
Structure prediction by ZEFSAII (Michael W. Deem and Ramdas Pophale) SiO2 
 PCOD8097738
Probable space group: C 2/M
;
_chemical_formula_sum "Si O2"
_cell_formula_units_Z 56
_cell_length_a 29.048075
_cell_length_b 9.463039
_cell_length_c 20.977742
_cell_angle_alpha 90.000000
_cell_angle_beta 150.889563
_cell_angle_gamma 90.000000
_cell_volume 2805.334782
_symmetry_space_group_name_H-M "C 2/M"
_symmetry_group_IT_number 12
_symmetry_cell_setting 'monoclinic'
loop_
_space_group_symop_operation_xyz
x,y,z
-x,y,-z
-x,-y,-z
x,-y,z
1/2+x,1/2+y,z
1/2-x,1/2+y,-z
1/2-x,1/2-y,-z
1/2+x,1/2-y,z
loop_
_atom_site_type_symbol
_atom_site_label
_atom_site_fract_x
_atom_site_fract_y
_atom_site_fract_z
Si Si1 0.257452 0.161812 0.608442
Si Si2 0.453301 0.343370 0.006297
Si Si3 0.255916 0.159568 0.283405
Si Si4 0.760828 0.166338 0.079152
Si Si5 0.389185 0.335282 0.352840
Si Si6 0.431383 0.843882 0.091368
Si Si7 0.625253 0.844785 0.372222
O O1 0.274125 0.258246 0.689573
O O2 0.344219 0.179577 0.664552
O O3 0.161951 0.218317 0.459952
O O4 0.241828 0.000000 0.610484
O O5 0.496536 0.500000 0.066968
O O6 0.340179 0.348088 0.872072
O O7 0.500000 0.274544 0.000000
O O8 0.482880 0.249519 0.100969
O O9 0.334420 0.242601 0.338358
O O10 0.292726 0.000000 0.342595
O O11 0.852145 0.202471 0.235406
O O12 0.758982 0.000000 0.060776
O O13 0.750000 0.250000 0.000000
O O14 0.667654 0.216386 0.004217
O O15 0.500000 0.303433 0.500000
O O16 0.367057 0.500000 0.338542
O O17 0.511505 0.846161 0.243083
O O18 0.413332 0.000000 0.041483
O O19 0.664662 0.000000 0.441187
#
# Coordination Sequence:
#
# PCOD8097738 Si02
#       7
#     8   8   8   8   8   8   8
#     4  10  20  34  54  80 114 156 195 235 287 351
#     4  10  21  35  54  84 119 153 189 231 284 345
#     4  11  22  36  57  84 116 152 191 240 293 349
#     4  10  22  40  62  87 116 151 194 249 306 364
#     4  10  22  42  65  88 117 153 199 254 308 366
#     4  10  20  36  58  83 111 146 190 240 291 345
#     4   9  19  35  54  80 114 151 194 241 291 347
#
# _framework density 19.961966
#
# number of rings (size 3 to 8) (size 9 to 14) (size 15 to 20)
#    0.000    2.000    1.429    1.714    0.000    4.571 
#    0.000    2.857    0.000    0.000    0.000    0.000 
#    0.000    0.000    0.000    0.000    0.000    0.000 
#
# Total GULP energy -346948.915973 kJ/mol
# GULP energy per Si atom -12391.032713 kJ/mol
# Density = 1.991653 g / cm^3
# Si number density = 19.961966 Si / 1000 Ang^3
#
#
#
# Elastic Constant Matrix: (Units=GPa)
#
#
# Indices 1 2 3 4 5 6 
#
# 1 50.4900 29.7617 26.8417 0.0000 -1.2916 0.0000
# 2 29.7617 86.9544 29.4546 0.0000 -5.2408 0.0000
# 3 26.8417 29.4546 104.1227 0.0000 7.6875 0.0000
# 4 0.0000 0.0000 0.0000 26.5524 0.0000 -6.8399
# 5 -1.2916 -5.2408 7.6875 0.0000 32.4325 0.0000
# 6 0.0000 0.0000 0.0000 -6.8399 0.0000 29.0305
#
#
#
# Elastic Compliance Matrix: (Units=1/GPa)
#
#
# Indices 1 2 3 4 5 6 
#
# 1 0.026828 -0.007468 -0.004878 0.000000 0.001018 0.000000
# 2 -0.007468 0.015084 -0.002544 0.000000 0.002743 0.000000
# 3 -0.004878 -0.002544 0.011833 0.000000 -0.003410 0.000000
# 4 0.000000 0.000000 0.000000 0.040095 0.000000 0.009447
# 5 0.001018 0.002743 -0.003410 0.000000 0.032125 0.000000
# 6 0.000000 0.000000 0.000000 0.009447 0.000000 0.036672
#
#
# Mechanical properties :
#
#
# Convention : Reuss Voigt Hill
#
# Bulk Modulus (GPa) = 41.73172 45.96477 43.84824
# Shear Modulus (GPa) = 24.94930 27.97035 26.45983
#
# Velocity S-wave (km/s) = 3.53915 3.74730 3.64471
# Velocity P-wave (km/s) = 6.13610 6.46523 6.30281
#
# Compressibility (1/GPa) = 0.02396259
#
# Stress axis : x y z
#
# Youngs Moduli (GPa) = 37.27492 66.29716 84.50860
#
# Poissons Ratio (x) = 0.49514 0.41226
# Poissons Ratio (y) = 0.27839 0.21500
# Poissons Ratio (z) = 0.18184 0.16867
#
# Static dielectric constant tensor:
#      x y z
#    x 3.433480 0.000000 0.015220 
#    y 0.000000 3.746530 0.000000 
#    z 0.015220 0.000000 3.677800 
# 
# 
# High freq. dielectric constant tensor:
#      x y z
#    x 1.761500 0.000000 0.005220 
#    y 0.000000 1.782170 0.000000 
#    z 0.005220 0.000000 1.781890 
# 
# From -- ./inp_files/329713.got.cif
#   From: 2010.06.25/outbox.cif.g09.slc.cpg/sg12_165_cif.got.tgz:329713.got - 2010.06.28 00:19:55.
