data_PCOD8097700
_publ_section_title
;
Structure prediction by ZEFSAII (Michael W. Deem and Ramdas Pophale) SiO2 
 PCOD8097700
Probable space group: C 2/M
;
_chemical_formula_sum "Si O2"
_cell_formula_units_Z 64
_cell_length_a 31.082240
_cell_length_b 8.749410
_cell_length_c 25.015176
_cell_angle_alpha 90.000000
_cell_angle_beta 30.694009
_cell_angle_gamma 90.000000
_cell_volume 3472.565184
_symmetry_space_group_name_H-M "C 2/M"
_symmetry_group_IT_number 12
_symmetry_cell_setting 'monoclinic'
loop_
_space_group_symop_operation_xyz
x,y,z
-x,y,-z
-x,-y,-z
x,-y,z
1/2+x,1/2+y,z
1/2-x,1/2+y,-z
1/2-x,1/2-y,-z
1/2+x,1/2-y,z
loop_
_atom_site_type_symbol
_atom_site_label
_atom_site_fract_x
_atom_site_fract_y
_atom_site_fract_z
Si Si1 0.793094 0.178927 0.312065
Si Si2 0.452905 0.175361 0.193181
Si Si3 0.077771 0.681759 0.451714
Si Si4 0.374676 0.679272 0.011787
Si Si5 0.260176 0.320493 0.228752
Si Si6 0.506554 0.823592 0.727508
Si Si7 0.117464 0.820186 0.519302
Si Si8 0.833272 0.179004 0.935451
O O1 0.876037 0.223741 0.255055
O O2 0.804258 0.223481 0.237726
O O3 0.713456 0.264972 0.422252
O O4 0.775582 0.000000 0.336802
O O5 0.459304 0.198586 0.249438
O O6 0.437810 0.000000 0.193678
O O7 0.537614 0.233373 0.074461
O O8 0.077151 0.500000 0.457051
O O9 0.164044 0.741001 0.331786
O O10 0.070161 0.747497 0.519202
O O11 0.000000 0.743203 0.500000
O O12 0.392138 0.500000 0.000976
O O13 0.312220 0.748900 0.123559
O O14 0.333351 0.713058 0.998598
O O15 0.257812 0.500000 0.223051
O O16 0.568450 0.728027 0.624478
O O17 0.412483 0.758474 0.822468
O O18 0.505788 0.000000 0.710962
O O19 0.116331 0.000000 0.514469
O O20 0.836853 0.000000 0.919523
O O21 0.750000 0.250000 0.000000
#
# Coordination Sequence:
#
# PCOD8097700 Si02
#       8
#     8   8   8   8   8   8   8   8
#     4  10  20  36  57  78 104 139 177 215 260 319
#     4  10  21  36  54  78 106 135 172 220 270 316
#     4   9  18  34  56  80 108 144 183 218 257 313
#     4   9  18  34  54  75 103 140 180 217 256 309
#     4   8  16  32  53  77 102 134 178 218 251 300
#     4  10  21  38  57  76 104 142 181 220 264 319
#     4  11  22  36  55  80 110 139 174 223 271 314
#     4  10  20  34  54  80 109 141 177 220 267 314
#
# _framework density 18.430178999999999
#
# number of rings (size 3 to 8) (size 9 to 14) (size 15 to 20)
#    0.000    2.375    0.000    3.375    0.000    4.250 
#    0.000    8.125    0.000    0.000    0.000    0.000 
#    0.000    0.000    0.000    0.000    0.000    0.000 
#
# Total GULP energy -396858.003833 kJ/mol
# GULP energy per Si atom -12401.812620 kJ/mol
# Density = 1.838823 g / cm^3
# Si number density = 18.430179 Si / 1000 Ang^3
#
#
#
# Elastic Constant Matrix: (Units=GPa)
#
#
# Indices 1 2 3 4 5 6 
#
# 1 88.0288 27.1344 54.2597 0.0044 -20.6068 -0.0032
# 2 27.1344 49.3710 23.2959 0.0341 -3.6753 -0.0079
# 3 54.2597 23.2959 118.0682 0.0627 6.9091 -0.0296
# 4 0.0044 0.0341 0.0627 29.6710 -0.0174 -2.9241
# 5 -20.6068 -3.6753 6.9091 -0.0174 30.0708 0.0006
# 6 -0.0032 -0.0079 -0.0296 -2.9241 0.0006 27.0662
#
#
#
# Elastic Compliance Matrix: (Units=1/GPa)
#
#
# Indices 1 2 3 4 5 6 
#
# 1 0.024671 -0.006960 -0.011053 0.000038 0.018595 -0.000007
# 2 -0.006960 0.024733 -0.001601 -0.000025 -0.001379 0.000002
# 3 -0.011053 -0.001601 0.014515 -0.000033 -0.011105 0.000011
# 4 0.000038 -0.000025 -0.000033 0.034066 0.000050 0.003680
# 5 0.018595 -0.001379 -0.011105 0.000050 0.048381 -0.000006
# 6 -0.000007 0.000002 0.000011 0.003680 -0.000006 0.037344
#
#
# Mechanical properties :
#
#
# Convention : Reuss Voigt Hill
#
# Bulk Modulus (GPa) = 40.49938 51.64977 46.07457
# Shear Modulus (GPa) = 21.62942 27.41347 24.52144
#
# Velocity S-wave (km/s) = 3.42948 3.86090 3.65157
# Velocity P-wave (km/s) = 6.14036 6.92537 6.54464
#
# Compressibility (1/GPa) = 0.02469174
#
# Stress axis : x y z
#
# Youngs Moduli (GPa) = 40.53332 40.43246 68.89479
#
# Poissons Ratio (x) = 0.28140 0.76149
# Poissons Ratio (y) = 0.28210 0.11029
# Poissons Ratio (z) = 0.44801 0.06473
#
# Static dielectric constant tensor:
#      x y z
#    x 3.387680 -0.000060 0.009080 
#    y -0.000060 3.342200 0.000130 
#    z 0.009080 0.000130 3.585420 
# 
# 
# High freq. dielectric constant tensor:
#      x y z
#    x 1.713820 0.000000 -0.002300 
#    y 0.000000 1.710560 0.000010 
#    z -0.002300 0.000010 1.722430 
# 
# From -- ./inp_files/353326.got.cif
#   From: 2010.06.25/outbox.cif.g09.slc.cpg/sg12_177_cif.got.tgz:353326.got - 2010.06.28 00:19:55.
