data_PCOD8097855
_publ_section_title
;
Structure prediction by ZEFSAII (Michael W. Deem and Ramdas Pophale) SiO2 
 PCOD8097855
Probable space group: C 2/M
;
_chemical_formula_sum "Si O2"
_cell_formula_units_Z 64
_cell_length_a 25.671248
_cell_length_b 8.752011
_cell_length_c 14.133352
_cell_angle_alpha 90.000000
_cell_angle_beta 86.922313
_cell_angle_gamma 90.000000
_cell_volume 3170.831455
_symmetry_space_group_name_H-M "C 2/M"
_symmetry_group_IT_number 12
_symmetry_cell_setting 'monoclinic'
loop_
_space_group_symop_operation_xyz
x,y,z
-x,y,-z
-x,-y,-z
x,-y,z
1/2+x,1/2+y,z
1/2-x,1/2+y,-z
1/2-x,1/2-y,-z
1/2+x,1/2-y,z
loop_
_atom_site_type_symbol
_atom_site_label
_atom_site_fract_x
_atom_site_fract_y
_atom_site_fract_z
Si Si1 0.489599 0.819207 0.633337
Si Si2 0.443299 0.330778 0.999098
Si Si3 0.417690 0.682006 0.480910
Si Si4 0.923899 0.168104 0.783238
Si Si5 0.176541 0.319163 0.154683
Si Si6 0.655752 0.176372 0.944949
Si Si7 0.200233 0.818596 0.560037
Si Si8 0.283663 0.680189 0.229057
O O1 0.442732 0.755076 0.572179
O O2 0.546228 0.744652 0.608413
O O3 0.471521 0.771018 0.739610
O O4 0.494164 0.000000 0.620343
O O5 0.440703 0.500000 0.047940
O O6 0.429699 0.351567 0.892571
O O7 0.500000 0.257442 0.000000
O O8 0.405768 0.209234 0.052386
O O9 0.422248 0.500000 0.483065
O O10 0.356669 0.731813 0.475944
O O11 0.868663 0.251095 0.774686
O O12 0.923429 0.000000 0.734383
O O13 0.170217 0.500000 0.155181
O O14 0.227743 0.257944 0.201554
O O15 0.177862 0.263670 0.044336
O O16 0.676348 0.268416 0.854082
O O17 0.668213 0.000000 0.929007
O O18 0.250000 0.750000 0.500000
O O19 0.202318 0.757136 0.668060
O O20 0.205654 0.000000 0.555223
O O21 0.283750 0.500000 0.232002
#
# Coordination Sequence:
#
# PCOD8097855 Si02
#       8
#     8   8   8   8   8   8   8   8
#     4  11  22  37  60  87 113 148 190 237 293 348
#     4   9  19  36  56  78 108 149 188 224 274 335
#     4  10  21  40  61  84 114 146 189 242 292 342
#     4  10  20  34  55  83 113 145 186 233 282 337
#     4   9  19  35  55  82 116 149 188 234 279 332
#     4  10  20  34  54  83 115 146 184 234 281 326
#     4  10  24  42  61  86 117 153 193 239 291 346
#     4  10  21  38  58  81 110 151 191 226 279 340
#
# _framework density 20.183979999999998
#
# number of rings (size 3 to 8) (size 9 to 14) (size 15 to 20)
#    0.000    2.125    0.000    3.375    1.750    4.250 
#    0.000    5.000    0.000    0.000    0.000    0.000 
#    0.000    0.000    0.000    0.000    0.000    0.000 
#
# Total GULP energy -396597.980303 kJ/mol
# GULP energy per Si atom -12393.686884 kJ/mol
# Density = 2.013804 g / cm^3
# Si number density = 20.183980 Si / 1000 Ang^3
#
#
#
# Elastic Constant Matrix: (Units=GPa)
#
#
# Indices 1 2 3 4 5 6 
#
# 1 153.7465 30.7630 40.2631 0.0000 -4.3660 0.0000
# 2 30.7630 42.7664 22.4151 0.0000 -2.2882 0.0000
# 3 40.2631 22.4151 54.7883 0.0000 -16.2382 0.0000
# 4 0.0000 0.0000 0.0000 29.1639 0.0000 -10.6210
# 5 -4.3660 -2.2882 -16.2382 0.0000 31.5144 0.0000
# 6 0.0000 0.0000 0.0000 -10.6210 0.0000 38.9618
#
#
#
# Elastic Compliance Matrix: (Units=1/GPa)
#
#
# Indices 1 2 3 4 5 6 
#
# 1 0.008559 -0.003398 -0.005455 0.000000 -0.001871 0.000000
# 2 -0.003398 0.031758 -0.011745 0.000000 -0.004217 0.000000
# 3 -0.005455 -0.011745 0.031381 0.000000 0.014561 0.000000
# 4 0.000000 0.000000 0.000000 0.038068 0.000000 0.010377
# 5 -0.001871 -0.004217 0.014561 0.000000 0.038669 0.000000
# 6 0.000000 0.000000 0.000000 0.010377 0.000000 0.028495
#
#
# Mechanical properties :
#
#
# Convention : Reuss Voigt Hill
#
# Bulk Modulus (GPa) = 32.78422 48.68706 40.73564
# Shear Modulus (GPa) = 21.90153 30.45201 26.17677
#
# Velocity S-wave (km/s) = 3.29765 3.88844 3.60517
# Velocity P-wave (km/s) = 5.54773 6.65837 6.12826
#
# Compressibility (1/GPa) = 0.03050248
#
# Stress axis : x y z
#
# Youngs Moduli (GPa) = 116.82971 31.48841 31.86596
#
# Poissons Ratio (x) = 0.10701 0.17381
# Poissons Ratio (y) = 0.39702 0.37427
# Poissons Ratio (z) = 0.63726 0.36984
#
# Static dielectric constant tensor:
#      x y z
#    x -3.455330 0.000000 2.064210 
#    y 0.000000 3.781580 0.000000 
#    z 2.064210 0.000000 3.116840 
# 
# 
# High freq. dielectric constant tensor:
#      x y z
#    x 1.795840 0.000000 -0.009800 
#    y 0.000000 1.782640 0.000000 
#    z -0.009800 0.000000 1.782060 
# 
# From -- ./inp_files/238717.got.cif
#   From: 2010.06.25/outbox.cif.g09.slc.cpg/sg12_120_cif.got.tgz:238717.got - 2010.06.28 00:19:55.
