data_PCOD8097985
_publ_section_title
;
Structure prediction by ZEFSAII (Michael W. Deem and Ramdas Pophale) SiO2 
 PCOD8097985
Probable space group: C 2/M
;
_chemical_formula_sum "Si O2"
_cell_formula_units_Z 64
_cell_length_a 15.125107
_cell_length_b 9.248730
_cell_length_c 25.656195
_cell_angle_alpha 90.000000
_cell_angle_beta 108.022277
_cell_angle_gamma 90.000000
_cell_volume 3412.905231
_symmetry_space_group_name_H-M "C 2/M"
_symmetry_group_IT_number 12
_symmetry_cell_setting 'monoclinic'
loop_
_space_group_symop_operation_xyz
x,y,z
-x,y,-z
-x,-y,-z
x,-y,z
1/2+x,1/2+y,z
1/2-x,1/2+y,-z
1/2-x,1/2-y,-z
1/2+x,1/2-y,z
loop_
_atom_site_type_symbol
_atom_site_label
_atom_site_fract_x
_atom_site_fract_y
_atom_site_fract_z
Si Si1 0.696917 0.832021 0.945322
Si Si2 0.950341 0.327669 0.335097
Si Si3 0.703943 0.655687 0.447810
Si Si4 0.992145 0.668516 0.938687
Si Si5 0.994234 0.839936 0.441043
Si Si6 0.686415 0.670896 0.132578
Si Si7 0.253399 0.828960 0.256053
Si Si8 0.631966 0.672805 0.329680
O O1 0.587791 0.794690 0.926361
O O2 0.738380 0.784576 0.897337
O O3 0.712888 0.000000 0.959122
O O4 0.750000 0.750000 0.000000
O O5 0.962791 0.500000 0.339440
O O6 0.940588 0.268323 0.392584
O O7 0.857329 0.277636 0.288397
O O8 0.035422 0.257282 0.319073
O O9 0.753829 0.500000 0.459994
O O10 0.750000 0.750000 0.500000
O O11 0.596024 0.639280 0.438082
O O12 0.706950 0.715773 0.389035
O O13 0.966929 0.500000 0.930911
O O14 0.912456 0.757666 0.895964
O O15 0.000000 0.718412 0.000000
O O16 0.000000 0.771450 0.500000
O O17 0.946007 0.000000 0.434463
O O18 0.671360 0.500000 0.131391
O O19 0.725071 0.731480 0.194338
O O20 0.178208 0.773437 0.284474
O O21 0.251757 0.000000 0.255933
O O22 0.613450 0.500000 0.327702
#
# Coordination Sequence:
#
# PCOD8097985 Si02
#       8
#     8   8   8   8   8   8   8   8
#     4  10  20  34  55  81 112 147 180 222 274 321
#     4  10  20  35  57  83 108 138 182 234 276 318
#     4   9  18  30  48  73 100 131 168 213 265 319
#     4  10  20  35  55  81 116 150 178 221 278 322
#     4   9  19  35  52  74 107 143 175 216 275 335
#     4  10  21  37  57  83 110 144 190 227 263 322
#     4   9  20  38  58  79 109 147 184 224 272 324
#     4   9  19  38  57  73 105 148 180 215 275 336
#
# _framework density 18.752351999999998
#
# number of rings (size 3 to 8) (size 9 to 14) (size 15 to 20)
#    0.000    2.500    1.250    1.125    1.750    4.000 
#    0.000    4.375    0.000    0.000    0.000    0.000 
#    0.000    0.000    0.000    0.000    0.000    0.000 
#
# Total GULP energy -396666.976052 kJ/mol
# GULP energy per Si atom -12395.843002 kJ/mol
# Density = 1.870967 g / cm^3
# Si number density = 18.752352 Si / 1000 Ang^3
#
#
#
# Elastic Constant Matrix: (Units=GPa)
#
#
# Indices 1 2 3 4 5 6 
#
# 1 117.8775 43.4985 85.9589 0.0000 -3.5263 0.0000
# 2 43.4985 55.4875 55.1299 0.0000 5.2594 0.0000
# 3 85.9589 55.1299 189.7788 0.0000 -3.9262 0.0000
# 4 0.0000 0.0000 0.0000 25.9638 0.0000 4.0847
# 5 -3.5263 5.2594 -3.9262 0.0000 34.9289 0.0000
# 6 0.0000 0.0000 0.0000 4.0847 0.0000 27.3378
#
#
#
# Elastic Compliance Matrix: (Units=1/GPa)
#
#
# Indices 1 2 3 4 5 6 
#
# 1 0.014372 -0.007074 -0.004413 0.000000 0.002020 0.000000
# 2 -0.007074 0.029593 -0.005512 0.000000 -0.005790 0.000000
# 3 -0.004413 -0.005512 0.008898 0.000000 0.001385 0.000000
# 4 0.000000 0.000000 0.000000 0.039442 0.000000 -0.005893
# 5 0.002020 -0.005790 0.001385 0.000000 0.029861 0.000000
# 6 0.000000 0.000000 0.000000 -0.005893 0.000000 0.037460
#
#
# Mechanical properties :
#
#
# Convention : Reuss Voigt Hill
#
# Bulk Modulus (GPa) = 53.00831 81.36872 67.18852
# Shear Modulus (GPa) = 25.01079 29.54985 27.28032
#
# Velocity S-wave (km/s) = 3.65600 3.97393 3.81828
# Velocity P-wave (km/s) = 6.79343 8.03378 7.43950
#
# Compressibility (1/GPa) = 0.01886497
#
# Stress axis : x y z
#
# Youngs Moduli (GPa) = 69.57853 33.79166 112.38231
#
# Poissons Ratio (x) = 0.23903 0.49596
# Poissons Ratio (y) = 0.49217 0.61951
# Poissons Ratio (z) = 0.30706 0.18628
#
# Static dielectric constant tensor:
#      x y z
#    x 4.327000 0.000000 1.322610 
#    y 0.000000 4.054600 0.000000 
#    z 1.322610 0.000000 6.856940 
# 
# 
# High freq. dielectric constant tensor:
#      x y z
#    x 1.730940 0.000000 -0.008330 
#    y 0.000000 1.709750 0.000000 
#    z -0.008330 0.000000 1.732470 
# 
# From -- ./inp_files/359983.got.cif
#   From: 2010.06.25/outbox.cif.g09.slc.cpg/sg12_180_cif.got.tgz:359983.got - 2010.06.28 00:19:55.
