data_PCOD8097357
_publ_section_title
;
Structure prediction by ZEFSAII (Michael W. Deem and Ramdas Pophale) SiO2 
 PCOD8097357
Probable space group: C 2/M
;
_chemical_formula_sum "Si O2"
_cell_formula_units_Z 64
_cell_length_a 23.846457
_cell_length_b 9.268056
_cell_length_c 21.536934
_cell_angle_alpha 90.000000
_cell_angle_beta 133.435749
_cell_angle_gamma 90.000000
_cell_volume 3456.370077
_symmetry_space_group_name_H-M "C 2/M"
_symmetry_group_IT_number 12
_symmetry_cell_setting 'monoclinic'
loop_
_space_group_symop_operation_xyz
x,y,z
-x,y,-z
-x,-y,-z
x,-y,z
1/2+x,1/2+y,z
1/2-x,1/2+y,-z
1/2-x,1/2-y,-z
1/2+x,1/2-y,z
loop_
_atom_site_type_symbol
_atom_site_label
_atom_site_fract_x
_atom_site_fract_y
_atom_site_fract_z
Si Si1 0.456656 0.834114 0.906649
Si Si2 0.045210 0.165516 0.874338
Si Si3 0.135496 0.831539 0.431681
Si Si4 0.532980 0.329679 0.726031
Si Si5 0.307480 0.667443 0.206665
Si Si6 0.719192 0.333347 0.035744
Si Si7 0.214606 0.336847 0.254818
Si Si8 0.743986 0.332027 0.399979
O O1 0.481674 0.752116 0.863887
O O2 0.364759 0.814556 0.843776
O O3 0.480822 0.000000 0.917174
O O4 0.500000 0.768813 0.000000
O O5 0.048860 0.230041 0.807374
O O6 0.018273 0.000000 0.852185
O O7 0.127406 0.182806 0.969735
O O8 0.178133 0.746160 0.518662
O O9 0.174811 0.800520 0.395199
O O10 0.048036 0.770670 0.362342
O O11 0.138998 0.000000 0.450999
O O12 0.526595 0.500000 0.725188
O O13 0.603546 0.283561 0.735038
O O14 0.296514 0.500000 0.178762
O O15 0.252591 0.765099 0.123279
O O16 0.285177 0.692044 0.261316
O O17 0.743953 0.500000 0.049283
O O18 0.750000 0.250000 0.000000
O O19 0.218793 0.500000 0.284249
O O20 0.218956 0.226180 0.314320
O O21 0.761935 0.500000 0.408024
#
# Coordination Sequence:
#
# PCOD8097357 Si02
#       8
#     8   8   8   8   8   8   8   8
#     4  10  21  36  52  76 108 141 177 220 267 313
#     4  10  20  34  53  78 106 138 178 222 268 317
#     4   9  18  34  58  83 107 135 172 220 272 325
#     4   9  17  33  55  79 105 134 172 221 270 315
#     4  10  20  37  57  77 107 145 184 226 266 316
#     4  11  21  34  53  77 108 144 183 225 268 316
#     4  10  21  36  56  79 108 147 184 217 263 325
#     4  10  20  35  57  82 109 140 173 218 271 322
#
# _framework density 18.516535000000001
#
# number of rings (size 3 to 8) (size 9 to 14) (size 15 to 20)
#    0.000    2.125    1.250    2.250    0.000    4.750 
#    0.000    1.875    0.000    3.750    0.000    0.000 
#    0.000    0.000    0.000    0.000    0.000    0.000 
#
# Total GULP energy -396870.486837 kJ/mol
# GULP energy per Si atom -12402.202714 kJ/mol
# Density = 1.847439 g / cm^3
# Si number density = 18.516535 Si / 1000 Ang^3
#
#
#
# Elastic Constant Matrix: (Units=GPa)
#
#
# Indices 1 2 3 4 5 6 
#
# 1 106.3311 34.4382 41.6807 0.0000 7.4266 0.0000
# 2 34.4382 66.9367 38.9153 0.0000 0.3128 0.0000
# 3 41.6807 38.9153 110.2301 0.0000 9.2956 0.0000
# 4 0.0000 0.0000 0.0000 32.1200 0.0000 -4.3017
# 5 7.4266 0.3128 9.2956 0.0000 29.0705 0.0000
# 6 0.0000 0.0000 0.0000 -4.3017 0.0000 23.6371
#
#
#
# Elastic Compliance Matrix: (Units=1/GPa)
#
#
# Indices 1 2 3 4 5 6 
#
# 1 0.012141 -0.004622 -0.002777 0.000000 -0.002164 0.000000
# 2 -0.004622 0.020668 -0.005786 0.000000 0.002808 0.000000
# 3 -0.002777 -0.005786 0.012435 0.000000 -0.003205 0.000000
# 4 0.000000 0.000000 0.000000 0.031911 0.000000 0.005807
# 5 -0.002164 0.002808 -0.003205 0.000000 0.035947 0.000000
# 6 0.000000 0.000000 0.000000 0.005807 0.000000 0.043363
#
#
# Mechanical properties :
#
#
# Convention : Reuss Voigt Hill
#
# Bulk Modulus (GPa) = 52.98009 57.06292 55.02151
# Shear Modulus (GPa) = 26.43753 28.19642 27.31698
#
# Velocity S-wave (km/s) = 3.78270 3.90650 3.84510
# Velocity P-wave (km/s) = 6.91034 7.15764 7.03508
#
# Compressibility (1/GPa) = 0.01887501
#
# Stress axis : x y z
#
# Youngs Moduli (GPa) = 82.36463 48.38390 80.42067
#
# Poissons Ratio (x) = 0.22364 0.22329
# Poissons Ratio (y) = 0.38070 0.46529
# Poissons Ratio (z) = 0.22869 0.27993
#
# Static dielectric constant tensor:
#      x y z
#    x 3.449230 0.000000 0.171610 
#    y 0.000000 3.338210 0.000000 
#    z 0.171610 0.000000 3.445700 
# 
# 
# High freq. dielectric constant tensor:
#      x y z
#    x 1.718910 0.000000 0.007520 
#    y 0.000000 1.703910 0.000000 
#    z 0.007520 0.000000 1.715050 
# 
# From -- ./inp_files/324286.got.cif
#   From: 2010.06.25/outbox.cif.g09.slc.cpg/sg12_163_cif.got.tgz:324286.got - 2010.06.28 00:19:55.
