data_PCOD8097448
_publ_section_title
;
Structure prediction by ZEFSAII (Michael W. Deem and Ramdas Pophale) SiO2 
 PCOD8097448
Probable space group: C 2/M
;
_chemical_formula_sum "Si O2"
_cell_formula_units_Z 64
_cell_length_a 29.342879
_cell_length_b 9.174337
_cell_length_c 25.097088
_cell_angle_alpha 90.000000
_cell_angle_beta 149.427991
_cell_angle_gamma 90.000000
_cell_volume 3436.330339
_symmetry_space_group_name_H-M "C 2/M"
_symmetry_group_IT_number 12
_symmetry_cell_setting 'monoclinic'
loop_
_space_group_symop_operation_xyz
x,y,z
-x,y,-z
-x,-y,-z
x,-y,z
1/2+x,1/2+y,z
1/2-x,1/2+y,-z
1/2-x,1/2-y,-z
1/2+x,1/2-y,z
loop_
_atom_site_type_symbol
_atom_site_label
_atom_site_fract_x
_atom_site_fract_y
_atom_site_fract_z
Si Si1 0.734392 0.830989 0.645809
Si Si2 0.391923 0.832865 0.280922
Si Si3 0.492165 0.333458 0.745314
Si Si4 0.663189 0.167290 0.894257
Si Si5 0.423774 0.668052 0.790542
Si Si6 0.265285 0.330189 0.799597
Si Si7 0.565592 0.670619 0.429283
Si Si8 0.550938 0.172660 0.997547
O O1 0.825840 0.780915 0.709788
O O2 0.742330 0.795985 0.715812
O O3 0.656339 0.736060 0.542641
O O4 0.713738 0.000000 0.614379
O O5 0.346063 0.810394 0.177896
O O6 0.320815 0.780596 0.253224
O O7 0.481317 0.737326 0.376090
O O8 0.419983 0.000000 0.318448
O O9 0.525592 0.500000 0.775353
O O10 0.578387 0.232528 0.839737
O O11 0.428061 0.309028 0.731294
O O12 0.439088 0.290628 0.638233
O O13 0.671886 0.000000 0.919324
O O14 0.750000 0.250000 0.000000
O O15 0.440517 0.500000 0.823495
O O16 0.498226 0.765503 0.893910
O O17 0.287464 0.500000 0.831220
O O18 0.349820 0.237319 0.903348
O O19 0.565522 0.500000 0.439775
O O20 0.557076 0.000000 0.998855
O O21 0.500000 0.221248 0.000000
#
# Coordination Sequence:
#
# PCOD8097448 Si02
#       8
#     8   8   8   8   8   8   8   8
#     4  10  21  37  59  84 109 144 190 235 278 330
#     4   9  20  38  58  80 108 145 189 232 273 326
#     4   9  20  38  57  80 110 146 188 232 277 330
#     4  10  20  34  53  79 111 146 185 230 280 333
#     4  10  21  38  60  83 111 149 194 232 270 332
#     4  10  21  38  60  84 110 148 194 231 271 330
#     4  10  21  38  59  82 113 148 182 231 290 335
#     4  11  23  37  55  83 120 152 181 229 285 333
#
# _framework density 18.62452
#
# number of rings (size 3 to 8) (size 9 to 14) (size 15 to 20)
#    0.000    2.125    1.250    1.125    1.750    4.500 
#    0.000    2.500    0.000    0.000    0.000    0.000 
#    0.000    0.000    0.000    0.000    0.000    0.000 
#
# Total GULP energy -396942.656874 kJ/mol
# GULP energy per Si atom -12404.458027 kJ/mol
# Density = 1.858213 g / cm^3
# Si number density = 18.624520 Si / 1000 Ang^3
#
#
#
# Elastic Constant Matrix: (Units=GPa)
#
#
# Indices 1 2 3 4 5 6 
#
# 1 160.9246 56.8453 72.5987 0.0000 34.7785 0.0000
# 2 56.8453 91.3674 75.1051 0.0000 21.9934 0.0000
# 3 72.5987 75.1051 141.8263 0.0000 35.8077 0.0000
# 4 0.0000 0.0000 0.0000 38.2659 0.0000 2.2784
# 5 34.7785 21.9934 35.8077 0.0000 54.5646 0.0000
# 6 0.0000 0.0000 0.0000 2.2784 0.0000 26.6027
#
#
#
# Elastic Compliance Matrix: (Units=1/GPa)
#
#
# Indices 1 2 3 4 5 6 
#
# 1 0.008929 -0.003007 -0.002215 0.000000 -0.003026 0.000000
# 2 -0.003007 0.020470 -0.009231 0.000000 -0.000277 0.000000
# 3 -0.002215 -0.009231 0.014116 0.000000 -0.004131 0.000000
# 4 0.000000 0.000000 0.000000 0.026267 0.000000 -0.002250
# 5 -0.003026 -0.000277 -0.004131 0.000000 0.023078 0.000000
# 6 0.000000 0.000000 0.000000 -0.002250 0.000000 0.037783
#
#
# Mechanical properties :
#
#
# Convention : Reuss Voigt Hill
#
# Bulk Modulus (GPa) = 68.44345 89.24626 78.84486
# Shear Modulus (GPa) = 30.41021 36.52457 33.46739
#
# Velocity S-wave (km/s) = 4.04518 4.43324 4.24365
# Velocity P-wave (km/s) = 7.65813 8.61554 8.15090
#
# Compressibility (1/GPa) = 0.01461060
#
# Stress axis : x y z
#
# Youngs Moduli (GPa) = 111.99218 48.85141 70.84175
#
# Poissons Ratio (x) = 0.14688 0.15688
# Poissons Ratio (y) = 0.33672 0.65396
# Poissons Ratio (z) = 0.24801 0.45096
#
# Static dielectric constant tensor:
#      x y z
#    x 3.665470 0.000000 0.030910 
#    y 0.000000 3.454130 0.000000 
#    z 0.030910 0.000000 3.371600 
# 
# 
# High freq. dielectric constant tensor:
#      x y z
#    x 1.731720 0.000000 0.001460 
#    y 0.000000 1.723520 0.000000 
#    z 0.001460 0.000000 1.721960 
# 
# From -- ./inp_files/249023.got.cif
#   From: 2010.06.25/outbox.cif.g09.slc.cpg/sg12_125_cif.got.tgz:249023.got - 2010.06.28 00:19:55.
