data_PCOD8097171
_publ_section_title
;
Structure prediction by ZEFSAII (Michael W. Deem and Ramdas Pophale) SiO2 
 PCOD8097171
Probable space group: C 2/M
;
_chemical_formula_sum "Si O2"
_cell_formula_units_Z 56
_cell_length_a 21.073197
_cell_length_b 13.985512
_cell_length_c 14.612873
_cell_angle_alpha 90.000000
_cell_angle_beta 143.248242
_cell_angle_gamma 90.000000
_cell_volume 2576.909171
_symmetry_space_group_name_H-M "C 2/M"
_symmetry_group_IT_number 12
_symmetry_cell_setting 'monoclinic'
loop_
_space_group_symop_operation_xyz
x,y,z
-x,y,-z
-x,-y,-z
x,-y,z
1/2+x,1/2+y,z
1/2-x,1/2+y,-z
1/2-x,1/2-y,-z
1/2+x,1/2-y,z
loop_
_atom_site_type_symbol
_atom_site_label
_atom_site_fract_x
_atom_site_fract_y
_atom_site_fract_z
Si Si1 0.656249 0.108752 0.989583
Si Si2 0.912538 0.609181 0.286805
Si Si3 0.484013 0.769170 0.879293
Si Si4 0.329273 0.610953 0.689331
Si Si5 0.800594 0.602775 0.632147
Si Si6 0.367608 0.807335 0.424372
Si Si7 0.678499 0.396383 0.671256
O O1 0.663543 0.123639 0.888739
O O2 0.589004 0.199662 0.947585
O O3 0.611066 0.000000 0.957410
O O4 0.771349 0.117492 0.169593
O O5 0.934640 0.500000 0.333556
O O6 0.853449 0.651467 0.306305
O O7 0.029217 0.653970 0.404200
O O8 0.447120 0.657343 0.838607
O O9 0.388720 0.819236 0.714855
O O10 0.500000 0.807220 0.000000
O O11 0.333641 0.500000 0.725283
O O12 0.301069 0.622430 0.549661
O O13 0.240484 0.668749 0.645886
O O14 0.848849 0.500000 0.659451
O O15 0.773043 0.601253 0.707041
O O16 0.392286 0.693869 0.439317
O O17 0.617624 0.500000 0.597178
#
# Coordination Sequence:
#
# PCOD8097171 Si02
#       7
#     8   8   8   8   8   8   8
#     4  10  21  37  57  84 115 144 180 230 277 324
#     4  10  22  38  61  86 108 141 189 235 272 317
#     4  12  21  33  54  83 115 146 180 223 277 328
#     4  11  23  36  55  81 113 151 185 223 272 328
#     4  10  20  34  52  79 110 142 179 220 267 326
#     4  11  20  38  60  82 110 146 183 234 274 322
#     4  10  21  37  56  83 114 145 182 224 277 333
#
# _framework density 21.731460999999999
#
# number of rings (size 3 to 8) (size 9 to 14) (size 15 to 20)
#    0.000    1.429    2.857    3.429    2.000    3.714 
#    0.000    1.429    0.000    0.857    0.000    0.000 
#    0.000    0.000    0.000    0.000    0.000    0.000 
#
# Total GULP energy -346892.722325 kJ/mol
# GULP energy per Si atom -12389.025797 kJ/mol
# Density = 2.168200 g / cm^3
# Si number density = 21.731461 Si / 1000 Ang^3
#
#
#
# Elastic Constant Matrix: (Units=GPa)
#
#
# Indices 1 2 3 4 5 6 
#
# 1 42.3038 7.4931 19.0612 0.0000 -18.7543 0.0000
# 2 7.4931 143.5751 24.4272 0.0000 -3.0658 0.0000
# 3 19.0612 24.4272 33.4750 0.0000 -19.8855 0.0000
# 4 0.0000 0.0000 0.0000 27.2487 0.0000 -1.6245
# 5 -18.7543 -3.0658 -19.8855 0.0000 29.8535 0.0000
# 6 0.0000 0.0000 0.0000 -1.6245 0.0000 21.8277
#
#
#
# Elastic Compliance Matrix: (Units=1/GPa)
#
#
# Indices 1 2 3 4 5 6 
#
# 1 0.035255 0.000506 -0.012009 0.000000 0.014201 0.000000
# 2 0.000506 0.008447 -0.009511 0.000000 -0.005150 0.000000
# 3 -0.012009 -0.009511 0.063858 0.000000 0.034015 0.000000
# 4 0.000000 0.000000 0.000000 0.036863 0.000000 0.002744
# 5 0.014201 -0.005150 0.034015 0.000000 0.064547 0.000000
# 6 0.000000 0.000000 0.000000 0.002744 0.000000 0.046017
#
#
# Mechanical properties :
#
#
# Convention : Reuss Voigt Hill
#
# Bulk Modulus (GPa) = 15.25959 35.70189 25.48074
# Shear Modulus (GPa) = 15.68094 27.01080 21.34587
#
# Velocity S-wave (km/s) = 2.68913 3.52935 3.13750
# Velocity P-wave (km/s) = 4.08400 5.75089 4.98758
#
# Compressibility (1/GPa) = 0.06553258
#
# Stress axis : x y z
#
# Youngs Moduli (GPa) = 28.36455 118.38755 15.65977
#
# Poissons Ratio (x) = -0.05995 0.18805
# Poissons Ratio (y) = -0.01436 0.14895
# Poissons Ratio (z) = 0.34062 1.12604
#
# Static dielectric constant tensor:
#      x y z
#    x 3.620990 0.000000 -0.347900 
#    y 0.000000 4.354020 0.000000 
#    z -0.347900 0.000000 3.766400 
# 
# 
# High freq. dielectric constant tensor:
#      x y z
#    x 1.820780 0.000000 -0.035420 
#    y 0.000000 1.871310 0.000000 
#    z -0.035420 0.000000 1.842560 
# 
# From -- ./inp_files/233751.got.cif
#   From: 2010.06.25/outbox.cif.g09.slc.cpg/sg12_117_cif.got.tgz:233751.got - 2010.06.28 00:19:55.
