data_PCOD8097862
_publ_section_title
;
Structure prediction by ZEFSAII (Michael W. Deem and Ramdas Pophale) SiO2 
 PCOD8097862
Probable space group: C 2/M
;
_chemical_formula_sum "Si O2"
_cell_formula_units_Z 64
_cell_length_a 24.818230
_cell_length_b 9.134704
_cell_length_c 29.742087
_cell_angle_alpha 90.000000
_cell_angle_beta 28.311718
_cell_angle_gamma 90.000000
_cell_volume 3197.869934
_symmetry_space_group_name_H-M "C 2/M"
_symmetry_group_IT_number 12
_symmetry_cell_setting 'monoclinic'
loop_
_space_group_symop_operation_xyz
x,y,z
-x,y,-z
-x,-y,-z
x,-y,z
1/2+x,1/2+y,z
1/2-x,1/2+y,-z
1/2-x,1/2-y,-z
1/2+x,1/2-y,z
loop_
_atom_site_type_symbol
_atom_site_label
_atom_site_fract_x
_atom_site_fract_y
_atom_site_fract_z
Si Si1 0.768444 0.326424 0.533508
Si Si2 0.211135 0.330200 0.159869
Si Si3 0.406846 0.332188 0.601020
Si Si4 0.871768 0.665803 0.109210
Si Si5 0.318412 0.327359 0.910148
Si Si6 0.575230 0.329419 0.744082
Si Si7 0.478008 0.167657 0.633348
Si Si8 0.154120 0.667223 0.771106
O O1 0.761770 0.500000 0.531394
O O2 0.750000 0.250000 0.500000
O O3 0.672361 0.270075 0.638861
O O4 0.892314 0.276902 0.460021
O O5 0.235830 0.500000 0.130983
O O6 0.301628 0.274283 0.129482
O O7 0.226212 0.235850 0.103988
O O8 0.083889 0.309934 0.273180
O O9 0.500000 0.258814 0.500000
O O10 0.437391 0.500000 0.587898
O O11 0.405721 0.255524 0.649962
O O12 0.287624 0.314656 0.663335
O O13 0.820255 0.500000 0.145621
O O14 0.869914 0.727184 0.161342
O O15 0.000000 0.663894 0.000000
O O16 0.294534 0.500000 0.929538
O O17 0.451921 0.291463 0.815158
O O18 0.250000 0.250000 0.000000
O O19 0.592427 0.500000 0.738621
O O20 0.583686 0.257314 0.786641
O O21 0.474693 0.000000 0.620907
O O22 0.114086 0.500000 0.796505
#
# Coordination Sequence:
#
# PCOD8097862 Si02
#       8
#     8   8   8   8   8   8   8   8
#     4  10  21  38  59  86 118 155 198 243 294 352
#     4  11  23  40  63  93 123 156 200 248 300 359
#     4  10  20  34  54  83 117 154 197 238 283 344
#     4  10  22  40  62  89 119 157 201 248 303 357
#     4  11  25  44  65  90 119 157 201 250 304 357
#     4  10  23  41  61  88 122 158 199 246 299 355
#     4  10  21  36  57  86 119 153 192 239 292 349
#     4  10  21  37  58  87 122 158 197 242 295 352
#
# _framework density 20.013321000000001
#
# number of rings (size 3 to 8) (size 9 to 14) (size 15 to 20)
#    0.000    1.750    1.250    2.250    1.750    4.000 
#    0.000    0.000    0.000    0.000    0.000    0.000 
#    0.000    0.000    0.000    0.000    0.000    0.000 
#
# Total GULP energy -396911.991191 kJ/mol
# GULP energy per Si atom -12403.499725 kJ/mol
# Density = 1.996777 g / cm^3
# Si number density = 20.013321 Si / 1000 Ang^3
#
#
#
# Elastic Constant Matrix: (Units=GPa)
#
#
# Indices 1 2 3 4 5 6 
#
# 1 123.2022 50.6119 33.3876 -0.0483 16.1588 0.0758
# 2 50.6119 67.9269 33.7801 0.0988 3.5518 -0.1570
# 3 33.3876 33.7801 98.4333 0.0874 11.8415 -0.1620
# 4 -0.0483 0.0988 0.0874 85.1119 -0.0648 -88.7196
# 5 16.1588 3.5518 11.8415 -0.0648 32.5852 0.1221
# 6 0.0758 -0.1570 -0.1620 -88.7196 0.1221 188.9637
#
#
#
# Elastic Compliance Matrix: (Units=1/GPa)
#
#
# Indices 1 2 3 4 5 6 
#
# 1 0.012555 -0.008772 -0.000642 0.000008 -0.005036 -0.000006
# 2 -0.008772 0.023882 -0.005679 -0.000014 0.003810 0.000009
# 3 -0.000642 -0.005679 0.012772 -0.000001 -0.003704 0.000008
# 4 0.000008 -0.000014 -0.000001 0.023011 0.000003 0.010804
# 5 -0.005036 0.003810 -0.003704 0.000003 0.034117 -0.000019
# 6 -0.000006 0.000009 0.000008 0.010804 -0.000019 0.010365
#
#
# Mechanical properties :
#
#
# Convention : Reuss Voigt Hill
#
# Bulk Modulus (GPa) = 52.56910 58.34685 55.45797
# Shear Modulus (GPa) = 32.63104 72.78435 52.70769
#
# Velocity S-wave (km/s) = 4.04228 6.03713 5.13746
# Velocity P-wave (km/s) = 6.93620 8.82118 7.93486
#
# Compressibility (1/GPa) = 0.01902258
#
# Stress axis : x y z
#
# Youngs Moduli (GPa) = 79.65051 41.87172 78.29931
#
# Poissons Ratio (x) = 0.36729 0.05030
# Poissons Ratio (y) = 0.69868 0.44466
# Poissons Ratio (z) = 0.05116 0.23779
#
# Static dielectric constant tensor:
#      x y z
#    x 3.656620 0.000180 0.092060 
#    y 0.000180 3.587570 0.000100 
#    z 0.092060 0.000100 4.011710 
# 
# 
# High freq. dielectric constant tensor:
#      x y z
#    x 1.782200 -0.000010 0.003760 
#    y -0.000010 1.772770 0.000010 
#    z 0.003760 0.000010 1.796880 
# 
# From -- ./inp_files/382209.got.cif
#   From: 2010.06.25/outbox.cif.g09.slc.cpg/sg12_192_cif.got.tgz:382209.got - 2010.06.28 00:19:55.
