data_PCOD8097334
_publ_section_title
;
Structure prediction by ZEFSAII (Michael W. Deem and Ramdas Pophale) SiO2 
 PCOD8097334
Probable space group: C 2/M
;
_chemical_formula_sum "Si O2"
_cell_formula_units_Z 56
_cell_length_a 31.589079
_cell_length_b 9.404164
_cell_length_c 11.184706
_cell_angle_alpha 90.000000
_cell_angle_beta 61.470391
_cell_angle_gamma 90.000000
_cell_volume 2919.162720
_symmetry_space_group_name_H-M "C 2/M"
_symmetry_group_IT_number 12
_symmetry_cell_setting 'monoclinic'
loop_
_space_group_symop_operation_xyz
x,y,z
-x,y,-z
-x,-y,-z
x,-y,z
1/2+x,1/2+y,z
1/2-x,1/2+y,-z
1/2-x,1/2-y,-z
1/2+x,1/2-y,z
loop_
_atom_site_type_symbol
_atom_site_label
_atom_site_fract_x
_atom_site_fract_y
_atom_site_fract_z
Si Si1 0.977816 0.334509 0.402047
Si Si2 0.204672 0.835821 0.849318
Si Si3 0.109663 0.831995 0.578176
Si Si4 0.811909 0.334790 0.655367
Si Si5 0.934769 0.664550 0.883482
Si Si6 0.392648 0.664805 0.144590
Si Si7 0.336659 0.164929 0.889778
O O1 0.962962 0.500000 0.416027
O O2 0.930919 0.238411 0.449550
O O3 0.000000 0.297720 0.500000
O O4 0.015851 0.294243 0.248094
O O5 0.255223 0.802572 0.717138
O O6 0.162023 0.792303 0.816235
O O7 0.201803 0.000000 0.889714
O O8 0.200964 0.748987 0.977150
O O9 0.161035 0.763727 0.476428
O O10 0.098343 0.794815 0.730673
O O11 0.111582 0.000000 0.553208
O O12 0.823633 0.500000 0.614551
O O13 0.829599 0.289542 0.762969
O O14 0.933414 0.500000 0.919399
O O15 0.891186 0.703590 0.853075
O O16 0.930897 0.750774 0.012094
O O17 0.401794 0.500000 0.108230
O O18 0.325115 0.000000 0.922891
#
# Coordination Sequence:
#
# PCOD8097334 Si02
#       7
#     8   8   8   8   8   8   8
#     4  10  21  39  61  83 109 138 169 212 265 317
#     4   9  18  33  54  78 105 141 181 218 262 316
#     4  11  24  38  53  76 107 142 180 221 263 312
#     4  10  20  34  53  77 107 143 180 221 268 313
#     4   9  18  33  56  81 103 135 175 213 259 317
#     4   9  20  38  54  74 108 143 176 219 267 309
#     4   9  17  31  52  80 110 135 167 215 269 320
#
# _framework density 19.183584
#
# number of rings (size 3 to 8) (size 9 to 14) (size 15 to 20)
#    0.000    2.429    0.000    1.714    0.000    6.571 
#    0.000    5.714    0.000    0.000    0.000    0.000 
#    0.000    0.000    0.000    0.000    0.000    0.000 
#
# Total GULP energy -347297.995042 kJ/mol
# GULP energy per Si atom -12403.499823 kJ/mol
# Density = 1.913992 g / cm^3
# Si number density = 19.183584 Si / 1000 Ang^3
#
#
#
# Elastic Constant Matrix: (Units=GPa)
#
#
# Indices 1 2 3 4 5 6 
#
# 1 52.1979 28.6995 28.9810 0.0000 -2.9175 0.0000
# 2 28.6995 64.7625 54.5723 0.0000 -1.5564 0.0000
# 3 28.9810 54.5723 107.3575 0.0000 -5.0594 0.0000
# 4 0.0000 0.0000 0.0000 35.5811 0.0000 -1.2974
# 5 -2.9175 -1.5564 -5.0594 0.0000 28.8742 0.0000
# 6 0.0000 0.0000 0.0000 -1.2974 0.0000 25.1461
#
#
#
# Elastic Compliance Matrix: (Units=1/GPa)
#
#
# Indices 1 2 3 4 5 6 
#
# 1 0.025658 -0.009728 -0.001900 0.000000 0.001735 0.000000
# 2 -0.009728 0.030725 -0.013069 0.000000 -0.001617 0.000000
# 3 -0.001900 -0.013069 0.016565 0.000000 0.002006 0.000000
# 4 0.000000 0.000000 0.000000 0.028158 0.000000 0.001453
# 5 0.001735 -0.001617 0.002006 0.000000 0.035073 0.000000
# 6 0.000000 0.000000 0.000000 0.001453 0.000000 0.039843
#
#
# Mechanical properties :
#
#
# Convention : Reuss Voigt Hill
#
# Bulk Modulus (GPa) = 42.45150 49.86927 46.16039
# Shear Modulus (GPa) = 21.43471 25.39127 23.41299
#
# Velocity S-wave (km/s) = 3.34630 3.64207 3.49731
# Velocity P-wave (km/s) = 6.09159 6.61351 6.35790
#
# Compressibility (1/GPa) = 0.02355629
#
# Stress axis : x y z
#
# Youngs Moduli (GPa) = 38.97384 32.54632 60.36786
#
# Poissons Ratio (x) = 0.31661 0.11468
# Poissons Ratio (y) = 0.37914 0.78892
# Poissons Ratio (z) = 0.07404 0.42533
#
# Static dielectric constant tensor:
#      x y z
#    x 3.504290 0.000000 -0.056240 
#    y 0.000000 3.414430 0.000000 
#    z -0.056240 0.000000 3.520390 
# 
# 
# High freq. dielectric constant tensor:
#      x y z
#    x 1.746630 0.000000 -0.005080 
#    y 0.000000 1.738830 0.000000 
#    z -0.005080 0.000000 1.747180 
# 
# From -- ./inp_files/187193.got.cif
#   From: 2010.06.25/outbox.cif.g09.slc.cpg/sg12_94_cif.got.tgz:187193.got - 2010.06.28 00:19:55.
