data_PCOD8097800
_publ_section_title
;
Structure prediction by ZEFSAII (Michael W. Deem and Ramdas Pophale) SiO2 
 PCOD8097800
Probable space group: C 2/M
;
_chemical_formula_sum "Si O2"
_cell_formula_units_Z 56
_cell_length_a 33.100527
_cell_length_b 9.086689
_cell_length_c 11.024392
_cell_angle_alpha 90.000000
_cell_angle_beta 120.498857
_cell_angle_gamma 90.000000
_cell_volume 2857.068885
_symmetry_space_group_name_H-M "C 2/M"
_symmetry_group_IT_number 12
_symmetry_cell_setting 'monoclinic'
loop_
_space_group_symop_operation_xyz
x,y,z
-x,y,-z
-x,-y,-z
x,-y,z
1/2+x,1/2+y,z
1/2-x,1/2+y,-z
1/2-x,1/2-y,-z
1/2+x,1/2-y,z
loop_
_atom_site_type_symbol
_atom_site_label
_atom_site_fract_x
_atom_site_fract_y
_atom_site_fract_z
Si Si1 0.378293 0.829546 0.191516
Si Si2 0.036434 0.170178 0.781775
Si Si3 0.262736 0.328785 0.395767
Si Si4 0.584377 0.329894 0.110980
Si Si5 0.554898 0.828252 0.303872
Si Si6 0.667724 0.169099 0.127795
Si Si7 0.150679 0.669515 0.587462
O O1 0.425345 0.734188 0.252686
O O2 0.351871 0.788490 0.274895
O O3 0.393252 0.000000 0.213520
O O4 0.342638 0.791884 0.027910
O O5 0.988036 0.256230 0.688497
O O6 0.028664 0.000000 0.739669
O O7 0.053613 0.194821 0.944876
O O8 0.268164 0.500000 0.431580
O O9 0.250000 0.250000 0.500000
O O10 0.222060 0.297474 0.235412
O O11 0.311104 0.270538 0.416956
O O12 0.588452 0.500000 0.152851
O O13 0.558466 0.244561 0.177879
O O14 0.636534 0.267200 0.170499
O O15 0.601080 0.796454 0.451309
O O16 0.545241 0.000000 0.272554
O O17 0.655143 0.000000 0.137260
O O18 0.165065 0.500000 0.591044
#
# Coordination Sequence:
#
# PCOD8097800 Si02
#       7
#     8   8   8   8   8   8   8
#     4   9  19  39  61  79 106 144 183 222 267 319
#     4  10  21  36  55  81 111 141 179 227 273 320
#     4  11  23  38  58  85 114 143 178 220 269 324
#     4  10  20  34  54  82 112 141 178 225 274 322
#     4  11  22  35  53  78 109 146 185 223 268 323
#     4   9  19  36  58  82 108 142 182 222 266 321
#     4  10  23  40  57  80 110 144 183 225 267 318
#
# _framework density 19.600508000000001
#
# number of rings (size 3 to 8) (size 9 to 14) (size 15 to 20)
#    0.000    2.000    0.000    3.000    0.000   10.857 
#    0.000    2.857    0.000    0.000    0.000    0.000 
#    0.000    0.000    0.000    0.000    0.000    0.000 
#
# Total GULP energy -347349.738145 kJ/mol
# GULP energy per Si atom -12405.347791 kJ/mol
# Density = 1.955590 g / cm^3
# Si number density = 19.600508 Si / 1000 Ang^3
#
#
#
# Elastic Constant Matrix: (Units=GPa)
#
#
# Indices 1 2 3 4 5 6 
#
# 1 127.5669 78.8297 63.9609 0.0000 2.9479 0.0000
# 2 78.8297 119.5504 51.7325 0.0000 10.2079 0.0000
# 3 63.9609 51.7325 67.1182 0.0000 4.6382 0.0000
# 4 0.0000 0.0000 0.0000 25.3461 0.0000 2.6942
# 5 2.9479 10.2079 4.6382 0.0000 31.4764 0.0000
# 6 0.0000 0.0000 0.0000 2.6942 0.0000 38.0070
#
#
#
# Elastic Compliance Matrix: (Units=1/GPa)
#
#
# Indices 1 2 3 4 5 6 
#
# 1 0.018127 -0.006912 -0.012108 0.000000 0.002328 0.000000
# 2 -0.006912 0.015413 -0.005043 0.000000 -0.003608 0.000000
# 3 -0.012108 -0.005043 0.030443 0.000000 -0.001716 0.000000
# 4 0.000000 0.000000 0.000000 0.039753 0.000000 -0.002818
# 5 0.002328 -0.003608 -0.001716 0.000000 0.032975 0.000000
# 6 0.000000 0.000000 0.000000 -0.002818 0.000000 0.026511
#
#
# Mechanical properties :
#
#
# Convention : Reuss Voigt Hill
#
# Bulk Modulus (GPa) = 63.06486 78.14240 70.60363
# Shear Modulus (GPa) = 23.08032 26.94674 25.01353
#
# Velocity S-wave (km/s) = 3.43525 3.71185 3.57622
# Velocity P-wave (km/s) = 6.92673 7.63705 7.29054
#
# Compressibility (1/GPa) = 0.01585669
#
# Stress axis : x y z
#
# Youngs Moduli (GPa) = 55.16492 64.88009 32.84819
#
# Poissons Ratio (x) = 0.44848 0.39772
# Poissons Ratio (y) = 0.38132 0.16566
# Poissons Ratio (z) = 0.66792 0.32721
#
# Static dielectric constant tensor:
#      x y z
#    x 3.551230 0.000000 -0.011920 
#    y 0.000000 3.656720 0.000000 
#    z -0.011920 0.000000 3.708710 
# 
# 
# High freq. dielectric constant tensor:
#      x y z
#    x 1.764720 0.000000 0.003060 
#    y 0.000000 1.769350 0.000000 
#    z 0.003060 0.000000 1.765470 
# 
# From -- ./inp_files/187694.got.cif
#   From: 2010.06.25/outbox.cif.g09.slc.cpg/sg12_94_cif.got.tgz:187694.got - 2010.06.28 00:19:55.
