data_PCOD8097805
_publ_section_title
;
Structure prediction by ZEFSAII (Michael W. Deem and Ramdas Pophale) SiO2 
 PCOD8097805
Probable space group: C 2/M
;
_chemical_formula_sum "Si O2"
_cell_formula_units_Z 56
_cell_length_a 14.523225
_cell_length_b 22.105832
_cell_length_c 13.220560
_cell_angle_alpha 90.000000
_cell_angle_beta 136.258594
_cell_angle_gamma 90.000000
_cell_volume 2934.621592
_symmetry_space_group_name_H-M "C 2/M"
_symmetry_group_IT_number 12
_symmetry_cell_setting 'monoclinic'
loop_
_space_group_symop_operation_xyz
x,y,z
-x,y,-z
-x,-y,-z
x,-y,z
1/2+x,1/2+y,z
1/2-x,1/2+y,-z
1/2-x,1/2-y,-z
1/2+x,1/2-y,z
loop_
_atom_site_type_symbol
_atom_site_label
_atom_site_fract_x
_atom_site_fract_y
_atom_site_fract_z
Si Si1 0.847555 0.879112 0.894567
Si Si2 0.778470 0.822635 0.132872
Si Si3 0.789319 0.931741 0.646650
Si Si4 0.085578 0.665040 0.471753
Si Si5 0.044246 0.277973 0.821864
Si Si6 0.598381 0.570742 0.854885
Si Si7 0.286087 0.743098 0.742455
O O1 0.769397 0.919827 0.750767
O O2 0.814631 0.808400 0.850485
O O3 0.817233 0.902123 0.983110
O O4 0.000000 0.893427 0.000000
O O5 0.882760 0.783562 0.150640
O O6 0.837052 0.891092 0.185771
O O7 0.766652 0.801198 0.239270
O O8 0.634445 0.819741 0.965262
O O9 0.684365 0.887491 0.508411
O O10 0.940432 0.916430 0.734447
O O11 0.751954 0.000000 0.589362
O O12 0.172893 0.722870 0.574200
O O13 0.000000 0.642205 0.500000
O O14 0.988621 0.683422 0.304219
O O15 0.915516 0.258645 0.781895
O O16 0.627919 0.500000 0.865312
#
# Coordination Sequence:
#
# PCOD8097805 Si02
#       7
#     8   8   8   8   8   8   8
#     4   9  15  28  50  81 108 137 177 225 280 335
#     4  11  21  35  58  85 112 146 190 228 283 336
#     4   9  19  34  54  77 111 153 187 227 282 338
#     4  11  22  37  53  84 120 148 189 231 281 344
#     4  11  22  37  57  85 116 150 181 234 286 338
#     4  10  20  34  54  82 112 147 191 235 280 329
#     4  11  21  36  58  83 117 148 187 232 288 339
#
# _framework density 19.082529000000001
#
# number of rings (size 3 to 8) (size 9 to 14) (size 15 to 20)
#    0.000    1.714    1.429    6.429    2.000    2.000 
#    0.000    0.714    0.000    2.571    0.000    4.000 
#    0.000    0.000    0.000    0.000    0.000    0.000 
#
# Total GULP energy -347155.243011 kJ/mol
# GULP energy per Si atom -12398.401536 kJ/mol
# Density = 1.903910 g / cm^3
# Si number density = 19.082529 Si / 1000 Ang^3
#
#
#
# Elastic Constant Matrix: (Units=GPa)
#
#
# Indices 1 2 3 4 5 6 
#
# 1 70.1311 21.1460 14.6652 0.0000 3.4897 0.0000
# 2 21.1460 80.2941 34.8523 0.0000 -5.0117 0.0000
# 3 14.6652 34.8523 63.9405 0.0000 5.0679 0.0000
# 4 0.0000 0.0000 0.0000 14.6278 0.0000 7.0352
# 5 3.4897 -5.0117 5.0679 0.0000 20.4182 0.0000
# 6 0.0000 0.0000 0.0000 7.0352 0.0000 31.9010
#
#
#
# Elastic Compliance Matrix: (Units=1/GPa)
#
#
# Indices 1 2 3 4 5 6 
#
# 1 0.015846 -0.003822 -0.001287 0.000000 -0.003327 0.000000
# 2 -0.003822 0.018081 -0.009571 0.000000 0.007467 0.000000
# 3 -0.001287 -0.009571 0.021748 0.000000 -0.007527 0.000000
# 4 0.000000 0.000000 0.000000 0.076474 0.000000 -0.016865
# 5 -0.003327 0.007467 -0.007527 0.000000 0.053246 0.000000
# 6 0.000000 0.000000 0.000000 -0.016865 0.000000 0.035066
#
#
# Mechanical properties :
#
#
# Convention : Reuss Voigt Hill
#
# Bulk Modulus (GPa) = 38.00108 39.52139 38.76123
# Shear Modulus (GPa) = 19.33538 22.96956 21.15247
#
# Velocity S-wave (km/s) = 3.18661 3.47320 3.33299
# Velocity P-wave (km/s) = 5.78763 6.06958 5.93028
#
# Compressibility (1/GPa) = 0.02631504
#
# Stress axis : x y z
#
# Youngs Moduli (GPa) = 63.10661 55.30638 45.98077
#
# Poissons Ratio (x) = 0.21138 0.05920
# Poissons Ratio (y) = 0.24119 0.44007
# Poissons Ratio (z) = 0.08125 0.52932
#
# Static dielectric constant tensor:
#      x y z
#    x 3.400590 0.000000 0.149730 
#    y 0.000000 3.406160 0.000000 
#    z 0.149730 0.000000 3.710350 
# 
# 
# High freq. dielectric constant tensor:
#      x y z
#    x 1.726330 0.000000 0.017400 
#    y 0.000000 1.721820 0.000000 
#    z 0.017400 0.000000 1.739070 
# 
# From -- ./inp_files/217730.got.cif
#   From: 2010.06.25/outbox.cif.g09.slc.cpg/sg12_109_cif.got.tgz:217730.got - 2010.06.28 00:19:55.
