data_PCOD8097356
_publ_section_title
;
Structure prediction by ZEFSAII (Michael W. Deem and Ramdas Pophale) SiO2 
 PCOD8097356
Probable space group: C 2/M
;
_chemical_formula_sum "Si O2"
_cell_formula_units_Z 56
_cell_length_a 8.915742
_cell_length_b 19.364853
_cell_length_c 22.049834
_cell_angle_alpha 90.000000
_cell_angle_beta 127.338181
_cell_angle_gamma 90.000000
_cell_volume 3026.788713
_symmetry_space_group_name_H-M "C 2/M"
_symmetry_group_IT_number 12
_symmetry_cell_setting 'monoclinic'
loop_
_space_group_symop_operation_xyz
x,y,z
-x,y,-z
-x,-y,-z
x,-y,z
1/2+x,1/2+y,z
1/2-x,1/2+y,-z
1/2-x,1/2-y,-z
1/2+x,1/2-y,z
loop_
_atom_site_type_symbol
_atom_site_label
_atom_site_fract_x
_atom_site_fract_y
_atom_site_fract_z
Si Si1 0.868249 0.678294 0.196781
Si Si2 0.459791 0.418817 0.922074
Si Si3 0.130960 0.679227 0.371200
Si Si4 0.321723 0.422993 0.500000
Si Si5 0.722091 0.821705 0.196781
Si Si6 0.982639 0.179227 0.371200
Si Si7 0.693572 0.918817 0.077927
O O1 0.728315 0.616256 0.148436
O O2 0.754681 0.749999 0.169789
O O3 0.956484 0.662272 0.284267
O O4 0.026382 0.682793 0.184256
O O5 0.422616 0.500000 0.911255
O O6 0.636261 0.397128 0.924174
O O7 0.500000 0.393326 0.000000
O O8 0.152103 0.617003 0.424405
O O9 0.320770 0.689357 0.380513
O O10 0.098739 0.749999 0.399160
O O11 0.500000 0.427585 0.500000
O O12 0.252048 0.500000 0.500001
O O13 0.378888 0.382996 0.575595
O O14 0.896316 0.837727 0.284267
O O15 0.716990 0.883742 0.148435
O O16 0.688871 0.000000 0.088754
O O17 0.500000 0.893330 0.000000
#
# Coordination Sequence:
#
# PCOD8097356 Si02
#       7
#     8   8   8   8   8   8   8
#     4  10  20  34  53  78 106 136 174 217 260 307
#     4  10  21  37  56  78 105 137 172 211 257 309
#     4   9  18  32  52  75 100 134 171 210 254 301
#     4   9  17  30  49  75 104 133 170 212 252 297
#     4  10  20  34  53  78 106 136 174 217 260 307
#     4   9  18  32  52  75 100 134 171 210 254 301
#     4  10  21  37  56  78 105 137 172 211 257 309
#
# _framework density 18.501456000000001
#
# number of rings (size 3 to 8) (size 9 to 14) (size 15 to 20)
#    0.000    2.429    0.000    2.143    0.000    4.571 
#    0.000    5.714    0.000    1.714    0.000    0.000 
#    0.000    0.000    0.000    0.000    0.000    0.000 
#
# Total GULP energy -347267.014757 kJ/mol
# GULP energy per Si atom -12402.393384 kJ/mol
# Density = 1.845935 g / cm^3
# Si number density = 18.501456 Si / 1000 Ang^3
#
#
#
# Elastic Constant Matrix: (Units=GPa)
#
#
# Indices 1 2 3 4 5 6 
#
# 1 75.0660 42.1168 43.6711 0.0006 1.3275 0.0000
# 2 42.1168 112.8185 73.8861 0.0001 4.3759 0.0000
# 3 43.6711 73.8861 114.9969 0.0004 4.1713 0.0000
# 4 0.0006 0.0001 0.0004 97.1733 0.0005 8.8501
# 5 1.3275 4.3759 4.1713 0.0005 20.9087 0.0000
# 6 0.0000 0.0000 0.0000 8.8501 0.0000 32.8196
#
#
#
# Elastic Compliance Matrix: (Units=1/GPa)
#
#
# Indices 1 2 3 4 5 6 
#
# 1 0.018038 -0.003895 -0.004367 0.000000 0.000541 0.000000
# 2 -0.003895 0.016176 -0.008865 0.000000 -0.001370 0.000000
# 3 -0.004367 -0.008865 0.016089 0.000000 -0.001077 0.000000
# 4 0.000000 0.000000 0.000000 0.010550 0.000000 -0.002845
# 5 0.000541 -0.001370 -0.001077 0.000000 0.048294 0.000000
# 6 0.000000 0.000000 0.000000 -0.002845 0.000000 0.031237
#
#
# Mechanical properties :
#
#
# Convention : Reuss Voigt Hill
#
# Bulk Modulus (GPa) = 62.30493 69.13659 65.72076
# Shear Modulus (GPa) = 27.77960 39.72748 33.75354
#
# Velocity S-wave (km/s) = 3.87910 4.63888 4.27590
# Velocity P-wave (km/s) = 7.33567 8.13275 7.74447
#
# Compressibility (1/GPa) = 0.01605009
#
# Stress axis : x y z
#
# Youngs Moduli (GPa) = 55.43862 61.81818 62.15347
#
# Poissons Ratio (x) = 0.24075 0.27145
# Poissons Ratio (y) = 0.21591 0.55098
# Poissons Ratio (z) = 0.24212 0.54801
#
# Static dielectric constant tensor:
#      x y z
#    x 3.361020 0.000000 0.026570 
#    y 0.000000 3.487460 0.000000 
#    z 0.026570 0.000000 3.554020 
# 
# 
# High freq. dielectric constant tensor:
#      x y z
#    x 1.711420 0.000000 0.002100 
#    y 0.000000 1.715540 0.000000 
#    z 0.002100 0.000000 1.726700 
# 
# From -- ./inp_files/258248.got.cif
#   From: 2010.06.25/outbox.cif.g09.slc.cpg/sg12_130_cif.got.tgz:258248.got - 2010.06.28 00:19:55.
