data_PCOD8097956
_publ_section_title
;
Structure prediction by ZEFSAII (Michael W. Deem and Ramdas Pophale) SiO2 
 PCOD8097956
Probable space group: C 2/M
;
_chemical_formula_sum "Si O2"
_cell_formula_units_Z 56
_cell_length_a 18.177800
_cell_length_b 9.191986
_cell_length_c 28.931721
_cell_angle_alpha 90.000000
_cell_angle_beta 141.744275
_cell_angle_gamma 90.000000
_cell_volume 2993.205560
_symmetry_space_group_name_H-M "C 2/M"
_symmetry_group_IT_number 12
_symmetry_cell_setting 'monoclinic'
loop_
_space_group_symop_operation_xyz
x,y,z
-x,y,-z
-x,-y,-z
x,-y,z
1/2+x,1/2+y,z
1/2-x,1/2+y,-z
1/2-x,1/2-y,-z
1/2+x,1/2-y,z
loop_
_atom_site_type_symbol
_atom_site_label
_atom_site_fract_x
_atom_site_fract_y
_atom_site_fract_z
Si Si1 0.963626 0.668202 0.929536
Si Si2 0.004630 0.669710 0.639578
Si Si3 0.808345 0.830528 0.212793
Si Si4 0.835991 0.670506 0.640256
Si Si5 0.875105 0.171588 0.063066
Si Si6 0.975513 0.168935 0.211946
Si Si7 0.095324 0.666525 0.507107
O O1 0.982376 0.500000 0.924548
O O2 0.827968 0.718093 0.856093
O O3 0.044056 0.771321 0.938311
O O4 0.000000 0.692944 0.000000
O O5 0.032931 0.500000 0.653245
O O6 0.901382 0.710273 0.624748
O O7 0.962472 0.724619 0.568816
O O8 0.126879 0.748934 0.713220
O O9 0.868018 0.788756 0.193293
O O10 0.820515 0.000000 0.228578
O O11 0.828067 0.500000 0.644710
O O12 0.705223 0.734308 0.574596
O O13 0.907157 0.739967 0.718073
O O14 0.937983 0.211469 0.142082
O O15 0.855323 0.000000 0.048177
O O16 0.750000 0.250000 0.000000
O O17 0.007807 0.000000 0.232349
O O18 0.137954 0.500000 0.522160
O O19 0.000000 0.681846 0.500000
#
# Coordination Sequence:
#
# PCOD8097956 Si02
#       7
#     8   8   8   8   8   8   8
#     4  10  21  38  58  81 113 149 184 224 271 325
#     4   9  19  35  54  77 105 137 175 219 265 316
#     4   9  18  34  57  80 103 138 180 220 266 320
#     4  10  20  34  55  81 106 135 174 222 268 311
#     4  11  23  38  58  83 111 145 185 228 274 325
#     4   9  19  37  58  79 106 142 180 217 265 325
#     4  10  21  36  53  74 104 142 178 214 263 321
#
# _framework density 18.709039000000001
#
# number of rings (size 3 to 8) (size 9 to 14) (size 15 to 20)
#    0.000    2.286    0.000    2.143    0.000    6.857 
#    0.000    7.143    0.000    0.000    0.000    0.000 
#    0.000    0.000    0.000    0.000    0.000    0.000 
#
# Total GULP energy -347318.775208 kJ/mol
# GULP energy per Si atom -12404.241972 kJ/mol
# Density = 1.866646 g / cm^3
# Si number density = 18.709039 Si / 1000 Ang^3
#
#
#
# Elastic Constant Matrix: (Units=GPa)
#
#
# Indices 1 2 3 4 5 6 
#
# 1 84.9356 46.6857 70.2296 -0.0001 2.7716 0.0000
# 2 46.6857 74.1377 74.2922 -0.0002 3.5265 -0.0001
# 3 70.2296 74.2922 162.5665 0.0000 7.0044 0.0000
# 4 -0.0001 -0.0002 0.0000 185.4174 0.0000 10.5245
# 5 2.7716 3.5265 7.0044 0.0000 34.0551 0.0000
# 6 0.0000 -0.0001 0.0000 10.5245 0.0000 30.8466
#
#
#
# Elastic Compliance Matrix: (Units=1/GPa)
#
#
# Indices 1 2 3 4 5 6 
#
# 1 0.020286 -0.007367 -0.005407 0.000000 0.000224 0.000000
# 2 -0.007367 0.027562 -0.009399 0.000000 -0.000321 0.000000
# 3 -0.005407 -0.009399 0.012835 0.000000 -0.001227 0.000000
# 4 0.000000 0.000000 0.000000 0.005500 0.000000 -0.001876
# 5 0.000224 -0.000321 -0.001227 0.000000 0.029631 0.000000
# 6 0.000000 0.000000 0.000000 -0.001876 0.000000 0.033059
#
#
# Mechanical properties :
#
#
# Convention : Reuss Voigt Hill
#
# Bulk Modulus (GPa) = 61.20999 78.22831 69.71915
# Shear Modulus (GPa) = 27.98536 58.75930 43.37233
#
# Velocity S-wave (km/s) = 3.87178 5.61027 4.82005
# Velocity P-wave (km/s) = 7.26467 9.15809 8.26577
#
# Compressibility (1/GPa) = 0.01633720
#
# Stress axis : x y z
#
# Youngs Moduli (GPa) = 49.29409 36.28229 77.91120
#
# Poissons Ratio (x) = 0.26731 0.42123
# Poissons Ratio (y) = 0.36317 0.73228
# Poissons Ratio (z) = 0.26651 0.34101
#
# Static dielectric constant tensor:
#      x y z
#    x 3.415420 0.000000 -0.032550 
#    y 0.000000 3.335060 0.000000 
#    z -0.032550 0.000000 3.603580 
# 
# 
# High freq. dielectric constant tensor:
#      x y z
#    x 1.723660 0.000000 0.000000 
#    y 0.000000 1.724050 0.000000 
#    z 0.000000 0.000000 1.740490 
# 
# From -- ./inp_files/275327.got.cif
#   From: 2010.06.25/outbox.cif.g09.slc.cpg/sg12_138_cif.got.tgz:275327.got - 2010.06.28 00:19:55.
