data_PCOD8097952
_publ_section_title
;
Structure prediction by ZEFSAII (Michael W. Deem and Ramdas Pophale) SiO2 
 PCOD8097952
Probable space group: C 2/M
;
_chemical_formula_sum "Si O2"
_cell_formula_units_Z 48
_cell_length_a 23.541493
_cell_length_b 10.030653
_cell_length_c 11.726710
_cell_angle_alpha 90.000000
_cell_angle_beta 115.936252
_cell_angle_gamma 90.000000
_cell_volume 2490.203973
_symmetry_space_group_name_H-M "C 2/M"
_symmetry_group_IT_number 12
_symmetry_cell_setting 'monoclinic'
loop_
_space_group_symop_operation_xyz
x,y,z
-x,y,-z
-x,-y,-z
x,-y,z
1/2+x,1/2+y,z
1/2-x,1/2+y,-z
1/2-x,1/2-y,-z
1/2+x,1/2-y,z
loop_
_atom_site_type_symbol
_atom_site_label
_atom_site_fract_x
_atom_site_fract_y
_atom_site_fract_z
Si Si1 0.441881 0.658328 0.195136
Si Si2 0.786009 0.847996 0.616855
Si Si3 0.420084 0.342998 0.659490
Si Si4 0.105295 0.150573 0.607776
Si Si5 0.336738 0.852353 0.045765
Si Si6 0.232555 0.251847 0.797927
O O1 0.427848 0.500000 0.166961
O O2 0.513516 0.699235 0.223195
O O3 0.433331 0.707936 0.318533
O O4 0.391572 0.741521 0.076694
O O5 0.750000 0.750000 0.500000
O O6 0.860030 0.803824 0.683952
O O7 0.760662 0.844000 0.723071
O O8 0.779093 0.000000 0.565466
O O9 0.422655 0.500000 0.644361
O O10 0.412230 0.275669 0.526427
O O11 0.180188 0.156638 0.696112
O O12 0.083897 0.000000 0.576595
O O13 0.299418 0.841539 0.132456
O O14 0.366651 0.000000 0.065826
O O15 0.287744 0.837657 0.899373
#
# Coordination Sequence:
#
# PCOD8097952 Si02
#       6
#     8   8   8   8   8   8
#     4   9  18  32  53  79 106 141 183 223 265 315
#     4  11  22  36  56  82 114 145 177 220 270 328
#     4   9  17  31  52  78 108 141 179 218 264 321
#     4   9  15  27  52  80 105 135 178 226 265 311
#     4  10  21  36  57  81 109 143 183 231 274 316
#     4  10  20  34  55  80 111 143 180 222 273 323
#
# _framework density 19.27553
#
# number of rings (size 3 to 8) (size 9 to 14) (size 15 to 20)
#    0.000    2.333    1.667    1.500    0.000    7.333 
#    0.000    1.667    0.000    6.000    0.000    0.000 
#    0.000    0.000    0.000    0.000    0.000    0.000 
#
# Total GULP energy -297395.926301 kJ/mol
# GULP energy per Si atom -12391.496929 kJ/mol
# Density = 1.923166 g / cm^3
# Si number density = 19.275530 Si / 1000 Ang^3
#
#
#
# Elastic Constant Matrix: (Units=GPa)
#
#
# Indices 1 2 3 4 5 6 
#
# 1 122.5034 33.5829 36.5186 0.0000 27.3907 0.0000
# 2 33.5829 78.5863 27.1114 0.0000 12.1148 0.0000
# 3 36.5186 27.1114 73.2769 0.0000 19.1992 0.0000
# 4 0.0000 0.0000 0.0000 20.4074 0.0000 5.1340
# 5 27.3907 12.1148 19.1992 0.0000 30.9183 0.0000
# 6 0.0000 0.0000 0.0000 5.1340 0.0000 22.1040
#
#
#
# Elastic Compliance Matrix: (Units=1/GPa)
#
#
# Indices 1 2 3 4 5 6 
#
# 1 0.011371 -0.002796 -0.002723 0.000000 -0.007287 0.000000
# 2 -0.002796 0.015484 -0.004054 0.000000 -0.001072 0.000000
# 3 -0.002723 -0.004054 0.018459 0.000000 -0.007461 0.000000
# 4 0.000000 0.000000 0.000000 0.052043 0.000000 -0.012088
# 5 -0.007287 -0.001072 -0.007461 0.000000 0.043852 0.000000
# 6 0.000000 0.000000 0.000000 -0.012088 0.000000 0.048048
#
#
# Mechanical properties :
#
#
# Convention : Reuss Voigt Hill
#
# Bulk Modulus (GPa) = 38.21723 52.08805 45.15264
# Shear Modulus (GPa) = 23.02816 26.49619 24.76217
#
# Velocity S-wave (km/s) = 3.46017 3.71159 3.58808
# Velocity P-wave (km/s) = 5.98611 6.74161 6.37507
#
# Compressibility (1/GPa) = 0.02616621
#
# Stress axis : x y z
#
# Youngs Moduli (GPa) = 87.94618 64.58356 54.17461
#
# Poissons Ratio (x) = 0.18060 0.14751
# Poissons Ratio (y) = 0.24593 0.21964
# Poissons Ratio (z) = 0.23947 0.26184
#
# Static dielectric constant tensor:
#      x y z
#    x 3.785610 0.000000 0.150700 
#    y 0.000000 3.127080 0.000000 
#    z 0.150700 0.000000 3.560420 
# 
# 
# High freq. dielectric constant tensor:
#      x y z
#    x 1.753360 0.000000 0.011240 
#    y 0.000000 1.706710 0.000000 
#    z 0.011240 0.000000 1.742510 
# 
# From -- ./inp_files/164679.got.cif
#   From: 2010.06.25/outbox.cif.g09.slc.cpg/sg12_83_cif.got.tgz:164679.got - 2010.06.28 00:19:55.
