data_PCOD8097898
_publ_section_title
;
Structure prediction by ZEFSAII (Michael W. Deem and Ramdas Pophale) SiO2 
 PCOD8097898
Probable space group: C 2/M
;
_chemical_formula_sum "Si O2"
_cell_formula_units_Z 64
_cell_length_a 28.331752
_cell_length_b 8.799431
_cell_length_c 14.426889
_cell_angle_alpha 90.000000
_cell_angle_beta 121.071987
_cell_angle_gamma 90.000000
_cell_volume 3080.618929
_symmetry_space_group_name_H-M "C 2/M"
_symmetry_group_IT_number 12
_symmetry_cell_setting 'monoclinic'
loop_
_space_group_symop_operation_xyz
x,y,z
-x,y,-z
-x,-y,-z
x,-y,z
1/2+x,1/2+y,z
1/2-x,1/2+y,-z
1/2-x,1/2-y,-z
1/2+x,1/2-y,z
loop_
_atom_site_type_symbol
_atom_site_label
_atom_site_fract_x
_atom_site_fract_y
_atom_site_fract_z
Si Si1 0.266972 0.671464 0.611887
Si Si2 0.854075 0.668807 0.477264
Si Si3 0.830439 0.319801 0.836187
Si Si4 0.016388 0.819839 0.618389
Si Si5 0.440703 0.320121 0.899951
Si Si6 0.126182 0.678597 0.704612
Si Si7 0.245039 0.318788 0.893923
Si Si8 0.069548 0.178148 0.318624
O O1 0.289666 0.500000 0.619150
O O2 0.250000 0.750000 0.500000
O O3 0.210578 0.668113 0.613087
O O4 0.311490 0.766767 0.714443
O O5 0.873300 0.500000 0.524649
O O6 0.882930 0.723716 0.412272
O O7 0.870115 0.777257 0.579912
O O8 0.826893 0.500000 0.840695
O O9 0.893432 0.263517 0.912041
O O10 0.793208 0.245829 0.877827
O O11 0.077266 0.763197 0.709375
O O12 0.000000 0.756941 0.500000
O O13 0.975148 0.753384 0.654741
O O14 0.015136 0.000000 0.617966
O O15 0.430377 0.500000 0.895288
O O16 0.438789 0.257058 0.792650
O O17 0.500000 0.274899 0.000000
O O18 0.121045 0.500000 0.715586
O O19 0.185463 0.736640 0.798157
O O20 0.250178 0.500000 0.900858
O O21 0.250000 0.250000 0.000000
O O22 0.063841 0.000000 0.308329
#
# Coordination Sequence:
#
# PCOD8097898 Si02
#       8
#     8   8   8   8   8   8   8   8
#     4  11  22  38  59  90 128 167 210 262 319 382
#     4  10  20  35  56  83 119 158 197 247 308 367
#     4  12  25  42  66  96 128 167 212 261 320 384
#     4  10  20  34  54  85 123 159 201 254 306 367
#     4  10  23  44  67  89 119 164 214 264 319 376
#     4  10  21  38  59  85 119 160 202 248 304 365
#     4  11  24  45  68  95 129 166 211 263 316 378
#     4  10  21  37  58  87 121 159 205 256 311 372
#
# _framework density 20.775047000000001
#
# number of rings (size 3 to 8) (size 9 to 14) (size 15 to 20)
#    0.000    1.500    2.500    2.625    0.000    6.500 
#    0.000    1.250    0.000    0.000    0.000    0.000 
#    0.000    0.000    0.000    0.000    0.000    0.000 
#
# Total GULP energy -396808.279094 kJ/mol
# GULP energy per Si atom -12400.258722 kJ/mol
# Density = 2.072776 g / cm^3
# Si number density = 20.775047 Si / 1000 Ang^3
#
#
#
# Elastic Constant Matrix: (Units=GPa)
#
#
# Indices 1 2 3 4 5 6 
#
# 1 104.3777 35.8731 53.7928 0.0000 13.4425 0.0000
# 2 35.8731 69.4942 33.7820 0.0000 3.0024 0.0000
# 3 53.7928 33.7820 113.1473 0.0000 9.0057 0.0000
# 4 0.0000 0.0000 0.0000 31.9959 0.0000 2.7413
# 5 13.4425 3.0024 9.0057 0.0000 34.3092 0.0000
# 6 0.0000 0.0000 0.0000 2.7413 0.0000 30.9204
#
#
#
# Elastic Compliance Matrix: (Units=1/GPa)
#
#
# Indices 1 2 3 4 5 6 
#
# 1 0.014336 -0.004761 -0.005087 0.000000 -0.003865 0.000000
# 2 -0.004761 0.018414 -0.003324 0.000000 0.001126 0.000000
# 3 -0.005087 -0.003324 0.012325 0.000000 -0.000951 0.000000
# 4 0.000000 0.000000 0.000000 0.031493 0.000000 -0.002792
# 5 -0.003865 0.001126 -0.000951 0.000000 0.030812 0.000000
# 6 0.000000 0.000000 0.000000 -0.002792 0.000000 0.032589
#
#
# Mechanical properties :
#
#
# Convention : Reuss Voigt Hill
#
# Bulk Modulus (GPa) = 53.38485 59.32391 56.35438
# Shear Modulus (GPa) = 28.97605 30.34984 29.66295
#
# Velocity S-wave (km/s) = 3.73869 3.82629 3.78274
# Velocity P-wave (km/s) = 6.66254 6.93816 6.80175
#
# Compressibility (1/GPa) = 0.01873191
#
# Stress axis : x y z
#
# Youngs Moduli (GPa) = 69.75433 54.30511 81.13864
#
# Poissons Ratio (x) = 0.25853 0.41273
# Poissons Ratio (y) = 0.33207 0.26973
# Poissons Ratio (z) = 0.35482 0.18053
#
# Static dielectric constant tensor:
#      x y z
#    x 4.112900 0.000000 0.056540 
#    y 0.000000 3.553700 0.000000 
#    z 0.056540 0.000000 3.786990 
# 
# 
# High freq. dielectric constant tensor:
#      x y z
#    x 1.831410 0.000000 0.005150 
#    y 0.000000 1.799950 0.000000 
#    z 0.005150 0.000000 1.805900 
# 
# From -- ./inp_files/250106.got.cif
#   From: 2010.06.25/outbox.cif.g09.slc.cpg/sg12_126_cif.got.tgz:250106.got - 2010.06.28 00:19:55.
