data_PCOD8097603
_publ_section_title
;
Structure prediction by ZEFSAII (Michael W. Deem and Ramdas Pophale) SiO2 
 PCOD8097603
Probable space group: C 2/M
;
_chemical_formula_sum "Si O2"
_cell_formula_units_Z 64
_cell_length_a 18.911603
_cell_length_b 13.155307
_cell_length_c 23.242737
_cell_angle_alpha 90.000000
_cell_angle_beta 144.029476
_cell_angle_gamma 90.000000
_cell_volume 3396.468567
_symmetry_space_group_name_H-M "C 2/M"
_symmetry_group_IT_number 12
_symmetry_cell_setting 'monoclinic'
loop_
_space_group_symop_operation_xyz
x,y,z
-x,y,-z
-x,-y,-z
x,-y,z
1/2+x,1/2+y,z
1/2-x,1/2+y,-z
1/2-x,1/2-y,-z
1/2+x,1/2-y,z
loop_
_atom_site_type_symbol
_atom_site_label
_atom_site_fract_x
_atom_site_fract_y
_atom_site_fract_z
Si Si1 0.027160 0.288936 0.911847
Si Si2 0.850836 0.114746 0.571814
Si Si3 0.402034 0.880919 0.158341
Si Si4 0.846602 0.691951 0.641771
Si Si5 0.209526 0.616987 0.273686
Si Si6 0.889545 0.116059 0.295039
Si Si7 0.087979 0.111640 0.111669
Si Si8 0.265671 0.736448 0.872845
O O1 0.095030 0.314375 0.897707
O O2 0.911786 0.363520 0.843904
O O3 0.976680 0.172518 0.878885
O O4 0.119897 0.297964 0.026078
O O5 0.851131 0.189872 0.626580
O O6 0.734290 0.129711 0.455950
O O7 0.967435 0.134663 0.608057
O O8 0.851967 0.000000 0.596895
O O9 0.521801 0.859069 0.274220
O O10 0.283650 0.846107 0.114335
O O11 0.391978 0.000000 0.137160
O O12 0.793070 0.686400 0.670962
O O13 0.210877 0.500000 0.294213
O O14 0.328345 0.645360 0.315622
O O15 0.837052 0.182238 0.208458
O O16 0.857826 0.000000 0.259744
O O17 0.202116 0.176476 0.164595
O O18 0.127100 0.000000 0.159830
O O19 0.000000 0.099895 0.000000
#
# Coordination Sequence:
#
# PCOD8097603 Si02
#       8
#     8   8   8   8   8   8   8   8
#     4  10  20  34  54  78 110 143 181 229 267 320
#     4  10  20  37  59  86 110 139 180 225 278 329
#     4  11  22  37  56  80 109 144 186 230 272 327
#     4  10  20  36  60  83 109 145 177 224 275 328
#     4  10  20  36  56  82 111 144 183 224 270 327
#     4  10  21  35  55  81 113 141 177 227 273 321
#     4   9  18  33  53  75 101 139 184 226 266 316
#     4  11  20  36  53  79 109 146 185 224 271 318
#
# _framework density 18.8431
#
# number of rings (size 3 to 8) (size 9 to 14) (size 15 to 20)
#    0.000    1.875    2.500    3.000    0.000    2.000 
#    0.000    6.250    0.000    0.000    0.000    1.750 
#    0.000    0.000    0.000    0.000    0.000    0.000 
#
# Total GULP energy -396721.529144 kJ/mol
# GULP energy per Si atom -12397.547786 kJ/mol
# Density = 1.880021 g / cm^3
# Si number density = 18.843100 Si / 1000 Ang^3
#
#
#
# Elastic Constant Matrix: (Units=GPa)
#
#
# Indices 1 2 3 4 5 6 
#
# 1 98.3592 62.1942 22.0323 0.0000 3.7712 0.0000
# 2 62.1942 112.9154 28.9344 0.0000 -5.2224 0.0000
# 3 22.0323 28.9344 59.1380 0.0000 1.0947 0.0000
# 4 0.0000 0.0000 0.0000 21.8818 0.0000 1.5485
# 5 3.7712 -5.2224 1.0947 0.0000 20.6608 0.0000
# 6 0.0000 0.0000 0.0000 1.5485 0.0000 33.0224
#
#
#
# Elastic Compliance Matrix: (Units=1/GPa)
#
#
# Indices 1 2 3 4 5 6 
#
# 1 0.016289 -0.008778 -0.001679 0.000000 -0.005103 0.000000
# 2 -0.008778 0.015023 -0.004184 0.000000 0.005621 0.000000
# 3 -0.001679 -0.004184 0.019616 0.000000 -0.001790 0.000000
# 4 0.000000 0.000000 0.000000 0.045852 0.000000 -0.002150
# 5 -0.005103 0.005621 -0.001790 0.000000 0.050848 0.000000
# 6 0.000000 0.000000 0.000000 -0.002150 0.000000 0.030383
#
#
# Mechanical properties :
#
#
# Convention : Reuss Voigt Hill
#
# Bulk Modulus (GPa) = 46.20002 55.19272 50.69637
# Shear Modulus (GPa) = 23.30904 25.59643 24.45274
#
# Velocity S-wave (km/s) = 3.52093 3.68964 3.60627
# Velocity P-wave (km/s) = 6.41098 6.89243 6.65606
#
# Compressibility (1/GPa) = 0.02164501
#
# Stress axis : x y z
#
# Youngs Moduli (GPa) = 61.39141 66.56396 50.97970
#
# Poissons Ratio (x) = 0.58428 0.08562
# Poissons Ratio (y) = 0.53887 0.21331
# Poissons Ratio (z) = 0.10311 0.27852
#
# Static dielectric constant tensor:
#      x y z
#    x 3.431750 0.000000 0.197340 
#    y 0.000000 3.609310 0.000000 
#    z 0.197340 0.000000 3.376900 
# 
# 
# High freq. dielectric constant tensor:
#      x y z
#    x 1.727210 0.000000 0.018180 
#    y 0.000000 1.734040 0.000000 
#    z 0.018180 0.000000 1.716930 
# 
# From -- ./inp_files/366059.got.cif
#   From: 2010.06.25/outbox.cif.g09.slc.cpg/sg12_184_cif.got.tgz:366059.got - 2010.06.28 00:19:55.
