data_PCOD8097542
_publ_section_title
;
Structure prediction by ZEFSAII (Michael W. Deem and Ramdas Pophale) SiO2 
 PCOD8097542
Probable space group: C 2/M
;
_chemical_formula_sum "Si O2"
_cell_formula_units_Z 36
_cell_length_a 21.554987
_cell_length_b 9.404178
_cell_length_c 10.017420
_cell_angle_alpha 90.000000
_cell_angle_beta 90.866182
_cell_angle_gamma 90.000000
_cell_volume 2030.368462
_symmetry_space_group_name_H-M "C 2/M"
_symmetry_group_IT_number 12
_symmetry_cell_setting 'monoclinic'
loop_
_space_group_symop_operation_xyz
x,y,z
-x,y,-z
-x,-y,-z
x,-y,z
1/2+x,1/2+y,z
1/2-x,1/2+y,-z
1/2-x,1/2-y,-z
1/2+x,1/2-y,z
loop_
_atom_site_type_symbol
_atom_site_label
_atom_site_fract_x
_atom_site_fract_y
_atom_site_fract_z
Si Si1 0.000000 0.250226 0.500000
Si Si2 0.800061 0.835942 0.836986
Si Si3 0.388300 0.840595 0.347905
Si Si4 0.822590 0.166048 0.138456
Si Si5 0.374835 0.657983 0.583005
O O1 0.038671 0.344164 0.609057
O O2 0.049612 0.156887 0.417324
O O3 0.741570 0.734235 0.813229
O O4 0.850818 0.795002 0.727444
O O5 0.778364 0.000000 0.825530
O O6 0.831536 0.808198 0.981270
O O7 0.378742 0.746877 0.214541
O O8 0.349639 0.766632 0.468538
O O9 0.363756 0.000000 0.324205
O O10 0.823565 0.000000 0.175312
O O11 0.350659 0.500000 0.548442
#
# Coordination Sequence:
#
# PCOD8097542 Si02
#       5
#     4   8   8   8   8
#     4   8  20  34  56  74 104 132 172 214 256 300
#     4   9  19  36  54  77 107 135 167 211 256 304
#     4  10  20  34  54  76 104 137 172 212 255 300
#     4  10  20  34  54  78 105 137 171 207 255 307
#     4   9  18  33  56  78 101 133 171 212 256 301
#
# _framework density 17.730772000000002
#
# number of rings (size 3 to 8) (size 9 to 14) (size 15 to 20)
#    1.333    1.333    0.000    2.000    0.000    2.667 
#    0.000    1.111    0.000    5.333    0.000    0.000 
#    0.000    0.000    0.000    0.000    0.000    0.000 
#
# Total GULP energy -223008.457671 kJ/mol
# GULP energy per Si atom -12389.358760 kJ/mol
# Density = 1.769042 g / cm^3
# Si number density = 17.730772 Si / 1000 Ang^3
#
#
#
# Elastic Constant Matrix: (Units=GPa)
#
#
# Indices 1 2 3 4 5 6 
#
# 1 49.3697 19.9533 27.9396 0.0000 9.6566 0.0000
# 2 19.9533 113.4868 42.9241 0.0000 13.3609 0.0000
# 3 27.9396 42.9241 80.6825 0.0000 10.0418 0.0000
# 4 0.0000 0.0000 0.0000 27.0071 0.0000 5.6580
# 5 9.6566 13.3609 10.0418 0.0000 35.4901 0.0000
# 6 0.0000 0.0000 0.0000 5.6580 0.0000 21.9755
#
#
#
# Elastic Compliance Matrix: (Units=1/GPa)
#
#
# Indices 1 2 3 4 5 6 
#
# 1 0.026021 -0.001068 -0.007890 0.000000 -0.004446 0.000000
# 2 -0.001068 0.011308 -0.005341 0.000000 -0.002456 0.000000
# 3 -0.007890 -0.005341 0.018087 0.000000 -0.000960 0.000000
# 4 0.000000 0.000000 0.000000 0.039138 0.000000 -0.010077
# 5 -0.004446 -0.002456 -0.000960 0.000000 0.030583 0.000000
# 6 0.000000 0.000000 0.000000 -0.010077 0.000000 0.048100
#
#
# Mechanical properties :
#
#
# Convention : Reuss Voigt Hill
#
# Bulk Modulus (GPa) = 37.28436 47.24148 42.26292
# Shear Modulus (GPa) = 23.72199 27.07602 25.39900
#
# Velocity S-wave (km/s) = 3.66170 3.91201 3.78892
# Velocity P-wave (km/s) = 6.24108 6.86343 6.55964
#
# Compressibility (1/GPa) = 0.02682090
#
# Stress axis : x y z
#
# Youngs Moduli (GPa) = 38.42991 88.42906 55.28724
#
# Poissons Ratio (x) = 0.09440 0.43620
# Poissons Ratio (y) = 0.04103 0.29529
# Poissons Ratio (z) = 0.30320 0.47230
#
# Static dielectric constant tensor:
#      x y z
#    x 2.979350 0.000000 0.049980 
#    y 0.000000 3.238440 0.000000 
#    z 0.049980 0.000000 3.289970 
# 
# 
# High freq. dielectric constant tensor:
#      x y z
#    x 1.656200 0.000000 0.007720 
#    y 0.000000 1.691000 0.000000 
#    z 0.007720 0.000000 1.683900 
# 
# From -- ./inp_files/171205.got.cif
#   From: 2010.06.25/outbox.cif.g09.slc.cpg/sg12_86_cif.got.tgz:171205.got - 2010.06.28 00:19:55.
