data_PCOD8097381
_publ_section_title
;
Structure prediction by ZEFSAII (Michael W. Deem and Ramdas Pophale) SiO2 
 PCOD8097381
Probable space group: C 2/M
;
_chemical_formula_sum "Si O2"
_cell_formula_units_Z 56
_cell_length_a 8.682036
_cell_length_b 10.944269
_cell_length_c 34.130638
_cell_angle_alpha 90.000000
_cell_angle_beta 58.322597
_cell_angle_gamma 90.000000
_cell_volume 2759.889152
_symmetry_space_group_name_H-M "C 2/M"
_symmetry_group_IT_number 12
_symmetry_cell_setting 'monoclinic'
loop_
_space_group_symop_operation_xyz
x,y,z
-x,y,-z
-x,-y,-z
x,-y,z
1/2+x,1/2+y,z
1/2-x,1/2+y,-z
1/2-x,1/2-y,-z
1/2+x,1/2-y,z
loop_
_atom_site_type_symbol
_atom_site_label
_atom_site_fract_x
_atom_site_fract_y
_atom_site_fract_z
Si Si1 0.461057 0.634044 0.372463
Si Si2 0.211287 0.637377 0.476944
Si Si3 0.803587 0.790292 0.314273
Si Si4 0.151255 0.363754 0.254683
Si Si5 0.330416 0.140006 0.963179
Si Si6 0.812856 0.229967 0.097360
Si Si7 0.548034 0.638640 0.842876
O O1 0.531320 0.500000 0.373363
O O2 0.304627 0.673374 0.423444
O O3 0.634492 0.718031 0.354569
O O4 0.382163 0.629725 0.339001
O O5 0.276166 0.500000 0.482600
O O6 0.250000 0.750000 0.500000
O O7 0.000000 0.630493 0.500000
O O8 0.732165 0.870017 0.287726
O O9 0.961916 0.704601 0.276935
O O10 0.110625 0.500000 0.245718
O O11 0.296060 0.302752 0.205539
O O12 0.234916 0.147758 0.933728
O O13 0.545863 0.162072 0.932258
O O14 0.298098 0.000000 0.983420
O O15 0.250000 0.250000 0.000000
O O16 0.635354 0.288445 0.140075
O O17 0.900365 0.142675 0.118227
O O18 0.514496 0.500000 0.834475
#
# Coordination Sequence:
#
# PCOD8097381 Si02
#       7
#     8   8   8   8   8   8   8
#     4  10  20  35  54  76 106 142 178 221 273 326
#     4  10  21  37  56  80 109 143 185 231 279 332
#     4  10  20  34  53  78 108 139 178 220 268 322
#     4  10  20  34  54  80 108 140 179 221 266 318
#     4  11  24  40  60  86 115 148 187 230 277 329
#     4  10  22  38  58  82 112 145 184 225 272 325
#     4  10  20  36  57  80 109 144 180 222 270 320
#
# _framework density 20.290669000000001
#
# number of rings (size 3 to 8) (size 9 to 14) (size 15 to 20)
#    0.000    1.857    0.000    3.857    0.000    4.857 
#    0.000    3.571    0.000   13.714    0.000    0.000 
#    0.000    0.000    0.000    0.000    0.000    0.000 
#
# Total GULP energy -347077.895166 kJ/mol
# GULP energy per Si atom -12395.639113 kJ/mol
# Density = 2.024449 g / cm^3
# Si number density = 20.290669 Si / 1000 Ang^3
#
#
#
# Elastic Constant Matrix: (Units=GPa)
#
#
# Indices 1 2 3 4 5 6 
#
# 1 73.3715 20.0729 17.8232 0.0000 -16.6979 0.0000
# 2 20.0729 105.2933 37.1087 0.0000 -10.6521 0.0000
# 3 17.8232 37.1087 107.1038 0.0000 -25.0479 0.0000
# 4 0.0000 0.0000 0.0000 22.7917 0.0000 -8.0492
# 5 -16.6979 -10.6521 -25.0479 0.0000 36.0443 0.0000
# 6 0.0000 0.0000 0.0000 -8.0492 0.0000 2.4253
#
#
#
# Elastic Compliance Matrix: (Units=1/GPa)
#
#
# Indices 1 2 3 4 5 6 
#
# 1 0.015785 -0.002236 -0.000354 0.000000 0.006406 0.000000
# 2 -0.002236 0.011150 -0.003538 0.000000 -0.000199 0.000000
# 3 -0.000354 -0.003538 0.012345 0.000000 0.007369 0.000000
# 4 0.000000 0.000000 0.000000 -0.254975 0.000000 -0.846209
# 5 0.006406 -0.000199 0.007369 0.000000 0.035773 0.000000
# 6 0.000000 0.000000 0.000000 -0.846209 0.000000 -2.396078
#
#
# Mechanical properties :
#
#
# Convention : Reuss Voigt Hill
#
# Bulk Modulus (GPa) = 37.00431 48.41982 42.71207
# Shear Modulus (GPa) = -1.95715 26.30317 12.17301
#
# Velocity S-wave (km/s) = -0.98318 3.60435 2.45201
# Velocity P-wave (km/s) = 4.12163 6.42158 5.39558
#
# Compressibility (1/GPa) = 0.02702388
#
# Stress axis : x y z
#
# Youngs Moduli (GPa) = 63.35180 89.68380 81.00610
#
# Poissons Ratio (x) = 0.20057 0.02866
# Poissons Ratio (y) = 0.14168 0.28658
# Poissons Ratio (z) = 0.02242 0.31728
#
# Static dielectric constant tensor:
#      x y z
#    x 3.651140 0.000000 -0.162480 
#    y 0.000000 3.782290 0.000000 
#    z -0.162480 0.000000 3.849380 
# 
# 
# High freq. dielectric constant tensor:
#      x y z
#    x 1.794680 0.000000 -0.012080 
#    y 0.000000 1.785640 0.000000 
#    z -0.012080 0.000000 1.803890 
# 
# From -- ./inp_files/355747.got.cif
#   From: 2010.06.25/outbox.cif.g09.slc.cpg/sg12_178_cif.got.tgz:355747.got - 2010.06.28 00:19:55.
