data_PCOD8097343
_publ_section_title
;
Structure prediction by ZEFSAII (Michael W. Deem and Ramdas Pophale) SiO2 
 PCOD8097343
Probable space group: C 2/M
;
_chemical_formula_sum "Si O2"
_cell_formula_units_Z 64
_cell_length_a 29.734819
_cell_length_b 9.433792
_cell_length_c 18.430237
_cell_angle_alpha 90.000000
_cell_angle_beta 39.688748
_cell_angle_gamma 90.000000
_cell_volume 3301.587350
_symmetry_space_group_name_H-M "C 2/M"
_symmetry_group_IT_number 12
_symmetry_cell_setting 'monoclinic'
loop_
_space_group_symop_operation_xyz
x,y,z
-x,y,-z
-x,-y,-z
x,-y,z
1/2+x,1/2+y,z
1/2-x,1/2+y,-z
1/2-x,1/2-y,-z
1/2+x,1/2-y,z
loop_
_atom_site_type_symbol
_atom_site_label
_atom_site_fract_x
_atom_site_fract_y
_atom_site_fract_z
Si Si1 0.560736 0.836239 0.709392
Si Si2 0.438870 0.167457 0.127791
Si Si3 0.596063 0.836530 0.134267
Si Si4 0.709026 0.835749 0.756866
Si Si5 0.693632 0.661803 0.917244
Si Si6 0.643009 0.663016 0.494834
Si Si7 0.340988 0.160780 0.792956
Si Si8 0.421931 0.333608 0.575933
O O1 0.553236 0.774159 0.800155
O O2 0.487401 0.815012 0.758490
O O3 0.621424 0.754055 0.591219
O O4 0.583286 0.000000 0.684078
O O5 0.362418 0.211829 0.193824
O O6 0.448241 0.000000 0.117683
O O7 0.500000 0.232864 0.000000
O O8 0.629251 0.781370 0.168052
O O9 0.615980 0.000000 0.094504
O O10 0.625949 0.743383 0.031584
O O11 0.720776 0.736920 0.811167
O O12 0.774368 0.810978 0.621834
O O13 0.705838 0.000000 0.785551
O O14 0.672589 0.500000 0.926235
O O15 0.756276 0.668156 0.898633
O O16 0.627914 0.500000 0.531768
O O17 0.596144 0.710216 0.483852
O O18 0.367599 0.257508 0.695409
O O19 0.367285 0.000000 0.747704
O O20 0.500000 0.283671 0.500000
O O21 0.411459 0.500000 0.600291
#
# Coordination Sequence:
#
# PCOD8097343 Si02
#       8
#     8   8   8   8   8   8   8   8
#     4  10  21  37  59  85 110 142 186 231 274 326
#     4   9  18  35  60  87 110 138 183 231 274 329
#     4  10  21  37  56  79 110 149 187 225 279 339
#     4  10  20  37  60  81 109 150 188 226 277 336
#     4  11  22  35  54  83 114 144 185 235 281 327
#     4  10  21  36  54  80 112 148 186 225 276 331
#     4  10  21  35  52  79 111 144 186 231 277 327
#     4  10  20  34  53  77 108 149 193 230 270 325
#
# _framework density 19.384616000000001
#
# number of rings (size 3 to 8) (size 9 to 14) (size 15 to 20)
#    0.000    2.000    1.250    2.250    0.000    5.250 
#    0.000    0.625    0.000    1.500    0.000    0.000 
#    0.000    0.000    0.000    0.000    0.000    0.000 
#
# Total GULP energy -396899.788092 kJ/mol
# GULP energy per Si atom -12403.118378 kJ/mol
# Density = 1.934050 g / cm^3
# Si number density = 19.384616 Si / 1000 Ang^3
#
#
#
# Elastic Constant Matrix: (Units=GPa)
#
#
# Indices 1 2 3 4 5 6 
#
# 1 111.6847 27.0792 49.7799 -0.0001 -0.4282 -0.0001
# 2 27.0792 63.1390 51.7795 0.0048 7.5413 -0.0028
# 3 49.7799 51.7795 131.9746 -0.0021 7.6404 -0.0023
# 4 -0.0001 0.0048 -0.0021 36.7732 -0.0005 2.3468
# 5 -0.4282 7.5413 7.6404 -0.0005 34.1235 0.0015
# 6 -0.0001 -0.0028 -0.0023 2.3468 0.0015 17.2365
#
#
#
# Elastic Compliance Matrix: (Units=1/GPa)
#
#
# Indices 1 2 3 4 5 6 
#
# 1 0.010981 -0.002080 -0.003405 0.000000 0.001360 -0.000001
# 2 -0.002080 0.024085 -0.008465 -0.000004 -0.003453 0.000004
# 3 -0.003405 -0.008465 0.012235 0.000002 -0.000912 0.000000
# 4 0.000000 -0.000004 0.000002 0.027432 0.000001 -0.003735
# 5 0.001360 -0.003453 -0.000912 0.000001 0.030290 -0.000003
# 6 -0.000001 0.000004 0.000000 -0.003735 -0.000003 0.058525
#
#
# Mechanical properties :
#
#
# Convention : Reuss Voigt Hill
#
# Bulk Modulus (GPa) = 51.54140 62.67506 57.10823
# Shear Modulus (GPa) = 25.26354 29.50396 27.38375
#
# Velocity S-wave (km/s) = 3.61401 3.90555 3.76261
# Velocity P-wave (km/s) = 6.63787 7.26225 6.95707
#
# Compressibility (1/GPa) = 0.01940188
#
# Stress axis : x y z
#
# Youngs Moduli (GPa) = 91.06853 41.52031 81.73022
#
# Poissons Ratio (x) = 0.08635 0.27826
# Poissons Ratio (y) = 0.18940 0.69185
# Poissons Ratio (z) = 0.31005 0.35147
#
# Static dielectric constant tensor:
#      x y z
#    x 3.664880 -0.000010 -0.050220 
#    y -0.000010 3.335370 0.000020 
#    z -0.050220 0.000020 3.449360 
# 
# 
# High freq. dielectric constant tensor:
#      x y z
#    x 1.760810 0.000000 -0.004850 
#    y 0.000000 1.733240 0.000000 
#    z -0.004850 0.000000 1.756020 
# 
# From -- ./inp_files/295522.got.cif
#   From: 2010.06.25/outbox.cif.g09.slc.cpg/sg12_148_cif.got.tgz:295522.got - 2010.06.28 00:19:55.
