data_PCOD8097590
_publ_section_title
;
Structure prediction by ZEFSAII (Michael W. Deem and Ramdas Pophale) SiO2 
 PCOD8097590
Probable space group: C 2/M
;
_chemical_formula_sum "Si O2"
_cell_formula_units_Z 56
_cell_length_a 17.876007
_cell_length_b 8.950524
_cell_length_c 28.639492
_cell_angle_alpha 90.000000
_cell_angle_beta 39.071623
_cell_angle_gamma 90.000000
_cell_volume 2888.189286
_symmetry_space_group_name_H-M "C 2/M"
_symmetry_group_IT_number 12
_symmetry_cell_setting 'monoclinic'
loop_
_space_group_symop_operation_xyz
x,y,z
-x,y,-z
-x,-y,-z
x,-y,z
1/2+x,1/2+y,z
1/2-x,1/2+y,-z
1/2-x,1/2-y,-z
1/2+x,1/2-y,z
loop_
_atom_site_type_symbol
_atom_site_label
_atom_site_fract_x
_atom_site_fract_y
_atom_site_fract_z
Si Si1 0.554539 0.324480 0.924308
Si Si2 0.477515 0.322712 0.783045
Si Si3 0.837088 0.327355 0.493679
Si Si4 0.590238 0.323524 0.363447
Si Si5 0.124566 0.176646 0.069508
Si Si6 0.805319 0.823127 0.785913
Si Si7 0.755036 0.827223 0.357825
O O1 0.578153 0.500000 0.910762
O O2 0.464758 0.272099 0.927643
O O3 0.677389 0.242640 0.857522
O O4 0.500000 0.275118 0.000000
O O5 0.477343 0.500000 0.781623
O O6 0.426622 0.263520 0.856713
O O7 0.396560 0.259570 0.780378
O O8 0.611471 0.265278 0.711903
O O9 0.849172 0.500000 0.474521
O O10 0.750000 0.250000 0.500000
O O11 0.783853 0.306193 0.570492
O O12 0.964314 0.252833 0.429708
O O13 0.571906 0.500000 0.373607
O O14 0.649547 0.270751 0.286440
O O15 0.672656 0.273943 0.365803
O O16 0.141048 0.000000 0.061930
O O17 0.250000 0.250000 0.000000
O O18 0.796395 0.000000 0.793392
O O19 0.744648 0.000000 0.347097
#
# Coordination Sequence:
#
# PCOD8097590 Si02
#       7
#     8   8   8   8   8   8   8
#     4  10  21  36  54  80 113 145 180 229 286 338
#     4   9  18  35  57  78 104 141 183 225 271 327
#     4  11  23  39  61  87 115 150 190 233 284 340
#     4  11  23  38  57  84 117 149 187 237 286 336
#     4  10  20  34  54  78 105 140 179 220 270 326
#     4  10  21  37  57  81 109 145 188 231 276 330
#     4  10  21  39  61  83 111 149 190 230 279 341
#
# _framework density 19.389312
#
# number of rings (size 3 to 8) (size 9 to 14) (size 15 to 20)
#    0.000    1.857    0.000    3.857    0.000    8.286 
#    0.000    1.429    0.000    0.000    0.000    0.000 
#    0.000    0.000    0.000    0.000    0.000    0.000 
#
# Total GULP energy -347320.891853 kJ/mol
# GULP energy per Si atom -12404.317566 kJ/mol
# Density = 1.934518 g / cm^3
# Si number density = 19.389312 Si / 1000 Ang^3
#
#
#
# Elastic Constant Matrix: (Units=GPa)
#
#
# Indices 1 2 3 4 5 6 
#
# 1 164.6100 47.5732 70.7510 -0.0002 -11.9531 -0.0016
# 2 47.5732 52.0430 50.5989 -0.0007 -1.3764 -0.0021
# 3 70.7510 50.5989 154.2755 0.0001 -17.6388 -0.0003
# 4 -0.0002 -0.0007 0.0001 28.4502 0.0001 4.3359
# 5 -11.9531 -1.3764 -17.6388 0.0001 43.3768 -0.0001
# 6 -0.0016 -0.0021 -0.0003 4.3359 -0.0001 -10.6559
#
#
#
# Elastic Compliance Matrix: (Units=1/GPa)
#
#
# Indices 1 2 3 4 5 6 
#
# 1 0.008753 -0.006201 -0.001811 0.000000 0.001479 0.000000
# 2 -0.006201 0.032983 -0.008442 0.000001 -0.004095 -0.000005
# 3 -0.001811 -0.008442 0.010481 0.000000 0.003495 0.000001
# 4 0.000000 0.000001 0.000000 0.033097 0.000000 0.013467
# 5 0.001479 -0.004095 0.003495 0.000000 0.024753 0.000000
# 6 0.000000 -0.000005 0.000001 0.013467 0.000000 -0.088365
#
#
# Mechanical properties :
#
#
# Convention : Reuss Voigt Hill
#
# Bulk Modulus (GPa) = 51.79192 78.75276 65.27234
# Shear Modulus (GPa) = 81.90569 25.70125 53.80347
#
# Velocity S-wave (km/s) = 6.50649 3.64474 5.27345
# Velocity P-wave (km/s) = 9.12225 7.64310 8.41524
#
# Compressibility (1/GPa) = 0.01930803
#
# Stress axis : x y z
#
# Youngs Moduli (GPa) = 114.24674 30.31884 95.41148
#
# Poissons Ratio (x) = 0.18801 0.17281
# Poissons Ratio (y) = 0.70846 0.80546
# Poissons Ratio (z) = 0.20693 0.25595
#
# Static dielectric constant tensor:
#      x y z
#    x 3.686260 0.000000 0.130370 
#    y 0.000000 3.389010 0.000000 
#    z 0.130370 0.000000 3.770910 
# 
# 
# High freq. dielectric constant tensor:
#      x y z
#    x 1.775700 0.000000 0.000300 
#    y 0.000000 1.736140 0.000000 
#    z 0.000300 0.000000 1.775640 
# 
# From -- ./inp_files/362890.got.cif
#   From: 2010.06.25/outbox.cif.g09.slc.cpg/sg12_182_cif.got.tgz:362890.got - 2010.06.28 00:19:55.
