data_PCOD8097708
_publ_section_title
;
Structure prediction by ZEFSAII (Michael W. Deem and Ramdas Pophale) SiO2 
 PCOD8097708
Probable space group: C 2/M
;
_chemical_formula_sum "Si O2"
_cell_formula_units_Z 56
_cell_length_a 9.922873
_cell_length_b 20.306393
_cell_length_c 14.073634
_cell_angle_alpha 90.000000
_cell_angle_beta 89.080145
_cell_angle_gamma 90.000000
_cell_volume 2835.440257
_symmetry_space_group_name_H-M "C 2/M"
_symmetry_group_IT_number 12
_symmetry_cell_setting 'monoclinic'
loop_
_space_group_symop_operation_xyz
x,y,z
-x,y,-z
-x,-y,-z
x,-y,z
1/2+x,1/2+y,z
1/2-x,1/2+y,-z
1/2-x,1/2-y,-z
1/2+x,1/2-y,z
loop_
_atom_site_type_symbol
_atom_site_label
_atom_site_fract_x
_atom_site_fract_y
_atom_site_fract_z
Si Si1 0.753836 0.927861 0.396690
Si Si2 0.505571 0.393943 0.732648
Si Si3 0.889760 0.927179 0.924454
Si Si4 0.502511 0.842980 0.389502
Si Si5 0.246441 0.209746 0.097223
Si Si6 0.510466 0.748612 0.783378
Si Si7 0.236265 0.923003 0.389914
O O1 0.642852 0.877307 0.361698
O O2 0.805526 0.909678 0.501055
O O3 0.881296 0.931849 0.326737
O O4 0.685807 0.000000 0.400951
O O5 0.467242 0.436242 0.824535
O O6 0.566342 0.324211 0.764239
O O7 0.370591 0.383470 0.672107
O O8 0.780929 0.868078 0.921567
O O9 0.825951 0.000000 0.948868
O O10 0.000000 0.906099 0.000000
O O11 0.500000 0.819973 0.500000
O O12 0.493614 0.781203 0.320318
O O13 0.384156 0.894425 0.368761
O O14 0.390868 0.212803 0.146691
O O15 0.135878 0.243206 0.166563
O O16 0.250000 0.250000 0.000000
O O17 0.234192 0.000000 0.362845
#
# Coordination Sequence:
#
# PCOD8097708 Si02
#       7
#     8   8   8   8   8   8   8
#     4  10  20  34  54  80 109 144 187 232 279 330
#     4  11  21  35  55  81 110 142 183 234 279 323
#     4  10  21  37  59  87 115 144 183 231 285 340
#     4  10  21  36  53  77 114 152 183 226 279 334
#     4  11  22  41  65  86 113 150 189 236 287 339
#     4  11  23  38  58  85 113 147 193 228 276 346
#     4  10  20  35  55  78 107 148 192 229 275 334
#
# _framework density 19.750019999999999
#
# number of rings (size 3 to 8) (size 9 to 14) (size 15 to 20)
#    0.000    1.571    0.000    6.857    0.000    4.000 
#    0.000    4.286    0.000    2.571    0.000    0.000 
#    0.000    0.000    0.000    0.000    0.000    0.000 
#
# Total GULP energy -347187.233736 kJ/mol
# GULP energy per Si atom -12399.544062 kJ/mol
# Density = 1.970507 g / cm^3
# Si number density = 19.750020 Si / 1000 Ang^3
#
#
#
# Elastic Constant Matrix: (Units=GPa)
#
#
# Indices 1 2 3 4 5 6 
#
# 1 76.8740 21.0531 27.9930 0.0000 4.1904 0.0000
# 2 21.0531 107.7457 26.7282 0.0000 7.9220 0.0000
# 3 27.9930 26.7282 86.2644 0.0000 -1.9270 0.0000
# 4 0.0000 0.0000 0.0000 67.8293 0.0000 39.0665
# 5 4.1904 7.9220 -1.9270 0.0000 34.4643 0.0000
# 6 0.0000 0.0000 0.0000 39.0665 0.0000 60.4508
#
#
#
# Elastic Compliance Matrix: (Units=1/GPa)
#
#
# Indices 1 2 3 4 5 6 
#
# 1 0.015190 -0.001746 -0.004426 0.000000 -0.001693 0.000000
# 2 -0.001746 0.010472 -0.002731 0.000000 -0.002348 0.000000
# 3 -0.004426 -0.002731 0.013918 0.000000 0.001944 0.000000
# 4 0.000000 0.000000 0.000000 0.023484 0.000000 -0.015177
# 5 -0.001693 -0.002348 0.001944 0.000000 0.029870 0.000000
# 6 0.000000 0.000000 0.000000 -0.015177 0.000000 0.026350
#
#
# Mechanical properties :
#
#
# Convention : Reuss Voigt Hill
#
# Bulk Modulus (GPa) = 45.92310 46.93696 46.43003
# Shear Modulus (GPa) = 34.63843 45.55619 40.09731
#
# Velocity S-wave (km/s) = 4.19243 4.80796 4.51071
# Velocity P-wave (km/s) = 6.83652 7.39183 7.11959
#
# Compressibility (1/GPa) = 0.02177553
#
# Stress axis : x y z
#
# Youngs Moduli (GPa) = 65.83084 95.49084 71.84878
#
# Poissons Ratio (x) = 0.16669 0.31802
# Poissons Ratio (y) = 0.11492 0.19620
# Poissons Ratio (z) = 0.29139 0.26076
#
# Static dielectric constant tensor:
#      x y z
#    x 3.486500 0.000000 0.046310 
#    y 0.000000 3.532060 0.000000 
#    z 0.046310 0.000000 3.809450 
# 
# 
# High freq. dielectric constant tensor:
#      x y z
#    x 1.759370 0.000000 0.006380 
#    y 0.000000 1.774890 0.000000 
#    z 0.006380 0.000000 1.781690 
# 
# From -- ./inp_files/197503.got.cif
#   From: 2010.06.25/outbox.cif.g09.slc.cpg/sg12_99_cif.got.tgz:197503.got - 2010.06.28 00:19:55.
