data_PCOD8097060
_publ_section_title
;
Structure prediction by ZEFSAII (Michael W. Deem and Ramdas Pophale) SiO2 
 PCOD8097060
Probable space group: C 2/M
;
_chemical_formula_sum "Si O2"
_cell_formula_units_Z 56
_cell_length_a 23.427546
_cell_length_b 8.805421
_cell_length_c 19.445915
_cell_angle_alpha 90.000000
_cell_angle_beta 127.549444
_cell_angle_gamma 90.000000
_cell_volume 3180.417445
_symmetry_space_group_name_H-M "C 2/M"
_symmetry_group_IT_number 12
_symmetry_cell_setting 'monoclinic'
loop_
_space_group_symop_operation_xyz
x,y,z
-x,y,-z
-x,-y,-z
x,-y,z
1/2+x,1/2+y,z
1/2-x,1/2+y,-z
1/2-x,1/2-y,-z
1/2+x,1/2-y,z
loop_
_atom_site_type_symbol
_atom_site_label
_atom_site_fract_x
_atom_site_fract_y
_atom_site_fract_z
Si Si1 0.699359 0.680222 0.404303
Si Si2 0.432937 0.819245 0.492474
Si Si3 0.317261 0.823617 0.013173
Si Si4 0.593684 0.320538 0.814681
Si Si5 0.770453 0.174312 0.178341
Si Si6 0.054437 0.319658 0.342371
Si Si7 0.717955 0.178904 0.669816
O O1 0.700283 0.500000 0.414163
O O2 0.750000 0.750000 0.500000
O O3 0.618778 0.743809 0.347266
O O4 0.727994 0.730493 0.350485
O O5 0.500000 0.750520 0.500000
O O6 0.437574 0.763009 0.573792
O O7 0.360809 0.753462 0.405041
O O8 0.433750 0.000000 0.490639
O O9 0.302204 0.802925 0.920645
O O10 0.323126 0.000000 0.037013
O O11 0.250000 0.750000 0.000000
O O12 0.387255 0.735765 0.093591
O O13 0.582237 0.500000 0.806808
O O14 0.657660 0.270413 0.809418
O O15 0.521347 0.236634 0.741047
O O16 0.756131 0.264921 0.237301
O O17 0.781343 0.000000 0.205626
O O18 0.059513 0.500000 0.339376
O O19 0.713279 0.000000 0.669115
#
# Coordination Sequence:
#
# PCOD8097060 Si02
#       7
#     8   8   8   8   8   8   8
#     4  11  22  38  56  75 102 138 183 228 265 309
#     4   9  17  30  48  73 104 135 169 209 253 309
#     4   9  17  31  51  77 109 143 177 214 260 316
#     4  10  20  34  52  80 113 142 176 216 264 320
#     4   9  19  33  51  79 112 140 172 215 263 314
#     4  11  21  35  55  77 104 140 180 220 267 314
#     4  10  20  34  52  75 103 139 180 217 259 314
#
# _framework density 17.607751
#
# number of rings (size 3 to 8) (size 9 to 14) (size 15 to 20)
#    0.000    2.143    1.429    3.429    0.000    5.714 
#    0.000    0.000    0.000    3.857    0.000    6.000 
#    0.000    0.000    0.000    0.000    0.000    0.000 
#
# Total GULP energy -347118.243857 kJ/mol
# GULP energy per Si atom -12397.080138 kJ/mol
# Density = 1.756768 g / cm^3
# Si number density = 17.607751 Si / 1000 Ang^3
#
#
#
# Elastic Constant Matrix: (Units=GPa)
#
#
# Indices 1 2 3 4 5 6 
#
# 1 103.7966 32.1873 44.7493 0.0000 -19.0790 0.0000
# 2 32.1873 50.7901 27.6892 0.0000 -8.1306 0.0000
# 3 44.7493 27.6892 113.9705 0.0000 -17.2652 0.0000
# 4 0.0000 0.0000 0.0000 32.8547 0.0000 1.0948
# 5 -19.0790 -8.1306 -17.2652 0.0000 11.9432 0.0000
# 6 0.0000 0.0000 0.0000 1.0948 0.0000 25.8879
#
#
#
# Elastic Compliance Matrix: (Units=1/GPa)
#
#
# Indices 1 2 3 4 5 6 
#
# 1 0.015656 -0.005954 -0.001954 0.000000 0.018132 0.000000
# 2 -0.005954 0.025848 -0.003479 0.000000 0.003056 0.000000
# 3 -0.001954 -0.003479 0.012234 0.000000 0.012196 0.000000
# 4 0.000000 0.000000 0.000000 0.030480 0.000000 -0.001289
# 5 0.018132 0.003056 0.012196 0.000000 0.132407 0.000000
# 6 0.000000 0.000000 0.000000 -0.001289 0.000000 0.038683
#
#
# Mechanical properties :
#
#
# Convention : Reuss Voigt Hill
#
# Bulk Modulus (GPa) = 32.29503 53.08988 42.69246
# Shear Modulus (GPa) = 17.33689 25.06593 21.20141
#
# Velocity S-wave (km/s) = 3.14127 3.77712 3.47377
# Velocity P-wave (km/s) = 5.61586 7.01706 6.35519
#
# Compressibility (1/GPa) = 0.03096451
#
# Stress axis : x y z
#
# Youngs Moduli (GPa) = 63.87462 38.68792 81.73821
#
# Poissons Ratio (x) = 0.23034 0.15970
# Poissons Ratio (y) = 0.38029 0.28438
# Poissons Ratio (z) = 0.12480 0.13460
#
# Static dielectric constant tensor:
#      x y z
#    x 3.259530 0.000000 -0.007370 
#    y 0.000000 3.257750 0.000000 
#    z -0.007370 0.000000 3.669800 
# 
# 
# High freq. dielectric constant tensor:
#      x y z
#    x 1.658680 0.000000 0.001210 
#    y 0.000000 1.677530 0.000000 
#    z 0.001210 0.000000 1.691060 
# 
# From -- ./inp_files/288233.got.cif
#   From: 2010.06.25/outbox.cif.g09.slc.cpg/sg12_145_cif.got.tgz:288233.got - 2010.06.28 00:19:55.
