data_PCOD8097324
_publ_section_title
;
Structure prediction by ZEFSAII (Michael W. Deem and Ramdas Pophale) SiO2 
 PCOD8097324
Probable space group: C 2/M
;
_chemical_formula_sum "Si O2"
_cell_formula_units_Z 64
_cell_length_a 20.788982
_cell_length_b 8.929251
_cell_length_c 23.222513
_cell_angle_alpha 90.000000
_cell_angle_beta 128.601639
_cell_angle_gamma 90.000000
_cell_volume 3368.898374
_symmetry_space_group_name_H-M "C 2/M"
_symmetry_group_IT_number 12
_symmetry_cell_setting 'monoclinic'
loop_
_space_group_symop_operation_xyz
x,y,z
-x,y,-z
-x,-y,-z
x,-y,z
1/2+x,1/2+y,z
1/2-x,1/2+y,-z
1/2-x,1/2-y,-z
1/2+x,1/2-y,z
loop_
_atom_site_type_symbol
_atom_site_label
_atom_site_fract_x
_atom_site_fract_y
_atom_site_fract_z
Si Si1 0.372766 0.830438 0.678798
Si Si2 0.774297 0.176453 0.806968
Si Si3 0.472890 0.323950 0.641005
Si Si4 0.916842 0.164814 0.486259
Si Si5 0.224402 0.675281 0.652530
Si Si6 0.618280 0.822081 0.786822
Si Si7 0.976706 0.330838 0.155544
Si Si8 0.459559 0.322728 0.918097
O O1 0.402705 0.718392 0.646717
O O2 0.284424 0.773580 0.647603
O O3 0.433229 0.822348 0.766764
O O4 0.367713 0.000000 0.652287
O O5 0.733795 0.225256 0.724070
O O6 0.711986 0.228336 0.823629
O O7 0.866344 0.245146 0.864357
O O8 0.783202 0.000000 0.815204
O O9 0.489491 0.500000 0.650201
O O10 0.438215 0.267798 0.560656
O O11 0.558383 0.243924 0.704715
O O12 0.865219 0.284626 0.420914
O O13 0.000000 0.139531 0.500000
O O14 0.873371 0.000000 0.467101
O O15 0.243050 0.500000 0.655661
O O16 0.591081 0.767832 0.836011
O O17 0.607265 0.000000 0.777714
O O18 0.953288 0.500000 0.125433
O O19 0.981159 0.233916 0.100080
O O20 0.456889 0.500000 0.911470
O O21 0.500000 0.268869 0.000000
#
# Coordination Sequence:
#
# PCOD8097324 Si02
#       8
#     8   8   8   8   8   8   8   8
#     4  10  20  35  55  78 105 141 179 219 272 325
#     4   9  18  34  55  81 109 139 181 226 266 319
#     4  10  20  34  53  77 106 139 179 224 270 319
#     4  10  22  38  52  71 105 144 178 221 279 331
#     4  11  21  33  55  81 104 137 182 231 273 313
#     4   9  18  34  56  79 107 144 183 222 270 321
#     4   9  18  33  54  79 106 141 177 216 267 321
#     4  10  20  35  57  82 110 144 178 218 268 320
#
# _framework density 18.997308
#
# number of rings (size 3 to 8) (size 9 to 14) (size 15 to 20)
#    0.000    2.250    1.250    2.625    0.000    4.000 
#    0.000    1.875    0.000    0.000    0.000    0.000 
#    0.000    0.000    0.000    0.000    0.000    0.000 
#
# Total GULP energy -396674.457093 kJ/mol
# GULP energy per Si atom -12396.076784 kJ/mol
# Density = 1.895407 g / cm^3
# Si number density = 18.997308 Si / 1000 Ang^3
#
#
#
# Elastic Constant Matrix: (Units=GPa)
#
#
# Indices 1 2 3 4 5 6 
#
# 1 120.2982 18.9160 59.5939 0.0000 -3.6669 0.0000
# 2 18.9160 36.0437 29.0839 0.0000 -4.1153 0.0000
# 3 59.5939 29.0839 107.5781 0.0000 -18.1410 0.0000
# 4 0.0000 0.0000 0.0000 22.8931 0.0000 -4.2669
# 5 -3.6669 -4.1153 -18.1410 0.0000 24.1520 0.0000
# 6 0.0000 0.0000 0.0000 -4.2669 0.0000 25.1889
#
#
#
# Elastic Compliance Matrix: (Units=1/GPa)
#
#
# Indices 1 2 3 4 5 6 
#
# 1 0.011748 -0.001071 -0.006811 0.000000 -0.003515 0.000000
# 2 -0.001071 0.035620 -0.009207 0.000000 -0.001009 0.000000
# 3 -0.006811 -0.009207 0.017312 0.000000 0.010400 0.000000
# 4 0.000000 0.000000 0.000000 0.045105 0.000000 0.007641
# 5 -0.003515 -0.001009 0.010400 0.000000 0.048511 0.000000
# 6 0.000000 0.000000 0.000000 0.007641 0.000000 0.040994
#
#
# Mechanical properties :
#
#
# Convention : Reuss Voigt Hill
#
# Bulk Modulus (GPa) = 32.78470 53.23417 43.00944
# Shear Modulus (GPa) = 20.52252 24.86855 22.69554
#
# Velocity S-wave (km/s) = 3.29034 3.62201 3.46015
# Velocity P-wave (km/s) = 5.63295 6.75091 6.21711
#
# Compressibility (1/GPa) = 0.03050203
#
# Stress axis : x y z
#
# Youngs Moduli (GPa) = 85.12047 28.07415 57.76500
#
# Poissons Ratio (x) = 0.03006 0.39345
# Poissons Ratio (y) = 0.09115 0.53183
# Poissons Ratio (z) = 0.57977 0.25847
#
# Static dielectric constant tensor:
#      x y z
#    x 3.888970 0.000000 -0.267940 
#    y 0.000000 3.334160 0.000000 
#    z -0.267940 0.000000 3.660510 
# 
# 
# High freq. dielectric constant tensor:
#      x y z
#    x 1.750520 0.000000 -0.005710 
#    y 0.000000 1.722580 0.000000 
#    z -0.005710 0.000000 1.719290 
# 
# From -- ./inp_files/346155.got.cif
#   From: 2010.06.25/outbox.cif.g09.slc.cpg/sg12_174_cif.got.tgz:346155.got - 2010.06.28 00:19:55.
