data_PCOD8097263
_publ_section_title
;
Structure prediction by ZEFSAII (Michael W. Deem and Ramdas Pophale) SiO2 
 PCOD8097263
Probable space group: C 2/M
;
_chemical_formula_sum "Si O2"
_cell_formula_units_Z 56
_cell_length_a 20.003653
_cell_length_b 9.014049
_cell_length_c 30.140799
_cell_angle_alpha 90.000000
_cell_angle_beta 35.221846
_cell_angle_gamma 90.000000
_cell_volume 3134.490455
_symmetry_space_group_name_H-M "C 2/M"
_symmetry_group_IT_number 12
_symmetry_cell_setting 'monoclinic'
loop_
_space_group_symop_operation_xyz
x,y,z
-x,y,-z
-x,-y,-z
x,-y,z
1/2+x,1/2+y,z
1/2-x,1/2+y,-z
1/2-x,1/2-y,-z
1/2+x,1/2-y,z
loop_
_atom_site_type_symbol
_atom_site_label
_atom_site_fract_x
_atom_site_fract_y
_atom_site_fract_z
Si Si1 0.874431 0.829356 0.552530
Si Si2 0.934051 0.663112 0.989593
Si Si3 0.229688 0.825268 0.157585
Si Si4 0.367464 0.324604 0.160965
Si Si5 0.338710 0.171837 0.269119
Si Si6 0.972605 0.826988 0.271389
Si Si7 0.740322 0.327576 0.551894
O O1 0.785170 0.803824 0.640833
O O2 0.842461 0.730740 0.527751
O O3 0.000000 0.776098 0.500000
O O4 0.875509 0.000000 0.536659
O O5 0.932980 0.500000 0.967458
O O6 0.999651 0.777321 0.921840
O O7 0.803463 0.714754 0.072981
O O8 0.000000 0.652932 0.000000
O O9 0.276737 0.737500 0.174467
O O10 0.098433 0.776438 0.219878
O O11 0.240524 0.000000 0.162154
O O12 0.360263 0.500000 0.165083
O O13 0.332608 0.262652 0.227344
O O14 0.440704 0.233986 0.245061
O O15 0.363678 0.000000 0.245710
O O16 0.883937 0.790650 0.359090
O O17 0.969770 0.000000 0.260164
O O18 0.758291 0.500000 0.534857
O O19 0.750000 0.250000 0.500000
#
# Coordination Sequence:
#
# PCOD8097263 Si02
#       7
#     8   8   8   8   8   8   8
#     4   9  19  36  56  76  99 130 168 209 253 299
#     4   8  15  30  51  73  98 129 165 206 252 297
#     4   9  18  34  55  76 100 131 167 208 253 299
#     4  11  21  32  50  76 105 134 168 208 246 293
#     4  10  20  35  54  74 101 135 168 205 251 301
#     4   9  19  36  55  75 101 133 167 206 253 299
#     4  10  20  34  53  76 104 135 167 205 248 297
#
# _framework density 17.865742999999998
#
# number of rings (size 3 to 8) (size 9 to 14) (size 15 to 20)
#    0.000    2.571    0.000    3.000    0.000    5.714 
#    0.000    6.429    0.000    0.000    0.000    0.000 
#    0.000    0.000    0.000    0.000    0.000    0.000 
#
# Total GULP energy -347197.960439 kJ/mol
# GULP energy per Si atom -12399.927159 kJ/mol
# Density = 1.782508 g / cm^3
# Si number density = 17.865743 Si / 1000 Ang^3
#
#
#
# Elastic Constant Matrix: (Units=GPa)
#
#
# Indices 1 2 3 4 5 6 
#
# 1 117.6288 70.2666 80.9449 -0.0013 -9.0803 -0.0095
# 2 70.2666 106.5905 55.8294 -0.0031 3.7844 0.0031
# 3 80.9449 55.8294 97.7656 -0.0004 -9.0772 0.0029
# 4 -0.0013 -0.0031 -0.0004 25.3656 0.0010 5.1692
# 5 -9.0803 3.7844 -9.0772 0.0010 30.6063 -0.0014
# 6 -0.0095 0.0031 0.0029 5.1692 -0.0014 33.0328
#
#
#
# Elastic Compliance Matrix: (Units=1/GPa)
#
#
# Indices 1 2 3 4 5 6 
#
# 1 0.023706 -0.008071 -0.014677 -0.000002 0.003678 0.000009
# 2 -0.008071 0.016635 -0.003322 0.000003 -0.005437 -0.000004
# 3 -0.014677 -0.003322 0.024589 0.000000 0.003349 -0.000006
# 4 -0.000002 0.000003 0.000000 0.040722 -0.000002 -0.006373
# 5 0.003678 -0.005437 0.003349 -0.000002 0.035430 0.000003
# 6 0.000009 -0.000004 -0.000006 -0.006373 0.000003 0.031270
#
#
# Mechanical properties :
#
#
# Convention : Reuss Voigt Hill
#
# Bulk Modulus (GPa) = 78.18771 81.78519 79.98645
# Shear Modulus (GPa) = 21.85733 25.46388 23.66061
#
# Velocity S-wave (km/s) = 3.50154 3.77940 3.64312
# Velocity P-wave (km/s) = 7.75930 8.05743 7.90977
#
# Compressibility (1/GPa) = 0.01278973
#
# Stress axis : x y z
#
# Youngs Moduli (GPa) = 42.18267 60.11361 40.66890
#
# Poissons Ratio (x) = 0.48516 0.59691
# Poissons Ratio (y) = 0.34044 0.13511
# Poissons Ratio (z) = 0.61913 0.19971
#
# Static dielectric constant tensor:
#      x y z
#    x 3.218590 -0.000030 -0.146300 
#    y -0.000030 3.325660 -0.000010 
#    z -0.146300 -0.000010 3.620670 
# 
# 
# High freq. dielectric constant tensor:
#      x y z
#    x 1.676070 0.000000 -0.003340 
#    y 0.000000 1.692660 0.000000 
#    z -0.003340 0.000000 1.698430 
# 
# From -- ./inp_files/363007.got.cif
#   From: 2010.06.25/outbox.cif.g09.slc.cpg/sg12_182_cif.got.tgz:363007.got - 2010.06.28 00:19:55.
