data_PCOD8097521
_publ_section_title
;
Structure prediction by ZEFSAII (Michael W. Deem and Ramdas Pophale) SiO2 
 PCOD8097521
Probable space group: C 2/M
;
_chemical_formula_sum "Si O2"
_cell_formula_units_Z 48
_cell_length_a 17.433740
_cell_length_b 11.784809
_cell_length_c 25.178797
_cell_angle_alpha 90.000000
_cell_angle_beta 149.218835
_cell_angle_gamma 90.000000
_cell_volume 2647.371109
_symmetry_space_group_name_H-M "C 2/M"
_symmetry_group_IT_number 12
_symmetry_cell_setting 'monoclinic'
loop_
_space_group_symop_operation_xyz
x,y,z
-x,y,-z
-x,-y,-z
x,-y,z
1/2+x,1/2+y,z
1/2-x,1/2+y,-z
1/2-x,1/2-y,-z
1/2+x,1/2-y,z
loop_
_atom_site_type_symbol
_atom_site_label
_atom_site_fract_x
_atom_site_fract_y
_atom_site_fract_z
Si Si1 0.310533 0.372340 0.728623
Si Si2 0.582429 0.216835 0.885766
Si Si3 0.241116 0.871341 0.425019
Si Si4 0.001152 0.500000 0.907838
Si Si5 0.942605 0.365301 0.347355
Si Si6 0.263480 0.000000 0.857576
Si Si7 0.569562 0.272426 0.757713
O O1 0.336925 0.500000 0.763092
O O2 0.468950 0.315013 0.835204
O O3 0.254913 0.365566 0.635800
O O4 0.176982 0.315373 0.682261
O O5 0.579134 0.209371 0.819952
O O6 0.524480 0.105910 0.882238
O O7 0.750000 0.250000 0.000000
O O8 0.393431 0.817987 0.539186
O O9 0.100336 0.799151 0.360439
O O10 0.221193 0.000000 0.433007
O O11 0.840439 0.500000 0.844151
O O12 0.119296 0.500000 0.025184
O O13 0.947184 0.500000 0.351453
O O14 0.880684 0.322669 0.254198
O O15 0.165651 0.112782 0.808970
#
# Coordination Sequence:
#
# PCOD8097521 Si02
#       7
#     8   8   8   4   8   4   8
#     4   9  19  35  57  81 111 143 182 226 277 330
#     4  11  23  37  59  81 109 146 186 233 283 333
#     4   9  17  32  57  82 106 144 185 224 271 323
#     4  11  24  40  58  83 112 150 191 233 284 335
#     4  10  20  34  53  84 115 142 178 228 277 333
#     4  11  22  40  62  81 108 150 198 235 269 333
#     4  11  21  36  58  83 112 147 188 230 277 327
#
# _framework density 18.131194000000001
#
# number of rings (size 3 to 8) (size 9 to 14) (size 15 to 20)
#    0.000    1.833    2.500    2.000    3.500    2.000 
#    0.000    0.000    0.000    2.000    0.000    7.000 
#    0.000    0.000    0.000    0.000    0.000    0.000 
#
# Total GULP energy -297401.288683 kJ/mol
# GULP energy per Si atom -12391.720362 kJ/mol
# Density = 1.808993 g / cm^3
# Si number density = 18.131194 Si / 1000 Ang^3
#
#
#
# Elastic Constant Matrix: (Units=GPa)
#
#
# Indices 1 2 3 4 5 6 
#
# 1 98.3942 39.6829 32.9957 -0.0001 2.4971 0.0001
# 2 39.6829 45.9888 34.4188 -0.0002 -8.8550 0.0000
# 3 32.9957 34.4188 92.4642 -0.0013 8.5607 0.0002
# 4 -0.0001 -0.0002 -0.0013 18.7046 0.0005 -7.2877
# 5 2.4971 -8.8550 8.5607 0.0005 18.7452 0.0003
# 6 0.0001 0.0000 0.0002 -7.2877 0.0003 32.4622
#
#
#
# Elastic Compliance Matrix: (Units=1/GPa)
#
#
# Indices 1 2 3 4 5 6 
#
# 1 0.017391 -0.018726 0.001877 0.000000 -0.012020 0.000000
# 2 -0.018726 0.060004 -0.019326 -0.000002 0.039666 -0.000001
# 3 0.001877 -0.019326 0.019011 0.000002 -0.018062 0.000000
# 4 0.000000 -0.000002 0.000002 0.058587 -0.000004 0.013153
# 5 -0.012020 0.039666 -0.018062 -0.000004 0.081934 -0.000001
# 6 0.000000 -0.000001 0.000000 0.013153 -0.000001 0.033758
#
#
# Mechanical properties :
#
#
# Convention : Reuss Voigt Hill
#
# Bulk Modulus (GPa) = 41.56733 50.11578 45.84155
# Shear Modulus (GPa) = 14.24284 22.63240 18.43762
#
# Velocity S-wave (km/s) = 2.80579 3.53690 3.19235
# Velocity P-wave (km/s) = 5.78552 6.66185 6.23909
#
# Compressibility (1/GPa) = 0.02405735
#
# Stress axis : x y z
#
# Youngs Moduli (GPa) = 57.50132 16.66552 52.60073
#
# Poissons Ratio (x) = 0.31208 -0.09875
# Poissons Ratio (y) = 1.07676 1.01656
# Poissons Ratio (z) = -0.10795 0.32208
#
# Static dielectric constant tensor:
#      x y z
#    x 3.664320 0.000000 0.154800 
#    y 0.000000 3.307830 0.000000 
#    z 0.154800 0.000000 3.361380 
# 
# 
# High freq. dielectric constant tensor:
#      x y z
#    x 1.719920 0.000000 0.007330 
#    y 0.000000 1.688230 0.000000 
#    z 0.007330 0.000000 1.705170 
# 
# From -- ./inp_files/154228.got.cif
#   From: 2010.06.25/outbox.cif.g09.slc.cpg/sg12_78_cif.got.tgz:154228.got - 2010.06.28 00:19:55.
