data_PCOD8097812
_publ_section_title
;
Structure prediction by ZEFSAII (Michael W. Deem and Ramdas Pophale) SiO2 
 PCOD8097812
Probable space group: C 2/M
;
_chemical_formula_sum "Si O2"
_cell_formula_units_Z 56
_cell_length_a 12.856777
_cell_length_b 11.355212
_cell_length_c 21.589223
_cell_angle_alpha 90.000000
_cell_angle_beta 117.937866
_cell_angle_gamma 90.000000
_cell_volume 2784.513884
_symmetry_space_group_name_H-M "C 2/M"
_symmetry_group_IT_number 12
_symmetry_cell_setting 'monoclinic'
loop_
_space_group_symop_operation_xyz
x,y,z
-x,y,-z
-x,-y,-z
x,-y,z
1/2+x,1/2+y,z
1/2-x,1/2+y,-z
1/2-x,1/2-y,-z
1/2+x,1/2-y,z
loop_
_atom_site_type_symbol
_atom_site_label
_atom_site_fract_x
_atom_site_fract_y
_atom_site_fract_z
Si Si1 0.240838 0.866810 0.295756
Si Si2 0.397809 0.366650 0.516190
Si Si3 0.944042 0.366204 0.262183
Si Si4 0.417589 0.131540 0.923682
Si Si5 0.985394 0.783739 0.831155
Si Si6 0.288878 0.368388 0.047930
Si Si7 0.329022 0.784467 0.610622
O O1 0.343380 0.815913 0.279933
O O2 0.239078 0.794606 0.358485
O O3 0.113796 0.864421 0.227295
O O4 0.271777 0.000000 0.322236
O O5 0.500000 0.314924 0.500000
O O6 0.429556 0.500000 0.542675
O O7 0.396642 0.293703 0.578967
O O8 0.269820 0.365061 0.448368
O O9 0.913847 0.500000 0.235394
O O10 0.942110 0.288513 0.199893
O O11 0.072714 0.364325 0.329493
O O12 0.420388 0.196202 0.859510
O O13 0.283692 0.132645 0.908811
O O14 0.465668 0.000000 0.925321
O O15 0.500000 0.190767 0.000000
O O16 0.074672 0.862984 0.895627
O O17 0.269201 0.500000 0.010067
O O18 0.250000 0.250000 0.000000
#
# Coordination Sequence:
#
# PCOD8097812 Si02
#       7
#     8   8   8   8   8   8   8
#     4  10  21  37  55  78 110 144 182 228 281 331
#     4  10  20  34  54  82 114 145 183 228 271 318
#     4  10  21  36  57  82 110 145 188 233 274 328
#     4  10  20  36  57  80 110 146 182 225 283 347
#     4  11  21  37  58  82 109 144 187 233 283 336
#     4  11  23  39  59  84 113 146 185 231 285 346
#     4  10  20  35  56  80 110 149 185 222 273 329
#
# _framework density 20.111232000000001
#
# number of rings (size 3 to 8) (size 9 to 14) (size 15 to 20)
#    0.000    1.714    1.429    3.429    0.000    0.571 
#    0.000    2.143    0.000   20.571    0.000    0.000 
#    0.000    0.000    0.000    0.000    0.000    0.000 
#
# Total GULP energy -347137.653809 kJ/mol
# GULP energy per Si atom -12397.773350 kJ/mol
# Density = 2.006546 g / cm^3
# Si number density = 20.111232 Si / 1000 Ang^3
#
#
#
# Elastic Constant Matrix: (Units=GPa)
#
#
# Indices 1 2 3 4 5 6 
#
# 1 103.2760 27.6816 9.7152 0.0000 -20.1888 0.0000
# 2 27.6816 89.7357 19.6277 0.0000 -16.8138 0.0000
# 3 9.7152 19.6277 55.3299 0.0000 -8.3375 0.0000
# 4 0.0000 0.0000 0.0000 -43.1315 0.0000 -23.3244
# 5 -20.1888 -16.8138 -8.3375 0.0000 42.8424 0.0000
# 6 0.0000 0.0000 0.0000 -23.3244 0.0000 13.0683
#
#
#
# Elastic Compliance Matrix: (Units=1/GPa)
#
#
# Indices 1 2 3 4 5 6 
#
# 1 0.011237 -0.002587 -0.000423 0.000000 0.004197 0.000000
# 2 -0.002587 0.013391 -0.003799 0.000000 0.003297 0.000000
# 3 -0.000423 -0.003799 0.019822 0.000000 0.002167 0.000000
# 4 0.000000 0.000000 0.000000 -0.011798 0.000000 -0.021057
# 5 0.004197 0.003297 0.002167 0.000000 0.027035 0.000000
# 6 0.000000 0.000000 0.000000 -0.021057 0.000000 0.038938
#
#
# Mechanical properties :
#
#
# Convention : Reuss Voigt Hill
#
# Bulk Modulus (GPa) = 32.43503 40.26564 36.35034
# Shear Modulus (GPa) = 40.80973 15.31032 28.06003
#
# Velocity S-wave (km/s) = 4.50955 2.76213 3.73935
# Velocity P-wave (km/s) = 6.57857 5.49885 6.06280
#
# Compressibility (1/GPa) = 0.03083086
#
# Stress axis : x y z
#
# Youngs Moduli (GPa) = 88.99516 74.67898 50.44920
#
# Poissons Ratio (x) = 0.19322 0.02132
# Poissons Ratio (y) = 0.23026 0.19166
# Poissons Ratio (z) = 0.03762 0.28372
#
# Static dielectric constant tensor:
#      x y z
#    x 3.792960 0.000000 -0.073660 
#    y 0.000000 3.570210 0.000000 
#    z -0.073660 0.000000 3.475730 
# 
# 
# High freq. dielectric constant tensor:
#      x y z
#    x 1.801870 0.000000 -0.001200 
#    y 0.000000 1.777000 0.000000 
#    z -0.001200 0.000000 1.773950 
# 
# From -- ./inp_files/304152.got.cif
#   From: 2010.06.25/outbox.cif.g09.slc.cpg/sg12_153_cif.got.tgz:304152.got - 2010.06.28 00:19:55.
