data_PCOD8097467
_publ_section_title
;
Structure prediction by ZEFSAII (Michael W. Deem and Ramdas Pophale) SiO2 
 PCOD8097467
Probable space group: C 2/M
;
_chemical_formula_sum "Si O2"
_cell_formula_units_Z 56
_cell_length_a 29.852963
_cell_length_b 8.594286
_cell_length_c 12.527855
_cell_angle_alpha 90.000000
_cell_angle_beta 105.096828
_cell_angle_gamma 90.000000
_cell_volume 3103.276098
_symmetry_space_group_name_H-M "C 2/M"
_symmetry_group_IT_number 12
_symmetry_cell_setting 'monoclinic'
loop_
_space_group_symop_operation_xyz
x,y,z
-x,y,-z
-x,-y,-z
x,-y,z
1/2+x,1/2+y,z
1/2-x,1/2+y,-z
1/2-x,1/2-y,-z
1/2+x,1/2-y,z
loop_
_atom_site_type_symbol
_atom_site_label
_atom_site_fract_x
_atom_site_fract_y
_atom_site_fract_z
Si Si1 0.293791 0.819300 0.653243
Si Si2 0.394990 0.320901 0.412952
Si Si3 0.952082 0.815825 0.015992
Si Si4 0.615657 0.317756 0.206031
Si Si5 0.442665 0.819822 0.642599
Si Si6 0.960020 0.180812 0.260626
Si Si7 0.302511 0.180628 0.413177
O O1 0.336105 0.773818 0.755771
O O2 0.307352 0.774586 0.540768
O O3 0.248231 0.725785 0.661424
O O4 0.282426 0.000000 0.656130
O O5 0.401356 0.500000 0.450312
O O6 0.420445 0.213044 0.514264
O O7 0.416590 0.288521 0.310397
O O8 0.340794 0.277963 0.372386
O O9 0.945053 0.762160 0.133503
O O10 0.954626 0.000000 0.008199
O O11 0.909037 0.757564 0.917586
O O12 0.000000 0.743867 0.000000
O O13 0.626542 0.500000 0.210123
O O14 0.581759 0.284510 0.283458
O O15 0.496828 0.780171 0.670582
O O16 0.434942 0.000000 0.665876
O O17 0.974720 0.000000 0.268500
O O18 0.311341 0.000000 0.398920
#
# Coordination Sequence:
#
# PCOD8097467 Si02
#       7
#     8   8   8   8   8   8   8
#     4  10  20  34  53  80 111 140 173 218 268 316
#     4  11  22  35  55  79 108 144 180 219 265 320
#     4   9  17  33  57  80 103 137 181 226 266 309
#     4  11  20  33  57  81 108 142 178 220 268 318
#     4  12  23  34  50  77 112 146 179 219 266 315
#     4  10  21  38  56  77 105 143 186 222 263 318
#     4  10  20  34  54  79 110 142 174 215 265 320
#
# _framework density 18.045445000000001
#
# number of rings (size 3 to 8) (size 9 to 14) (size 15 to 20)
#    0.000    1.571    2.857    3.429    0.000    4.000 
#    0.000    2.143    0.000    0.857    0.000    0.000 
#    0.000    0.000    0.000    0.000    0.000    0.000 
#
# Total GULP energy -347321.799493 kJ/mol
# GULP energy per Si atom -12404.349982 kJ/mol
# Density = 1.800437 g / cm^3
# Si number density = 18.045445 Si / 1000 Ang^3
#
#
#
# Elastic Constant Matrix: (Units=GPa)
#
#
# Indices 1 2 3 4 5 6 
#
# 1 119.7377 22.6421 59.3537 0.0000 11.4362 0.0000
# 2 22.6421 43.1254 16.7747 0.0000 0.5379 0.0000
# 3 59.3537 16.7747 88.2233 0.0000 -0.1802 0.0000
# 4 0.0000 0.0000 0.0000 14.5882 0.0000 7.5130
# 5 11.4362 0.5379 -0.1802 0.0000 28.5433 0.0000
# 6 0.0000 0.0000 0.0000 7.5130 0.0000 28.1208
#
#
#
# Elastic Compliance Matrix: (Units=1/GPa)
#
#
# Indices 1 2 3 4 5 6 
#
# 1 0.013884 -0.003869 -0.008616 0.000000 -0.005544 0.000000
# 2 -0.003869 0.026125 -0.002363 0.000000 0.001043 0.000000
# 3 -0.008616 -0.002363 0.017588 0.000000 0.003608 0.000000
# 4 0.000000 0.000000 0.000000 0.079485 0.000000 -0.021236
# 5 -0.005544 0.001043 0.003608 0.000000 0.037259 0.000000
# 6 0.000000 0.000000 0.000000 -0.021236 0.000000 0.041234
#
#
# Mechanical properties :
#
#
# Convention : Reuss Voigt Hill
#
# Bulk Modulus (GPa) = 35.83946 49.84747 42.84347
# Shear Modulus (GPa) = 19.64084 24.40485 22.02285
#
# Velocity S-wave (km/s) = 3.30268 3.68150 3.49723
# Velocity P-wave (km/s) = 5.86919 6.76421 6.33253
#
# Compressibility (1/GPa) = 0.02790221
#
# Stress axis : x y z
#
# Youngs Moduli (GPa) = 72.02680 38.27701 56.85641
#
# Poissons Ratio (x) = 0.14808 0.48989
# Poissons Ratio (y) = 0.27865 0.13433
# Poissons Ratio (z) = 0.62060 0.09043
#
# Static dielectric constant tensor:
#      x y z
#    x 3.337440 0.000000 0.102480 
#    y 0.000000 3.211740 0.000000 
#    z 0.102480 0.000000 3.339910 
# 
# 
# High freq. dielectric constant tensor:
#      x y z
#    x 1.698310 0.000000 0.012000 
#    y 0.000000 1.694990 0.000000 
#    z 0.012000 0.000000 1.679310 
# 
# From -- ./inp_files/186837.got.cif
#   From: 2010.06.25/outbox.cif.g09.slc.cpg/sg12_94_cif.got.tgz:186837.got - 2010.06.28 00:19:55.
