data_PCOD8097697
_publ_section_title
;
Structure prediction by ZEFSAII (Michael W. Deem and Ramdas Pophale) SiO2 
 PCOD8097697
Probable space group: C 2/M
;
_chemical_formula_sum "Si O2"
_cell_formula_units_Z 56
_cell_length_a 17.845677
_cell_length_b 9.075503
_cell_length_c 25.193936
_cell_angle_alpha 90.000000
_cell_angle_beta 45.250334
_cell_angle_gamma 90.000000
_cell_volume 2897.837240
_symmetry_space_group_name_H-M "C 2/M"
_symmetry_group_IT_number 12
_symmetry_cell_setting 'monoclinic'
loop_
_space_group_symop_operation_xyz
x,y,z
-x,y,-z
-x,-y,-z
x,-y,z
1/2+x,1/2+y,z
1/2-x,1/2+y,-z
1/2-x,1/2-y,-z
1/2+x,1/2-y,z
loop_
_atom_site_type_symbol
_atom_site_label
_atom_site_fract_x
_atom_site_fract_y
_atom_site_fract_z
Si Si1 0.257012 0.328199 0.416582
Si Si2 0.322247 0.825491 0.845233
Si Si3 0.822126 0.169364 0.267541
Si Si4 0.907426 0.826230 0.006048
Si Si5 0.883628 0.669961 0.699788
Si Si6 0.468461 0.825040 0.867998
Si Si7 0.410843 0.327781 0.434639
O O1 0.229061 0.500000 0.431363
O O2 0.293310 0.275598 0.340702
O O3 0.351014 0.288585 0.409942
O O4 0.151331 0.241348 0.484767
O O5 0.365444 0.763842 0.767772
O O6 0.397129 0.767253 0.854786
O O7 0.323078 0.000000 0.842232
O O8 0.202518 0.772181 0.913806
O O9 0.722985 0.189639 0.279314
O O10 0.913093 0.270822 0.198893
O O11 0.860437 0.000000 0.249248
O O12 0.920191 0.741457 0.945008
O O13 0.908658 0.000000 0.993789
O O14 0.000000 0.781129 0.000000
O O15 0.918846 0.500000 0.684509
O O16 0.973090 0.760977 0.625303
O O17 0.467031 0.000000 0.872712
O O18 0.419514 0.500000 0.440060
#
# Coordination Sequence:
#
# PCOD8097697 Si02
#       7
#     8   8   8   8   8   8   8
#     4   9  19  36  56  78 105 140 183 223 260 312
#     4   9  19  35  55  80 107 139 179 218 261 314
#     4  10  21  37  57  79 104 140 184 223 261 312
#     4  10  20  37  60  81 106 142 182 220 258 309
#     4  10  20  36  57  78 104 139 179 221 264 314
#     4  11  22  35  54  81 112 141 172 217 270 318
#     4  10  20  34  54  80 109 140 175 219 271 321
#
# _framework density 19.324757000000002
#
# number of rings (size 3 to 8) (size 9 to 14) (size 15 to 20)
#    0.000    2.143    0.000    3.000    0.000    4.857 
#    0.000    5.000    0.000    0.000    0.000    0.000 
#    0.000    0.000    0.000    0.000    0.000    0.000 
#
# Total GULP energy -347322.925200 kJ/mol
# GULP energy per Si atom -12404.390186 kJ/mol
# Density = 1.928077 g / cm^3
# Si number density = 19.324757 Si / 1000 Ang^3
#
#
#
# Elastic Constant Matrix: (Units=GPa)
#
#
# Indices 1 2 3 4 5 6 
#
# 1 45.8372 10.8284 0.5501 0.0000 -7.6168 0.0001
# 2 10.8284 43.8647 21.9585 0.0001 -8.7616 0.0002
# 3 0.5501 21.9585 84.1211 0.0000 -16.9593 0.0000
# 4 0.0000 0.0001 0.0000 22.4817 0.0000 7.5097
# 5 -7.6168 -8.7616 -16.9593 0.0000 33.0160 0.0000
# 6 0.0001 0.0002 0.0000 7.5097 0.0000 19.7843
#
#
#
# Elastic Compliance Matrix: (Units=1/GPa)
#
#
# Indices 1 2 3 4 5 6 
#
# 1 0.024108 -0.006163 0.002502 0.000000 0.005211 0.000000
# 2 -0.006163 0.028243 -0.006813 0.000000 0.002574 0.000000
# 3 0.002502 -0.006813 0.014950 0.000000 0.006448 0.000000
# 4 0.000000 0.000000 0.000000 0.050939 0.000000 -0.019336
# 5 0.005211 0.002574 0.006448 0.000000 0.035486 0.000000
# 6 0.000000 0.000000 0.000000 -0.019336 0.000000 0.057884
#
#
# Mechanical properties :
#
#
# Convention : Reuss Voigt Hill
#
# Bulk Modulus (GPa) = 21.57376 26.72188 24.14782
# Shear Modulus (GPa) = 20.16041 24.42214 22.29128
#
# Velocity S-wave (km/s) = 3.23343 3.55882 3.40002
# Velocity P-wave (km/s) = 5.01280 5.54479 5.28549
#
# Compressibility (1/GPa) = 0.04635261
#
# Stress axis : x y z
#
# Youngs Moduli (GPa) = 41.47975 35.40641 66.89055
#
# Poissons Ratio (x) = 0.21820 -0.16734
# Poissons Ratio (y) = 0.25563 0.45575
# Poissons Ratio (z) = -0.10377 0.24124
#
# Static dielectric constant tensor:
#      x y z
#    x 3.620640 0.000000 0.072380 
#    y 0.000000 3.339360 0.000000 
#    z 0.072380 0.000000 3.669260 
# 
# 
# High freq. dielectric constant tensor:
#      x y z
#    x 1.758940 0.000000 0.001340 
#    y 0.000000 1.732490 0.000000 
#    z 0.001340 0.000000 1.767640 
# 
# From -- ./inp_files/342268.got.cif
#   From: 2010.06.25/outbox.cif.g09.slc.cpg/sg12_172_cif.got.tgz:342268.got - 2010.06.28 00:19:55.
