data_PCOD8097918
_publ_section_title
;
Structure prediction by ZEFSAII (Michael W. Deem and Ramdas Pophale) SiO2 
 PCOD8097918
Probable space group: C 2/M
;
_chemical_formula_sum "Si O2"
_cell_formula_units_Z 64
_cell_length_a 16.571182
_cell_length_b 11.698141
_cell_length_c 27.015315
_cell_angle_alpha 90.000000
_cell_angle_beta 39.126470
_cell_angle_gamma 90.000000
_cell_volume 3304.709710
_symmetry_space_group_name_H-M "C 2/M"
_symmetry_group_IT_number 12
_symmetry_cell_setting 'monoclinic'
loop_
_space_group_symop_operation_xyz
x,y,z
-x,y,-z
-x,-y,-z
x,-y,z
1/2+x,1/2+y,z
1/2-x,1/2+y,-z
1/2-x,1/2-y,-z
1/2+x,1/2-y,z
loop_
_atom_site_type_symbol
_atom_site_label
_atom_site_fract_x
_atom_site_fract_y
_atom_site_fract_z
Si Si1 0.276053 0.242240 0.771873
Si Si2 0.599983 0.131977 0.376719
Si Si3 0.412135 0.127937 0.206978
Si Si4 0.865696 0.211036 0.478685
Si Si5 0.284917 0.228860 0.359103
Si Si6 0.862061 0.127554 0.073308
Si Si7 0.021442 0.874524 0.668037
Si Si8 0.293895 0.131843 0.951552
O O1 0.350549 0.149336 0.703048
O O2 0.156394 0.289059 0.798493
O O3 0.224805 0.191044 0.846422
O O4 0.373640 0.340374 0.742075
O O5 0.458717 0.184575 0.449391
O O6 0.699543 0.185538 0.367713
O O7 0.587573 0.000000 0.395001
O O8 0.359383 0.142506 0.287935
O O9 0.561672 0.154334 0.133985
O O10 0.381834 0.000000 0.204664
O O11 0.750000 0.250000 0.500000
O O12 0.807916 0.161148 0.557819
O O13 0.943978 0.122303 0.407456
O O14 0.389793 0.294452 0.341431
O O15 0.792585 0.126051 0.054736
O O16 0.885288 0.000000 0.082764
O O17 0.000000 0.188398 0.000000
O O18 0.036507 0.000000 0.683065
O O19 0.283204 0.000000 0.981786
O O20 0.250000 0.250000 0.000000
#
# Coordination Sequence:
#
# PCOD8097918 Si02
#       8
#     8   8   8   8   8   8   8   8
#     4  10  20  36  55  79 110 140 182 222 264 328
#     4  10  20  34  55  79 106 141 178 225 277 323
#     4  10  21  37  57  79 109 148 183 223 276 332
#     4   9  20  34  49  75 105 136 177 221 266 324
#     4  10  20  35  54  80 107 135 181 227 270 325
#     4  10  20  35  58  84 110 141 177 225 280 328
#     4  10  20  35  53  74 105 142 178 222 273 320
#     4  10  21  39  61  86 116 150 189 233 282 337
#
# _framework density 19.366301
#
# number of rings (size 3 to 8) (size 9 to 14) (size 15 to 20)
#    0.000    2.125    0.000    3.000    0.000    3.500 
#    0.000   11.875    0.000    7.875    0.000    0.000 
#    0.000    0.000    0.000    0.000    0.000    0.000 
#
# Total GULP energy -396463.373563 kJ/mol
# GULP energy per Si atom -12389.480424 kJ/mol
# Density = 1.932222 g / cm^3
# Si number density = 19.366301 Si / 1000 Ang^3
#
#
#
# Elastic Constant Matrix: (Units=GPa)
#
#
# Indices 1 2 3 4 5 6 
#
# 1 74.3640 15.5811 24.6318 0.0000 -16.4981 0.0000
# 2 15.5811 77.3594 36.2097 0.0000 -0.4544 0.0000
# 3 24.6318 36.2097 120.9569 0.0000 -5.5911 0.0000
# 4 0.0000 0.0000 0.0000 14.0465 0.0000 -1.1354
# 5 -16.4981 -0.4544 -5.5911 0.0000 38.7941 0.0000
# 6 0.0000 0.0000 0.0000 -1.1354 0.0000 17.6588
#
#
#
# Elastic Compliance Matrix: (Units=1/GPa)
#
#
# Indices 1 2 3 4 5 6 
#
# 1 0.016106 -0.002106 -0.002350 0.000000 0.006486 0.000000
# 2 -0.002106 0.015317 -0.004218 0.000000 -0.001324 0.000000
# 3 -0.002350 -0.004218 0.010027 0.000000 0.000396 0.000000
# 4 0.000000 0.000000 0.000000 0.071564 0.000000 0.004601
# 5 0.006486 -0.001324 0.000396 0.000000 0.028577 0.000000
# 6 0.000000 0.000000 0.000000 0.004601 0.000000 0.056925
#
#
# Mechanical properties :
#
#
# Convention : Reuss Voigt Hill
#
# Bulk Modulus (GPa) = 41.48803 47.28061 44.38432
# Shear Modulus (GPa) = 22.33170 27.18374 24.75772
#
# Velocity S-wave (km/s) = 3.39945 3.75061 3.57934
# Velocity P-wave (km/s) = 6.07270 6.57442 6.32853
#
# Compressibility (1/GPa) = 0.02410334
#
# Stress axis : x y z
#
# Youngs Moduli (GPa) = 62.08921 65.28574 99.73261
#
# Poissons Ratio (x) = 0.13750 0.23432
# Poissons Ratio (y) = 0.13076 0.42064
# Poissons Ratio (z) = 0.14588 0.27536
#
# Static dielectric constant tensor:
#      x y z
#    x 3.610660 0.000000 -0.001250 
#    y 0.000000 3.633420 0.000000 
#    z -0.001250 0.000000 3.867590 
# 
# 
# High freq. dielectric constant tensor:
#      x y z
#    x 1.765420 0.000000 -0.013110 
#    y 0.000000 1.734000 0.000000 
#    z -0.013110 0.000000 1.765100 
# 
# From -- ./inp_files/315684.got.cif
#   From: 2010.06.25/outbox.cif.g09.slc.cpg/sg12_158_cif.got.tgz:315684.got - 2010.06.28 00:19:55.
