data_PCOD8097077
_publ_section_title
;
Structure prediction by ZEFSAII (Michael W. Deem and Ramdas Pophale) SiO2 
 PCOD8097077
Probable space group: C 2/M
;
_chemical_formula_sum "Si O2"
_cell_formula_units_Z 56
_cell_length_a 15.347454
_cell_length_b 9.055406
_cell_length_c 22.928581
_cell_angle_alpha 90.000000
_cell_angle_beta 119.235687
_cell_angle_gamma 90.000000
_cell_volume 2780.645553
_symmetry_space_group_name_H-M "C 2/M"
_symmetry_group_IT_number 12
_symmetry_cell_setting 'monoclinic'
loop_
_space_group_symop_operation_xyz
x,y,z
-x,y,-z
-x,-y,-z
x,-y,z
1/2+x,1/2+y,z
1/2-x,1/2+y,-z
1/2-x,1/2-y,-z
1/2+x,1/2-y,z
loop_
_atom_site_type_symbol
_atom_site_label
_atom_site_fract_x
_atom_site_fract_y
_atom_site_fract_z
Si Si1 0.016829 0.166114 0.573614
Si Si2 0.437421 0.164833 0.707021
Si Si3 0.137345 0.668527 0.696851
Si Si4 0.665215 0.828119 0.436843
Si Si5 0.263093 0.323854 0.168085
Si Si6 0.057542 0.172312 0.077797
Si Si7 0.041516 0.827688 0.836065
O O1 0.121362 0.237183 0.631325
O O2 0.000000 0.155312 0.500000
O O3 0.937027 0.283292 0.567843
O O4 0.005392 0.000000 0.596208
O O5 0.535424 0.172703 0.699490
O O6 0.342939 0.212455 0.635132
O O7 0.449888 0.269122 0.766604
O O8 0.421082 0.000000 0.725428
O O9 0.170090 0.500000 0.693563
O O10 0.221115 0.749272 0.763383
O O11 0.750000 0.750000 0.500000
O O12 0.683176 0.000000 0.449917
O O13 0.262268 0.500000 0.174568
O O14 0.157775 0.268353 0.109294
O O15 0.350074 0.270633 0.150923
O O16 0.982451 0.220160 0.105560
O O17 0.086298 0.000000 0.092319
O O18 0.000000 0.208122 0.000000
O O19 0.040042 0.000000 0.828406
#
# Coordination Sequence:
#
# PCOD8097077 Si02
#       7
#     8   8   8   8   8   8   8
#     4  10  20  34  52  76 108 144 182 229 282 333
#     4   8  16  31  52  77 103 136 178 226 275 326
#     4   9  17  32  55  79 105 141 184 227 275 334
#     4  10  20  34  52  75 105 142 184 230 282 337
#     4  10  20  36  59  86 114 146 188 237 285 337
#     4  10  22  40  59  83 118 154 188 231 283 343
#     4   9  19  36  58  83 111 146 188 230 280 339
#
# _framework density 20.139208
#
# number of rings (size 3 to 8) (size 9 to 14) (size 15 to 20)
#    0.000    2.571    0.000    2.571    0.000    7.143 
#    2.571    0.000    0.000    0.000    0.000    0.000 
#    0.000    0.000    0.000    0.000    0.000    0.000 
#
# Total GULP energy -346931.614778 kJ/mol
# GULP energy per Si atom -12390.414813 kJ/mol
# Density = 2.009337 g / cm^3
# Si number density = 20.139208 Si / 1000 Ang^3
#
#
#
# Elastic Constant Matrix: (Units=GPa)
#
#
# Indices 1 2 3 4 5 6 
#
# 1 56.6941 31.4013 51.0687 0.0000 4.7720 0.0000
# 2 31.4013 71.5197 64.5075 0.0000 4.7174 0.0000
# 3 51.0687 64.5075 160.7771 0.0000 6.5091 0.0000
# 4 0.0000 0.0000 0.0000 34.6743 0.0000 6.3025
# 5 4.7720 4.7174 6.5091 0.0000 26.3258 0.0000
# 6 0.0000 0.0000 0.0000 6.3025 0.0000 24.6005
#
#
#
# Elastic Compliance Matrix: (Units=1/GPa)
#
#
# Indices 1 2 3 4 5 6 
#
# 1 0.026541 -0.006242 -0.005835 0.000000 -0.002250 0.000000
# 2 -0.006242 0.023462 -0.007380 0.000000 -0.001248 0.000000
# 3 -0.005835 -0.007380 0.011049 0.000000 -0.000352 0.000000
# 4 0.000000 0.000000 0.000000 0.030248 0.000000 -0.007749
# 5 -0.002250 -0.001248 -0.000352 0.000000 0.038704 0.000000
# 6 0.000000 0.000000 0.000000 -0.007749 0.000000 0.042635
#
#
# Mechanical properties :
#
#
# Convention : Reuss Voigt Hill
#
# Bulk Modulus (GPa) = 45.17267 64.77176 54.97221
# Shear Modulus (GPa) = 22.83822 26.58768 24.71295
#
# Velocity S-wave (km/s) = 3.37117 3.63739 3.50681
# Velocity P-wave (km/s) = 6.13449 7.06206 6.61455
#
# Compressibility (1/GPa) = 0.02213728
#
# Stress axis : x y z
#
# Youngs Moduli (GPa) = 37.67746 42.62293 90.50972
#
# Poissons Ratio (x) = 0.26604 0.52812
# Poissons Ratio (y) = 0.23517 0.66798
# Poissons Ratio (z) = 0.21985 0.31457
#
# Static dielectric constant tensor:
#      x y z
#    x 3.383700 0.000000 -0.104310 
#    y 0.000000 3.820930 0.000000 
#    z -0.104310 0.000000 3.728570 
# 
# 
# High freq. dielectric constant tensor:
#      x y z
#    x 1.755620 0.000000 0.003570 
#    y 0.000000 1.789670 0.000000 
#    z 0.003570 0.000000 1.798500 
# 
# From -- ./inp_files/339108.got.cif
#   From: 2010.06.25/outbox.cif.g09.slc.cpg/sg12_170_cif.got.tgz:339108.got - 2010.06.28 00:19:55.
