data_PCOD8097520
_publ_section_title
;
Structure prediction by ZEFSAII (Michael W. Deem and Ramdas Pophale) SiO2 
 PCOD8097520
Probable space group: C 2/M
;
_chemical_formula_sum "Si O2"
_cell_formula_units_Z 48
_cell_length_a 21.406583
_cell_length_b 11.638507
_cell_length_c 26.533772
_cell_angle_alpha 90.000000
_cell_angle_beta 21.791338
_cell_angle_gamma 90.000000
_cell_volume 2454.051717
_symmetry_space_group_name_H-M "C 2/M"
_symmetry_group_IT_number 12
_symmetry_cell_setting 'monoclinic'
loop_
_space_group_symop_operation_xyz
x,y,z
-x,y,-z
-x,-y,-z
x,-y,z
1/2+x,1/2+y,z
1/2-x,1/2+y,-z
1/2-x,1/2-y,-z
1/2+x,1/2-y,z
loop_
_atom_site_type_symbol
_atom_site_label
_atom_site_fract_x
_atom_site_fract_y
_atom_site_fract_z
Si Si1 0.762845 0.130653 0.330686
Si Si2 0.284177 0.500000 0.841467
Si Si3 0.973811 0.500000 0.140397
Si Si4 0.366033 0.875689 0.462170
Si Si5 0.445382 0.775734 0.855685
Si Si6 0.014083 0.201157 0.697392
Si Si7 0.000000 0.804516 0.500000
Si Si8 0.874506 0.000000 0.656189
O O1 0.661190 0.138935 0.458591
O O2 0.664425 0.223278 0.370692
O O3 0.957216 0.168687 0.190875
O O4 0.758011 0.000000 0.312674
O O5 0.361490 0.612359 0.809724
O O6 0.313842 0.500000 0.759328
O O7 0.088915 0.500000 0.003688
O O8 0.010281 0.391013 0.148156
O O9 0.783056 0.500000 0.264276
O O10 0.188884 0.867716 0.565340
O O11 0.496911 0.781716 0.343655
O O12 0.444415 0.000000 0.392019
O O13 0.506727 0.782855 0.751986
O O14 0.250000 0.750000 0.000000
O O15 0.011548 0.887413 0.441829
#
# Coordination Sequence:
#
# PCOD8097520 Si02
#       8
#     8   4   4   8   8   8   4   4
#     4  10  21  37  62  85 119 155 198 251 302 364
#     4  12  22  39  62  81 123 160 205 241 302 359
#     4  12  24  43  60  89 121 161 215 241 303 357
#     4   9  18  33  51  81 114 143 191 239 304 356
#     4  11  23  38  60  86 120 158 203 256 294 356
#     4  10  20  34  53  84 111 155 193 244 299 353
#     4  11  21  42  60  92 121 153 206 244 306 365
#     4  11  25  40  62  92 125 161 197 256 298 362
#
# _framework density 19.55949
#
# number of rings (size 3 to 8) (size 9 to 14) (size 15 to 20)
#    0.000    1.500    4.167    1.500    3.500    0.000 
#    0.000    0.000    0.000    0.000    0.000    1.167 
#    0.000    0.000    0.000    0.000    0.000    0.000 
#
# Total GULP energy -297479.519010 kJ/mol
# GULP energy per Si atom -12394.979959 kJ/mol
# Density = 1.951497 g / cm^3
# Si number density = 19.559490 Si / 1000 Ang^3
#
#
#
# Elastic Constant Matrix: (Units=GPa)
#
#
# Indices 1 2 3 4 5 6 
#
# 1 60.6543 31.6660 11.9019 0.0000 5.9467 -0.0014
# 2 31.6660 130.9938 33.6041 0.0109 6.3686 -0.0001
# 3 11.9019 33.6041 76.2749 0.0048 -4.1116 0.0001
# 4 0.0000 0.0109 0.0048 22.5077 0.0022 -0.3976
# 5 5.9467 6.3686 -4.1116 0.0022 35.2170 0.0025
# 6 -0.0014 -0.0001 0.0001 -0.3976 0.0025 27.5120
#
#
#
# Elastic Compliance Matrix: (Units=1/GPa)
#
#
# Indices 1 2 3 4 5 6 
#
# 1 0.019180 -0.004176 -0.001295 0.000003 -0.002635 0.000001
# 2 -0.004176 0.009660 -0.003684 -0.000004 -0.001472 0.000000
# 3 -0.001295 -0.003684 0.015078 -0.000002 0.002645 0.000000
# 4 0.000003 -0.000004 -0.000002 0.044441 -0.000003 0.000642
# 5 -0.002635 -0.001472 0.002645 -0.000003 0.029415 -0.000003
# 6 0.000001 0.000000 0.000000 0.000642 -0.000003 0.036357
#
#
# Mechanical properties :
#
#
# Convention : Reuss Voigt Hill
#
# Bulk Modulus (GPa) = 39.04989 46.91856 42.98422
# Shear Modulus (GPa) = 27.62803 29.76407 28.69605
#
# Velocity S-wave (km/s) = 3.76242 3.90516 3.83445
# Velocity P-wave (km/s) = 6.23558 6.66133 6.45197
#
# Compressibility (1/GPa) = 0.02560827
#
# Stress axis : x y z
#
# Youngs Moduli (GPa) = 52.13897 103.51993 66.32194
#
# Poissons Ratio (x) = 0.43231 0.08588
# Poissons Ratio (y) = 0.21774 0.24430
# Poissons Ratio (z) = 0.06752 0.38132
#
# Static dielectric constant tensor:
#      x y z
#    x 3.423340 0.000020 0.009510 
#    y 0.000020 3.841000 0.000030 
#    z 0.009510 0.000030 3.526860 
# 
# 
# High freq. dielectric constant tensor:
#      x y z
#    x 1.744780 0.000000 0.000230 
#    y 0.000000 1.775450 0.000000 
#    z 0.000230 0.000000 1.748770 
# 
# From -- ./inp_files/382792.got.cif
#   From: 2010.06.25/outbox.cif.g09.slc.cpg/sg12_192_cif.got.tgz:382792.got - 2010.06.28 00:19:55.
