data_PCOD8097891
_publ_section_title
;
Structure prediction by ZEFSAII (Michael W. Deem and Ramdas Pophale) SiO2 
 PCOD8097891
Probable space group: C 2/M
;
_chemical_formula_sum "Si O2"
_cell_formula_units_Z 64
_cell_length_a 9.767157
_cell_length_b 22.256499
_cell_length_c 22.189840
_cell_angle_alpha 90.000000
_cell_angle_beta 46.327460
_cell_angle_gamma 90.000000
_cell_volume 3488.964590
_symmetry_space_group_name_H-M "C 2/M"
_symmetry_group_IT_number 12
_symmetry_cell_setting 'monoclinic'
loop_
_space_group_symop_operation_xyz
x,y,z
-x,y,-z
-x,-y,-z
x,-y,z
1/2+x,1/2+y,z
1/2-x,1/2+y,-z
1/2-x,1/2-y,-z
1/2+x,1/2-y,z
loop_
_atom_site_type_symbol
_atom_site_label
_atom_site_fract_x
_atom_site_fract_y
_atom_site_fract_z
Si Si1 0.342137 0.805824 0.002690
Si Si2 0.890362 0.312917 0.177296
Si Si3 0.129132 0.429641 0.607210
Si Si4 0.697526 0.567800 0.574502
Si Si5 0.029538 0.759049 0.559759
Si Si6 0.063497 0.193918 0.183198
Si Si7 0.694389 0.860228 0.344131
Si Si8 0.329518 0.624110 0.660809
O O1 0.179223 0.838502 0.092403
O O2 0.500000 0.780505 0.000000
O O3 0.250000 0.750000 0.000000
O O4 0.449680 0.842191 0.916406
O O5 0.705461 0.292380 0.195466
O O6 0.838664 0.365221 0.240241
O O7 0.971312 0.256119 0.189254
O O8 0.127845 0.500000 0.622619
O O9 0.230306 0.414303 0.513577
O O10 0.243212 0.394464 0.623442
O O11 0.915588 0.404667 0.668000
O O12 0.754907 0.500000 0.573836
O O13 0.797036 0.610996 0.592168
O O14 0.469553 0.572881 0.643446
O O15 0.250000 0.750000 0.500000
O O16 0.000000 0.773267 0.500000
O O17 0.914090 0.702312 0.618692
O O18 0.955353 0.815570 0.619964
O O19 0.903612 0.147951 0.253713
#
# Coordination Sequence:
#
# PCOD8097891 Si02
#       8
#     8   8   8   8   8   8   8   8
#     4   8  16  32  52  77 114 149 178 214 266 332
#     4  10  20  34  55  84 117 149 180 220 275 343
#     4  11  25  41  57  78 106 150 200 245 278 314
#     4  11  23  41  59  76 103 146 200 244 273 315
#     4  12  24  34  50  77 114 147 175 215 280 341
#     4  10  20  34  54  85 117 148 181 221 274 342
#     4  12  22  37  58  82 113 146 187 230 284 335
#     4  12  22  37  57  82 112 146 187 230 282 335
#
# _framework density 18.343551000000001
#
# number of rings (size 3 to 8) (size 9 to 14) (size 15 to 20)
#    0.000    1.250    2.500    5.250    1.750    2.000 
#    0.000    0.000    0.000    0.000    0.000    5.250 
#    0.000    0.000    0.000    0.000    0.000    0.000 
#
# Total GULP energy -396662.079992 kJ/mol
# GULP energy per Si atom -12395.690000 kJ/mol
# Density = 1.830180 g / cm^3
# Si number density = 18.343551 Si / 1000 Ang^3
#
#
#
# Elastic Constant Matrix: (Units=GPa)
#
#
# Indices 1 2 3 4 5 6 
#
# 1 96.3354 31.3195 23.4478 0.0000 -4.6792 -0.0007
# 2 31.3195 66.2351 43.0431 0.0000 0.9670 0.0000
# 3 23.4478 43.0431 114.0322 -0.0002 -9.4834 0.0002
# 4 0.0000 0.0000 -0.0002 13.8418 0.0000 3.3106
# 5 -4.6792 0.9670 -9.4834 0.0000 25.2604 0.0001
# 6 -0.0007 0.0000 0.0002 3.3106 0.0001 15.3573
#
#
#
# Elastic Compliance Matrix: (Units=1/GPa)
#
#
# Indices 1 2 3 4 5 6 
#
# 1 0.012427 -0.005810 -0.000157 0.000000 0.002465 0.000001
# 2 -0.005810 0.023065 -0.007922 0.000000 -0.004933 0.000000
# 3 -0.000157 -0.007922 0.012196 0.000000 0.004853 0.000000
# 4 0.000000 0.000000 0.000000 0.076172 0.000000 -0.016421
# 5 0.002465 -0.004933 0.004853 0.000000 0.042055 0.000000
# 6 0.000001 0.000000 0.000000 -0.016421 0.000000 0.068655
#
#
# Mechanical properties :
#
#
# Convention : Reuss Voigt Hill
#
# Bulk Modulus (GPa) = 50.22688 52.46929 51.34808
# Shear Modulus (GPa) = 18.58836 22.81140 20.69988
#
# Velocity S-wave (km/s) = 3.18676 3.53025 3.36289
# Velocity P-wave (km/s) = 6.40166 6.72924 6.56749
#
# Compressibility (1/GPa) = 0.01990966
#
# Stress axis : x y z
#
# Youngs Moduli (GPa) = 80.46772 43.35544 81.99707
#
# Poissons Ratio (x) = 0.25190 0.01289
# Poissons Ratio (y) = 0.46753 0.64957
# Poissons Ratio (z) = 0.01265 0.34346
#
# Static dielectric constant tensor:
#      x y z
#    x 3.567070 0.000000 -0.073380 
#    y 0.000000 3.155350 0.000000 
#    z -0.073380 0.000000 4.009340 
# 
# 
# High freq. dielectric constant tensor:
#      x y z
#    x 1.734720 0.000000 -0.002800 
#    y 0.000000 1.671830 0.000000 
#    z -0.002800 0.000000 1.717760 
# 
# From -- ./inp_files/302288.got.cif
#   From: 2010.06.25/outbox.cif.g09.slc.cpg/sg12_152_cif.got.tgz:302288.got - 2010.06.28 00:19:55.
