data_PCOD8097456
_publ_section_title
;
Structure prediction by ZEFSAII (Michael W. Deem and Ramdas Pophale) SiO2 
 PCOD8097456
Probable space group: C 2/M
;
_chemical_formula_sum "Si O2"
_cell_formula_units_Z 64
_cell_length_a 30.596782
_cell_length_b 13.825183
_cell_length_c 9.507702
_cell_angle_alpha 90.000000
_cell_angle_beta 124.474028
_cell_angle_gamma 90.000000
_cell_volume 3315.516187
_symmetry_space_group_name_H-M "C 2/M"
_symmetry_group_IT_number 12
_symmetry_cell_setting 'monoclinic'
loop_
_space_group_symop_operation_xyz
x,y,z
-x,y,-z
-x,-y,-z
x,-y,z
1/2+x,1/2+y,z
1/2-x,1/2+y,-z
1/2-x,1/2-y,-z
1/2+x,1/2-y,z
loop_
_atom_site_type_symbol
_atom_site_label
_atom_site_fract_x
_atom_site_fract_y
_atom_site_fract_z
Si Si1 0.134683 0.741655 0.259553
Si Si2 0.722519 0.389139 0.939658
Si Si3 0.664028 0.112946 0.775013
Si Si4 0.549714 0.113580 0.678937
Si Si5 0.733480 0.111721 0.411267
Si Si6 0.190491 0.890046 0.190823
Si Si7 0.185444 0.223506 0.621807
Si Si8 0.551086 0.105493 0.002568
O O1 0.174952 0.651455 0.323811
O O2 0.142477 0.821833 0.152990
O O3 0.139289 0.794305 0.421142
O O4 0.078892 0.691827 0.136444
O O5 0.709070 0.500000 0.894637
O O6 0.681907 0.334797 0.761815
O O7 0.785646 0.368191 0.027207
O O8 0.710380 0.354182 0.075658
O O9 0.608110 0.152077 0.736491
O O10 0.678893 0.164514 0.654594
O O11 0.661012 0.000000 0.732592
O O12 0.500000 0.158602 0.500000
O O13 0.549942 0.000000 0.654429
O O14 0.539999 0.140695 0.823475
O O15 0.761407 0.120590 0.612437
O O16 0.760123 0.186311 0.349817
O O17 0.734198 0.000000 0.357428
O O18 0.169706 0.000000 0.147115
O O19 0.580932 0.000000 0.049956
O O20 0.500000 0.087077 0.000000
#
# Coordination Sequence:
#
# PCOD8097456 Si02
#       8
#     8   8   8   8   8   8   8   8
#     4  11  22  35  55  83 111 151 194 227 280 337
#     4  10  20  34  53  79 112 150 190 227 270 326
#     4  10  21  33  53  81 113 152 188 225 277 333
#     4   9  20  38  57  78 108 147 190 231 279 329
#     4  10  20  35  52  77 115 152 188 228 271 326
#     4   9  19  36  54  78 115 153 187 229 275 325
#     4  11  22  33  52  81 113 147 188 231 268 323
#     4  10  23  40  58  82 113 147 187 237 283 329
#
# _framework density 19.303179
#
# number of rings (size 3 to 8) (size 9 to 14) (size 15 to 20)
#    0.000    2.000    0.000    4.125    5.250    2.500 
#    0.000    0.000    0.000    0.375    0.000    0.000 
#    0.000    4.500    0.000    0.000    0.000    0.000 
#
# Total GULP energy -396439.904352 kJ/mol
# GULP energy per Si atom -12388.747011 kJ/mol
# Density = 1.925924 g / cm^3
# Si number density = 19.303179 Si / 1000 Ang^3
#
#
#
# Elastic Constant Matrix: (Units=GPa)
#
#
# Indices 1 2 3 4 5 6 
#
# 1 80.9486 47.6625 53.4639 0.0000 -12.0358 0.0000
# 2 47.6625 70.5841 44.4420 0.0000 -2.6416 0.0000
# 3 53.4639 44.4420 114.6577 0.0000 -13.9622 0.0000
# 4 0.0000 0.0000 0.0000 29.6761 0.0000 -3.8130
# 5 -12.0358 -2.6416 -13.9622 0.0000 29.8245 0.0000
# 6 0.0000 0.0000 0.0000 -3.8130 0.0000 22.6900
#
#
#
# Elastic Compliance Matrix: (Units=1/GPa)
#
#
# Indices 1 2 3 4 5 6 
#
# 1 0.024567 -0.012719 -0.005785 0.000000 0.006079 0.000000
# 2 -0.012719 0.025423 -0.004532 0.000000 -0.005003 0.000000
# 3 -0.005785 -0.004532 0.013619 0.000000 0.003640 0.000000
# 4 0.000000 0.000000 0.000000 0.034441 0.000000 0.005788
# 5 0.006079 -0.005003 0.003640 0.000000 0.037244 0.000000
# 6 0.000000 0.000000 0.000000 0.005788 0.000000 0.045045
#
#
# Mechanical properties :
#
#
# Convention : Reuss Voigt Hill
#
# Bulk Modulus (GPa) = 57.02651 61.92524 59.47587
# Shear Modulus (GPa) = 21.52780 24.47959 23.00369
#
# Velocity S-wave (km/s) = 3.34315 3.56499 3.45585
# Velocity P-wave (km/s) = 6.67150 7.00682 6.84121
#
# Compressibility (1/GPa) = 0.01753570
#
# Stress axis : x y z
#
# Youngs Moduli (GPa) = 40.70420 39.33478 73.42592
#
# Poissons Ratio (x) = 0.50031 0.42478
# Poissons Ratio (y) = 0.51773 0.33279
# Poissons Ratio (z) = 0.23548 0.17828
#
# Static dielectric constant tensor:
#      x y z
#    x 3.359160 0.000000 -0.159010 
#    y 0.000000 3.627910 0.000000 
#    z -0.159010 0.000000 3.635460 
# 
# 
# High freq. dielectric constant tensor:
#      x y z
#    x 1.722410 0.000000 -0.027480 
#    y 0.000000 1.744200 0.000000 
#    z -0.027480 0.000000 1.749630 
# 
# From -- ./inp_files/111680.got.cif
#   From: 2010.06.25/outbox.cif.g09.slc.cpg/sg12_56_cif.got.tgz:111680.got - 2010.06.28 00:19:55.
