data_PCOD8097079
_publ_section_title
;
Structure prediction by ZEFSAII (Michael W. Deem and Ramdas Pophale) SiO2 
 PCOD8097079
Probable space group: C 2/M
;
_chemical_formula_sum "Si O2"
_cell_formula_units_Z 56
_cell_length_a 28.399681
_cell_length_b 8.961924
_cell_length_c 16.492889
_cell_angle_alpha 90.000000
_cell_angle_beta 133.843356
_cell_angle_gamma 90.000000
_cell_volume 3027.533904
_symmetry_space_group_name_H-M "C 2/M"
_symmetry_group_IT_number 12
_symmetry_cell_setting 'monoclinic'
loop_
_space_group_symop_operation_xyz
x,y,z
-x,y,-z
-x,-y,-z
x,-y,z
1/2+x,1/2+y,z
1/2-x,1/2+y,-z
1/2-x,1/2-y,-z
1/2+x,1/2-y,z
loop_
_atom_site_type_symbol
_atom_site_label
_atom_site_fract_x
_atom_site_fract_y
_atom_site_fract_z
Si Si1 0.130150 0.822751 0.449507
Si Si2 0.650613 0.675707 0.875979
Si Si3 0.243541 0.325383 0.868740
Si Si4 0.831635 0.672633 0.666453
Si Si5 0.012481 0.175464 0.770147
Si Si6 0.479060 0.170669 0.889072
Si Si7 0.232331 0.323109 0.670601
O O1 0.170670 0.764029 0.420142
O O2 0.160311 0.741947 0.564378
O O3 0.054149 0.773466 0.353906
O O4 0.137777 0.000000 0.464754
O O5 0.654040 0.500000 0.868828
O O6 0.679422 0.748970 0.829633
O O7 0.575767 0.730456 0.795875
O O8 0.692059 0.725291 0.004864
O O9 0.232189 0.500000 0.862421
O O10 0.250990 0.277079 0.784324
O O11 0.813654 0.500000 0.628183
O O12 0.902111 0.689113 0.789987
O O13 0.782269 0.743659 0.670538
O O14 0.017232 0.241799 0.865311
O O15 0.013422 0.000000 0.781954
O O16 0.501422 0.000000 0.909406
O O17 0.500000 0.240074 0.000000
O O18 0.233891 0.500000 0.659953
#
# Coordination Sequence:
#
# PCOD8097079 Si02
#       7
#     8   8   8   8   8   8   8
#     4  10  20  36  54  76 105 139 178 215 256 308
#     4   9  18  36  58  79 104 132 168 214 262 311
#     4   9  20  36  54  79 106 133 169 213 260 312
#     4  10  20  34  52  75 106 142 177 213 257 304
#     4   9  19  34  55  78 101 135 174 212 259 309
#     4   9  19  33  48  74 109 139 171 210 251 306
#     4  11  22  35  53  77 106 138 176 218 259 305
#
# _framework density 18.496901999999999
#
# number of rings (size 3 to 8) (size 9 to 14) (size 15 to 20)
#    0.000    2.429    0.000    1.714    2.000    3.143 
#    0.000    0.714    0.000    4.286    0.000    0.000 
#    0.000    0.000    0.000    0.000    0.000    0.000 
#
# Total GULP energy -347216.440050 kJ/mol
# GULP energy per Si atom -12400.587145 kJ/mol
# Density = 1.845480 g / cm^3
# Si number density = 18.496902 Si / 1000 Ang^3
#
#
#
# Elastic Constant Matrix: (Units=GPa)
#
#
# Indices 1 2 3 4 5 6 
#
# 1 111.4096 29.4660 35.7029 0.0000 12.0506 0.0000
# 2 29.4660 44.8589 26.8847 0.0000 1.7278 0.0000
# 3 35.7029 26.8847 73.0908 0.0000 -7.9615 0.0000
# 4 0.0000 0.0000 0.0000 27.7828 0.0000 -2.5908
# 5 12.0506 1.7278 -7.9615 0.0000 16.2760 0.0000
# 6 0.0000 0.0000 0.0000 -2.5908 0.0000 30.9191
#
#
#
# Elastic Compliance Matrix: (Units=1/GPa)
#
#
# Indices 1 2 3 4 5 6 
#
# 1 0.013600 -0.004667 -0.006306 0.000000 -0.012658 0.000000
# 2 -0.004667 0.031396 -0.009776 0.000000 -0.004660 0.000000
# 3 -0.006306 -0.009776 0.022160 0.000000 0.016546 0.000000
# 4 0.000000 0.000000 0.000000 0.036277 0.000000 0.003040
# 5 -0.012658 -0.004660 0.016546 0.000000 0.079401 0.000000
# 6 0.000000 0.000000 0.000000 0.003040 0.000000 0.032597
#
#
# Mechanical properties :
#
#
# Convention : Reuss Voigt Hill
#
# Bulk Modulus (GPa) = 38.97272 45.94071 42.45671
# Shear Modulus (GPa) = 18.83372 24.14930 21.49151
#
# Velocity S-wave (km/s) = 3.19440 3.61721 3.41236
# Velocity P-wave (km/s) = 5.89247 6.50665 6.20716
#
# Compressibility (1/GPa) = 0.02565898
#
# Stress axis : x y z
#
# Youngs Moduli (GPa) = 73.52898 31.85103 45.12634
#
# Poissons Ratio (x) = 0.14864 0.28455
# Poissons Ratio (y) = 0.34314 0.44117
# Poissons Ratio (z) = 0.46364 0.31139
#
# Static dielectric constant tensor:
#      x y z
#    x 3.401000 0.000000 0.138410 
#    y 0.000000 3.395390 0.000000 
#    z 0.138410 0.000000 3.740720 
# 
# 
# High freq. dielectric constant tensor:
#      x y z
#    x 1.710060 0.000000 0.009450 
#    y 0.000000 1.717940 0.000000 
#    z 0.009450 0.000000 1.721270 
# 
# From -- ./inp_files/238909.got.cif
#   From: 2010.06.25/outbox.cif.g09.slc.cpg/sg12_120_cif.got.tgz:238909.got - 2010.06.28 00:19:55.
