data_PCOD8097155
_publ_section_title
;
Structure prediction by ZEFSAII (Michael W. Deem and Ramdas Pophale) SiO2 
 PCOD8097155
Probable space group: C 2/M
;
_chemical_formula_sum "Si O2"
_cell_formula_units_Z 36
_cell_length_a 8.625231
_cell_length_b 10.898769
_cell_length_c 20.641213
_cell_angle_alpha 90.000000
_cell_angle_beta 62.129866
_cell_angle_gamma 90.000000
_cell_volume 1715.300810
_symmetry_space_group_name_H-M "C 2/M"
_symmetry_group_IT_number 12
_symmetry_cell_setting 'monoclinic'
loop_
_space_group_symop_operation_xyz
x,y,z
-x,y,-z
-x,-y,-z
x,-y,z
1/2+x,1/2+y,z
1/2-x,1/2+y,-z
1/2-x,1/2-y,-z
1/2+x,1/2-y,z
loop_
_atom_site_type_symbol
_atom_site_label
_atom_site_fract_x
_atom_site_fract_y
_atom_site_fract_z
Si Si1 0.809572 0.860044 0.941302
Si Si2 0.000000 0.787796 0.500000
Si Si3 0.442220 0.138856 0.251062
Si Si4 0.881356 0.636993 0.404815
Si Si5 0.187348 0.228563 0.844443
O O1 0.711967 0.837406 0.892179
O O2 0.019220 0.853939 0.893609
O O3 0.762574 0.000000 0.974044
O O4 0.750000 0.750000 0.000000
O O5 0.992837 0.706975 0.436727
O O6 0.825275 0.868699 0.538058
O O7 0.415922 0.197625 0.327598
O O8 0.643429 0.141466 0.188025
O O9 0.323468 0.213517 0.224479
O O10 0.374031 0.000000 0.265042
O O11 0.956464 0.500000 0.389553
#
# Coordination Sequence:
#
# PCOD8097155 Si02
#       5
#     8   4   8   8   8
#     4  11  24  40  60  86 115 148 187 231 281 337
#     4  10  20  34  52  78 112 142 180 226 272 322
#     4  10  20  36  57  80 108 144 184 226 274 327
#     4  10  20  34  54  79 108 144 183 224 272 324
#     4  10  22  38  58  82 112 144 184 230 278 328
#
# _framework density 20.987572
#
# number of rings (size 3 to 8) (size 9 to 14) (size 15 to 20)
#    0.000    1.778    0.000    4.000    0.000    7.111 
#    0.000    0.000    0.000   21.333    0.000    0.000 
#    0.000    0.000    0.000    0.000    0.000    0.000 
#
# Total GULP energy -223179.836424 kJ/mol
# GULP energy per Si atom -12398.879801 kJ/mol
# Density = 2.093980 g / cm^3
# Si number density = 20.987572 Si / 1000 Ang^3
#
#
#
# Elastic Constant Matrix: (Units=GPa)
#
#
# Indices 1 2 3 4 5 6 
#
# 1 69.0340 10.7568 12.2104 0.0000 15.2109 0.0000
# 2 10.7568 102.4756 35.7518 0.0000 13.0827 0.0000
# 3 12.2104 35.7518 111.2311 0.0000 21.6781 0.0000
# 4 0.0000 0.0000 0.0000 26.8548 0.0000 -2.3672
# 5 15.2109 13.0827 21.6781 0.0000 33.1336 0.0000
# 6 0.0000 0.0000 0.0000 -2.3672 0.0000 7.6112
#
#
#
# Elastic Compliance Matrix: (Units=1/GPa)
#
#
# Indices 1 2 3 4 5 6 
#
# 1 0.016179 -0.000743 -0.000168 0.000000 -0.007024 0.000000
# 2 -0.000743 0.011184 -0.003116 0.000000 -0.002036 0.000000
# 3 -0.000168 -0.003116 0.011181 0.000000 -0.006008 0.000000
# 4 0.000000 0.000000 0.000000 0.038287 0.000000 0.011908
# 5 -0.007024 -0.002036 -0.006008 0.000000 0.038140 0.000000
# 6 0.000000 0.000000 0.000000 0.011908 0.000000 0.135089
#
#
# Mechanical properties :
#
#
# Convention : Reuss Voigt Hill
#
# Bulk Modulus (GPa) = 32.79915 44.46431 38.63173
# Shear Modulus (GPa) = 18.63746 28.45470 23.54608
#
# Velocity S-wave (km/s) = 2.98321 3.68610 3.35312
# Velocity P-wave (km/s) = 5.24670 6.27283 5.78257
#
# Compressibility (1/GPa) = 0.03048859
#
# Stress axis : x y z
#
# Youngs Moduli (GPa) = 61.80943 89.41734 89.43537
#
# Poissons Ratio (x) = 0.06642 0.01506
# Poissons Ratio (y) = 0.04591 0.27870
# Poissons Ratio (z) = 0.01041 0.27865
#
# Static dielectric constant tensor:
#      x y z
#    x 3.794520 0.000000 0.163400 
#    y 0.000000 3.450100 0.000000 
#    z 0.163400 0.000000 3.946590 
# 
# 
# High freq. dielectric constant tensor:
#      x y z
#    x 1.829080 0.000000 0.008230 
#    y 0.000000 1.804120 0.000000 
#    z 0.008230 0.000000 1.832770 
# 
# From -- ./inp_files/254396.got.cif
#   From: 2010.06.25/outbox.cif.g09.slc.cpg/sg12_128_cif.got.tgz:254396.got - 2010.06.28 00:19:55.
