data_PCOD8097703
_publ_section_title
;
Structure prediction by ZEFSAII (Michael W. Deem and Ramdas Pophale) SiO2 
 PCOD8097703
Probable space group: C 2/M
;
_chemical_formula_sum "Si O2"
_cell_formula_units_Z 40
_cell_length_a 18.008503
_cell_length_b 8.806933
_cell_length_c 25.990898
_cell_angle_alpha 90.000000
_cell_angle_beta 150.022846
_cell_angle_gamma 90.000000
_cell_volume 2059.650432
_symmetry_space_group_name_H-M "C 2/M"
_symmetry_group_IT_number 12
_symmetry_cell_setting 'monoclinic'
loop_
_space_group_symop_operation_xyz
x,y,z
-x,y,-z
-x,-y,-z
x,-y,z
1/2+x,1/2+y,z
1/2-x,1/2+y,-z
1/2-x,1/2-y,-z
1/2+x,1/2-y,z
loop_
_atom_site_type_symbol
_atom_site_label
_atom_site_fract_x
_atom_site_fract_y
_atom_site_fract_z
Si Si1 0.346041 0.179165 0.207936
Si Si2 0.167365 0.179747 0.402258
Si Si3 0.665070 0.319496 0.198444
Si Si4 0.332459 0.819254 0.399312
Si Si5 0.669667 0.678982 0.000139
O O1 0.498653 0.268664 0.299301
O O2 0.251701 0.236488 0.200034
O O3 0.255600 0.225686 0.103129
O O4 0.377742 0.000000 0.229718
O O5 0.250000 0.250000 0.500000
O O6 0.248436 0.239396 0.399527
O O7 0.176312 0.000000 0.411621
O O8 0.661778 0.500000 0.197355
O O9 0.747652 0.254598 0.298424
O O10 0.497481 0.255821 0.096550
O O11 0.500000 0.755008 0.500000
O O12 0.334439 0.000000 0.398786
O O13 0.666778 0.500000 0.991067
O O14 0.750000 0.750000 0.000000
#
# Coordination Sequence:
#
# PCOD8097703 Si02
#       5
#     8   8   8   8   8
#     4  10  20  35  56  80 106 138 180 227 270 314
#     4  11  22  36  56  81 109 140 175 217 267 322
#     4   9  17  32  54  78 105 140 183 225 263 310
#     4   9  17  30  51  77 102 133 175 219 260 307
#     4  10  20  34  54  80 109 143 182 223 268 318
#
# _framework density 19.420771999999999
#
# number of rings (size 3 to 8) (size 9 to 14) (size 15 to 20)
#    0.000    2.200    0.000    3.600    0.000    8.000 
#    0.000    1.000    0.000   15.600    0.000    0.000 
#    0.000    0.000    0.000    0.000    0.000    0.000 
#
# Total GULP energy -248044.306853 kJ/mol
# GULP energy per Si atom -12402.215343 kJ/mol
# Density = 1.937657 g / cm^3
# Si number density = 19.420772 Si / 1000 Ang^3
#
#
#
# Elastic Constant Matrix: (Units=GPa)
#
#
# Indices 1 2 3 4 5 6 
#
# 1 221.5611 34.9501 118.0615 0.0000 -1.4405 0.0000
# 2 34.9501 26.7869 35.9682 0.0000 -1.8780 -0.0001
# 3 118.0615 35.9682 204.7910 0.0000 0.4270 0.0000
# 4 0.0000 0.0000 0.0000 25.5451 0.0001 2.7313
# 5 -1.4405 -1.8780 0.4270 0.0001 48.2669 0.0000
# 6 0.0000 -0.0001 0.0000 2.7313 0.0000 29.3586
#
#
#
# Elastic Compliance Matrix: (Units=1/GPa)
#
#
# Indices 1 2 3 4 5 6 
#
# 1 0.006963 -0.004830 -0.003166 0.000000 0.000048 0.000000
# 2 -0.004830 0.052393 -0.006421 0.000000 0.001951 0.000000
# 3 -0.003166 -0.006421 0.007837 0.000000 -0.000414 0.000000
# 4 0.000000 0.000000 0.000000 0.039540 0.000000 -0.003679
# 5 0.000048 0.001951 -0.000414 0.000000 0.020799 0.000000
# 6 0.000000 0.000000 0.000000 -0.003679 0.000000 0.034404
#
#
# Mechanical properties :
#
#
# Convention : Reuss Voigt Hill
#
# Bulk Modulus (GPa) = 26.07033 92.34429 59.20731
# Shear Modulus (GPa) = 24.56327 38.24473 31.40400
#
# Velocity S-wave (km/s) = 3.56025 4.44246 4.02560
# Velocity P-wave (km/s) = 5.50941 8.60037 7.22219
#
# Compressibility (1/GPa) = 0.03835778
#
# Stress axis : x y z
#
# Youngs Moduli (GPa) = 143.62587 19.08639 127.60514
#
# Poissons Ratio (x) = 0.09219 0.40395
# Poissons Ratio (y) = 0.69376 0.81941
# Poissons Ratio (z) = 0.45466 0.12256
#
# Static dielectric constant tensor:
#      x y z
#    x 3.817510 0.000000 -0.012550 
#    y 0.000000 3.102940 0.000000 
#    z -0.012550 0.000000 3.842270 
# 
# 
# High freq. dielectric constant tensor:
#      x y z
#    x 1.777790 0.000000 -0.000560 
#    y 0.000000 1.707710 0.000000 
#    z -0.000560 0.000000 1.779090 
# 
# From -- ./inp_files/141112.got.cif
#   From: 2010.06.25/outbox.cif.g09.slc.cpg/sg12_71_cif.got.tgz:141112.got - 2010.06.28 00:19:55.
