data_PCOD8097554
_publ_section_title
;
Structure prediction by ZEFSAII (Michael W. Deem and Ramdas Pophale) SiO2 
 PCOD8097554
Probable space group: C 2/M
;
_chemical_formula_sum "Si O2"
_cell_formula_units_Z 56
_cell_length_a 18.115607
_cell_length_b 9.195747
_cell_length_c 18.591336
_cell_angle_alpha 90.000000
_cell_angle_beta 75.428212
_cell_angle_gamma 90.000000
_cell_volume 2997.443509
_symmetry_space_group_name_H-M "C 2/M"
_symmetry_group_IT_number 12
_symmetry_cell_setting 'monoclinic'
loop_
_space_group_symop_operation_xyz
x,y,z
-x,y,-z
-x,-y,-z
x,-y,z
1/2+x,1/2+y,z
1/2-x,1/2+y,-z
1/2-x,1/2-y,-z
1/2+x,1/2-y,z
loop_
_atom_site_type_symbol
_atom_site_label
_atom_site_fract_x
_atom_site_fract_y
_atom_site_fract_z
Si Si1 0.875422 0.334007 0.843726
Si Si2 0.324047 0.832415 0.007923
Si Si3 0.439292 0.672345 0.571605
Si Si4 0.770467 0.827304 0.568643
Si Si5 0.839602 0.831381 0.297965
Si Si6 0.703646 0.668658 0.853183
Si Si7 0.986587 0.829557 0.715239
O O1 0.887327 0.500000 0.817122
O O2 0.791896 0.281335 0.837529
O O3 0.940420 0.239119 0.791786
O O4 0.885162 0.317205 0.928084
O O5 0.349127 0.757825 0.076971
O O6 0.304807 0.000000 0.027144
O O7 0.250000 0.750000 0.000000
O O8 0.500000 0.737685 0.500000
O O9 0.447300 0.500000 0.571476
O O10 0.355514 0.721023 0.568674
O O11 0.457380 0.734763 0.646398
O O12 0.750000 0.750000 0.500000
O O13 0.715259 0.773232 0.644534
O O14 0.763431 0.000000 0.561358
O O15 0.828183 0.796313 0.217306
O O16 0.925009 0.790776 0.298772
O O17 0.821100 0.000000 0.319786
O O18 0.696567 0.500000 0.874905
O O19 0.972663 0.000000 0.723070
#
# Coordination Sequence:
#
# PCOD8097554 Si02
#       7
#     8   8   8   8   8   8   8
#     4   9  18  32  50  74 104 135 168 213 264 308
#     4   9  17  30  50  76 104 136 175 218 265 314
#     4   9  18  34  55  78 104 133 168 210 253 301
#     4  11  22  36  57  82 107 138 174 213 259 309
#     4  10  21  37  55  77 107 139 173 216 262 307
#     4   9  18  33  53  77 105 137 173 216 265 313
#     4  10  20  34  54  77 101 136 177 214 257 309
#
# _framework density 18.682587000000002
#
# number of rings (size 3 to 8) (size 9 to 14) (size 15 to 20)
#    0.000    2.429    0.000    3.429    0.000    6.286 
#    0.000    1.429    0.000    7.286    0.000    0.000 
#    0.000    0.000    0.000    0.000    0.000    0.000 
#
# Total GULP energy -347167.223481 kJ/mol
# GULP energy per Si atom -12398.829410 kJ/mol
# Density = 1.864006 g / cm^3
# Si number density = 18.682587 Si / 1000 Ang^3
#
#
#
# Elastic Constant Matrix: (Units=GPa)
#
#
# Indices 1 2 3 4 5 6 
#
# 1 117.2106 49.8960 74.2544 0.0000 3.9140 0.0000
# 2 49.8960 69.8918 64.1854 0.0000 -2.3358 0.0000
# 3 74.2544 64.1854 147.6197 0.0000 0.7538 0.0000
# 4 0.0000 0.0000 0.0000 37.9510 0.0000 -2.5579
# 5 3.9140 -2.3358 0.7538 0.0000 30.8059 0.0000
# 6 0.0000 0.0000 0.0000 -2.5579 0.0000 22.9802
#
#
#
# Elastic Compliance Matrix: (Units=1/GPa)
#
#
# Indices 1 2 3 4 5 6 
#
# 1 0.013934 -0.005979 -0.004399 0.000000 -0.002116 0.000000
# 2 -0.005979 0.026516 -0.008537 0.000000 0.002979 0.000000
# 3 -0.004399 -0.008537 0.012701 0.000000 -0.000399 0.000000
# 4 0.000000 0.000000 0.000000 0.026549 0.000000 0.002955
# 5 -0.002116 0.002979 -0.000399 0.000000 0.032966 0.000000
# 6 0.000000 0.000000 0.000000 0.002955 0.000000 0.043845
#
#
# Mechanical properties :
#
#
# Convention : Reuss Voigt Hill
#
# Bulk Modulus (GPa) = 65.26688 79.04373 72.15531
# Shear Modulus (GPa) = 25.06955 28.10649 26.58802
#
# Velocity S-wave (km/s) = 3.66712 3.88290 3.77655
# Velocity P-wave (km/s) = 7.27605 7.90589 7.59750
#
# Compressibility (1/GPa) = 0.01532171
#
# Stress axis : x y z
#
# Youngs Moduli (GPa) = 71.76680 37.71376 78.73674
#
# Poissons Ratio (x) = 0.22548 0.34633
# Poissons Ratio (y) = 0.42908 0.67216
# Poissons Ratio (z) = 0.31567 0.32195
#
# Static dielectric constant tensor:
#      x y z
#    x 3.381780 0.000000 0.194830 
#    y 0.000000 3.432430 0.000000 
#    z 0.194830 0.000000 3.904670 
# 
# 
# High freq. dielectric constant tensor:
#      x y z
#    x 1.709680 0.000000 0.006780 
#    y 0.000000 1.711030 0.000000 
#    z 0.006780 0.000000 1.744690 
# 
# From -- ./inp_files/275187.got.cif
#   From: 2010.06.25/outbox.cif.g09.slc.cpg/sg12_138_cif.got.tgz:275187.got - 2010.06.28 00:19:55.
