data_PCOD8097499
_publ_section_title
;
Structure prediction by ZEFSAII (Michael W. Deem and Ramdas Pophale) SiO2 
 PCOD8097499
Probable space group: C 2/M
;
_chemical_formula_sum "Si O2"
_cell_formula_units_Z 56
_cell_length_a 8.003742
_cell_length_b 21.214939
_cell_length_c 21.158491
_cell_angle_alpha 90.000000
_cell_angle_beta 126.186228
_cell_angle_gamma 90.000000
_cell_volume 2899.666944
_symmetry_space_group_name_H-M "C 2/M"
_symmetry_group_IT_number 12
_symmetry_cell_setting 'monoclinic'
loop_
_space_group_symop_operation_xyz
x,y,z
-x,y,-z
-x,-y,-z
x,-y,z
1/2+x,1/2+y,z
1/2-x,1/2+y,-z
1/2-x,1/2-y,-z
1/2+x,1/2-y,z
loop_
_atom_site_type_symbol
_atom_site_label
_atom_site_fract_x
_atom_site_fract_y
_atom_site_fract_z
Si Si1 0.560429 0.381341 0.760820
Si Si2 0.679732 0.121210 0.754360
Si Si3 0.924551 0.427196 0.916487
Si Si4 0.480307 0.750528 0.686914
Si Si5 0.780938 0.928869 0.334947
Si Si6 0.556371 0.692956 0.582811
Si Si7 0.188932 0.073045 0.086012
O O1 0.332878 0.405140 0.733217
O O2 0.719909 0.388765 0.853597
O O3 0.556718 0.307338 0.745382
O O4 0.647607 0.421616 0.721663
O O5 0.651372 0.194662 0.730057
O O6 0.463110 0.083760 0.708361
O O7 0.797798 0.114481 0.847539
O O8 0.862708 0.500000 0.909859
O O9 0.097989 0.417215 0.902788
O O10 0.000000 0.399872 0.000000
O O11 0.405449 0.725369 0.599966
O O12 0.268276 0.781805 0.662414
O O13 0.925576 0.883075 0.409900
O O14 0.826233 0.000000 0.366627
O O15 0.500000 0.714510 0.500000
O O16 0.154588 0.000000 0.096989
O O17 0.000000 0.096770 0.000000
#
# Coordination Sequence:
#
# PCOD8097499 Si02
#       7
#     8   8   8   8   8   8   8
#     4  11  21  36  59  83 117 156 193 241 290 336
#     4  11  21  36  59  83 117 156 193 241 290 336
#     4  10  20  34  53  81 115 151 195 242 285 334
#     4  10  21  38  57  88 114 144 198 240 281 350
#     4  10  22  37  56  87 119 150 194 237 287 354
#     4  10  20  37  62  85 112 149 187 240 292 341
#     4  10  20  34  53  81 115 151 195 242 285 334
#
# _framework density 19.312560999999999
#
# number of rings (size 3 to 8) (size 9 to 14) (size 15 to 20)
#    0.000    1.714    2.857    2.143    0.000    3.714 
#    0.000    0.714    0.000    3.429    0.000    4.000 
#    0.000    0.000    0.000    0.000    0.000    0.000 
#
# Total GULP energy -347011.566176 kJ/mol
# GULP energy per Si atom -12393.270221 kJ/mol
# Density = 1.926860 g / cm^3
# Si number density = 19.312561 Si / 1000 Ang^3
#
#
#
# Elastic Constant Matrix: (Units=GPa)
#
#
# Indices 1 2 3 4 5 6 
#
# 1 103.1793 21.4326 15.3130 0.0000 -5.6688 0.0000
# 2 21.4326 100.1089 31.4388 0.0000 -4.7066 0.0000
# 3 15.3130 31.4388 85.3302 0.0000 -13.0223 0.0000
# 4 0.0000 0.0000 0.0000 19.4678 0.0000 -0.3573
# 5 -5.6688 -4.7066 -13.0223 0.0000 25.0977 0.0000
# 6 0.0000 0.0000 0.0000 -0.3573 0.0000 19.6144
#
#
#
# Elastic Compliance Matrix: (Units=1/GPa)
#
#
# Indices 1 2 3 4 5 6 
#
# 1 0.010296 -0.001838 -0.000943 0.000000 0.001492 0.000000
# 2 -0.001838 0.011624 -0.004000 0.000000 -0.000311 0.000000
# 3 -0.000943 -0.004000 0.014352 0.000000 0.006483 0.000000
# 4 0.000000 0.000000 0.000000 0.051384 0.000000 0.000936
# 5 0.001492 -0.000311 0.006483 0.000000 0.043487 0.000000
# 6 0.000000 0.000000 0.000000 0.000936 0.000000 0.051000
#
#
# Mechanical properties :
#
#
# Convention : Reuss Voigt Hill
#
# Bulk Modulus (GPa) = 44.03514 47.22081 45.62798
# Shear Modulus (GPa) = 24.59722 27.53155 26.06439
#
# Velocity S-wave (km/s) = 3.57268 3.77978 3.67769
# Velocity P-wave (km/s) = 6.31423 6.59946 6.45842
#
# Compressibility (1/GPa) = 0.02270913
#
# Stress axis : x y z
#
# Youngs Moduli (GPa) = 97.12960 86.02643 69.67808
#
# Poissons Ratio (x) = 0.15812 0.06569
# Poissons Ratio (y) = 0.17852 0.27874
# Poissons Ratio (z) = 0.09157 0.34414
#
# Static dielectric constant tensor:
#      x y z
#    x 3.712090 0.000000 -0.039630 
#    y 0.000000 3.501940 0.000000 
#    z -0.039630 0.000000 3.324610 
# 
# 
# High freq. dielectric constant tensor:
#      x y z
#    x 1.768960 0.000000 -0.003910 
#    y 0.000000 1.735900 0.000000 
#    z -0.003910 0.000000 1.738530 
# 
# From -- ./inp_files/257606.got.cif
#   From: 2010.06.25/outbox.cif.g09.slc.cpg/sg12_129_cif.got.tgz:257606.got - 2010.06.28 00:19:55.
