data_PCOD8097083
_publ_section_title
;
Structure prediction by ZEFSAII (Michael W. Deem and Ramdas Pophale) SiO2 
 PCOD8097083
Probable space group: C 2/M
;
_chemical_formula_sum "Si O2"
_cell_formula_units_Z 48
_cell_length_a 20.358322
_cell_length_b 9.174453
_cell_length_c 27.058518
_cell_angle_alpha 90.000000
_cell_angle_beta 147.342077
_cell_angle_gamma 90.000000
_cell_volume 2727.193552
_symmetry_space_group_name_H-M "C 2/M"
_symmetry_group_IT_number 12
_symmetry_cell_setting 'monoclinic'
loop_
_space_group_symop_operation_xyz
x,y,z
-x,y,-z
-x,-y,-z
x,-y,z
1/2+x,1/2+y,z
1/2-x,1/2+y,-z
1/2-x,1/2-y,-z
1/2+x,1/2-y,z
loop_
_atom_site_type_symbol
_atom_site_label
_atom_site_fract_x
_atom_site_fract_y
_atom_site_fract_z
Si Si1 0.764386 0.166239 0.245204
Si Si2 0.377918 0.172856 0.572160
Si Si3 0.970547 0.328567 0.426903
Si Si4 0.500059 0.172933 0.054536
Si Si5 0.739908 0.172114 0.045172
Si Si6 0.913135 0.166876 0.242419
O O1 0.840243 0.265175 0.330228
O O2 0.624646 0.217251 0.161073
O O3 0.807485 0.185475 0.216061
O O4 0.780743 0.000000 0.272547
O O5 0.250000 0.250000 0.500000
O O6 0.427031 0.216675 0.548564
O O7 0.472860 0.229032 0.673575
O O8 0.362963 0.000000 0.568281
O O9 0.956661 0.500000 0.419420
O O10 0.000000 0.266763 0.500000
O O11 0.490877 0.000000 0.044140
O O12 0.500000 0.242606 0.000000
O O13 0.384708 0.234369 0.010721
O O14 0.854407 0.212049 0.152788
O O15 0.732960 0.000000 0.032917
O O16 0.750000 0.250000 0.000000
O O17 0.959852 0.000000 0.270961
#
# Coordination Sequence:
#
# PCOD8097083 Si02
#       6
#     8   8   8   8   8   8
#     4   9  16  29  54  81  99 125 171 217 249 288
#     4  10  20  35  56  78 101 133 172 213 253 303
#     4   9  19  36  54  73 103 137 163 200 258 311
#     4   9  15  29  54  78  99 129 171 212 247 291
#     4  10  20  34  52  75 107 140 169 208 257 304
#     4   9  17  32  54  76 100 135 174 211 253 301
#
# _framework density 17.60051
#
# number of rings (size 3 to 8) (size 9 to 14) (size 15 to 20)
#    0.000    2.667    1.667    0.500    0.000    1.667 
#    3.000    0.833    0.000    1.000    0.000    0.000 
#    0.000    0.000    0.000    0.000    0.000    0.000 
#
# Total GULP energy -297551.047988 kJ/mol
# GULP energy per Si atom -12397.960333 kJ/mol
# Density = 1.756045 g / cm^3
# Si number density = 17.600510 Si / 1000 Ang^3
#
#
#
# Elastic Constant Matrix: (Units=GPa)
#
#
# Indices 1 2 3 4 5 6 
#
# 1 116.5601 39.6819 89.6332 0.0000 -2.7816 -0.0001
# 2 39.6819 39.7059 47.4149 0.0000 1.0740 -0.0001
# 3 89.6332 47.4149 142.6288 -0.0001 -1.9462 0.0000
# 4 0.0000 0.0000 -0.0001 28.5833 0.0000 -4.3994
# 5 -2.7816 1.0740 -1.9462 0.0000 37.2691 0.0000
# 6 -0.0001 -0.0001 0.0000 -4.3994 0.0000 22.0348
#
#
#
# Elastic Compliance Matrix: (Units=1/GPa)
#
#
# Indices 1 2 3 4 5 6 
#
# 1 0.017853 -0.007449 -0.008729 0.000000 0.001091 0.000000
# 2 -0.007449 0.045012 -0.010315 0.000000 -0.002392 0.000000
# 3 -0.008729 -0.010315 0.015932 0.000000 0.000478 0.000000
# 4 0.000000 0.000000 0.000000 0.036095 0.000000 0.007206
# 5 0.001091 -0.002392 0.000478 0.000000 0.027007 0.000000
# 6 0.000000 0.000000 0.000000 0.007206 0.000000 0.046822
#
#
# Mechanical properties :
#
#
# Convention : Reuss Voigt Hill
#
# Bulk Modulus (GPa) = 38.74087 72.48387 55.61237
# Shear Modulus (GPa) = 19.97521 25.72175 22.84848
#
# Velocity S-wave (km/s) = 3.37252 3.82700 3.60692
# Velocity P-wave (km/s) = 6.10116 7.79744 7.00087
#
# Compressibility (1/GPa) = 0.02581253
#
# Stress axis : x y z
#
# Youngs Moduli (GPa) = 56.01184 22.21627 62.76603
#
# Poissons Ratio (x) = 0.16549 0.54786
# Poissons Ratio (y) = 0.41723 0.64744
# Poissons Ratio (z) = 0.48890 0.22916
#
# Static dielectric constant tensor:
#      x y z
#    x 3.303880 0.000000 0.022600 
#    y 0.000000 3.054710 0.000000 
#    z 0.022600 0.000000 3.391950 
# 
# 
# High freq. dielectric constant tensor:
#      x y z
#    x 1.669090 0.000000 0.003070 
#    y 0.000000 1.659230 0.000000 
#    z 0.003070 0.000000 1.690610 
# 
# From -- ./inp_files/230354.got.cif
#   From: 2010.06.25/outbox.cif.g09.slc.cpg/sg12_116_cif.got.tgz:230354.got - 2010.06.28 00:19:55.
