data_PCOD8097337
_publ_section_title
;
Structure prediction by ZEFSAII (Michael W. Deem and Ramdas Pophale) SiO2 
 PCOD8097337
Probable space group: C 2/M
;
_chemical_formula_sum "Si O2"
_cell_formula_units_Z 56
_cell_length_a 20.135933
_cell_length_b 8.970447
_cell_length_c 29.491418
_cell_angle_alpha 90.000000
_cell_angle_beta 147.972635
_cell_angle_gamma 90.000000
_cell_volume 2825.029418
_symmetry_space_group_name_H-M "C 2/M"
_symmetry_group_IT_number 12
_symmetry_cell_setting 'monoclinic'
loop_
_space_group_symop_operation_xyz
x,y,z
-x,y,-z
-x,-y,-z
x,-y,z
1/2+x,1/2+y,z
1/2-x,1/2+y,-z
1/2-x,1/2-y,-z
1/2+x,1/2-y,z
loop_
_atom_site_type_symbol
_atom_site_label
_atom_site_fract_x
_atom_site_fract_y
_atom_site_fract_z
Si Si1 0.167232 0.337719 0.506321
Si Si2 0.394960 0.163402 0.630677
Si Si3 0.063838 0.326038 0.904442
Si Si4 0.048458 0.176522 0.575522
Si Si5 0.729965 0.826983 0.916960
Si Si6 0.159004 0.177085 0.784127
Si Si7 0.714070 0.823617 0.235154
O O1 0.151965 0.500000 0.521172
O O2 0.293532 0.261293 0.599998
O O3 0.173806 0.363102 0.456607
O O4 0.048894 0.231276 0.443812
O O5 0.524422 0.248796 0.701284
O O6 0.417037 0.000000 0.666477
O O7 0.076874 0.500000 0.925352
O O8 0.106994 0.301808 0.877283
O O9 0.922691 0.265220 0.829574
O O10 0.147938 0.227120 0.985956
O O11 0.185742 0.235935 0.669592
O O12 0.000000 0.244263 0.500000
O O13 0.047730 0.000000 0.573934
O O14 0.722048 0.731065 0.866902
O O15 0.745258 0.000000 0.913277
O O16 0.246168 0.229058 0.792391
O O17 0.142792 0.000000 0.775443
O O18 0.713839 0.000000 0.236022
#
# Coordination Sequence:
#
# PCOD8097337 Si02
#       7
#     8   8   8   8   8   8   8
#     4  10  20  34  53  77 107 144 186 232 282 333
#     4  10  20  34  54  78 107 144 185 230 280 332
#     4   9  19  39  62  81 110 152 195 233 279 340
#     4  10  20  35  56  81 111 149 194 239 285 340
#     4  10  21  37  59  87 117 146 186 237 287 343
#     4  11  21  35  58  85 117 149 188 237 287 344
#     4   9  19  36  58  83 110 147 193 238 282 337
#
# _framework density 19.822804000000001
#
# number of rings (size 3 to 8) (size 9 to 14) (size 15 to 20)
#    0.000    2.143    1.429    1.714    0.000    3.714 
#    0.000    7.857    0.000    0.000    0.000    0.000 
#    0.000    0.000    0.000    0.000    0.000    0.000 
#
# Total GULP energy -347050.064050 kJ/mol
# GULP energy per Si atom -12394.645145 kJ/mol
# Density = 1.977769 g / cm^3
# Si number density = 19.822804 Si / 1000 Ang^3
#
#
#
# Elastic Constant Matrix: (Units=GPa)
#
#
# Indices 1 2 3 4 5 6 
#
# 1 81.4582 24.5595 71.7477 0.0001 14.8855 0.0000
# 2 24.5595 50.8672 33.5313 -0.0001 -3.5306 0.0001
# 3 71.7477 33.5313 111.8566 0.0003 17.7010 0.0000
# 4 0.0001 -0.0001 0.0003 24.1265 0.0001 0.9107
# 5 14.8855 -3.5306 17.7010 0.0001 41.1054 0.0000
# 6 0.0000 0.0001 0.0000 0.9107 0.0000 23.5259
#
#
#
# Elastic Compliance Matrix: (Units=1/GPa)
#
#
# Indices 1 2 3 4 5 6 
#
# 1 0.028797 -0.002871 -0.017085 0.000000 -0.003317 0.000000
# 2 -0.002871 0.026075 -0.006969 0.000000 0.006280 0.000000
# 3 -0.017085 -0.006969 0.022647 0.000000 -0.004164 0.000000
# 4 0.000000 0.000000 0.000000 0.041509 0.000000 -0.001607
# 5 -0.003317 0.006280 -0.004164 0.000000 0.027861 0.000000
# 6 0.000000 0.000000 0.000000 -0.001607 0.000000 0.042569
#
#
# Mechanical properties :
#
#
# Convention : Reuss Voigt Hill
#
# Bulk Modulus (GPa) = 42.25090 55.98433 49.11761
# Shear Modulus (GPa) = 19.90471 25.37444 22.63958
#
# Velocity S-wave (km/s) = 3.17224 3.58168 3.38316
# Velocity P-wave (km/s) = 5.89729 6.73857 6.33192
#
# Compressibility (1/GPa) = 0.02366814
#
# Stress axis : x y z
#
# Youngs Moduli (GPa) = 34.72628 38.35106 44.15645
#
# Poissons Ratio (x) = 0.11012 0.75442
# Poissons Ratio (y) = 0.09971 0.30771
# Poissons Ratio (z) = 0.59330 0.26725
#
# Static dielectric constant tensor:
#      x y z
#    x 3.662640 0.000000 0.059360 
#    y 0.000000 3.740820 0.000000 
#    z 0.059360 0.000000 3.771930 
# 
# 
# High freq. dielectric constant tensor:
#      x y z
#    x 1.763280 0.000000 0.009390 
#    y 0.000000 1.767000 0.000000 
#    z 0.009390 0.000000 1.771990 
# 
# From -- ./inp_files/275592.got.cif
#   From: 2010.06.25/outbox.cif.g09.slc.cpg/sg12_138_cif.got.tgz:275592.got - 2010.06.28 00:19:55.
