data_PCOD8097982
_publ_section_title
;
Structure prediction by ZEFSAII (Michael W. Deem and Ramdas Pophale) SiO2 
 PCOD8097982
Probable space group: C 2/M
;
_chemical_formula_sum "Si O2"
_cell_formula_units_Z 64
_cell_length_a 27.773361
_cell_length_b 9.266100
_cell_length_c 12.932739
_cell_angle_alpha 90.000000
_cell_angle_beta 89.822833
_cell_angle_gamma 90.000000
_cell_volume 3328.234045
_symmetry_space_group_name_H-M "C 2/M"
_symmetry_group_IT_number 12
_symmetry_cell_setting 'monoclinic'
loop_
_space_group_symop_operation_xyz
x,y,z
-x,y,-z
-x,-y,-z
x,-y,z
1/2+x,1/2+y,z
1/2-x,1/2+y,-z
1/2-x,1/2-y,-z
1/2+x,1/2-y,z
loop_
_atom_site_type_symbol
_atom_site_label
_atom_site_fract_x
_atom_site_fract_y
_atom_site_fract_z
Si Si1 0.053420 0.334516 0.617944
Si Si2 0.296889 0.834601 0.278009
Si Si3 0.559644 0.167506 0.389875
Si Si4 0.394937 0.169434 0.182620
Si Si5 0.302329 0.831324 0.727575
Si Si6 0.797721 0.337477 0.502693
Si Si7 0.889276 0.831134 0.790863
Si Si8 0.055070 0.168380 0.001627
O O1 0.068856 0.500000 0.617980
O O2 0.071564 0.275685 0.506206
O O3 0.078747 0.261079 0.716804
O O4 0.996735 0.316786 0.629884
O O5 0.337635 0.801887 0.192724
O O6 0.251705 0.729848 0.261092
O O7 0.323389 0.811401 0.391285
O O8 0.278796 0.000000 0.269496
O O9 0.585512 0.272066 0.311013
O O10 0.575756 0.000000 0.374761
O O11 0.406299 0.000000 0.172199
O O12 0.413413 0.247888 0.081411
O O13 0.324882 0.801716 0.610833
O O14 0.337830 0.748825 0.805883
O O15 0.301149 0.000000 0.755656
O O16 0.780271 0.500000 0.512489
O O17 0.750000 0.250000 0.500000
O O18 0.923161 0.795401 0.887088
O O19 0.879753 0.000000 0.779139
O O20 0.057814 0.000000 0.975248
O O21 0.000000 0.222983 0.000000
#
# Coordination Sequence:
#
# PCOD8097982 Si02
#       8
#     8   8   8   8   8   8   8   8
#     4   8  16  31  53  83 115 145 176 219 277 333
#     4   9  18  33  53  80 116 150 180 225 278 326
#     4   9  17  32  55  81 112 147 181 219 270 338
#     4  10  20  34  58  86 112 144 186 230 277 331
#     4  10  20  34  55  81 110 149 191 229 269 328
#     4   8  15  28  48  74 106 145 180 215 261 314
#     4  11  23  37  55  80 110 145 186 233 285 331
#     4  10  23  43  62  80 108 146 186 234 288 334
#
# _framework density 19.229414999999999
#
# number of rings (size 3 to 8) (size 9 to 14) (size 15 to 20)
#    0.000    2.625    0.000    2.250    1.750    2.250 
#    0.000    2.500    0.000    0.000    0.000    0.000 
#    0.000    0.000    0.000    0.000    0.000    0.000 
#
# Total GULP energy -396515.009569 kJ/mol
# GULP energy per Si atom -12391.094049 kJ/mol
# Density = 1.918565 g / cm^3
# Si number density = 19.229415 Si / 1000 Ang^3
#
#
#
# Elastic Constant Matrix: (Units=GPa)
#
#
# Indices 1 2 3 4 5 6 
#
# 1 86.2292 52.1762 64.2173 0.0000 3.4312 0.0000
# 2 52.1762 76.6245 52.5316 0.0000 3.1285 0.0000
# 3 64.2173 52.5316 95.2662 0.0000 -3.4849 0.0000
# 4 0.0000 0.0000 0.0000 24.3758 0.0000 -3.9248
# 5 3.4312 3.1285 -3.4849 0.0000 33.2789 0.0000
# 6 0.0000 0.0000 0.0000 -3.9248 0.0000 28.5170
#
#
#
# Elastic Compliance Matrix: (Units=1/GPa)
#
#
# Indices 1 2 3 4 5 6 
#
# 1 0.027358 -0.009269 -0.013454 0.000000 -0.003358 0.000000
# 2 -0.009269 0.024467 -0.007321 0.000000 -0.002111 0.000000
# 3 -0.013454 -0.007321 0.023770 0.000000 0.004565 0.000000
# 4 0.000000 0.000000 0.000000 0.041954 0.000000 0.005774
# 5 -0.003358 -0.002111 0.004565 0.000000 0.031072 0.000000
# 6 0.000000 0.000000 0.000000 0.005774 0.000000 0.035861
#
#
# Mechanical properties :
#
#
# Convention : Reuss Voigt Hill
#
# Bulk Modulus (GPa) = 64.48087 66.21890 65.34989
# Shear Modulus (GPa) = 20.02089 23.18069 21.60079
#
# Velocity S-wave (km/s) = 3.23020 3.47577 3.35523
# Velocity P-wave (km/s) = 6.89329 7.11470 7.00487
#
# Compressibility (1/GPa) = 0.01550848
#
# Stress axis : x y z
#
# Youngs Moduli (GPa) = 36.55201 40.87084 42.07006
#
# Poissons Ratio (x) = 0.37881 0.56600
# Poissons Ratio (y) = 0.33878 0.30800
# Poissons Ratio (z) = 0.49176 0.29922
#
# Static dielectric constant tensor:
#      x y z
#    x 3.674000 0.000000 0.134140 
#    y 0.000000 3.334870 0.000000 
#    z 0.134140 0.000000 3.848100 
# 
# 
# High freq. dielectric constant tensor:
#      x y z
#    x 1.752290 0.000000 0.004280 
#    y 0.000000 1.727450 0.000000 
#    z 0.004280 0.000000 1.743410 
# 
# From -- ./inp_files/187633.got.cif
#   From: 2010.06.25/outbox.cif.g09.slc.cpg/sg12_94_cif.got.tgz:187633.got - 2010.06.28 00:19:55.
