data_PCOD8097814
_publ_section_title
;
Structure prediction by ZEFSAII (Michael W. Deem and Ramdas Pophale) SiO2 
 PCOD8097814
Probable space group: C 2/M
;
_chemical_formula_sum "Si O2"
_cell_formula_units_Z 64
_cell_length_a 32.200965
_cell_length_b 9.079203
_cell_length_c 24.678406
_cell_angle_alpha 90.000000
_cell_angle_beta 26.677908
_cell_angle_gamma 90.000000
_cell_volume 3239.331501
_symmetry_space_group_name_H-M "C 2/M"
_symmetry_group_IT_number 12
_symmetry_cell_setting 'monoclinic'
loop_
_space_group_symop_operation_xyz
x,y,z
-x,y,-z
-x,-y,-z
x,-y,z
1/2+x,1/2+y,z
1/2-x,1/2+y,-z
1/2-x,1/2-y,-z
1/2+x,1/2-y,z
loop_
_atom_site_type_symbol
_atom_site_label
_atom_site_fract_x
_atom_site_fract_y
_atom_site_fract_z
Si Si1 0.144328 0.828988 0.480750
Si Si2 0.430216 0.672769 0.736967
Si Si3 0.934272 0.668640 0.030817
Si Si4 0.373521 0.327474 0.918745
Si Si5 0.982730 0.828996 0.163223
Si Si6 0.799362 0.675100 0.811109
Si Si7 0.273718 0.324601 0.416014
Si Si8 0.776239 0.831898 0.725900
O O1 0.207135 0.729602 0.446166
O O2 0.161108 0.787016 0.398385
O O3 0.038432 0.794803 0.617609
O O4 0.169097 0.000000 0.462222
O O5 0.412876 0.500000 0.747562
O O6 0.378135 0.732302 0.851871
O O7 0.391976 0.763267 0.730736
O O8 0.961830 0.500000 0.989310
O O9 0.828759 0.688209 0.171732
O O10 0.000000 0.739029 0.000000
O O11 0.949737 0.751704 0.957297
O O12 0.357267 0.500000 0.935403
O O13 0.472988 0.292258 0.829897
O O14 0.288586 0.259809 0.052593
O O15 0.878007 0.772882 0.280951
O O16 0.987653 0.000000 0.144664
O O17 0.800842 0.500000 0.809251
O O18 0.798376 0.727737 0.750423
O O19 0.266675 0.500000 0.430245
O O20 0.250000 0.250000 0.500000
O O21 0.795260 0.000000 0.721625
#
# Coordination Sequence:
#
# PCOD8097814 Si02
#       8
#     8   8   8   8   8   8   8   8
#     4  10  22  41  63  85 116 158 201 246 294 348
#     4  10  21  39  62  84 111 151 196 244 298 355
#     4  10  20  34  54  82 114 147 187 237 286 336
#     4   9  18  35  58  84 115 147 186 238 292 349
#     4  10  20  36  57  83 114 150 191 232 285 345
#     4  11  22  37  59  86 117 152 191 244 300 350
#     4  11  23  38  60  88 121 159 198 243 291 346
#     4  10  21  38  59  84 117 156 197 240 292 356
#
# _framework density 19.757162000000001
#
# number of rings (size 3 to 8) (size 9 to 14) (size 15 to 20)
#    0.000    1.875    1.250    2.625    0.000    5.750 
#    0.000    3.750    0.000    0.000    0.000    0.000 
#    0.000    0.000    0.000    0.000    0.000    0.000 
#
# Total GULP energy -396837.729505 kJ/mol
# GULP energy per Si atom -12401.179047 kJ/mol
# Density = 1.971219 g / cm^3
# Si number density = 19.757162 Si / 1000 Ang^3
#
#
#
# Elastic Constant Matrix: (Units=GPa)
#
#
# Indices 1 2 3 4 5 6 
#
# 1 110.1370 39.6654 29.5242 -0.0213 2.6678 0.0072
# 2 39.6654 55.5642 29.7912 -0.0031 -1.1203 0.0023
# 3 29.5242 29.7912 83.2395 -0.0447 9.3337 0.0098
# 4 -0.0213 -0.0031 -0.0447 23.5164 0.0091 1.8941
# 5 2.6678 -1.1203 9.3337 0.0091 35.2350 0.0018
# 6 0.0072 0.0023 0.0098 1.8941 0.0018 35.9581
#
#
#
# Elastic Compliance Matrix: (Units=1/GPa)
#
#
# Indices 1 2 3 4 5 6 
#
# 1 0.012398 -0.008117 -0.001400 0.000008 -0.000826 -0.000002
# 2 -0.008117 0.027877 -0.007489 -0.000019 0.003485 0.000003
# 3 -0.001400 -0.007489 0.015671 0.000030 -0.004283 -0.000005
# 4 0.000008 -0.000019 0.000030 0.042705 -0.000020 -0.002249
# 5 -0.000826 0.003485 -0.004283 -0.000020 0.029689 0.000001
# 6 -0.000002 0.000003 -0.000005 -0.002249 0.000001 0.027929
#
#
# Mechanical properties :
#
#
# Convention : Reuss Voigt Hill
#
# Bulk Modulus (GPa) = 45.59006 49.65583 47.62295
# Shear Modulus (GPa) = 25.30486 28.93920 27.12203
#
# Velocity S-wave (km/s) = 3.58270 3.83135 3.70911
# Velocity P-wave (km/s) = 6.34347 6.69029 6.51919
#
# Compressibility (1/GPa) = 0.02193461
#
# Stress axis : x y z
#
# Youngs Moduli (GPa) = 80.65771 35.87195 63.81354
#
# Poissons Ratio (x) = 0.29116 0.08933
# Poissons Ratio (y) = 0.65467 0.47790
# Poissons Ratio (z) = 0.11292 0.26864
#
# Static dielectric constant tensor:
#      x y z
#    x 3.649780 -0.000030 -0.002540 
#    y -0.000030 3.433080 0.000110 
#    z -0.002540 0.000110 3.803000 
# 
# 
# High freq. dielectric constant tensor:
#      x y z
#    x 1.781540 0.000000 -0.000800 
#    y 0.000000 1.749850 0.000000 
#    z -0.000800 0.000000 1.777360 
# 
# From -- ./inp_files/353364.got.cif
#   From: 2010.06.25/outbox.cif.g09.slc.cpg/sg12_177_cif.got.tgz:353364.got - 2010.06.28 00:19:55.
