data_PCOD8097340
_publ_section_title
;
Structure prediction by ZEFSAII (Michael W. Deem and Ramdas Pophale) SiO2 
 PCOD8097340
Probable space group: C 2/M
;
_chemical_formula_sum "Si O2"
_cell_formula_units_Z 48
_cell_length_a 18.761854
_cell_length_b 8.771713
_cell_length_c 31.371948
_cell_angle_alpha 90.000000
_cell_angle_beta 151.343360
_cell_angle_gamma 90.000000
_cell_volume 2475.963302
_symmetry_space_group_name_H-M "C 2/M"
_symmetry_group_IT_number 12
_symmetry_cell_setting 'monoclinic'
loop_
_space_group_symop_operation_xyz
x,y,z
-x,y,-z
-x,-y,-z
x,-y,z
1/2+x,1/2+y,z
1/2-x,1/2+y,-z
1/2-x,1/2-y,-z
1/2+x,1/2-y,z
loop_
_atom_site_type_symbol
_atom_site_label
_atom_site_fract_x
_atom_site_fract_y
_atom_site_fract_z
Si Si1 0.470929 0.679488 0.860044
Si Si2 0.159882 0.680941 0.662293
Si Si3 0.646524 0.321096 0.481157
Si Si4 0.080590 0.180090 0.826973
Si Si5 0.390326 0.320096 0.980522
Si Si6 0.218411 0.679099 0.356912
O O1 0.470366 0.500000 0.864799
O O2 0.301650 0.735261 0.764623
O O3 0.568554 0.728986 0.870393
O O4 0.540925 0.749447 0.939730
O O5 0.148185 0.500000 0.654168
O O6 0.177521 0.742654 0.623666
O O7 0.016284 0.749862 0.609467
O O8 0.635965 0.500000 0.468498
O O9 0.750000 0.250000 0.500000
O O10 0.711970 0.278857 0.561344
O O11 0.235094 0.238666 0.889248
O O12 0.948661 0.257161 0.731192
O O13 0.065697 0.000000 0.813828
O O14 0.362855 0.500000 0.969154
O O15 0.500000 0.277483 0.000000
O O16 0.216189 0.500000 0.347142
#
# Coordination Sequence:
#
# PCOD8097340 Si02
#       6
#     8   8   8   8   8   8
#     4   8  17  34  54  78 106 138 178 221 266 319
#     4  10  20  36  59  84 111 144 184 231 278 324
#     4  11  24  39  56  81 113 148 184 224 273 330
#     4  10  20  35  56  80 106 138 180 229 275 320
#     4  10  20  34  53  77 108 145 180 217 268 328
#     4  10  21  38  59  82 109 143 185 229 273 326
#
# _framework density 19.386393000000002
#
# number of rings (size 3 to 8) (size 9 to 14) (size 15 to 20)
#    0.000    2.167    0.000    4.000    0.000    6.333 
#    0.000    7.500    0.000    0.000    0.000    0.000 
#    0.000    0.000    0.000    0.000    0.000    0.000 
#
# Total GULP energy -297661.967830 kJ/mol
# GULP energy per Si atom -12402.581993 kJ/mol
# Density = 1.934227 g / cm^3
# Si number density = 19.386393 Si / 1000 Ang^3
#
#
#
# Elastic Constant Matrix: (Units=GPa)
#
#
# Indices 1 2 3 4 5 6 
#
# 1 83.9730 25.5441 38.6899 -0.0001 27.2506 -0.0003
# 2 25.5441 51.0766 26.3000 -0.0001 2.6151 -0.0005
# 3 38.6899 26.3000 82.3743 -0.0003 23.4444 0.0001
# 4 -0.0001 -0.0001 -0.0003 32.0134 -0.0001 6.6641
# 5 27.2506 2.6151 23.4444 -0.0001 30.3638 0.0001
# 6 -0.0003 -0.0005 0.0001 6.6641 0.0001 31.6678
#
#
#
# Elastic Compliance Matrix: (Units=1/GPa)
#
#
# Indices 1 2 3 4 5 6 
#
# 1 0.020784 -0.008243 -0.002593 0.000000 -0.015941 0.000000
# 2 -0.008243 0.027262 -0.008036 0.000000 0.011254 0.000000
# 3 -0.002593 -0.008036 0.019307 0.000000 -0.011887 0.000000
# 4 0.000000 0.000000 0.000000 0.032668 0.000000 -0.006875
# 5 -0.015941 0.011254 -0.011887 0.000000 0.055449 0.000000
# 6 0.000000 0.000000 0.000000 -0.006875 0.000000 0.033024
#
#
# Mechanical properties :
#
#
# Convention : Reuss Voigt Hill
#
# Bulk Modulus (GPa) = 33.77334 44.27688 39.02511
# Shear Modulus (GPa) = 21.17676 27.26832 24.22254
#
# Velocity S-wave (km/s) = 3.30866 3.75450 3.53861
# Velocity P-wave (km/s) = 5.66174 6.45629 6.07203
#
# Compressibility (1/GPa) = 0.02960916
#
# Stress axis : x y z
#
# Youngs Moduli (GPa) = 48.11426 36.68075 51.79582
#
# Poissons Ratio (x) = 0.30235 0.13432
# Poissons Ratio (y) = 0.39660 0.41621
# Poissons Ratio (z) = 0.12477 0.29475
#
# Static dielectric constant tensor:
#      x y z
#    x 3.540360 0.000000 -0.030630 
#    y 0.000000 3.427270 0.000000 
#    z -0.030630 0.000000 3.758200 
# 
# 
# High freq. dielectric constant tensor:
#      x y z
#    x 1.751560 0.000000 0.006910 
#    y 0.000000 1.747880 0.000000 
#    z 0.006910 0.000000 1.766760 
# 
# From -- ./inp_files/244882.got.cif
#   From: 2010.06.25/outbox.cif.g09.slc.cpg/sg12_123_cif.got.tgz:244882.got - 2010.06.28 00:19:55.
