data_PCOD8097905
_publ_section_title
;
Structure prediction by ZEFSAII (Michael W. Deem and Ramdas Pophale) SiO2 
 PCOD8097905
Probable space group: C 2/M
;
_chemical_formula_sum "Si O2"
_cell_formula_units_Z 28
_cell_length_a 13.109059
_cell_length_b 26.850144
_cell_length_c 10.825296
_cell_angle_alpha 90.000000
_cell_angle_beta 158.907497
_cell_angle_gamma 90.000000
_cell_volume 1371.226729
_symmetry_space_group_name_H-M "C 2/M"
_symmetry_group_IT_number 12
_symmetry_cell_setting 'monoclinic'
loop_
_space_group_symop_operation_xyz
x,y,z
-x,y,-z
-x,-y,-z
x,-y,z
1/2+x,1/2+y,z
1/2-x,1/2+y,-z
1/2-x,1/2-y,-z
1/2+x,1/2-y,z
loop_
_atom_site_type_symbol
_atom_site_label
_atom_site_fract_x
_atom_site_fract_y
_atom_site_fract_z
Si Si1 0.703698 0.104990 0.846574
Si Si2 0.964527 0.761366 0.598681
Si Si3 0.303585 0.500000 0.898581
Si Si4 0.254169 0.833438 0.456888
O O1 0.500000 0.102984 0.500000
O O2 0.831508 0.049457 0.016511
O O3 0.524581 0.128180 0.759372
O O4 0.965026 0.138661 0.102694
O O5 0.000000 0.780485 0.500000
O O6 0.770148 0.804470 0.440146
O O7 0.796059 0.709125 0.400375
O O8 0.250000 0.750000 0.000000
O O9 0.000000 0.500000 0.500000
O O10 0.500000 0.500000 0.000000
#
# Coordination Sequence:
#
# PCOD8097905 Si02
#       4
#     8   8   4   8
#     4  11  21  35  58  87 125 161 205 250 316 371
#     4  11  25  41  61  90 126 162 212 256 305 364
#     4  10  20  34  54  88 125 163 199 259 313 374
#     4  11  23  37  58  86 119 167 200 250 309 372
#
# _framework density 20.419671999999998
#
# number of rings (size 3 to 8) (size 9 to 14) (size 15 to 20)
#    0.000    1.143    2.857    5.143    4.000    3.429 
#    0.000    0.000    0.000    0.000    0.000    6.000 
#    0.000    0.000    0.000    0.000    0.000    0.000 
#
# Total GULP energy -173438.858671 kJ/mol
# GULP energy per Si atom -12388.489905 kJ/mol
# Density = 2.037320 g / cm^3
# Si number density = 20.419672 Si / 1000 Ang^3
#
#
#
# Elastic Constant Matrix: (Units=GPa)
#
#
# Indices 1 2 3 4 5 6 
#
# 1 141.1242 71.2796 34.2434 0.0002 25.2228 0.0001
# 2 71.2796 188.0172 43.4996 -0.0003 25.5075 -0.0006
# 3 34.2434 43.4996 76.9532 0.0001 27.1337 -0.0010
# 4 0.0002 -0.0003 0.0001 25.4728 0.0003 11.7636
# 5 25.2228 25.5075 27.1337 0.0003 39.6600 -0.0004
# 6 0.0001 -0.0006 -0.0010 11.7636 -0.0004 35.0076
#
#
#
# Elastic Compliance Matrix: (Units=1/GPa)
#
#
# Indices 1 2 3 4 5 6 
#
# 1 0.009429 -0.002798 -0.001495 0.000000 -0.003174 0.000000
# 2 -0.002798 0.007081 -0.002345 0.000000 -0.001170 0.000000
# 3 -0.001495 -0.002345 0.018607 0.000000 -0.010272 0.000000
# 4 0.000000 0.000000 0.000000 0.046469 0.000000 -0.015615
# 5 -0.003174 -0.001170 -0.010272 0.000000 0.035013 0.000000
# 6 0.000000 0.000000 0.000000 -0.015615 0.000000 0.033812
#
#
# Mechanical properties :
#
#
# Convention : Reuss Voigt Hill
#
# Bulk Modulus (GPa) = 45.78416 78.23776 62.01096
# Shear Modulus (GPa) = 29.24524 37.16621 33.20572
#
# Velocity S-wave (km/s) = 3.78856 4.27091 4.03695
# Velocity P-wave (km/s) = 6.45041 7.91953 7.22242
#
# Compressibility (1/GPa) = 0.02184162
#
# Stress axis : x y z
#
# Youngs Moduli (GPa) = 106.05107 141.22773 53.74235
#
# Poissons Ratio (x) = 0.39520 0.08034
# Poissons Ratio (y) = 0.29676 0.12601
# Poissons Ratio (z) = 0.15854 0.33114
#
# Static dielectric constant tensor:
#      x y z
#    x 3.818240 -0.000090 0.637300 
#    y -0.000090 9.482320 -0.000030 
#    z 0.637300 -0.000030 3.525940 
# 
# 
# High freq. dielectric constant tensor:
#      x y z
#    x 1.783420 0.000000 0.058010 
#    y 0.000000 1.812550 0.000000 
#    z 0.058010 0.000000 1.772970 
# 
# From -- ./inp_files/150064.got.cif
#   From: 2010.06.25/outbox.cif.g09.slc.cpg/sg12_76_cif.got.tgz:150064.got - 2010.06.28 00:19:55.
