data_PCOD8097132
_publ_section_title
;
Structure prediction by ZEFSAII (Michael W. Deem and Ramdas Pophale) SiO2 
 PCOD8097132
Probable space group: C 2/M
;
_chemical_formula_sum "Si O2"
_cell_formula_units_Z 64
_cell_length_a 32.234612
_cell_length_b 9.329052
_cell_length_c 11.317465
_cell_angle_alpha 90.000000
_cell_angle_beta 87.786394
_cell_angle_gamma 90.000000
_cell_volume 3400.829956
_symmetry_space_group_name_H-M "C 2/M"
_symmetry_group_IT_number 12
_symmetry_cell_setting 'monoclinic'
loop_
_space_group_symop_operation_xyz
x,y,z
-x,y,-z
-x,-y,-z
x,-y,z
1/2+x,1/2+y,z
1/2-x,1/2+y,-z
1/2-x,1/2-y,-z
1/2+x,1/2-y,z
loop_
_atom_site_type_symbol
_atom_site_label
_atom_site_fract_x
_atom_site_fract_y
_atom_site_fract_z
Si Si1 0.452540 0.664999 0.494776
Si Si2 0.768708 0.665016 0.331367
Si Si3 0.306859 0.833211 0.579566
Si Si4 0.380951 0.665434 0.673797
Si Si5 0.160069 0.666378 0.851358
Si Si6 0.959514 0.164827 0.073480
Si Si7 0.876351 0.164842 0.942723
Si Si8 0.578023 0.168991 0.721266
O O1 0.500000 0.719337 0.500000
O O2 0.452008 0.500000 0.452389
O O3 0.428328 0.682737 0.622105
O O4 0.427363 0.761226 0.405539
O O5 0.754429 0.500000 0.329537
O O6 0.728052 0.763607 0.332195
O O7 0.795819 0.694867 0.444752
O O8 0.796366 0.704735 0.214792
O O9 0.350898 0.759941 0.596413
O O10 0.309925 0.000000 0.609486
O O11 0.367206 0.500000 0.666278
O O12 0.377552 0.721273 0.808462
O O13 0.156625 0.500000 0.881617
O O14 0.123347 0.710833 0.765753
O O15 0.157346 0.749728 0.975763
O O16 0.956547 0.264899 0.188339
O O17 0.962323 0.000000 0.114937
O O18 0.921634 0.190945 0.989837
O O19 0.000000 0.213949 0.000000
O O20 0.863229 0.000000 0.948792
O O21 0.571732 0.000000 0.711715
#
# Coordination Sequence:
#
# PCOD8097132 Si02
#       8
#     8   8   8   8   8   8   8   8
#     4  10  22  37  56  78 103 139 183 225 264 316
#     4   9  18  34  56  81 110 139 173 218 264 312
#     4  10  20  34  55  84 111 140 175 214 264 320
#     4  10  21  37  55  76 108 144 177 219 269 318
#     4   9  18  34  55  78 106 141 175 215 266 316
#     4   9  18  32  55  78 100 135 180 227 268 311
#     4   9  19  34  52  77 104 137 180 223 267 314
#     4  10  20  34  52  77 110 138 170 217 270 324
#
# _framework density 18.818935
#
# number of rings (size 3 to 8) (size 9 to 14) (size 15 to 20)
#    0.000    2.500    0.000    1.500    1.750    4.000 
#    0.000    0.625    0.000    0.000    0.000    0.000 
#    0.000    0.000    0.000    0.000    0.000    0.000 
#
# Total GULP energy -396863.400689 kJ/mol
# GULP energy per Si atom -12401.981272 kJ/mol
# Density = 1.877610 g / cm^3
# Si number density = 18.818935 Si / 1000 Ang^3
#
#
#
# Elastic Constant Matrix: (Units=GPa)
#
#
# Indices 1 2 3 4 5 6 
#
# 1 88.7886 36.4042 35.3082 0.0000 -21.1657 0.0000
# 2 36.4042 67.3018 39.3178 0.0000 -8.0583 0.0000
# 3 35.3082 39.3178 96.1775 0.0000 -17.2512 0.0000
# 4 0.0000 0.0000 0.0000 31.3745 0.0000 -1.2191
# 5 -21.1657 -8.0583 -17.2512 0.0000 27.4947 0.0000
# 6 0.0000 0.0000 0.0000 -1.2191 0.0000 27.8081
#
#
#
# Elastic Compliance Matrix: (Units=1/GPa)
#
#
# Indices 1 2 3 4 5 6 
#
# 1 0.017272 -0.007207 -0.001565 0.000000 0.010202 0.000000
# 2 -0.007207 0.022543 -0.007189 0.000000 -0.003452 0.000000
# 3 -0.001565 -0.007189 0.015006 0.000000 0.006104 0.000000
# 4 0.000000 0.000000 0.000000 0.031927 0.000000 0.001400
# 5 0.010202 -0.003452 0.006104 0.000000 0.047042 0.000000
# 6 0.000000 0.000000 0.000000 0.001400 0.000000 0.036022
#
#
# Mechanical properties :
#
#
# Convention : Reuss Voigt Hill
#
# Bulk Modulus (GPa) = 43.66924 52.70313 48.18619
# Shear Modulus (GPa) = 23.88150 26.75132 25.31641
#
# Velocity S-wave (km/s) = 3.56619 3.77438 3.67176
# Velocity P-wave (km/s) = 6.34131 6.86009 6.60579
#
# Compressibility (1/GPa) = 0.02289941
#
# Stress axis : x y z
#
# Youngs Moduli (GPa) = 57.89779 44.35886 66.64193
#
# Poissons Ratio (x) = 0.31969 0.10427
# Poissons Ratio (y) = 0.41727 0.47910
# Poissons Ratio (z) = 0.09059 0.31890
#
# Static dielectric constant tensor:
#      x y z
#    x 3.396940 0.000000 -0.191470 
#    y 0.000000 3.407520 0.000000 
#    z -0.191470 0.000000 3.474060 
# 
# 
# High freq. dielectric constant tensor:
#      x y z
#    x 1.725860 0.000000 -0.015820 
#    y 0.000000 1.725650 0.000000 
#    z -0.015820 0.000000 1.727680 
# 
# From -- ./inp_files/187398.got.cif
#   From: 2010.06.25/outbox.cif.g09.slc.cpg/sg12_94_cif.got.tgz:187398.got - 2010.06.28 00:19:55.
