data_PCOD8097630
_publ_section_title
;
Structure prediction by ZEFSAII (Michael W. Deem and Ramdas Pophale) SiO2 
 PCOD8097630
Probable space group: C 2/M
;
_chemical_formula_sum "Si O2"
_cell_formula_units_Z 64
_cell_length_a 31.070779
_cell_length_b 8.820279
_cell_length_c 24.917469
_cell_angle_alpha 90.000000
_cell_angle_beta 149.304333
_cell_angle_gamma 90.000000
_cell_volume 3485.903239
_symmetry_space_group_name_H-M "C 2/M"
_symmetry_group_IT_number 12
_symmetry_cell_setting 'monoclinic'
loop_
_space_group_symop_operation_xyz
x,y,z
-x,y,-z
-x,-y,-z
x,-y,z
1/2+x,1/2+y,z
1/2-x,1/2+y,-z
1/2-x,1/2-y,-z
1/2+x,1/2-y,z
loop_
_atom_site_type_symbol
_atom_site_label
_atom_site_fract_x
_atom_site_fract_y
_atom_site_fract_z
Si Si1 0.385263 0.319894 0.022671
Si Si2 0.005722 0.323747 0.769135
Si Si3 0.749585 0.677610 0.264338
Si Si4 0.034791 0.677285 0.677163
Si Si5 0.332925 0.675789 0.565516
Si Si6 0.919970 0.677531 0.949911
Si Si7 0.363137 0.675025 0.473986
Si Si8 0.701000 0.177503 0.799402
O O1 0.389799 0.500000 0.027355
O O2 0.428188 0.256411 0.121541
O O3 0.431916 0.260421 0.019589
O O4 0.288386 0.260540 0.918173
O O5 0.000921 0.500000 0.777824
O O6 0.913406 0.254215 0.679088
O O7 0.038616 0.292950 0.744586
O O8 0.729707 0.500000 0.245580
O O9 0.661543 0.765556 0.169651
O O10 0.802038 0.726873 0.371862
O O11 0.802618 0.717467 0.267584
O O12 0.022533 0.500000 0.651147
O O13 0.119968 0.747128 0.742647
O O14 0.958166 0.767359 0.568035
O O15 0.335211 0.500000 0.583038
O O16 0.250000 0.750000 0.500000
O O17 0.333154 0.702437 0.502312
O O18 0.911945 0.500000 0.952052
O O19 0.000000 0.718838 0.000000
O O20 0.358037 0.500000 0.451859
O O21 0.698140 0.000000 0.806008
#
# Coordination Sequence:
#
# PCOD8097630 Si02
#       8
#     8   8   8   8   8   8   8   8
#     4  10  20  35  55  78 107 141 175 213 258 310
#     4  10  20  34  54  79 106 138 176 216 259 308
#     4  10  20  35  56  79 105 139 176 213 256 309
#     4   9  18  35  56  76 103 139 177 215 257 308
#     4  10  21  37  56  77 104 137 173 217 264 311
#     4  10  21  37  56  78 106 137 171 216 264 307
#     4  10  21  36  53  77 108 137 170 215 263 308
#     4   8  17  34  54  77 104 136 175 216 257 303
#
# _framework density 18.359660999999999
#
# number of rings (size 3 to 8) (size 9 to 14) (size 15 to 20)
#    0.000    2.375    0.000    3.000    0.000    5.000 
#    0.000    7.500    0.000    0.000    0.000    0.000 
#    0.000    0.000    0.000    0.000    0.000    0.000 
#
# Total GULP energy -396867.882775 kJ/mol
# GULP energy per Si atom -12402.121337 kJ/mol
# Density = 1.831787 g / cm^3
# Si number density = 18.359661 Si / 1000 Ang^3
#
#
#
# Elastic Constant Matrix: (Units=GPa)
#
#
# Indices 1 2 3 4 5 6 
#
# 1 94.1374 42.7909 54.3655 0.0000 26.0667 0.0000
# 2 42.7909 71.0554 33.5258 0.0000 6.7217 0.0000
# 3 54.3655 33.5258 98.0201 0.0000 3.2211 0.0000
# 4 0.0000 0.0000 0.0000 37.5356 0.0000 -2.6513
# 5 26.0667 6.7217 3.2211 0.0000 31.9933 0.0000
# 6 0.0000 0.0000 0.0000 -2.6513 0.0000 23.1764
#
#
#
# Elastic Compliance Matrix: (Units=1/GPa)
#
#
# Indices 1 2 3 4 5 6 
#
# 1 0.025822 -0.008777 -0.010725 0.000000 -0.018115 0.000000
# 2 -0.008777 0.020049 -0.002093 0.000000 0.003149 0.000000
# 3 -0.010725 -0.002093 0.016619 0.000000 0.007504 0.000000
# 4 0.000000 0.000000 0.000000 0.026858 0.000000 0.003072
# 5 -0.018115 0.003149 0.007504 0.000000 0.044598 0.000000
# 6 0.000000 0.000000 0.000000 0.003072 0.000000 0.043499
#
#
# Mechanical properties :
#
#
# Convention : Reuss Voigt Hill
#
# Bulk Modulus (GPa) = 51.80896 58.28635 55.04766
# Shear Modulus (GPa) = 22.01989 27.37644 24.69816
#
# Velocity S-wave (km/s) = 3.46694 3.86569 3.67173
# Velocity P-wave (km/s) = 6.65630 7.19310 6.92990
#
# Compressibility (1/GPa) = 0.01930168
#
# Stress axis : x y z
#
# Youngs Moduli (GPa) = 38.72690 49.87899 60.17053
#
# Poissons Ratio (x) = 0.43777 0.64530
# Poissons Ratio (y) = 0.33989 0.12593
# Poissons Ratio (z) = 0.41533 0.10439
#
# Static dielectric constant tensor:
#      x y z
#    x 3.446780 0.000000 0.113260 
#    y 0.000000 3.402320 0.000000 
#    z 0.113260 0.000000 3.475470 
# 
# 
# High freq. dielectric constant tensor:
#      x y z
#    x 1.711450 0.000000 0.003310 
#    y 0.000000 1.714370 0.000000 
#    z 0.003310 0.000000 1.718230 
# 
# From -- ./inp_files/249797.got.cif
#   From: 2010.06.25/outbox.cif.g09.slc.cpg/sg12_125_cif.got.tgz:249797.got - 2010.06.28 00:19:55.
