data_PCOD8097480
_publ_section_title
;
Structure prediction by ZEFSAII (Michael W. Deem and Ramdas Pophale) SiO2 
 PCOD8097480
Probable space group: C 2/M
;
_chemical_formula_sum "Si O2"
_cell_formula_units_Z 48
_cell_length_a 18.664404
_cell_length_b 8.487759
_cell_length_c 15.130465
_cell_angle_alpha 90.000000
_cell_angle_beta 87.948829
_cell_angle_gamma 90.000000
_cell_volume 2395.416751
_symmetry_space_group_name_H-M "C 2/M"
_symmetry_group_IT_number 12
_symmetry_cell_setting 'monoclinic'
loop_
_space_group_symop_operation_xyz
x,y,z
-x,y,-z
-x,-y,-z
x,-y,z
1/2+x,1/2+y,z
1/2-x,1/2+y,-z
1/2-x,1/2-y,-z
1/2+x,1/2-y,z
loop_
_atom_site_type_symbol
_atom_site_label
_atom_site_fract_x
_atom_site_fract_y
_atom_site_fract_z
Si Si1 0.315821 0.682120 0.142000
Si Si2 0.417810 0.817349 0.993563
Si Si3 0.679237 0.313988 0.357344
Si Si4 0.419114 0.314029 0.482253
Si Si5 0.337525 0.315613 0.838881
Si Si6 0.161287 0.685002 0.674944
O O1 0.294166 0.500000 0.144012
O O2 0.370912 0.712284 0.060994
O O3 0.244378 0.783805 0.128787
O O4 0.354188 0.728670 0.232031
O O5 0.407090 0.000000 0.017188
O O6 0.500000 0.766357 0.000000
O O7 0.393111 0.783084 0.894751
O O8 0.673621 0.500000 0.361641
O O9 0.630704 0.242188 0.437582
O O10 0.651034 0.258007 0.262711
O O11 0.761471 0.259580 0.366644
O O12 0.500000 0.267849 0.500000
O O13 0.408800 0.500000 0.472592
O O14 0.399726 0.232142 0.391148
O O15 0.353125 0.500000 0.849520
O O16 0.160686 0.500000 0.693383
#
# Coordination Sequence:
#
# PCOD8097480 Si02
#       6
#     8   8   8   8   8   8
#     4  11  22  38  61  85 110 144 188 235 283 334
#     4  11  24  40  57  82 117 152 185 225 276 335
#     4   8  17  34  55  79 107 141 181 226 273 322
#     4  10  20  34  53  80 113 147 183 225 275 332
#     4  10  20  37  60  84 112 147 190 236 280 330
#     4  10  20  36  57  80 108 143 185 232 279 329
#
# _framework density 20.038266
#
# number of rings (size 3 to 8) (size 9 to 14) (size 15 to 20)
#    0.000    2.000    0.000    5.000    0.000    3.000 
#    0.000    5.833    0.000    0.000    0.000    0.000 
#    0.000    0.000    0.000    0.000    0.000    0.000 
#
# Total GULP energy -297688.894485 kJ/mol
# GULP energy per Si atom -12403.703937 kJ/mol
# Density = 1.999266 g / cm^3
# Si number density = 20.038266 Si / 1000 Ang^3
#
#
#
# Elastic Constant Matrix: (Units=GPa)
#
#
# Indices 1 2 3 4 5 6 
#
# 1 75.2205 11.4566 36.8577 0.0000 24.2620 0.0000
# 2 11.4566 46.5995 12.1343 0.0000 3.7036 0.0000
# 3 36.8577 12.1343 91.7089 0.0000 24.6743 0.0000
# 4 0.0000 0.0000 0.0000 31.5192 0.0000 5.8166
# 5 24.2620 3.7036 24.6743 0.0000 29.3153 0.0000
# 6 0.0000 0.0000 0.0000 5.8166 0.0000 19.5191
#
#
#
# Elastic Compliance Matrix: (Units=1/GPa)
#
#
# Indices 1 2 3 4 5 6 
#
# 1 0.019822 -0.002777 -0.004240 0.000000 -0.012486 0.000000
# 2 -0.002777 0.022618 -0.002232 0.000000 0.001319 0.000000
# 3 -0.004240 -0.002232 0.015362 0.000000 -0.009139 0.000000
# 4 0.000000 0.000000 0.000000 0.033573 0.000000 -0.010005
# 5 -0.012486 0.001319 -0.009139 0.000000 0.051971 0.000000
# 6 0.000000 0.000000 0.000000 -0.010005 0.000000 0.054213
#
#
# Mechanical properties :
#
#
# Convention : Reuss Voigt Hill
#
# Bulk Modulus (GPa) = 25.44132 37.15844 31.29988
# Shear Modulus (GPa) = 21.81903 26.27610 24.04756
#
# Velocity S-wave (km/s) = 3.30338 3.62511 3.46798
# Velocity P-wave (km/s) = 5.22242 6.00882 5.62937
#
# Compressibility (1/GPa) = 0.03930614
#
# Stress axis : x y z
#
# Youngs Moduli (GPa) = 50.44957 44.21177 65.09479
#
# Poissons Ratio (x) = 0.12277 0.27598
# Poissons Ratio (y) = 0.14009 0.14526
# Poissons Ratio (z) = 0.21389 0.09866
#
# Static dielectric constant tensor:
#      x y z
#    x 3.589680 0.000000 -0.009780 
#    y 0.000000 3.427320 0.000000 
#    z -0.009780 0.000000 3.848510 
# 
# 
# High freq. dielectric constant tensor:
#      x y z
#    x 1.772460 0.000000 0.006590 
#    y 0.000000 1.770570 0.000000 
#    z 0.006590 0.000000 1.794550 
# 
# From -- ./inp_files/221550.got.cif
#   From: 2010.06.25/outbox.cif.g09.slc.cpg/sg12_111_cif.got.tgz:221550.got - 2010.06.28 00:19:55.
