data_PCOD8097966
_publ_section_title
;
Structure prediction by ZEFSAII (Michael W. Deem and Ramdas Pophale) SiO2 
 PCOD8097966
Probable space group: C 2/M
;
_chemical_formula_sum "Si O2"
_cell_formula_units_Z 64
_cell_length_a 17.860972
_cell_length_b 8.899076
_cell_length_c 26.647049
_cell_angle_alpha 90.000000
_cell_angle_beta 49.437357
_cell_angle_gamma 90.000000
_cell_volume 3217.648894
_symmetry_space_group_name_H-M "C 2/M"
_symmetry_group_IT_number 12
_symmetry_cell_setting 'monoclinic'
loop_
_space_group_symop_operation_xyz
x,y,z
-x,y,-z
-x,-y,-z
x,-y,z
1/2+x,1/2+y,z
1/2-x,1/2+y,-z
1/2-x,1/2-y,-z
1/2+x,1/2-y,z
loop_
_atom_site_type_symbol
_atom_site_label
_atom_site_fract_x
_atom_site_fract_y
_atom_site_fract_z
Si Si1 0.058398 0.323852 0.613889
Si Si2 0.444389 0.324598 0.232547
Si Si3 0.096281 0.823488 0.252544
Si Si4 0.898281 0.671975 0.516242
Si Si5 0.484849 0.324788 0.102435
Si Si6 0.716319 0.324380 0.867630
Si Si7 0.316321 0.821926 0.013931
Si Si8 0.291421 0.174504 0.364984
O O1 0.032074 0.500000 0.625452
O O2 0.089795 0.266535 0.545423
O O3 0.148858 0.284967 0.610810
O O4 0.962181 0.232153 0.672945
O O5 0.422944 0.500000 0.242291
O O6 0.534334 0.281371 0.229770
O O7 0.470829 0.268720 0.165454
O O8 0.343791 0.246466 0.293906
O O9 0.198633 0.734013 0.206446
O O10 0.116360 0.000000 0.247898
O O11 0.863446 0.500000 0.530229
O O12 0.818415 0.765173 0.581699
O O13 0.000000 0.692807 0.500000
O O14 0.513985 0.500000 0.087977
O O15 0.387261 0.292127 0.113544
O O16 0.571020 0.229086 0.039878
O O17 0.730285 0.500000 0.872759
O O18 0.725525 0.231591 0.914712
O O19 0.307902 0.000000 0.014161
O O20 0.250000 0.750000 0.000000
O O21 0.286553 0.000000 0.356946
#
# Coordination Sequence:
#
# PCOD8097966 Si02
#       8
#     8   8   8   8   8   8   8   8
#     4   9  19  36  56  78 106 142 184 229 279 334
#     4   9  19  37  59  81 108 145 187 228 272 329
#     4  10  20  35  58  85 112 146 190 236 279 331
#     4  10  21  36  54  76 105 143 184 225 274 336
#     4  10  22  40  61  86 117 153 191 232 282 338
#     4  11  23  39  60  86 119 155 189 231 283 338
#     4  12  25  41  63  88 116 151 192 238 284 334
#     4  10  20  34  55  81 108 139 178 228 279 327
#
# _framework density 19.890298999999999
#
# number of rings (size 3 to 8) (size 9 to 14) (size 15 to 20)
#    0.000    1.875    0.000    3.750    0.000    6.750 
#    0.000    5.000    0.000    0.000    0.000    0.000 
#    0.000    0.000    0.000    0.000    0.000    0.000 
#
# Total GULP energy -396992.888559 kJ/mol
# GULP energy per Si atom -12406.027767 kJ/mol
# Density = 1.984503 g / cm^3
# Si number density = 19.890299 Si / 1000 Ang^3
#
#
#
# Elastic Constant Matrix: (Units=GPa)
#
#
# Indices 1 2 3 4 5 6 
#
# 1 42.1528 23.5861 11.6607 -0.0001 -9.1029 -0.0006
# 2 23.5861 78.4191 37.9702 -0.0005 -15.9943 -0.0005
# 3 11.6607 37.9702 101.9898 0.0000 -19.9267 0.0000
# 4 -0.0001 -0.0005 0.0000 34.5325 0.0000 1.4884
# 5 -9.1029 -15.9943 -19.9267 0.0000 28.2295 -0.0002
# 6 -0.0006 -0.0005 0.0000 1.4884 -0.0002 23.9339
#
#
#
# Elastic Compliance Matrix: (Units=1/GPa)
#
#
# Indices 1 2 3 4 5 6 
#
# 1 0.029174 -0.008020 0.000696 0.000000 0.005355 0.000001
# 2 -0.008020 0.018528 -0.005145 0.000000 0.004280 0.000000
# 3 0.000696 -0.005145 0.012893 0.000000 0.006411 0.000000
# 4 0.000000 0.000000 0.000000 0.029036 0.000000 -0.001806
# 5 0.005355 0.004280 0.006411 0.000000 0.044101 0.000001
# 6 0.000001 0.000000 0.000000 -0.001806 0.000001 0.041894
#
#
# Mechanical properties :
#
#
# Convention : Reuss Voigt Hill
#
# Bulk Modulus (GPa) = 28.04289 40.99951 34.52120
# Shear Modulus (GPa) = 23.53500 27.29548 25.41524
#
# Velocity S-wave (km/s) = 3.44356 3.70848 3.57847
# Velocity P-wave (km/s) = 5.47176 6.24457 5.87089
#
# Compressibility (1/GPa) = 0.03565967
#
# Stress axis : x y z
#
# Youngs Moduli (GPa) = 34.27658 53.97206 77.56052
#
# Poissons Ratio (x) = 0.43284 -0.05402
# Poissons Ratio (y) = 0.27489 0.39903
# Poissons Ratio (z) = -0.02387 0.27767
#
# Static dielectric constant tensor:
#      x y z
#    x 3.583880 0.000000 0.058670 
#    y 0.000000 3.582160 0.000000 
#    z 0.058670 0.000000 3.736310 
# 
# 
# High freq. dielectric constant tensor:
#      x y z
#    x 1.772120 0.000000 -0.000620 
#    y 0.000000 1.774290 0.000000 
#    z -0.000620 0.000000 1.790580 
# 
# From -- ./inp_files/378252.got.cif
#   From: 2010.06.25/outbox.cif.g09.slc.cpg/sg12_190_cif.got.tgz:378252.got - 2010.06.28 00:19:55.
