data_PCOD8097450
_publ_section_title
;
Structure prediction by ZEFSAII (Michael W. Deem and Ramdas Pophale) SiO2 
 PCOD8097450
Probable space group: C 2/M
;
_chemical_formula_sum "Si O2"
_cell_formula_units_Z 64
_cell_length_a 15.379638
_cell_length_b 8.688794
_cell_length_c 24.364650
_cell_angle_alpha 90.000000
_cell_angle_beta 89.783668
_cell_angle_gamma 90.000000
_cell_volume 3255.837310
_symmetry_space_group_name_H-M "C 2/M"
_symmetry_group_IT_number 12
_symmetry_cell_setting 'monoclinic'
loop_
_space_group_symop_operation_xyz
x,y,z
-x,y,-z
-x,-y,-z
x,-y,z
1/2+x,1/2+y,z
1/2-x,1/2+y,-z
1/2-x,1/2-y,-z
1/2+x,1/2-y,z
loop_
_atom_site_type_symbol
_atom_site_label
_atom_site_fract_x
_atom_site_fract_y
_atom_site_fract_z
Si Si1 0.972054 0.182525 0.441009
Si Si2 0.277265 0.825089 0.171310
Si Si3 0.204049 0.323166 0.948653
Si Si4 0.973555 0.682159 0.169943
Si Si5 0.474182 0.678501 0.059051
Si Si6 0.130438 0.181348 0.368028
Si Si7 0.276823 0.317960 0.441844
Si Si8 0.619366 0.682146 0.241645
O O1 0.874640 0.238320 0.426598
O O2 0.000000 0.250370 0.500000
O O3 0.041118 0.242401 0.395823
O O4 0.974591 0.000000 0.443149
O O5 0.241585 0.817499 0.108275
O O6 0.374454 0.752926 0.177965
O O7 0.203982 0.747371 0.210045
O O8 0.285664 0.000000 0.190783
O O9 0.175987 0.500000 0.961082
O O10 0.126953 0.208049 0.935734
O O11 0.250000 0.250000 0.000000
O O12 0.971972 0.500000 0.167004
O O13 0.016710 0.741248 0.112353
O O14 0.031551 0.740407 0.219852
O O15 0.499417 0.500000 0.060453
O O16 0.500000 0.751521 0.000000
O O17 0.213665 0.261667 0.394284
O O18 0.128030 0.228195 0.304743
O O19 0.140664 0.000000 0.376585
O O20 0.272847 0.500000 0.446636
O O21 0.250000 0.250000 0.500000
O O22 0.611199 0.500000 0.232837
#
# Coordination Sequence:
#
# PCOD8097450 Si02
#       8
#     8   8   8   8   8   8   8   8
#     4   9  17  33  56  80 115 154 181 222 284 335
#     4   8  18  37  56  76 109 149 181 226 287 333
#     4  10  20  34  53  79 112 145 183 228 285 344
#     4  10  21  38  58  81 112 148 186 234 289 340
#     4  10  21  36  55  80 110 144 183 231 289 346
#     4  10  21  38  58  84 114 150 194 229 272 335
#     4  11  21  35  58  84 115 151 187 230 281 332
#     4  10  21  38  61  83 109 151 196 230 271 338
#
# _framework density 19.657001000000001
#
# number of rings (size 3 to 8) (size 9 to 14) (size 15 to 20)
#    0.000    2.250    1.250    2.250    1.750    2.500 
#    0.000    5.000    0.000    0.000    0.000    0.000 
#    0.000    0.000    0.000    0.000    0.000    0.000 
#
# Total GULP energy -396578.232019 kJ/mol
# GULP energy per Si atom -12393.069751 kJ/mol
# Density = 1.961226 g / cm^3
# Si number density = 19.657001 Si / 1000 Ang^3
#
#
#
# Elastic Constant Matrix: (Units=GPa)
#
#
# Indices 1 2 3 4 5 6 
#
# 1 144.5232 30.4031 82.9860 0.0000 2.3121 0.0000
# 2 30.4031 45.0805 37.9834 0.0000 4.5867 0.0000
# 3 82.9860 37.9834 156.9244 0.0000 1.1167 0.0000
# 4 0.0000 0.0000 0.0000 24.1619 0.0000 7.9794
# 5 2.3121 4.5867 1.1167 0.0000 37.7326 0.0000
# 6 0.0000 0.0000 0.0000 7.9794 0.0000 27.0402
#
#
#
# Elastic Compliance Matrix: (Units=1/GPa)
#
#
# Indices 1 2 3 4 5 6 
#
# 1 0.010239 -0.002928 -0.004705 0.000000 -0.000132 0.000000
# 2 -0.002928 0.029091 -0.005471 0.000000 -0.003195 0.000000
# 3 -0.004705 -0.005471 0.010180 0.000000 0.000652 0.000000
# 4 0.000000 0.000000 0.000000 0.045856 0.000000 -0.013532
# 5 -0.000132 -0.003195 0.000652 0.000000 0.026879 0.000000
# 6 0.000000 0.000000 0.000000 -0.013532 0.000000 0.040975
#
#
# Mechanical properties :
#
#
# Convention : Reuss Voigt Hill
#
# Bulk Modulus (GPa) = 42.91106 72.14143 57.52625
# Shear Modulus (GPa) = 25.35548 30.79732 28.07640
#
# Velocity S-wave (km/s) = 3.59541 3.96249 3.78341
# Velocity P-wave (km/s) = 6.25406 7.59704 6.95802
#
# Compressibility (1/GPa) = 0.02330401
#
# Stress axis : x y z
#
# Youngs Moduli (GPa) = 97.66605 34.37447 98.22979
#
# Poissons Ratio (x) = 0.10063 0.46218
# Poissons Ratio (y) = 0.28592 0.53738
# Poissons Ratio (z) = 0.45953 0.18805
#
# Static dielectric constant tensor:
#      x y z
#    x 3.819990 0.000000 -0.153090 
#    y 0.000000 3.207780 0.000000 
#    z -0.153090 0.000000 3.568050 
# 
# 
# High freq. dielectric constant tensor:
#      x y z
#    x 1.768760 0.000000 -0.000200 
#    y 0.000000 1.739020 0.000000 
#    z -0.000200 0.000000 1.771850 
# 
# From -- ./inp_files/338745.got.cif
#   From: 2010.06.25/outbox.cif.g09.slc.cpg/sg12_170_cif.got.tgz:338745.got - 2010.06.28 00:19:55.
