data_PCOD8097566
_publ_section_title
;
Structure prediction by ZEFSAII (Michael W. Deem and Ramdas Pophale) SiO2 
 PCOD8097566
Probable space group: C 2/M
;
_chemical_formula_sum "Si O2"
_cell_formula_units_Z 64
_cell_length_a 16.567384
_cell_length_b 9.299181
_cell_length_c 32.955187
_cell_angle_alpha 90.000000
_cell_angle_beta 138.522060
_cell_angle_gamma 90.000000
_cell_volume 3362.775847
_symmetry_space_group_name_H-M "C 2/M"
_symmetry_group_IT_number 12
_symmetry_cell_setting 'monoclinic'
loop_
_space_group_symop_operation_xyz
x,y,z
-x,y,-z
-x,-y,-z
x,-y,z
1/2+x,1/2+y,z
1/2-x,1/2+y,-z
1/2-x,1/2-y,-z
1/2+x,1/2-y,z
loop_
_atom_site_type_symbol
_atom_site_label
_atom_site_fract_x
_atom_site_fract_y
_atom_site_fract_z
Si Si1 0.013559 0.832824 0.127353
Si Si2 0.097176 0.169829 0.070112
Si Si3 0.236821 0.835815 0.269671
Si Si4 0.141250 0.667814 0.864975
Si Si5 0.591807 0.158332 0.273256
Si Si6 0.428925 0.330812 0.510263
Si Si7 0.347568 0.839383 0.610562
Si Si8 0.471140 0.668137 0.367945
O O1 0.044222 0.771853 0.093540
O O2 0.140938 0.811782 0.197952
O O3 0.905962 0.748176 0.111405
O O4 0.973689 0.000000 0.110940
O O5 0.229643 0.228222 0.104332
O O6 0.109178 0.000000 0.079216
O O7 0.000000 0.217445 0.000000
O O8 0.182400 0.778614 0.291098
O O9 0.356746 0.746926 0.304909
O O10 0.273819 0.000000 0.288905
O O11 0.154223 0.500000 0.881416
O O12 0.046349 0.693730 0.792452
O O13 0.610593 0.156915 0.327666
O O14 0.626522 0.000000 0.268773
O O15 0.500000 0.258547 0.500000
O O16 0.449934 0.500000 0.519364
O O17 0.289408 0.293765 0.450449
O O18 0.489935 0.267464 0.573770
O O19 0.417116 0.705781 0.618251
O O20 0.373040 0.000000 0.601971
O O21 0.445216 0.500000 0.359008
#
# Coordination Sequence:
#
# PCOD8097566 Si02
#       8
#     8   8   8   8   8   8   8   8
#     4   9  19  35  56  80 110 144 182 227 273 322
#     4   9  18  33  55  82 111 146 185 221 264 325
#     4  10  20  34  54  77 104 136 175 219 265 318
#     4   9  18  33  55  81 110 143 183 226 268 320
#     4   9  18  33  55  78 102 134 175 218 263 315
#     4   9  18  34  54  73  96 132 175 215 259 313
#     4  10  20  34  54  77 103 137 173 213 262 316
#     4  11  22  34  51  76 106 136 171 217 264 313
#
# _framework density 19.031894999999999
#
# number of rings (size 3 to 8) (size 9 to 14) (size 15 to 20)
#    0.000    2.500    0.000    1.875    1.750    3.500 
#    0.000    1.250    0.000    3.375    0.000    0.000 
#    0.000    0.000    0.000    0.000    0.000    0.000 
#
# Total GULP energy -396491.869144 kJ/mol
# GULP energy per Si atom -12390.370911 kJ/mol
# Density = 1.898858 g / cm^3
# Si number density = 19.031895 Si / 1000 Ang^3
#
#
#
# Elastic Constant Matrix: (Units=GPa)
#
#
# Indices 1 2 3 4 5 6 
#
# 1 74.4753 38.6473 14.6185 0.0000 2.7427 0.0000
# 2 38.6473 57.8061 30.2900 0.0000 2.0856 0.0000
# 3 14.6185 30.2900 58.5120 0.0000 1.4801 0.0000
# 4 0.0000 0.0000 0.0000 18.1241 0.0000 0.9099
# 5 2.7427 2.0856 1.4801 0.0000 31.2142 0.0000
# 6 0.0000 0.0000 0.0000 0.9099 0.0000 33.9951
#
#
#
# Elastic Compliance Matrix: (Units=1/GPa)
#
#
# Indices 1 2 3 4 5 6 
#
# 1 0.020907 -0.015396 0.002770 0.000000 -0.000940 0.000000
# 2 -0.015396 0.035107 -0.014319 0.000000 -0.000314 0.000000
# 3 0.002770 -0.014319 0.023822 0.000000 -0.000416 0.000000
# 4 0.000000 0.000000 0.000000 0.055249 0.000000 -0.001479
# 5 -0.000940 -0.000314 -0.000416 0.000000 0.032160 0.000000
# 6 0.000000 0.000000 0.000000 -0.001479 0.000000 0.029456
#
#
# Mechanical properties :
#
#
# Convention : Reuss Voigt Hill
#
# Bulk Modulus (GPa) = 38.54140 39.76723 39.15432
# Shear Modulus (GPa) = 19.28720 23.81584 21.55152
#
# Velocity S-wave (km/s) = 3.18687 3.54130 3.36875
# Velocity P-wave (km/s) = 5.81691 6.13690 5.97904
#
# Compressibility (1/GPa) = 0.02594612
#
# Stress axis : x y z
#
# Youngs Moduli (GPa) = 47.83013 28.48449 41.97855
#
# Poissons Ratio (x) = 0.43854 -0.11629
# Poissons Ratio (y) = 0.73637 0.60111
# Poissons Ratio (z) = -0.13250 0.40788
#
# Static dielectric constant tensor:
#      x y z
#    x 3.575770 0.000000 0.077350 
#    y 0.000000 3.525510 0.000000 
#    z 0.077350 0.000000 3.473080 
# 
# 
# High freq. dielectric constant tensor:
#      x y z
#    x 1.742150 0.000000 0.003910 
#    y 0.000000 1.710300 0.000000 
#    z 0.003910 0.000000 1.748970 
# 
# From -- ./inp_files/375529.got.cif
#   From: 2010.06.25/outbox.cif.g09.slc.cpg/sg12_188_cif.got.tgz:375529.got - 2010.06.28 00:19:55.
