data_PCOD8097031
_publ_section_title
;
Structure prediction by ZEFSAII (Michael W. Deem and Ramdas Pophale) SiO2 
 PCOD8097031
Probable space group: C 2/M
;
_chemical_formula_sum "Si O2"
_cell_formula_units_Z 48
_cell_length_a 30.097867
_cell_length_b 9.142474
_cell_length_c 9.444993
_cell_angle_alpha 90.000000
_cell_angle_beta 90.722884
_cell_angle_gamma 90.000000
_cell_volume 2598.762112
_symmetry_space_group_name_H-M "C 2/M"
_symmetry_group_IT_number 12
_symmetry_cell_setting 'monoclinic'
loop_
_space_group_symop_operation_xyz
x,y,z
-x,y,-z
-x,-y,-z
x,-y,z
1/2+x,1/2+y,z
1/2-x,1/2+y,-z
1/2-x,1/2-y,-z
1/2+x,1/2-y,z
loop_
_atom_site_type_symbol
_atom_site_label
_atom_site_fract_x
_atom_site_fract_y
_atom_site_fract_z
Si Si1 0.453102 0.672945 0.672312
Si Si2 0.946714 0.827875 0.355630
Si Si3 0.295377 0.668677 0.351259
Si Si4 0.380622 0.173603 0.847460
Si Si5 0.304760 0.171514 0.631502
Si Si6 0.371297 0.328917 0.142089
O O1 0.444960 0.500000 0.689401
O O2 0.504649 0.713499 0.700484
O O3 0.439282 0.730598 0.515306
O O4 0.425841 0.759936 0.788453
O O5 0.909479 0.766657 0.248166
O O6 0.942260 0.000000 0.366387
O O7 0.297631 0.500000 0.394939
O O8 0.316751 0.755499 0.482698
O O9 0.244689 0.718429 0.320416
O O10 0.323525 0.698906 0.211586
O O11 0.339372 0.226548 0.750045
O O12 0.384645 0.000000 0.853583
O O13 0.372325 0.234361 0.002166
O O14 0.308542 0.000000 0.609804
O O15 0.378803 0.500000 0.107907
#
# Coordination Sequence:
#
# PCOD8097031 Si02
#       6
#     8   8   8   8   8   8
#     4   9  17  34  58  78  97 126 167 211 254 297
#     4   8  16  32  56  81  99 121 162 216 260 292
#     4   9  18  34  57  80  98 124 168 213 249 294
#     4  11  23  35  47  71 108 142 168 198 244 299
#     4   9  19  35  53  75 104 133 162 204 254 297
#     4  10  20  34  52  75 102 132 168 208 249 294
#
# _framework density 18.470331999999999
#
# number of rings (size 3 to 8) (size 9 to 14) (size 15 to 20)
#    0.000    2.667    0.000    2.500    0.000    4.667 
#    0.000    6.667    0.000    0.000    0.000    0.000 
#    0.000    0.000    0.000    0.000    0.000    0.000 
#
# Total GULP energy -297596.955131 kJ/mol
# GULP energy per Si atom -12399.873130 kJ/mol
# Density = 1.842829 g / cm^3
# Si number density = 18.470332 Si / 1000 Ang^3
#
#
#
# Elastic Constant Matrix: (Units=GPa)
#
#
# Indices 1 2 3 4 5 6 
#
# 1 78.5711 22.9558 36.1319 0.0000 -11.4350 0.0000
# 2 22.9558 37.9066 28.2292 0.0000 -8.4095 0.0000
# 3 36.1319 28.2292 90.5266 0.0000 -15.6477 0.0000
# 4 0.0000 0.0000 0.0000 29.3036 0.0000 0.3299
# 5 -11.4350 -8.4095 -15.6477 0.0000 26.3107 0.0000
# 6 0.0000 0.0000 0.0000 0.3299 0.0000 21.7146
#
#
#
# Elastic Compliance Matrix: (Units=1/GPa)
#
#
# Indices 1 2 3 4 5 6 
#
# 1 0.016995 -0.006490 -0.004281 0.000000 0.002766 0.000000
# 2 -0.006490 0.037473 -0.008373 0.000000 0.004177 0.000000
# 3 -0.004281 -0.008373 0.016253 0.000000 0.005129 0.000000
# 4 0.000000 0.000000 0.000000 0.034131 0.000000 -0.000518
# 5 0.002766 0.004177 0.005129 0.000000 0.043595 0.000000
# 6 0.000000 0.000000 0.000000 -0.000518 0.000000 0.046060
#
#
# Mechanical properties :
#
#
# Convention : Reuss Voigt Hill
#
# Bulk Modulus (GPa) = 30.83372 42.40423 36.61898
# Shear Modulus (GPa) = 20.52496 23.44493 21.98494
#
# Velocity S-wave (km/s) = 3.33714 3.56663 3.45379
# Velocity P-wave (km/s) = 5.61948 6.32210 5.98112
#
# Compressibility (1/GPa) = 0.03243202
#
# Stress axis : x y z
#
# Youngs Moduli (GPa) = 58.84154 26.68592 61.52781
#
# Poissons Ratio (x) = 0.17319 0.26342
# Poissons Ratio (y) = 0.38188 0.51517
# Poissons Ratio (z) = 0.25192 0.22344
#
# Static dielectric constant tensor:
#      x y z
#    x 3.810340 0.000000 0.202690 
#    y 0.000000 3.133930 0.000000 
#    z 0.202690 0.000000 3.447710 
# 
# 
# High freq. dielectric constant tensor:
#      x y z
#    x 1.730270 0.000000 -0.002010 
#    y 0.000000 1.691890 0.000000 
#    z -0.002010 0.000000 1.712650 
# 
# From -- ./inp_files/108579.got.cif
#   From: 2010.06.25/outbox.cif.g09.slc.cpg/sg12_55_cif.got.tgz:108579.got - 2010.06.28 00:19:55.
