data_PCOD8097979
_publ_section_title
;
Structure prediction by ZEFSAII (Michael W. Deem and Ramdas Pophale) SiO2 
 PCOD8097979
Probable space group: C 2/M
;
_chemical_formula_sum "Si O2"
_cell_formula_units_Z 28
_cell_length_a 25.682166
_cell_length_b 5.196764
_cell_length_c 10.314342
_cell_angle_alpha 90.000000
_cell_angle_beta 90.896132
_cell_angle_gamma 90.000000
_cell_volume 1376.426576
_symmetry_space_group_name_H-M "C 2/M"
_symmetry_group_IT_number 12
_symmetry_cell_setting 'monoclinic'
loop_
_space_group_symop_operation_xyz
x,y,z
-x,y,-z
-x,-y,-z
x,-y,z
1/2+x,1/2+y,z
1/2-x,1/2+y,-z
1/2-x,1/2-y,-z
1/2+x,1/2-y,z
loop_
_atom_site_type_symbol
_atom_site_label
_atom_site_fract_x
_atom_site_fract_y
_atom_site_fract_z
Si Si1 0.840699 0.500000 0.715727
Si Si2 0.553760 0.000000 0.122948
Si Si3 0.593675 0.500000 0.703615
Si Si4 0.478018 0.500000 0.745711
Si Si5 0.282144 0.000000 0.965944
Si Si6 0.872587 0.000000 0.582814
Si Si7 0.888360 0.500000 0.128459
O O1 0.891540 0.500000 0.804497
O O2 0.839925 0.751963 0.626033
O O3 0.791766 0.500000 0.811132
O O4 0.522089 0.747826 0.161994
O O5 0.562404 0.000000 0.968344
O O6 0.532095 0.500000 0.669337
O O7 0.624851 0.500000 0.571200
O O8 0.610185 0.250727 0.783619
O O9 0.430859 0.500000 0.642428
O O10 0.335582 0.000000 0.045793
O O11 0.250000 0.750000 0.000000
#
# Coordination Sequence:
#
# PCOD8097979 Si02
#       7
#     4   4   4   4   4   4   4
#     4   9  19  36  60  84 107 143 187 234 277 321
#     4   9  19  35  53  78 114 146 189 240 275 322
#     4  12  23  35  55  81 121 158 185 229 268 322
#     4  10  20  34  55  81 109 157 206 230 254 303
#     4  11  22  41  69  90 106 133 181 240 289 347
#     4  10  20  37  56  80 117 158 197 219 255 322
#     4  11  24  38  55  86 116 145 180 229 304 338
#
# _framework density 20.342531000000001
#
# number of rings (size 3 to 8) (size 9 to 14) (size 15 to 20)
#    0.000    1.714    0.000    4.714    0.000    8.000 
#    0.000    5.714    0.000   17.143    0.000    0.000 
#    0.000    0.000    0.000    0.000    0.000    0.000 
#
# Total GULP energy -173642.963537 kJ/mol
# GULP energy per Si atom -12403.068824 kJ/mol
# Density = 2.029623 g / cm^3
# Si number density = 20.342531 Si / 1000 Ang^3
#
#
#
# Elastic Constant Matrix: (Units=GPa)
#
#
# Indices 1 2 3 4 5 6 
#
# 1 42.4343 25.3302 22.2443 0.0000 -19.7234 0.0000
# 2 25.3302 208.8481 82.8008 0.0000 -24.0430 0.0000
# 3 22.2443 82.8008 166.1671 0.0000 -34.8622 0.0000
# 4 0.0000 0.0000 0.0000 33.0816 0.0000 -6.7166
# 5 -19.7234 -24.0430 -34.8622 0.0000 37.0686 0.0000
# 6 0.0000 0.0000 0.0000 -6.7166 0.0000 47.2803
#
#
#
# Elastic Compliance Matrix: (Units=1/GPa)
#
#
# Indices 1 2 3 4 5 6 
#
# 1 0.032127 -0.002103 0.000059 0.000000 0.015786 0.000000
# 2 -0.002103 0.006158 -0.002721 0.000000 0.000317 0.000000
# 3 0.000059 -0.002721 0.008724 0.000000 0.006471 0.000000
# 4 0.000000 0.000000 0.000000 0.031126 0.000000 0.004422
# 5 0.015786 0.000317 0.006471 0.000000 0.041667 0.000000
# 6 0.000000 0.000000 0.000000 0.004422 0.000000 0.021779
#
#
# Mechanical properties :
#
#
# Convention : Reuss Voigt Hill
#
# Bulk Modulus (GPa) = 26.68081 75.35559 51.01820
# Shear Modulus (GPa) = 30.56166 42.62440 36.59303
#
# Velocity S-wave (km/s) = 3.88022 4.58245 4.24588
# Velocity P-wave (km/s) = 5.76360 8.06983 7.01218
#
# Compressibility (1/GPa) = 0.03748012
#
# Stress axis : x y z
#
# Youngs Moduli (GPa) = 31.12615 162.38153 114.63271
#
# Poissons Ratio (x) = 0.34142 -0.00674
# Poissons Ratio (y) = 0.06545 0.31189
# Poissons Ratio (z) = -0.00183 0.44180
#
# Static dielectric constant tensor:
#      x y z
#    x 3.565380 0.000000 -0.225370 
#    y 0.000000 5.748790 0.000000 
#    z -0.225370 0.000000 3.717710 
# 
# 
# High freq. dielectric constant tensor:
#      x y z
#    x 1.778900 0.000000 -0.011620 
#    y 0.000000 1.816290 0.000000 
#    z -0.011620 0.000000 1.798490 
# 
# From -- ./inp_files/107082.got.cif
#   From: 2010.06.25/outbox.cif.g09.slc.cpg/sg12_54_cif.got.tgz:107082.got - 2010.06.28 00:19:55.
