data_PCOD8097682
_publ_section_title
;
Structure prediction by ZEFSAII (Michael W. Deem and Ramdas Pophale) SiO2 
 PCOD8097682
Probable space group: C 2/M
;
_chemical_formula_sum "Si O2"
_cell_formula_units_Z 56
_cell_length_a 24.889680
_cell_length_b 9.403656
_cell_length_c 17.495125
_cell_angle_alpha 90.000000
_cell_angle_beta 134.505574
_cell_angle_gamma 90.000000
_cell_volume 2920.341412
_symmetry_space_group_name_H-M "C 2/M"
_symmetry_group_IT_number 12
_symmetry_cell_setting 'monoclinic'
loop_
_space_group_symop_operation_xyz
x,y,z
-x,y,-z
-x,-y,-z
x,-y,z
1/2+x,1/2+y,z
1/2-x,1/2+y,-z
1/2-x,1/2-y,-z
1/2+x,1/2-y,z
loop_
_atom_site_type_symbol
_atom_site_label
_atom_site_fract_x
_atom_site_fract_y
_atom_site_fract_z
Si Si1 0.903818 0.845674 0.066698
Si Si2 0.758811 0.665792 0.086905
Si Si3 0.477997 0.837716 0.565490
Si Si4 0.605231 0.659164 0.762108
Si Si5 0.674672 0.166344 0.337290
Si Si6 0.523228 0.831994 0.106411
Si Si7 0.821783 0.336031 0.483414
O O1 0.890864 0.847869 0.143574
O O2 0.961094 0.722552 0.103213
O O3 0.935102 0.000000 0.071027
O O4 0.820603 0.820518 0.946566
O O5 0.779107 0.500000 0.092503
O O6 0.826191 0.742258 0.201467
O O7 0.750000 0.750000 0.000000
O O8 0.500000 0.814599 0.500000
O O9 0.526207 0.728991 0.662605
O O10 0.390730 0.800536 0.495283
O O11 0.494157 0.000000 0.607288
O O12 0.611357 0.500000 0.733335
O O13 0.605586 0.220620 0.215359
O O14 0.749997 0.245343 0.384961
O O15 0.655585 0.202354 0.406643
O O16 0.688158 0.000000 0.339129
O O17 0.519769 0.000000 0.105370
O O18 0.500000 0.772608 0.000000
O O19 0.798434 0.500000 0.454279
#
# Coordination Sequence:
#
# PCOD8097682 Si02
#       7
#     8   8   8   8   8   8   8
#     4   9  19  34  53  78 105 137 179 224 267 315
#     4   9  17  31  51  77 107 136 173 218 263 313
#     4  10  21  37  55  78 111 146 180 221 275 336
#     4  10  20  34  54  80 107 139 183 227 270 321
#     4   9  18  34  56  80 106 137 178 227 273 318
#     4  10  21  36  53  77 110 144 179 219 271 332
#     4   9  18  34  57  82 104 136 182 226 272 324
#
# _framework density 19.175840000000001
#
# number of rings (size 3 to 8) (size 9 to 14) (size 15 to 20)
#    0.000    2.571    0.000    2.571    0.000    6.286 
#    2.571    2.857    0.000    0.000    0.000    0.000 
#    0.000    0.000    0.000    0.000    0.000    0.000 
#
# Total GULP energy -347073.418394 kJ/mol
# GULP energy per Si atom -12395.479228 kJ/mol
# Density = 1.913220 g / cm^3
# Si number density = 19.175840 Si / 1000 Ang^3
#
#
#
# Elastic Constant Matrix: (Units=GPa)
#
#
# Indices 1 2 3 4 5 6 
#
# 1 103.0199 47.6542 57.3991 0.0000 28.0488 0.0000
# 2 47.6542 85.8758 50.1497 0.0000 21.9849 0.0000
# 3 57.3991 50.1497 107.7239 0.0000 29.2079 0.0000
# 4 0.0000 0.0000 0.0000 25.2922 0.0000 10.9408
# 5 28.0488 21.9849 29.2079 0.0000 26.8840 0.0000
# 6 0.0000 0.0000 0.0000 10.9408 0.0000 27.6712
#
#
#
# Elastic Compliance Matrix: (Units=1/GPa)
#
#
# Indices 1 2 3 4 5 6 
#
# 1 0.016617 -0.004354 -0.004383 0.000000 -0.009015 0.000000
# 2 -0.004354 0.018142 -0.004728 0.000000 -0.005157 0.000000
# 3 -0.004383 -0.004728 0.016346 0.000000 -0.009320 0.000000
# 4 0.000000 0.000000 0.000000 0.047695 0.000000 -0.018858
# 5 -0.009015 -0.005157 -0.009320 0.000000 0.060946 0.000000
# 6 0.000000 0.000000 0.000000 -0.018858 0.000000 0.043595
#
#
# Mechanical properties :
#
#
# Convention : Reuss Voigt Hill
#
# Bulk Modulus (GPa) = 41.36237 67.44729 54.40483
# Shear Modulus (GPa) = 20.97936 25.39726 23.18831
#
# Velocity S-wave (km/s) = 3.31123 3.64323 3.48119
# Velocity P-wave (km/s) = 6.01963 7.27647 6.67768
#
# Compressibility (1/GPa) = 0.02417656
#
# Stress axis : x y z
#
# Youngs Moduli (GPa) = 60.17779 55.12131 61.17524
#
# Poissons Ratio (x) = 0.23998 0.26815
# Poissons Ratio (y) = 0.26200 0.28921
# Poissons Ratio (z) = 0.26377 0.26059
#
# Static dielectric constant tensor:
#      x y z
#    x 3.463080 0.000000 0.359430 
#    y 0.000000 3.639930 0.000000 
#    z 0.359430 0.000000 3.831910 
# 
# 
# High freq. dielectric constant tensor:
#      x y z
#    x 1.729060 0.000000 0.025020 
#    y 0.000000 1.749090 0.000000 
#    z 0.025020 0.000000 1.739390 
# 
# From -- ./inp_files/288484.got.cif
#   From: 2010.06.25/outbox.cif.g09.slc.cpg/sg12_145_cif.got.tgz:288484.got - 2010.06.28 00:19:55.
