data_PCOD8097496
_publ_section_title
;
Structure prediction by ZEFSAII (Michael W. Deem and Ramdas Pophale) SiO2 
 PCOD8097496
Probable space group: C 2/M
;
_chemical_formula_sum "Si O2"
_cell_formula_units_Z 64
_cell_length_a 28.428147
_cell_length_b 8.729457
_cell_length_c 23.467794
_cell_angle_alpha 90.000000
_cell_angle_beta 31.840918
_cell_angle_gamma 90.000000
_cell_volume 3072.430462
_symmetry_space_group_name_H-M "C 2/M"
_symmetry_group_IT_number 12
_symmetry_cell_setting 'monoclinic'
loop_
_space_group_symop_operation_xyz
x,y,z
-x,y,-z
-x,-y,-z
x,-y,z
1/2+x,1/2+y,z
1/2-x,1/2+y,-z
1/2-x,1/2-y,-z
1/2+x,1/2-y,z
loop_
_atom_site_type_symbol
_atom_site_label
_atom_site_fract_x
_atom_site_fract_y
_atom_site_fract_z
Si Si1 0.831065 0.173280 0.990478
Si Si2 0.653029 0.681175 0.607354
Si Si3 0.862281 0.671797 0.844679
Si Si4 0.779942 0.680846 0.237855
Si Si5 0.417693 0.318131 0.546397
Si Si6 0.448405 0.176221 0.393615
Si Si7 0.915626 0.677634 0.006993
Si Si8 0.393930 0.819270 0.224747
O O1 0.725243 0.200682 0.102963
O O2 0.857115 0.000000 0.980256
O O3 0.867467 0.205812 0.889920
O O4 0.875826 0.293296 0.986067
O O5 0.659121 0.500000 0.598257
O O6 0.750000 0.750000 0.500000
O O7 0.591538 0.739600 0.619791
O O8 0.611407 0.730216 0.710454
O O9 0.859845 0.500000 0.873389
O O10 0.945141 0.693036 0.717681
O O11 0.783235 0.500000 0.226774
O O12 0.678512 0.736245 0.329458
O O13 0.809096 0.722803 0.272530
O O14 0.851068 0.757417 0.120601
O O15 0.500000 0.253566 0.500000
O O16 0.423926 0.500000 0.536703
O O17 0.418440 0.254383 0.482239
O O18 0.417423 0.000000 0.424840
O O19 0.917604 0.500000 0.018750
O O20 0.018009 0.735841 0.901001
O O21 0.398622 0.000000 0.233484
#
# Coordination Sequence:
#
# PCOD8097496 Si02
#       8
#     8   8   8   8   8   8   8   8
#     4  10  20  34  53  81 114 150 192 240 295 350
#     4  12  25  41  63  91 123 158 197 243 301 360
#     4   9  20  37  55  78 112 152 194 239 291 355
#     4   9  19  37  59  83 115 156 201 247 294 352
#     4  10  22  39  60  88 120 157 204 255 303 356
#     4  11  23  40  62  87 117 154 199 245 298 360
#     4  10  20  34  57  85 114 154 199 242 294 354
#     4  10  20  37  61  88 120 157 201 248 295 353
#
# _framework density 20.830414999999999
#
# number of rings (size 3 to 8) (size 9 to 14) (size 15 to 20)
#    0.000    1.875    0.000    3.750    1.750    7.750 
#    0.000    1.250    0.000    1.500    0.000    0.000 
#    0.000    0.000    0.000    0.000    0.000    0.000 
#
# Total GULP energy -396741.977928 kJ/mol
# GULP energy per Si atom -12398.186810 kJ/mol
# Density = 2.078300 g / cm^3
# Si number density = 20.830415 Si / 1000 Ang^3
#
#
#
# Elastic Constant Matrix: (Units=GPa)
#
#
# Indices 1 2 3 4 5 6 
#
# 1 100.1472 18.2647 46.5315 -0.0078 -17.2154 0.0015
# 2 18.2647 25.7654 25.2300 0.0042 -6.3354 0.0015
# 3 46.5315 25.2300 131.1620 0.0014 -13.0190 -0.0009
# 4 -0.0078 0.0042 0.0014 25.7933 -0.0084 4.3603
# 5 -17.2154 -6.3354 -13.0190 -0.0084 28.0096 0.0032
# 6 0.0015 0.0015 -0.0009 4.3603 0.0032 25.5118
#
#
#
# Elastic Compliance Matrix: (Units=1/GPa)
#
#
# Indices 1 2 3 4 5 6 
#
# 1 0.013345 -0.004920 -0.003233 0.000007 0.005587 -0.000003
# 2 -0.004920 0.050923 -0.007555 -0.000007 0.004982 -0.000002
# 3 -0.003233 -0.007555 0.010335 0.000000 0.001107 0.000001
# 4 0.000007 -0.000007 0.000000 0.039923 0.000015 -0.006823
# 5 0.005587 0.004982 0.001107 0.000015 0.040777 -0.000008
# 6 -0.000003 -0.000002 0.000001 -0.006823 -0.000008 0.040364
#
#
# Mechanical properties :
#
#
# Convention : Reuss Voigt Hill
#
# Bulk Modulus (GPa) = 23.15637 48.56965 35.86301
# Shear Modulus (GPa) = 20.70560 26.99950 23.85255
#
# Velocity S-wave (km/s) = 3.15621 3.60412 3.38758
# Velocity P-wave (km/s) = 4.94196 6.37863 5.70569
#
# Compressibility (1/GPa) = 0.04318466
#
# Stress axis : x y z
#
# Youngs Moduli (GPa) = 74.93231 19.63740 96.76317
#
# Poissons Ratio (x) = 0.09662 0.31288
# Poissons Ratio (y) = 0.36870 0.73108
# Poissons Ratio (z) = 0.24229 0.14837
#
# Static dielectric constant tensor:
#      x y z
#    x 3.811200 -0.000040 -0.241680 
#    y -0.000040 3.573740 0.000050 
#    z -0.241680 0.000050 4.134730 
# 
# 
# High freq. dielectric constant tensor:
#      x y z
#    x 1.818550 0.000000 -0.010550 
#    y 0.000000 1.790140 0.000000 
#    z -0.010550 0.000000 1.831390 
# 
# From -- ./inp_files/353388.got.cif
#   From: 2010.06.25/outbox.cif.g09.slc.cpg/sg12_177_cif.got.tgz:353388.got - 2010.06.28 00:19:55.
