data_PCOD8097296
_publ_section_title
;
Structure prediction by ZEFSAII (Michael W. Deem and Ramdas Pophale) SiO2 
 PCOD8097296
Probable space group: C 2/M
;
_chemical_formula_sum "Si O2"
_cell_formula_units_Z 64
_cell_length_a 18.962982
_cell_length_b 9.045248
_cell_length_c 20.180780
_cell_angle_alpha 90.000000
_cell_angle_beta 90.067136
_cell_angle_gamma 90.000000
_cell_volume 3461.503391
_symmetry_space_group_name_H-M "C 2/M"
_symmetry_group_IT_number 12
_symmetry_cell_setting 'monoclinic'
loop_
_space_group_symop_operation_xyz
x,y,z
-x,y,-z
-x,-y,-z
x,-y,z
1/2+x,1/2+y,z
1/2-x,1/2+y,-z
1/2-x,1/2-y,-z
1/2+x,1/2-y,z
loop_
_atom_site_type_symbol
_atom_site_label
_atom_site_fract_x
_atom_site_fract_y
_atom_site_fract_z
Si Si1 0.678675 0.828830 0.574041
Si Si2 0.564742 0.326909 0.827275
Si Si3 0.158448 0.829089 0.948511
Si Si4 0.404601 0.674502 0.806771
Si Si5 0.341000 0.328839 0.559895
Si Si6 0.575754 0.827229 0.326976
Si Si7 0.319912 0.829181 0.919261
Si Si8 0.585509 0.828914 0.695869
O O1 0.649524 0.729715 0.514460
O O2 0.761495 0.803875 0.584706
O O3 0.640138 0.774046 0.640418
O O4 0.661447 0.000000 0.558478
O O5 0.574644 0.500000 0.818966
O O6 0.603008 0.271862 0.893886
O O7 0.482827 0.281477 0.831526
O O8 0.602189 0.254811 0.763941
O O9 0.236353 0.804658 0.920110
O O10 0.145663 0.000000 0.967037
O O11 0.145068 0.732733 0.013748
O O12 0.394778 0.500000 0.801426
O O13 0.389198 0.744581 0.735216
O O14 0.348213 0.739008 0.857176
O O15 0.362583 0.500000 0.562216
O O16 0.392423 0.235304 0.605775
O O17 0.492798 0.793997 0.329715
O O18 0.592305 0.000000 0.320844
O O19 0.340554 0.000000 0.912077
O O20 0.596037 0.000000 0.711077
#
# Coordination Sequence:
#
# PCOD8097296 Si02
#       8
#     8   8   8   8   8   8   8   8
#     4   9  19  36  54  74 102 135 171 209 251 299
#     4   9  19  35  54  75 100 132 169 209 252 298
#     4   9  19  36  54  74 102 135 171 209 251 299
#     4  10  20  35  54  75 102 134 168 208 252 300
#     4  10  20  34  53  77 104 134 169 209 252 300
#     4  10  20  35  54  75 102 134 168 208 252 300
#     4  10  20  34  53  77 104 134 169 209 252 300
#     4   9  19  35  54  75 100 132 169 209 252 298
#
# _framework density 18.489076000000001
#
# number of rings (size 3 to 8) (size 9 to 14) (size 15 to 20)
#    0.000    2.500    0.000    1.500    0.000    5.000 
#    0.000    7.500    0.000    0.000    0.000    0.000 
#    0.000    0.000    0.000    0.000    0.000    0.000 
#
# Total GULP energy -396929.310313 kJ/mol
# GULP energy per Si atom -12404.040947 kJ/mol
# Density = 1.844699 g / cm^3
# Si number density = 18.489076 Si / 1000 Ang^3
#
#
#
# Elastic Constant Matrix: (Units=GPa)
#
#
# Indices 1 2 3 4 5 6 
#
# 1 20.2332 11.2441 2.4373 0.0000 0.9763 0.0000
# 2 11.2441 63.9883 17.3506 0.0000 -0.3358 0.0000
# 3 2.4373 17.3506 37.1863 0.0000 -1.7092 0.0000
# 4 0.0000 0.0000 0.0000 41.5269 0.0000 0.1024
# 5 0.9763 -0.3358 -1.7092 0.0000 36.9799 0.0000
# 6 0.0000 0.0000 0.0000 0.1024 0.0000 24.7299
#
#
#
# Elastic Compliance Matrix: (Units=1/GPa)
#
#
# Indices 1 2 3 4 5 6 
#
# 1 0.054889 -0.009913 0.000959 0.000000 -0.001495 0.000000
# 2 -0.009913 0.019684 -0.008532 0.000000 0.000046 0.000000
# 3 0.000959 -0.008532 0.030871 0.000000 0.001324 0.000000
# 4 0.000000 0.000000 0.000000 0.024081 0.000000 -0.000100
# 5 -0.001495 0.000046 0.001324 0.000000 0.027143 0.000000
# 6 0.000000 0.000000 0.000000 -0.000100 0.000000 0.040437
#
#
# Mechanical properties :
#
#
# Convention : Reuss Voigt Hill
#
# Bulk Modulus (GPa) = 14.19024 20.38573 17.28799
# Shear Modulus (GPa) = 19.56430 26.67240 23.11835
#
# Velocity S-wave (km/s) = 3.25646 3.80228 3.53991
# Velocity P-wave (km/s) = 4.67236 5.50693 5.10672
#
# Compressibility (1/GPa) = 0.07047099
#
# Stress axis : x y z
#
# Youngs Moduli (GPa) = 18.21846 50.80387 32.39329
#
# Poissons Ratio (x) = 0.50362 -0.03106
# Poissons Ratio (y) = 0.18060 0.27639
# Poissons Ratio (z) = -0.01747 0.43347
#
# Static dielectric constant tensor:
#      x y z
#    x 3.373570 0.000000 0.002640 
#    y 0.000000 3.436580 0.000000 
#    z 0.002640 0.000000 3.454680 
# 
# 
# High freq. dielectric constant tensor:
#      x y z
#    x 1.709600 0.000000 -0.000280 
#    y 0.000000 1.722140 0.000000 
#    z -0.000280 0.000000 1.723600 
# 
# From -- ./inp_files/281279.got.cif
#   From: 2010.06.25/outbox.cif.g09.slc.cpg/sg12_141_cif.got.tgz:281279.got - 2010.06.28 00:19:55.
