data_PCOD8097166
_publ_section_title
;
Structure prediction by ZEFSAII (Michael W. Deem and Ramdas Pophale) SiO2 
 PCOD8097166
Probable space group: C 2/M
;
_chemical_formula_sum "Si O2"
_cell_formula_units_Z 56
_cell_length_a 8.682686
_cell_length_b 27.156210
_cell_length_c 12.781039
_cell_angle_alpha 90.000000
_cell_angle_beta 112.485384
_cell_angle_gamma 90.000000
_cell_volume 2784.521868
_symmetry_space_group_name_H-M "C 2/M"
_symmetry_group_IT_number 12
_symmetry_cell_setting 'monoclinic'
loop_
_space_group_symop_operation_xyz
x,y,z
-x,y,-z
-x,-y,-z
x,-y,z
1/2+x,1/2+y,z
1/2-x,1/2+y,-z
1/2-x,1/2-y,-z
1/2+x,1/2-y,z
loop_
_atom_site_type_symbol
_atom_site_label
_atom_site_fract_x
_atom_site_fract_y
_atom_site_fract_z
Si Si1 0.287690 0.683219 0.824720
Si Si2 0.718836 0.557139 0.818746
Si Si3 0.820407 0.086763 0.965245
Si Si4 0.143016 0.623676 0.608883
Si Si5 0.069190 0.734138 0.915784
Si Si6 0.582209 0.556721 0.412168
Si Si7 0.978606 0.444836 0.242957
O O1 0.337870 0.640350 0.917671
O O2 0.251803 0.664514 0.697890
O O3 0.107445 0.703567 0.820442
O O4 0.440343 0.721589 0.857679
O O5 0.747093 0.500000 0.856213
O O6 0.543793 0.564895 0.716103
O O7 0.866014 0.576203 0.782192
O O8 0.723863 0.590636 0.923616
O O9 0.684717 0.053902 0.871670
O O10 0.000000 0.060196 0.000000
O O11 0.259732 0.590993 0.565221
O O12 0.046895 0.588973 0.664513
O O13 0.000000 0.648842 0.500000
O O14 0.250000 0.750000 0.000000
O O15 0.000000 0.704126 0.000000
O O16 0.500000 0.572585 0.500000
O O17 0.640646 0.500000 0.432862
O O18 0.018034 0.500000 0.291755
#
# Coordination Sequence:
#
# PCOD8097166 Si02
#       7
#     8   8   8   8   8   8   8
#     4  10  22  39  59  85 113 142 182 229 283 345
#     4  10  20  34  52  78 115 156 196 235 278 329
#     4  11  21  33  52  82 118 150 184 232 286 341
#     4  11  23  39  58  83 114 148 191 238 281 330
#     4   9  18  36  61  86 111 139 172 216 277 349
#     4  10  21  37  57  81 112 154 199 238 275 320
#     4  10  21  35  53  80 115 157 198 235 276 326
#
# _framework density 20.111172
#
# number of rings (size 3 to 8) (size 9 to 14) (size 15 to 20)
#    0.000    1.857    0.000    5.143    0.000    8.000 
#    0.000    6.429    0.000    0.000    0.000    0.000 
#    0.000    0.000    0.000    0.000    0.000    0.000 
#
# Total GULP energy -347056.659992 kJ/mol
# GULP energy per Si atom -12394.880714 kJ/mol
# Density = 2.006540 g / cm^3
# Si number density = 20.111172 Si / 1000 Ang^3
#
#
#
# Elastic Constant Matrix: (Units=GPa)
#
#
# Indices 1 2 3 4 5 6 
#
# 1 122.0062 26.9518 34.9171 0.0000 -3.7155 0.0000
# 2 26.9518 47.7188 29.3702 0.0000 -0.3791 0.0000
# 3 34.9171 29.3702 115.5581 0.0000 -0.9662 0.0000
# 4 0.0000 0.0000 0.0000 18.4498 0.0000 1.1046
# 5 -3.7155 -0.3791 -0.9662 0.0000 35.5274 0.0000
# 6 0.0000 0.0000 0.0000 1.1046 0.0000 27.8981
#
#
#
# Elastic Compliance Matrix: (Units=1/GPa)
#
#
# Indices 1 2 3 4 5 6 
#
# 1 0.009707 -0.004356 -0.001818 0.000000 0.000919 0.000000
# 2 -0.004356 0.026797 -0.005497 0.000000 -0.000319 0.000000
# 3 -0.001818 -0.005497 0.010601 0.000000 0.000039 0.000000
# 4 0.000000 0.000000 0.000000 0.054330 0.000000 -0.002151
# 5 0.000919 -0.000319 0.000039 0.000000 0.028241 0.000000
# 6 0.000000 0.000000 0.000000 -0.002151 0.000000 0.035930
#
#
# Mechanical properties :
#
#
# Convention : Reuss Voigt Hill
#
# Bulk Modulus (GPa) = 42.08450 51.97347 47.02898
# Shear Modulus (GPa) = 25.39755 29.31134 27.35444
#
# Velocity S-wave (km/s) = 3.55753 3.82182 3.69204
# Velocity P-wave (km/s) = 6.15191 6.73604 6.45059
#
# Compressibility (1/GPa) = 0.02376172
#
# Stress axis : x y z
#
# Youngs Moduli (GPa) = 103.01891 37.31711 94.33475
#
# Poissons Ratio (x) = 0.16256 0.17152
# Poissons Ratio (y) = 0.44877 0.51858
# Poissons Ratio (z) = 0.18731 0.20514
#
# Static dielectric constant tensor:
#      x y z
#    x 4.398950 0.000000 -0.289200 
#    y 0.000000 3.602680 0.000000 
#    z -0.289200 0.000000 3.842120 
# 
# 
# High freq. dielectric constant tensor:
#      x y z
#    x 1.807890 0.000000 -0.001750 
#    y 0.000000 1.747170 0.000000 
#    z -0.001750 0.000000 1.787100 
# 
# From -- ./inp_files/125340.got.cif
#   From: 2010.06.25/outbox.cif.g09.slc.cpg/sg12_63_cif.got.tgz:125340.got - 2010.06.28 00:19:55.
