data_PCOD8097711
_publ_section_title
;
Structure prediction by ZEFSAII (Michael W. Deem and Ramdas Pophale) SiO2 
 PCOD8097711
Probable space group: C 2/M
;
_chemical_formula_sum "Si O2"
_cell_formula_units_Z 64
_cell_length_a 27.074175
_cell_length_b 13.053742
_cell_length_c 16.049703
_cell_angle_alpha 90.000000
_cell_angle_beta 37.453712
_cell_angle_gamma 90.000000
_cell_volume 3449.425394
_symmetry_space_group_name_H-M "C 2/M"
_symmetry_group_IT_number 12
_symmetry_cell_setting 'monoclinic'
loop_
_space_group_symop_operation_xyz
x,y,z
-x,y,-z
-x,-y,-z
x,-y,z
1/2+x,1/2+y,z
1/2-x,1/2+y,-z
1/2-x,1/2-y,-z
1/2+x,1/2-y,z
loop_
_atom_site_type_symbol
_atom_site_label
_atom_site_fract_x
_atom_site_fract_y
_atom_site_fract_z
Si Si1 0.434397 0.882152 0.421199
Si Si2 0.409550 0.764012 0.145889
Si Si3 0.308194 0.787109 0.709041
Si Si4 0.615232 0.712279 0.631490
Si Si5 0.861968 0.120454 0.065020
Si Si6 0.752456 0.122477 0.654879
Si Si7 0.461450 0.615977 0.779272
Si Si8 0.941872 0.750665 0.653375
O O1 0.362947 0.863192 0.581825
O O2 0.410220 0.823830 0.368928
O O3 0.519456 0.845318 0.348149
O O4 0.442956 0.000000 0.386302
O O5 0.399795 0.715919 0.250434
O O6 0.388886 0.668550 0.115626
O O7 0.344217 0.855406 0.221087
O O8 0.500000 0.804481 0.000000
O O9 0.228793 0.849959 0.836651
O O10 0.290790 0.679409 0.684476
O O11 0.352371 0.769824 0.737979
O O12 0.705451 0.673133 0.484208
O O13 0.557519 0.629728 0.663205
O O14 0.872915 0.000000 0.060200
O O15 0.916393 0.168369 0.918072
O O16 0.766109 0.000000 0.642466
O O17 0.435298 0.500000 0.813184
O O18 0.431959 0.657555 0.730738
O O19 0.000000 0.785038 0.500000
#
# Coordination Sequence:
#
# PCOD8097711 Si02
#       8
#     8   8   8   8   8   8   8   8
#     4   9  18  33  55  83 112 142 182 226 272 327
#     4  11  22  39  59  81 113 147 185 235 282 337
#     4   9  19  35  55  79 112 146 179 231 275 323
#     4  10  20  37  57  82 113 146 183 232 282 323
#     4  10  21  35  54  81 108 142 185 227 280 334
#     4  10  22  38  57  82 111 148 190 230 279 334
#     4  10  20  34  54  80 110 143 181 227 277 329
#     4   9  19  33  53  81 108 141 182 223 276 327
#
# _framework density 18.553815
#
# number of rings (size 3 to 8) (size 9 to 14) (size 15 to 20)
#    0.000    2.250    1.250    1.875    0.000    6.000 
#    0.000    0.000    0.000    0.000    0.000    0.000 
#    0.000    0.000    0.000    0.000    0.000    0.000 
#
# Total GULP energy -396689.098127 kJ/mol
# GULP energy per Si atom -12396.534316 kJ/mol
# Density = 1.851159 g / cm^3
# Si number density = 18.553815 Si / 1000 Ang^3
#
#
#
# Elastic Constant Matrix: (Units=GPa)
#
#
# Indices 1 2 3 4 5 6 
#
# 1 108.2032 39.6983 50.1499 0.0000 0.5444 0.0000
# 2 39.6983 100.2274 36.5991 0.0000 9.0719 0.0000
# 3 50.1499 36.5991 94.1979 0.0000 -0.5765 0.0000
# 4 0.0000 0.0000 0.0000 22.1726 0.0000 0.6575
# 5 0.5444 9.0719 -0.5765 0.0000 38.2298 0.0000
# 6 0.0000 0.0000 0.0000 0.6575 0.0000 11.3133
#
#
#
# Elastic Compliance Matrix: (Units=1/GPa)
#
#
# Indices 1 2 3 4 5 6 
#
# 1 0.013037 -0.003114 -0.005728 0.000000 0.000467 0.000000
# 2 -0.003114 0.012685 -0.003289 0.000000 -0.003015 0.000000
# 3 -0.005728 -0.003289 0.014950 0.000000 0.001087 0.000000
# 4 0.000000 0.000000 0.000000 0.045179 0.000000 -0.002626
# 5 0.000467 -0.003015 0.001087 0.000000 0.026883 0.000000
# 6 0.000000 0.000000 0.000000 -0.002626 0.000000 0.088544
#
#
# Mechanical properties :
#
#
# Convention : Reuss Voigt Hill
#
# Bulk Modulus (GPa) = 60.94057 61.72478 61.33268
# Shear Modulus (GPa) = 21.64423 26.08857 23.86640
#
# Velocity S-wave (km/s) = 3.41921 3.75387 3.59044
# Velocity P-wave (km/s) = 6.96452 7.22004 7.09343
#
# Compressibility (1/GPa) = 0.01640943
#
# Stress axis : x y z
#
# Youngs Moduli (GPa) = 76.70565 78.83486 66.89036
#
# Poissons Ratio (x) = 0.24552 0.38313
# Poissons Ratio (y) = 0.23889 0.21999
# Poissons Ratio (z) = 0.43935 0.25928
#
# Static dielectric constant tensor:
#      x y z
#    x 3.523410 0.000000 -0.082390 
#    y 0.000000 3.153210 0.000000 
#    z -0.082390 0.000000 3.595090 
# 
# 
# High freq. dielectric constant tensor:
#      x y z
#    x 1.726840 0.000000 -0.002380 
#    y 0.000000 1.702240 0.000000 
#    z -0.002380 0.000000 1.725040 
# 
# From -- ./inp_files/245949.got.cif
#   From: 2010.06.25/outbox.cif.g09.slc.cpg/sg12_123_cif.got.tgz:245949.got - 2010.06.28 00:19:55.
