data_PCOD8097896
_publ_section_title
;
Structure prediction by ZEFSAII (Michael W. Deem and Ramdas Pophale) SiO2 
 PCOD8097896
Probable space group: C 2/M
;
_chemical_formula_sum "Si O2"
_cell_formula_units_Z 36
_cell_length_a 13.496591
_cell_length_b 17.047469
_cell_length_c 13.433872
_cell_angle_alpha 90.000000
_cell_angle_beta 147.820431
_cell_angle_gamma 90.000000
_cell_volume 1646.135461
_symmetry_space_group_name_H-M "C 2/M"
_symmetry_group_IT_number 12
_symmetry_cell_setting 'monoclinic'
loop_
_space_group_symop_operation_xyz
x,y,z
-x,y,-z
-x,-y,-z
x,-y,z
1/2+x,1/2+y,z
1/2-x,1/2+y,-z
1/2-x,1/2-y,-z
1/2+x,1/2-y,z
loop_
_atom_site_type_symbol
_atom_site_label
_atom_site_fract_x
_atom_site_fract_y
_atom_site_fract_z
Si Si1 0.771782 0.090263 0.175356
Si Si2 0.166440 0.090170 0.429527
Si Si3 0.710470 0.910659 0.688009
Si Si4 0.413783 0.159402 0.797307
Si Si5 0.000000 0.799597 0.000000
O O1 0.740267 0.135955 0.251456
O O2 0.960439 0.119195 0.283426
O O3 0.786965 0.000000 0.215568
O O4 0.595882 0.104298 0.953448
O O5 0.185002 0.096951 0.327720
O O6 0.316833 0.148764 0.608094
O O7 0.202306 0.000000 0.494177
O O8 0.500000 0.880793 0.500000
O O9 0.818572 0.855181 0.857880
O O10 0.714831 0.000000 0.731793
O O11 0.478923 0.247669 0.881095
#
# Coordination Sequence:
#
# PCOD8097896 Si02
#       5
#     8   8   8   8   4
#     4   9  17  31  54  84 119 153 182 219 270 333
#     4  10  20  35  59  87 112 146 191 233 272 321
#     4  10  23  43  63  80 104 145 196 243 279 319
#     4  10  20  34  54  85 121 150 176 219 281 342
#     4  10  23  40  59  82 114 152 182 226 285 338
#
# _framework density 21.869402999999998
#
# number of rings (size 3 to 8) (size 9 to 14) (size 15 to 20)
#    0.000    2.444    0.000    3.667    0.000    8.000 
#    0.000   12.222    0.000    0.000    0.000    0.000 
#    0.000    0.000    0.000    0.000    0.000    0.000 
#
# Total GULP energy -223170.211053 kJ/mol
# GULP energy per Si atom -12398.345059 kJ/mol
# Density = 2.181963 g / cm^3
# Si number density = 21.869403 Si / 1000 Ang^3
#
#
#
# Elastic Constant Matrix: (Units=GPa)
#
#
# Indices 1 2 3 4 5 6 
#
# 1 61.8789 19.5285 35.4055 0.0000 18.7493 0.0000
# 2 19.5285 101.9463 55.1946 0.0000 6.4052 0.0000
# 3 35.4055 55.1946 108.6350 -0.0003 20.5040 -0.0004
# 4 0.0000 0.0000 -0.0003 46.9792 0.0000 -4.1505
# 5 18.7493 6.4052 20.5040 0.0000 22.7930 0.0000
# 6 0.0000 0.0000 -0.0004 -4.1505 0.0000 8.3850
#
#
#
# Elastic Compliance Matrix: (Units=1/GPa)
#
#
# Indices 1 2 3 4 5 6 
#
# 1 0.023576 -0.001323 -0.004121 0.000000 -0.015315 0.000000
# 2 -0.001323 0.013763 -0.007272 0.000000 0.003762 0.000000
# 3 -0.004121 -0.007272 0.015920 0.000000 -0.008888 0.000001
# 4 0.000000 0.000000 0.000000 0.022259 0.000000 0.011018
# 5 -0.015315 0.003762 -0.008888 0.000000 0.063409 0.000000
# 6 0.000000 0.000000 0.000001 0.011018 0.000000 0.124715
#
#
# Mechanical properties :
#
#
# Convention : Reuss Voigt Hill
#
# Bulk Modulus (GPa) = 35.93412 54.74638 45.34025
# Shear Modulus (GPa) = 16.75882 26.45353 21.60617
#
# Velocity S-wave (km/s) = 2.77124 3.48172 3.14660
# Velocity P-wave (km/s) = 5.16784 6.42268 5.82913
#
# Compressibility (1/GPa) = 0.02782870
#
# Stress axis : x y z
#
# Youngs Moduli (GPa) = 42.41514 72.65873 62.81284
#
# Poissons Ratio (x) = 0.09611 0.25887
# Poissons Ratio (y) = 0.05610 0.45674
# Poissons Ratio (z) = 0.17481 0.52834
#
# Static dielectric constant tensor:
#      x y z
#    x 3.625790 0.000000 0.237070 
#    y 0.000000 4.052010 0.000000 
#    z 0.237070 0.000000 4.090450 
# 
# 
# High freq. dielectric constant tensor:
#      x y z
#    x 1.832620 0.000000 0.015920 
#    y 0.000000 1.854650 0.000000 
#    z 0.015920 0.000000 1.866290 
# 
# From -- ./inp_files/216581.got.cif
#   From: 2010.06.25/outbox.cif.g09.slc.cpg/sg12_109_cif.got.tgz:216581.got - 2010.06.28 00:19:55.
