data_PCOD8097692
_publ_section_title
;
Structure prediction by ZEFSAII (Michael W. Deem and Ramdas Pophale) SiO2 
 PCOD8097692
Probable space group: C 2/M
;
_chemical_formula_sum "Si O2"
_cell_formula_units_Z 64
_cell_length_a 18.065467
_cell_length_b 8.975377
_cell_length_c 31.726467
_cell_angle_alpha 90.000000
_cell_angle_beta 141.145872
_cell_angle_gamma 90.000000
_cell_volume 3227.204105
_symmetry_space_group_name_H-M "C 2/M"
_symmetry_group_IT_number 12
_symmetry_cell_setting 'monoclinic'
loop_
_space_group_symop_operation_xyz
x,y,z
-x,y,-z
-x,-y,-z
x,-y,z
1/2+x,1/2+y,z
1/2-x,1/2+y,-z
1/2-x,1/2-y,-z
1/2+x,1/2-y,z
loop_
_atom_site_type_symbol
_atom_site_label
_atom_site_fract_x
_atom_site_fract_y
_atom_site_fract_z
Si Si1 0.908492 0.835077 0.040742
Si Si2 0.879901 0.175570 0.296554
Si Si3 0.557328 0.171067 0.590782
Si Si4 0.080361 0.329076 0.333214
Si Si5 0.796332 0.165297 0.082923
Si Si6 0.015742 0.671605 0.208803
Si Si7 0.682301 0.170844 0.559429
Si Si8 0.638187 0.677127 0.186346
O O1 0.844820 0.839668 0.057367
O O2 0.041812 0.777153 0.107965
O O3 0.910446 0.000000 0.021754
O O4 0.836942 0.730329 0.976757
O O5 0.902587 0.219650 0.354772
O O6 0.761644 0.253592 0.226869
O O7 0.986502 0.226750 0.314786
O O8 0.864157 0.000000 0.286528
O O9 0.632807 0.212733 0.583331
O O10 0.419077 0.195794 0.520224
O O11 0.580018 0.000000 0.614249
O O12 0.061458 0.500000 0.338480
O O13 0.068798 0.307465 0.278352
O O14 0.210163 0.277971 0.404846
O O15 0.881948 0.266532 0.149263
O O16 0.791729 0.000000 0.100457
O O17 0.012533 0.500000 0.193270
O O18 0.100750 0.761404 0.215348
O O19 0.725148 0.000000 0.578030
O O20 0.647244 0.500000 0.194290
#
# Coordination Sequence:
#
# PCOD8097692 Si02
#       8
#     8   8   8   8   8   8   8   8
#     4   8  15  27  45  72 104 137 172 213 263 318
#     4  12  25  38  55  79 108 144 183 223 267 316
#     4   9  19  38  62  86 113 142 174 215 264 318
#     4  11  24  39  55  77 108 146 183 223 269 315
#     4   9  16  26  45  74 106 139 173 216 269 316
#     4  10  20  34  54  80 108 140 181 224 267 319
#     4   9  19  37  62  88 111 140 176 216 264 316
#     4  10  20  35  56  80 108 142 178 220 271 322
#
# _framework density 19.831409000000001
#
# number of rings (size 3 to 8) (size 9 to 14) (size 15 to 20)
#    0.000    2.250    0.000    4.875    0.000    9.000 
#    0.000    1.250    0.000    0.750    0.000    5.250 
#    0.000    0.000    0.000    0.000    0.000    0.000 
#
# Total GULP energy -396834.830036 kJ/mol
# GULP energy per Si atom -12401.088439 kJ/mol
# Density = 1.978627 g / cm^3
# Si number density = 19.831409 Si / 1000 Ang^3
#
#
#
# Elastic Constant Matrix: (Units=GPa)
#
#
# Indices 1 2 3 4 5 6 
#
# 1 53.7624 29.2798 26.1155 0.0000 26.0483 0.0001
# 2 29.2798 112.1099 39.4843 -0.0001 18.1659 0.0002
# 3 26.1155 39.4843 84.2812 0.0000 37.5764 0.0000
# 4 0.0000 -0.0001 0.0000 37.6579 0.0000 7.7508
# 5 26.0483 18.1659 37.5764 0.0000 25.7118 -0.0001
# 6 0.0001 0.0002 0.0000 7.7508 -0.0001 26.3630
#
#
#
# Elastic Compliance Matrix: (Units=1/GPa)
#
#
# Indices 1 2 3 4 5 6 
#
# 1 0.050700 -0.008746 0.024489 0.000000 -0.080975 0.000000
# 2 -0.008746 0.012195 -0.008932 0.000000 0.013297 0.000000
# 3 0.024489 -0.008932 0.047956 0.000000 -0.088585 0.000000
# 4 0.000000 0.000000 0.000000 0.028265 0.000000 -0.008310
# 5 -0.080975 0.013297 -0.088585 0.000000 0.240995 0.000001
# 6 0.000000 0.000000 0.000000 -0.008310 0.000001 0.040375
#
#
# Mechanical properties :
#
#
# Convention : Reuss Voigt Hill
#
# Bulk Modulus (GPa) = 8.03369 48.87918 28.45644
# Shear Modulus (GPa) = 11.15187 28.29812 19.72500
#
# Velocity S-wave (km/s) = 2.37393 3.78158 3.15720
# Velocity P-wave (km/s) = 3.40204 6.61574 5.26031
#
# Compressibility (1/GPa) = 0.12447583
#
# Stress axis : x y z
#
# Youngs Moduli (GPa) = 19.72370 82.00118 20.85228
#
# Poissons Ratio (x) = 0.71714 -0.51066
# Poissons Ratio (y) = 0.17249 0.18625
# Poissons Ratio (z) = -0.48302 0.73242
#
# Static dielectric constant tensor:
#      x y z
#    x 3.261980 0.000000 0.257940 
#    y 0.000000 3.688590 0.000000 
#    z 0.257940 0.000000 3.802650 
# 
# 
# High freq. dielectric constant tensor:
#      x y z
#    x 1.739300 0.000000 0.020210 
#    y 0.000000 1.778040 0.000000 
#    z 0.020210 0.000000 1.784180 
# 
# From -- ./inp_files/378273.got.cif
#   From: 2010.06.25/outbox.cif.g09.slc.cpg/sg12_190_cif.got.tgz:378273.got - 2010.06.28 00:19:55.
