data_PCOD8097147
_publ_section_title
;
Structure prediction by ZEFSAII (Michael W. Deem and Ramdas Pophale) SiO2 
 PCOD8097147
Probable space group: C 2/M
;
_chemical_formula_sum "Si O2"
_cell_formula_units_Z 56
_cell_length_a 17.004823
_cell_length_b 19.821417
_cell_length_c 13.963896
_cell_angle_alpha 90.000000
_cell_angle_beta 137.838386
_cell_angle_gamma 90.000000
_cell_volume 3159.228065
_symmetry_space_group_name_H-M "C 2/M"
_symmetry_group_IT_number 12
_symmetry_cell_setting 'monoclinic'
loop_
_space_group_symop_operation_xyz
x,y,z
-x,y,-z
-x,-y,-z
x,-y,z
1/2+x,1/2+y,z
1/2-x,1/2+y,-z
1/2-x,1/2-y,-z
1/2+x,1/2-y,z
loop_
_atom_site_type_symbol
_atom_site_label
_atom_site_fract_x
_atom_site_fract_y
_atom_site_fract_z
Si Si1 0.082745 0.265565 0.359263
Si Si2 0.134255 0.923570 0.646477
Si Si3 0.517884 0.653705 0.164093
Si Si4 0.672432 0.422360 0.899875
Si Si5 0.819425 0.310286 0.116253
Si Si6 0.163722 0.802808 0.141574
Si Si7 0.245780 0.802681 0.638987
O O1 0.073785 0.191852 0.303566
O O2 0.136302 0.247149 0.512300
O O3 0.173092 0.312877 0.381915
O O4 0.958036 0.301637 0.247380
O O5 0.145086 0.901615 0.766535
O O6 0.207408 0.875301 0.642918
O O7 0.000000 0.917045 0.500000
O O8 0.179643 0.000000 0.671556
O O9 0.441628 0.591195 0.135049
O O10 0.621602 0.637878 0.179374
O O11 0.432366 0.705570 0.029765
O O12 0.705576 0.500000 0.940137
O O13 0.785697 0.379514 0.032726
O O14 0.784397 0.318999 0.196439
O O15 0.750000 0.250000 0.000000
O O16 0.176725 0.732498 0.209062
#
# Coordination Sequence:
#
# PCOD8097147 Si02
#       7
#     8   8   8   8   8   8   8
#     4  10  20  34  52  78 107 139 181 221 275 314
#     4  10  21  34  52  79 111 146 181 218 271 335
#     4   9  17  33  48  74 107 137 175 218 271 318
#     4  10  20  34  53  80 111 145 184 221 272 335
#     4  11  19  33  54  76 104 144 178 225 271 316
#     4   9  18  29  50  77 101 135 177 225 267 319
#     4  10  21  33  52  80 108 138 179 232 265 328
#
# _framework density 17.725849
#
# number of rings (size 3 to 8) (size 9 to 14) (size 15 to 20)
#    0.000    2.143    2.857    1.714    2.000    0.000 
#    0.000    6.429    0.000    1.714    0.000   13.000 
#    0.000    0.000    0.000    0.000    0.000    0.000 
#
# Total GULP energy -346871.143738 kJ/mol
# GULP energy per Si atom -12388.255134 kJ/mol
# Density = 1.768550 g / cm^3
# Si number density = 17.725849 Si / 1000 Ang^3
#
#
#
# Elastic Constant Matrix: (Units=GPa)
#
#
# Indices 1 2 3 4 5 6 
#
# 1 119.5663 51.0825 46.3861 0.0000 6.0491 0.0000
# 2 51.0825 83.6888 34.7271 0.0000 -0.4380 0.0000
# 3 46.3861 34.7271 74.5510 0.0000 3.2740 0.0000
# 4 0.0000 0.0000 0.0000 24.0081 0.0000 1.6995
# 5 6.0491 -0.4380 3.2740 0.0000 28.4195 0.0000
# 6 0.0000 0.0000 0.0000 1.6995 0.0000 30.3420
#
#
#
# Elastic Compliance Matrix: (Units=1/GPa)
#
#
# Indices 1 2 3 4 5 6 
#
# 1 0.012988 -0.005735 -0.005311 0.000000 -0.002241 0.000000
# 2 -0.005735 0.017375 -0.004614 0.000000 0.002020 0.000000
# 3 -0.005311 -0.004614 0.018916 0.000000 -0.001120 0.000000
# 4 0.000000 0.000000 0.000000 0.041818 0.000000 -0.002342
# 5 -0.002241 0.002020 -0.001120 0.000000 0.035824 0.000000
# 6 0.000000 0.000000 0.000000 -0.002342 0.000000 0.033089
#
#
# Mechanical properties :
#
#
# Convention : Reuss Voigt Hill
#
# Bulk Modulus (GPa) = 55.68232 60.24417 57.96324
# Shear Modulus (GPa) = 25.33997 26.26128 25.80062
#
# Velocity S-wave (km/s) = 3.78504 3.85323 3.81929
# Velocity P-wave (km/s) = 7.11219 7.33873 7.22635
#
# Compressibility (1/GPa) = 0.01795902
#
# Stress axis : x y z
#
# Youngs Moduli (GPa) = 76.99599 57.55435 52.86420
#
# Poissons Ratio (x) = 0.33010 0.28076
# Poissons Ratio (y) = 0.44161 0.24389
# Poissons Ratio (z) = 0.40892 0.26553
#
# Static dielectric constant tensor:
#      x y z
#    x 3.770350 0.000000 -0.063190 
#    y 0.000000 2.960060 0.000000 
#    z -0.063190 0.000000 3.389930 
# 
# 
# High freq. dielectric constant tensor:
#      x y z
#    x 1.698420 0.000000 -0.010860 
#    y 0.000000 1.638350 0.000000 
#    z -0.010860 0.000000 1.692810 
# 
# From -- ./inp_files/226604.got.cif
#   From: 2010.06.25/outbox.cif.g09.slc.cpg/sg12_114_cif.got.tgz:226604.got - 2010.06.28 00:19:55.
