data_PCOD8097785
_publ_section_title
;
Structure prediction by ZEFSAII (Michael W. Deem and Ramdas Pophale) SiO2 
 PCOD8097785
Probable space group: C 2/M
;
_chemical_formula_sum "Si O2"
_cell_formula_units_Z 64
_cell_length_a 19.199314
_cell_length_b 8.934308
_cell_length_c 33.680466
_cell_angle_alpha 90.000000
_cell_angle_beta 34.749246
_cell_angle_gamma 90.000000
_cell_volume 3292.978338
_symmetry_space_group_name_H-M "C 2/M"
_symmetry_group_IT_number 12
_symmetry_cell_setting 'monoclinic'
loop_
_space_group_symop_operation_xyz
x,y,z
-x,y,-z
-x,-y,-z
x,-y,z
1/2+x,1/2+y,z
1/2-x,1/2+y,-z
1/2-x,1/2-y,-z
1/2+x,1/2-y,z
loop_
_atom_site_type_symbol
_atom_site_label
_atom_site_fract_x
_atom_site_fract_y
_atom_site_fract_z
Si Si1 0.779677 0.323044 0.944173
Si Si2 0.107615 0.826453 0.683462
Si Si3 0.437874 0.831635 0.414852
Si Si4 0.973347 0.828826 0.191781
Si Si5 0.778159 0.167699 0.547245
Si Si6 0.103487 0.824034 0.277871
Si Si7 0.445200 0.825981 0.982681
Si Si8 0.642536 0.327284 0.836156
O O1 0.765115 0.500000 0.954257
O O2 0.914744 0.282701 0.866872
O O3 0.750000 0.250000 0.000000
O O4 0.684772 0.257407 0.956644
O O5 0.092576 0.784659 0.736456
O O6 0.985080 0.780737 0.717088
O O7 0.225706 0.738730 0.612128
O O8 0.134467 0.000000 0.663970
O O9 0.326247 0.830268 0.436836
O O10 0.394740 0.760222 0.476719
O O11 0.548916 0.735906 0.344867
O O12 0.484131 0.000000 0.401037
O O13 0.874474 0.809685 0.203180
O O14 0.022004 0.000000 0.170694
O O15 0.821863 0.000000 0.535875
O O16 0.231907 0.746690 0.208726
O O17 0.123797 0.000000 0.271923
O O18 0.530817 0.755725 0.909214
O O19 0.426941 0.000000 0.981380
O O20 0.500000 0.799683 0.000000
O O21 0.642472 0.500000 0.849146
#
# Coordination Sequence:
#
# PCOD8097785 Si02
#       8
#     8   8   8   8   8   8   8   8
#     4  12  24  40  63  88 114 148 190 236 282 337
#     4   9  19  35  55  80 110 146 186 227 277 332
#     4   9  16  28  48  75 108 146 184 224 273 330
#     4  10  22  40  60  82 111 151 191 231 278 334
#     4   9  16  27  47  77 111 142 179 227 276 325
#     4  10  20  34  54  81 113 147 185 231 281 334
#     4  11  25  43  63  86 115 150 188 234 288 340
#     4  11  23  39  59  82 113 150 188 231 279 337
#
# _framework density 19.435292
#
# number of rings (size 3 to 8) (size 9 to 14) (size 15 to 20)
#    0.000    1.875    1.250    3.000    1.750    5.500 
#    0.000    0.000    0.000    0.750    0.000    5.250 
#    0.000    0.000    0.000    0.000    0.000    0.000 
#
# Total GULP energy -396908.594381 kJ/mol
# GULP energy per Si atom -12403.393574 kJ/mol
# Density = 1.939106 g / cm^3
# Si number density = 19.435292 Si / 1000 Ang^3
#
#
#
# Elastic Constant Matrix: (Units=GPa)
#
#
# Indices 1 2 3 4 5 6 
#
# 1 49.4054 31.0675 14.1065 0.0132 12.5727 0.0902
# 2 31.0675 114.4915 24.3833 0.0259 14.3297 0.0069
# 3 14.1065 24.3833 65.3495 -0.0034 24.7178 -0.0009
# 4 0.0132 0.0259 -0.0034 40.0466 -0.0001 -2.3645
# 5 12.5727 14.3297 24.7178 -0.0001 26.8364 0.0089
# 6 0.0902 0.0069 -0.0009 -2.3645 0.0089 21.0258
#
#
#
# Elastic Compliance Matrix: (Units=1/GPa)
#
#
# Indices 1 2 3 4 5 6 
#
# 1 0.026341 -0.006006 0.000015 -0.000011 -0.009147 -0.000108
# 2 -0.006006 0.010994 -0.002531 -0.000004 -0.000725 0.000022
# 3 0.000015 -0.002531 0.024147 0.000004 -0.020896 0.000011
# 4 -0.000011 -0.000004 0.000004 0.025138 0.000003 0.002827
# 5 -0.009147 -0.000725 -0.020896 0.000003 0.061182 0.000013
# 6 -0.000108 0.000022 0.000011 0.002827 0.000013 0.047879
#
#
# Mechanical properties :
#
#
# Convention : Reuss Voigt Hill
#
# Bulk Modulus (GPa) = 22.50353 40.92901 31.71627
# Shear Modulus (GPa) = 21.97423 28.22770 25.10096
#
# Velocity S-wave (km/s) = 3.36614 3.81516 3.59766
# Velocity P-wave (km/s) = 5.16834 6.36491 5.79758
#
# Compressibility (1/GPa) = 0.04443747
#
# Stress axis : x y z
#
# Youngs Moduli (GPa) = 37.96329 90.95991 41.41216
#
# Poissons Ratio (x) = 0.54631 -0.00061
# Poissons Ratio (y) = 0.22801 0.10483
# Poissons Ratio (z) = -0.00056 0.23025
#
# Static dielectric constant tensor:
#      x y z
#    x 3.470580 -0.000090 0.016330 
#    y -0.000090 3.694660 -0.000040 
#    z 0.016330 -0.000040 3.647750 
# 
# 
# High freq. dielectric constant tensor:
#      x y z
#    x 1.728610 -0.000010 0.005800 
#    y -0.000010 1.768580 0.000000 
#    z 0.005800 0.000000 1.762030 
# 
# From -- ./inp_files/378191.got.cif
#   From: 2010.06.25/outbox.cif.g09.slc.cpg/sg12_190_cif.got.tgz:378191.got - 2010.06.28 00:19:55.
