data_PCOD8097352
_publ_section_title
;
Structure prediction by ZEFSAII (Michael W. Deem and Ramdas Pophale) SiO2 
 PCOD8097352
Probable space group: C 2/M
;
_chemical_formula_sum "Si O2"
_cell_formula_units_Z 64
_cell_length_a 15.381324
_cell_length_b 9.504389
_cell_length_c 24.197705
_cell_angle_alpha 90.000000
_cell_angle_beta 98.476044
_cell_angle_gamma 90.000000
_cell_volume 3498.826908
_symmetry_space_group_name_H-M "C 2/M"
_symmetry_group_IT_number 12
_symmetry_cell_setting 'monoclinic'
loop_
_space_group_symop_operation_xyz
x,y,z
-x,y,-z
-x,-y,-z
x,-y,z
1/2+x,1/2+y,z
1/2-x,1/2+y,-z
1/2-x,1/2-y,-z
1/2+x,1/2-y,z
loop_
_atom_site_type_symbol
_atom_site_label
_atom_site_fract_x
_atom_site_fract_y
_atom_site_fract_z
Si Si1 0.456873 0.666664 0.671593
Si Si2 0.788241 0.336450 0.053974
Si Si3 0.144340 0.836325 0.130068
Si Si4 0.312499 0.340650 0.437101
Si Si5 0.690009 0.334065 0.258619
Si Si6 0.851983 0.162284 0.317409
Si Si7 0.488705 0.836174 0.062787
Si Si8 0.642935 0.663195 0.441126
O O1 0.456684 0.500000 0.673415
O O2 0.387147 0.725496 0.709308
O O3 0.554491 0.716703 0.697386
O O4 0.433323 0.718904 0.607018
O O5 0.781290 0.500000 0.037548
O O6 0.730697 0.298996 0.102329
O O7 0.890292 0.296433 0.073861
O O8 0.750000 0.250000 0.000000
O O9 0.166312 0.792700 0.194280
O O10 0.058593 0.751148 0.104233
O O11 0.120703 0.000000 0.122570
O O12 0.276838 0.500000 0.439044
O O13 0.362476 0.319351 0.384426
O O14 0.377329 0.308660 0.495684
O O15 0.231793 0.236573 0.430949
O O16 0.703712 0.500000 0.266877
O O17 0.779462 0.259160 0.283554
O O18 0.832023 0.000000 0.300423
O O19 0.508635 0.000000 0.073994
O O20 0.500000 0.794747 0.000000
O O21 0.658429 0.500000 0.430904
#
# Coordination Sequence:
#
# PCOD8097352 Si02
#       8
#     8   8   8   8   8   8   8   8
#     4   9  18  33  54  75 101 139 178 213 260 319
#     4  10  20  35  55  81 111 141 172 210 256 308
#     4  10  22  37  56  81 108 140 178 219 258 303
#     4   9  17  28  47  76 104 127 168 222 265 308
#     4  10  21  39  56  74 105 142 179 217 259 312
#     4  10  20  34  53  78 104 135 176 224 266 308
#     4  10  20  35  56  82 111 140 171 209 257 310
#     4   9  16  29  50  73  99 137 172 208 265 322
#
# _framework density 18.291844999999999
#
# number of rings (size 3 to 8) (size 9 to 14) (size 15 to 20)
#    0.000    2.375    2.500    0.000    0.000    2.750 
#    0.000    3.750    0.000    0.000    0.000    4.375 
#    0.000    0.000    0.000    0.000    0.000    0.000 
#
# Total GULP energy -396660.341145 kJ/mol
# GULP energy per Si atom -12395.635661 kJ/mol
# Density = 1.825021 g / cm^3
# Si number density = 18.291845 Si / 1000 Ang^3
#
#
#
# Elastic Constant Matrix: (Units=GPa)
#
#
# Indices 1 2 3 4 5 6 
#
# 1 158.7401 48.1030 80.1045 0.0000 13.4198 0.0000
# 2 48.1030 42.1416 47.0423 0.0000 6.0000 0.0000
# 3 80.1045 47.0423 132.1799 0.0000 17.4773 0.0000
# 4 0.0000 0.0000 0.0000 23.0013 0.0000 6.4896
# 5 13.4198 6.0000 17.4773 0.0000 12.8504 0.0000
# 6 0.0000 0.0000 0.0000 6.4896 0.0000 28.9672
#
#
#
# Elastic Compliance Matrix: (Units=1/GPa)
#
#
# Indices 1 2 3 4 5 6 
#
# 1 0.010613 -0.008213 -0.003109 0.000000 -0.003019 0.000000
# 2 -0.008213 0.045734 -0.011717 0.000000 0.003159 0.000000
# 3 -0.003109 -0.011717 0.015201 0.000000 -0.011956 0.000000
# 4 0.000000 0.000000 0.000000 0.046409 0.000000 -0.010397
# 5 -0.003019 0.003159 -0.011956 0.000000 0.095757 0.000000
# 6 0.000000 0.000000 0.000000 -0.010397 0.000000 0.036851
#
#
# Mechanical properties :
#
#
# Convention : Reuss Voigt Hill
#
# Bulk Modulus (GPa) = 39.26376 75.95123 57.60749
# Shear Modulus (GPa) = 16.38625 23.48457 19.93541
#
# Velocity S-wave (km/s) = 2.99628 3.58702 3.30487
# Velocity P-wave (km/s) = 5.78636 7.66601 6.79153
#
# Compressibility (1/GPa) = 0.02546878
#
# Stress axis : x y z
#
# Youngs Moduli (GPa) = 94.22616 21.86543 65.78675
#
# Poissons Ratio (x) = 0.17959 0.20455
# Poissons Ratio (y) = 0.77390 0.77081
# Poissons Ratio (z) = 0.29298 0.25619
#
# Static dielectric constant tensor:
#      x y z
#    x 3.521530 0.000000 -0.100860 
#    y 0.000000 3.231650 0.000000 
#    z -0.100860 0.000000 3.574510 
# 
# 
# High freq. dielectric constant tensor:
#      x y z
#    x 1.710020 0.000000 -0.000730 
#    y 0.000000 1.690120 0.000000 
#    z -0.000730 0.000000 1.713910 
# 
# From -- ./inp_files/338871.got.cif
#   From: 2010.06.25/outbox.cif.g09.slc.cpg/sg12_170_cif.got.tgz:338871.got - 2010.06.28 00:19:55.
