data_PCOD8097619
_publ_section_title
;
Structure prediction by ZEFSAII (Michael W. Deem and Ramdas Pophale) SiO2 
 PCOD8097619
Probable space group: C 2/M
;
_chemical_formula_sum "Si O2"
_cell_formula_units_Z 64
_cell_length_a 32.209133
_cell_length_b 9.603668
_cell_length_c 10.844997
_cell_angle_alpha 90.000000
_cell_angle_beta 91.112961
_cell_angle_gamma 90.000000
_cell_volume 3354.004716
_symmetry_space_group_name_H-M "C 2/M"
_symmetry_group_IT_number 12
_symmetry_cell_setting 'monoclinic'
loop_
_space_group_symop_operation_xyz
x,y,z
-x,y,-z
-x,-y,-z
x,-y,z
1/2+x,1/2+y,z
1/2-x,1/2+y,-z
1/2-x,1/2-y,-z
1/2+x,1/2-y,z
loop_
_atom_site_type_symbol
_atom_site_label
_atom_site_fract_x
_atom_site_fract_y
_atom_site_fract_z
Si Si1 0.103456 0.337070 0.677699
Si Si2 0.270610 0.661265 0.251963
Si Si3 0.146889 0.841283 0.874907
Si Si4 0.022614 0.835350 0.124368
Si Si5 0.024761 0.161091 0.628146
Si Si6 0.687877 0.845287 0.554353
Si Si7 0.681141 0.156388 0.268437
Si Si8 0.383939 0.340486 0.856799
O O1 0.094340 0.500000 0.700322
O O2 0.115246 0.263418 0.807025
O O3 0.063734 0.262067 0.618011
O O4 0.140125 0.310721 0.583076
O O5 0.271509 0.500000 0.287602
O O6 0.305180 0.697729 0.150995
O O7 0.280743 0.741331 0.378130
O O8 0.224129 0.699819 0.200432
O O9 0.136678 0.000000 0.833162
O O10 0.140753 0.822652 0.018432
O O11 0.069731 0.777881 0.130187
O O12 0.000683 0.791829 0.251142
O O13 0.023972 0.000000 0.110981
O O14 0.000000 0.773653 0.000000
O O15 0.000000 0.182169 0.500000
O O16 0.038469 0.000000 0.642895
O O17 0.693976 0.832761 0.410512
O O18 0.698352 0.000000 0.602964
O O19 0.642466 0.256515 0.244198
O O20 0.667547 0.000000 0.231061
O O21 0.385880 0.500000 0.813195
#
# Coordination Sequence:
#
# PCOD8097619 Si02
#       8
#     8   8   8   8   8   8   8   8
#     4  10  20  34  54  79 105 137 174 213 264 321
#     4   9  18  33  54  78 103 137 179 219 260 306
#     4   9  18  35  56  78 103 134 177 222 258 302
#     4   9  18  35  57  78 103 137 177 222 269 317
#     4  10  21  35  54  80 107 137 176 224 272 319
#     4   9  19  34  52  75 106 142 177 214 260 313
#     4  10  21  35  50  74 111 145 171 212 267 314
#     4  10  21  35  55  80 104 136 177 218 262 315
#
# _framework density 19.081665000000001
#
# number of rings (size 3 to 8) (size 9 to 14) (size 15 to 20)
#    0.000    2.500    0.000    1.500    1.750    4.750 
#    0.000    0.625    0.000    1.500    0.000    0.000 
#    0.000    0.000    0.000    0.000    0.000    0.000 
#
# Total GULP energy -396721.506057 kJ/mol
# GULP energy per Si atom -12397.547064 kJ/mol
# Density = 1.903823 g / cm^3
# Si number density = 19.081665 Si / 1000 Ang^3
#
#
#
# Elastic Constant Matrix: (Units=GPa)
#
#
# Indices 1 2 3 4 5 6 
#
# 1 123.4760 49.0341 30.4455 0.0000 13.2857 0.0000
# 2 49.0341 69.0658 19.8765 0.0000 11.0207 0.0000
# 3 30.4455 19.8765 65.7524 0.0000 1.0276 0.0000
# 4 0.0000 0.0000 0.0000 21.3351 0.0000 2.8707
# 5 13.2857 11.0207 1.0276 0.0000 23.2211 0.0000
# 6 0.0000 0.0000 0.0000 2.8707 0.0000 28.2454
#
#
#
# Elastic Compliance Matrix: (Units=1/GPa)
#
#
# Indices 1 2 3 4 5 6 
#
# 1 0.012120 -0.007074 -0.003420 0.000000 -0.003426 0.000000
# 2 -0.007074 0.021336 -0.003082 0.000000 -0.005943 0.000000
# 3 -0.003420 -0.003082 0.017682 0.000000 0.002637 0.000000
# 4 0.000000 0.000000 0.000000 0.047521 0.000000 -0.004830
# 5 -0.003426 -0.005943 0.002637 0.000000 0.047728 0.000000
# 6 0.000000 0.000000 0.000000 -0.004830 0.000000 0.035895
#
#
# Mechanical properties :
#
#
# Convention : Reuss Voigt Hill
#
# Bulk Modulus (GPa) = 41.68768 50.77850 46.23309
# Shear Modulus (GPa) = 22.99610 25.15617 24.07613
#
# Velocity S-wave (km/s) = 3.47528 3.63484 3.55595
# Velocity P-wave (km/s) = 6.16424 6.65470 6.41416
#
# Compressibility (1/GPa) = 0.02398790
#
# Stress axis : x y z
#
# Youngs Moduli (GPa) = 82.51076 46.86902 56.55328
#
# Poissons Ratio (x) = 0.33153 0.19341
# Poissons Ratio (y) = 0.58365 0.17427
# Poissons Ratio (z) = 0.28218 0.14443
#
# Static dielectric constant tensor:
#      x y z
#    x 3.655060 0.000000 -0.155010 
#    y 0.000000 3.432360 0.000000 
#    z -0.155010 0.000000 3.340010 
# 
# 
# High freq. dielectric constant tensor:
#      x y z
#    x 1.754630 0.000000 -0.010820 
#    y 0.000000 1.724380 0.000000 
#    z -0.010820 0.000000 1.731720 
# 
# From -- ./inp_files/187591.got.cif
#   From: 2010.06.25/outbox.cif.g09.slc.cpg/sg12_94_cif.got.tgz:187591.got - 2010.06.28 00:19:55.
