data_PCOD8097035
_publ_section_title
;
Structure prediction by ZEFSAII (Michael W. Deem and Ramdas Pophale) SiO2 
 PCOD8097035
Probable space group: C 2/M
;
_chemical_formula_sum "Si O2"
_cell_formula_units_Z 40
_cell_length_a 19.332990
_cell_length_b 8.540599
_cell_length_c 27.165713
_cell_angle_alpha 90.000000
_cell_angle_beta 151.600552
_cell_angle_gamma 90.000000
_cell_volume 2133.362610
_symmetry_space_group_name_H-M "C 2/M"
_symmetry_group_IT_number 12
_symmetry_cell_setting 'monoclinic'
loop_
_space_group_symop_operation_xyz
x,y,z
-x,y,-z
-x,-y,-z
x,-y,z
1/2+x,1/2+y,z
1/2-x,1/2+y,-z
1/2-x,1/2-y,-z
1/2+x,1/2-y,z
loop_
_atom_site_type_symbol
_atom_site_label
_atom_site_fract_x
_atom_site_fract_y
_atom_site_fract_z
Si Si1 0.853938 0.185316 0.385626
Si Si2 0.817120 0.181202 0.152245
Si Si3 0.766156 0.316913 0.791711
Si Si4 0.046237 0.683026 0.229633
Si Si5 0.048509 0.818811 0.929784
O O1 0.835575 0.238907 0.317338
O O2 0.713321 0.240032 0.328810
O O3 0.000000 0.262010 0.500000
O O4 0.865683 0.000000 0.395344
O O5 0.816656 0.222778 0.209767
O O6 0.976362 0.222299 0.231189
O O7 0.779825 0.000000 0.120344
O O8 0.700697 0.286322 0.051146
O O9 0.802608 0.500000 0.809537
O O10 0.919237 0.226282 0.886285
O O11 0.036370 0.500000 0.234763
O O12 0.960535 0.717733 0.125548
O O13 0.038876 0.000000 0.909520
#
# Coordination Sequence:
#
# PCOD8097035 Si02
#       5
#     8   8   8   8   8
#     4   8  15  32  57  77  93 123 168 210 248 296
#     4  11  21  33  49  72 106 139 167 203 247 294
#     4   9  19  34  52  75 102 134 169 204 246 296
#     4  10  20  34  52  75 102 132 169 207 247 296
#     4  11  21  33  51  74 102 136 172 206 244 293
#
# _framework density 18.749742999999999
#
# number of rings (size 3 to 8) (size 9 to 14) (size 15 to 20)
#    0.000    2.200    0.000    5.400    0.000    4.000 
#    0.000    1.000    0.000   15.000    0.000    0.000 
#    0.000    0.000    0.000    0.000    0.000    0.000 
#
# Total GULP energy -248024.987625 kJ/mol
# GULP energy per Si atom -12401.249381 kJ/mol
# Density = 1.870707 g / cm^3
# Si number density = 18.749743 Si / 1000 Ang^3
#
#
#
# Elastic Constant Matrix: (Units=GPa)
#
#
# Indices 1 2 3 4 5 6 
#
# 1 147.3387 19.2449 53.5705 0.0001 15.2714 0.0001
# 2 19.2449 42.1001 9.3948 0.0001 3.8730 -0.0005
# 3 53.5705 9.3948 119.0429 0.0018 12.2658 0.0003
# 4 0.0001 0.0001 0.0018 14.9939 -0.0003 6.4983
# 5 15.2714 3.8730 12.2658 -0.0003 14.2461 -0.0001
# 6 0.0001 -0.0005 0.0003 6.4983 -0.0001 27.6965
#
#
#
# Elastic Compliance Matrix: (Units=1/GPa)
#
#
# Indices 1 2 3 4 5 6 
#
# 1 0.008940 -0.002819 -0.003174 0.000000 -0.006084 0.000000
# 2 -0.002819 0.025454 -0.000372 0.000000 -0.003578 0.000001
# 3 -0.003174 -0.000372 0.010421 -0.000001 -0.005470 0.000000
# 4 0.000000 0.000000 -0.000001 0.074243 0.000002 -0.017419
# 5 -0.006084 -0.003578 -0.005470 0.000002 0.082399 0.000000
# 6 0.000000 0.000001 0.000000 -0.017419 0.000000 0.040193
#
#
# Mechanical properties :
#
#
# Convention : Reuss Voigt Hill
#
# Bulk Modulus (GPa) = 31.16537 52.54468 41.85502
# Shear Modulus (GPa) = 18.86272 26.47206 22.66739
#
# Velocity S-wave (km/s) = 3.17523 3.76155 3.48076
# Velocity P-wave (km/s) = 5.48640 6.85206 6.20691
#
# Compressibility (1/GPa) = 0.03208690
#
# Stress axis : x y z
#
# Youngs Moduli (GPa) = 111.85967 39.28728 95.95633
#
# Poissons Ratio (x) = 0.11074 0.30453
# Poissons Ratio (y) = 0.31529 0.03566
# Poissons Ratio (z) = 0.35500 0.01460
#
# Static dielectric constant tensor:
#      x y z
#    x 3.607000 0.000000 0.068400 
#    y 0.000000 3.247160 0.000000 
#    z 0.068400 0.000000 3.535000 
# 
# 
# High freq. dielectric constant tensor:
#      x y z
#    x 1.734480 0.000000 0.006690 
#    y 0.000000 1.713800 0.000000 
#    z 0.006690 0.000000 1.707690 
# 
# From -- ./inp_files/162480.got.cif
#   From: 2010.06.25/outbox.cif.g09.slc.cpg/sg12_82_cif.got.tgz:162480.got - 2010.06.28 00:19:55.
