data_PCOD8097056
_publ_section_title
;
Structure prediction by ZEFSAII (Michael W. Deem and Ramdas Pophale) SiO2 
 PCOD8097056
Probable space group: C 2/M
;
_chemical_formula_sum "Si O2"
_cell_formula_units_Z 64
_cell_length_a 14.521976
_cell_length_b 9.599279
_cell_length_c 25.755251
_cell_angle_alpha 90.000000
_cell_angle_beta 89.986202
_cell_angle_gamma 90.000000
_cell_volume 3590.294744
_symmetry_space_group_name_H-M "C 2/M"
_symmetry_group_IT_number 12
_symmetry_cell_setting 'monoclinic'
loop_
_space_group_symop_operation_xyz
x,y,z
-x,y,-z
-x,-y,-z
x,-y,z
1/2+x,1/2+y,z
1/2-x,1/2+y,-z
1/2-x,1/2-y,-z
1/2+x,1/2-y,z
loop_
_atom_site_type_symbol
_atom_site_label
_atom_site_fract_x
_atom_site_fract_y
_atom_site_fract_z
Si Si1 0.260785 0.661402 0.425413
Si Si2 0.838901 0.657806 0.133245
Si Si3 0.393904 0.162005 0.492277
Si Si4 0.083691 0.158271 0.247800
Si Si5 0.623018 0.342092 0.769759
Si Si6 0.219878 0.663747 0.308481
Si Si7 0.629556 0.662156 0.131780
Si Si8 0.499077 0.160320 0.941048
O O1 0.288819 0.500000 0.429641
O O2 0.346858 0.750038 0.446425
O O3 0.165242 0.690500 0.455716
O O4 0.244664 0.708324 0.366575
O O5 0.845167 0.500000 0.153826
O O6 0.878386 0.752991 0.178424
O O7 0.735010 0.695662 0.118660
O O8 0.898602 0.680000 0.081582
O O9 0.500000 0.210384 0.500000
O O10 0.391081 0.000000 0.476519
O O11 0.128919 0.255447 0.291065
O O12 0.108546 0.212830 0.190210
O O13 0.975268 0.168523 0.257944
O O14 0.119289 0.000000 0.254410
O O15 0.644660 0.500000 0.786336
O O16 0.697640 0.287215 0.728886
O O17 0.200546 0.500000 0.304829
O O18 0.604192 0.500000 0.125762
O O19 0.571599 0.748534 0.091107
O O20 0.466965 0.000000 0.938009
O O21 0.500000 0.213988 0.000000
#
# Coordination Sequence:
#
# PCOD8097056 Si02
#       8
#     8   8   8   8   8   8   8   8
#     4   9  19  35  52  76 109 139 173 218 261 306
#     4  10  20  35  55  76 102 134 169 209 255 306
#     4   9  18  34  56  78 103 139 180 217 259 308
#     4  10  20  34  52  76 105 136 172 213 254 305
#     4  10  20  34  52  75 103 136 173 209 253 307
#     4  10  21  35  52  77 109 140 172 214 261 308
#     4  10  20  35  55  78 103 134 172 212 256 307
#     4  10  22  38  55  78 106 134 169 215 262 309
#
# _framework density 17.825835000000001
#
# number of rings (size 3 to 8) (size 9 to 14) (size 15 to 20)
#    0.000    2.250    2.500    0.000    0.000    4.000 
#    0.000    0.000    0.000    0.000    0.000    0.000 
#    0.000    0.000    0.000    0.000    0.000    0.000 
#
# Total GULP energy -396887.020916 kJ/mol
# GULP energy per Si atom -12402.719404 kJ/mol
# Density = 1.778526 g / cm^3
# Si number density = 17.825835 Si / 1000 Ang^3
#
#
#
# Elastic Constant Matrix: (Units=GPa)
#
#
# Indices 1 2 3 4 5 6 
#
# 1 94.1481 32.9436 22.4912 0.0000 10.4041 0.0000
# 2 32.9436 52.4389 36.2483 0.0000 15.3940 0.0000
# 3 22.4912 36.2483 90.3312 0.0000 15.0928 0.0000
# 4 0.0000 0.0000 0.0000 29.5469 0.0000 9.3371
# 5 10.4041 15.3940 15.0928 0.0000 26.3478 0.0000
# 6 0.0000 0.0000 0.0000 9.3371 0.0000 31.4962
#
#
#
# Elastic Compliance Matrix: (Units=1/GPa)
#
#
# Indices 1 2 3 4 5 6 
#
# 1 0.013619 -0.008479 0.000091 0.000000 -0.000476 0.000000
# 2 -0.008479 0.034490 -0.009866 0.000000 -0.011152 0.000000
# 3 0.000091 -0.009866 0.015537 0.000000 -0.003172 0.000000
# 4 0.000000 0.000000 0.000000 0.037343 0.000000 -0.011070
# 5 -0.000476 -0.011152 -0.003172 0.000000 0.046474 0.000000
# 6 0.000000 0.000000 0.000000 -0.011070 0.000000 0.035032
#
#
# Mechanical properties :
#
#
# Convention : Reuss Voigt Hill
#
# Bulk Modulus (GPa) = 36.84858 46.69824 41.77341
# Shear Modulus (GPa) = 21.92513 27.16052 24.54282
#
# Velocity S-wave (km/s) = 3.51089 3.90764 3.71457
# Velocity P-wave (km/s) = 6.09520 6.82740 6.47166
#
# Compressibility (1/GPa) = 0.02713809
#
# Stress axis : x y z
#
# Youngs Moduli (GPa) = 73.42453 28.99376 64.36418
#
# Poissons Ratio (x) = 0.24585 -0.00586
# Poissons Ratio (y) = 0.62259 0.63501
# Poissons Ratio (z) = -0.00669 0.28605
#
# Static dielectric constant tensor:
#      x y z
#    x 3.407910 0.000000 -0.145910 
#    y 0.000000 3.282870 0.000000 
#    z -0.145910 0.000000 3.250910 
# 
# 
# High freq. dielectric constant tensor:
#      x y z
#    x 1.698440 0.000000 -0.006790 
#    y 0.000000 1.686910 0.000000 
#    z -0.006790 0.000000 1.682880 
# 
# From -- ./inp_files/338804.got.cif
#   From: 2010.06.25/outbox.cif.g09.slc.cpg/sg12_170_cif.got.tgz:338804.got - 2010.06.28 00:19:55.
