data_PCOD8097827
_publ_section_title
;
Structure prediction by ZEFSAII (Michael W. Deem and Ramdas Pophale) SiO2 
 PCOD8097827
Probable space group: C 2/M
;
_chemical_formula_sum "Si O2"
_cell_formula_units_Z 56
_cell_length_a 18.251334
_cell_length_b 20.313454
_cell_length_c 9.092907
_cell_angle_alpha 90.000000
_cell_angle_beta 130.290761
_cell_angle_gamma 90.000000
_cell_volume 2571.439020
_symmetry_space_group_name_H-M "C 2/M"
_symmetry_group_IT_number 12
_symmetry_cell_setting 'monoclinic'
loop_
_space_group_symop_operation_xyz
x,y,z
-x,y,-z
-x,-y,-z
x,-y,z
1/2+x,1/2+y,z
1/2-x,1/2+y,-z
1/2-x,1/2-y,-z
1/2+x,1/2-y,z
loop_
_atom_site_type_symbol
_atom_site_label
_atom_site_fract_x
_atom_site_fract_y
_atom_site_fract_z
Si Si1 0.355090 0.692082 0.022918
Si Si2 0.084006 0.574568 0.734379
Si Si3 0.455781 0.747111 0.599159
Si Si4 0.098644 0.385521 0.378856
Si Si5 0.860515 0.575489 0.874077
Si Si6 0.743257 0.577143 0.228722
Si Si7 0.728586 0.689737 0.767772
O O1 0.465819 0.709325 0.199927
O O2 0.299956 0.677606 0.101822
O O3 0.349223 0.623462 0.921384
O O4 0.304627 0.749894 0.862718
O O5 0.111413 0.500000 0.745871
O O6 0.171477 0.610346 0.763927
O O7 0.967198 0.586338 0.566228
O O8 0.084341 0.597551 0.906122
O O9 0.500000 0.771724 0.500000
O O10 0.416183 0.807744 0.642771
O O11 0.365482 0.701137 0.452472
O O12 0.073117 0.415660 0.185177
O O13 0.208796 0.410001 0.549285
O O14 0.825901 0.500000 0.843872
O O15 0.770174 0.624327 0.746330
O O16 0.716542 0.500000 0.170462
#
# Coordination Sequence:
#
# PCOD8097827 Si02
#       7
#     8   8   8   8   8   8   8
#     4  10  20  37  61  89 116 156 201 253 302 352
#     4  10  20  34  54  82 116 155 194 239 297 355
#     4  10  21  36  60  88 117 153 203 254 300 347
#     4  12  22  35  57  89 120 154 196 246 304 362
#     4  11  23  38  58  84 122 161 194 242 302 363
#     4  11  21  36  59  87 121 157 200 252 301 353
#     4  10  20  38  61  84 116 156 203 249 296 354
#
# _framework density 21.777691000000001
#
# number of rings (size 3 to 8) (size 9 to 14) (size 15 to 20)
#    0.000    1.429    2.857    3.857    2.000    2.857 
#    0.000    0.714    0.000    2.571    0.000    2.000 
#    0.000    0.000    0.000    0.000    0.000    0.000 
#
# Total GULP energy -346965.090851 kJ/mol
# GULP energy per Si atom -12391.610388 kJ/mol
# Density = 2.172812 g / cm^3
# Si number density = 21.777691 Si / 1000 Ang^3
#
#
#
# Elastic Constant Matrix: (Units=GPa)
#
#
# Indices 1 2 3 4 5 6 
#
# 1 36.1933 9.1426 5.5498 0.0000 3.0731 0.0000
# 2 9.1426 102.2957 21.7051 0.0000 12.4205 0.0000
# 3 5.5498 21.7051 97.1019 0.0000 21.0334 0.0000
# 4 0.0000 0.0000 0.0000 32.3125 0.0000 5.8288
# 5 3.0731 12.4205 21.0334 0.0000 35.8536 0.0000
# 6 0.0000 0.0000 0.0000 5.8288 0.0000 25.1479
#
#
#
# Elastic Compliance Matrix: (Units=1/GPa)
#
#
# Indices 1 2 3 4 5 6 
#
# 1 0.028421 -0.002213 -0.000880 0.000000 -0.001153 0.000000
# 2 -0.002213 0.010639 -0.001712 0.000000 -0.002492 0.000000
# 3 -0.000880 -0.001712 0.012128 0.000000 -0.006446 0.000000
# 4 0.000000 0.000000 0.000000 0.032298 0.000000 -0.007486
# 5 -0.001153 -0.002492 -0.006446 0.000000 0.032635 0.000000
# 6 0.000000 0.000000 0.000000 -0.007486 0.000000 0.041500
#
#
# Mechanical properties :
#
#
# Convention : Reuss Voigt Hill
#
# Bulk Modulus (GPa) = 24.05132 34.26512 29.15822
# Shear Modulus (GPa) = 27.61043 31.94235 29.77639
#
# Velocity S-wave (km/s) = 3.56452 3.83397 3.70170
# Velocity P-wave (km/s) = 5.29236 5.94704 5.62923
#
# Compressibility (1/GPa) = 0.04157777
#
# Stress axis : x y z
#
# Youngs Moduli (GPa) = 35.18476 93.99220 82.45561
#
# Poissons Ratio (x) = 0.20805 0.07255
# Poissons Ratio (y) = 0.07788 0.14116
# Poissons Ratio (z) = 0.03096 0.16091
#
# Static dielectric constant tensor:
#      x y z
#    x 3.631070 0.000000 -0.099050 
#    y 0.000000 3.709460 0.000000 
#    z -0.099050 0.000000 4.217570 
# 
# 
# High freq. dielectric constant tensor:
#      x y z
#    x 1.822250 0.000000 -0.008820 
#    y 0.000000 1.843780 0.000000 
#    z -0.008820 0.000000 1.879290 
# 
# From -- ./inp_files/89656.got.cif
#   From: 2010.06.25/outbox.cif.g09.slc.cpg/sg12_45_cif.got.tgz:89656.got - 2010.06.28 00:19:55.
