data_PCOD8097555
_publ_section_title
;
Structure prediction by ZEFSAII (Michael W. Deem and Ramdas Pophale) SiO2 
 PCOD8097555
Probable space group: C 2/M
;
_chemical_formula_sum "Si O2"
_cell_formula_units_Z 64
_cell_length_a 16.011786
_cell_length_b 9.070466
_cell_length_c 22.135750
_cell_angle_alpha 90.000000
_cell_angle_beta 88.951864
_cell_angle_gamma 90.000000
_cell_volume 3214.333583
_symmetry_space_group_name_H-M "C 2/M"
_symmetry_group_IT_number 12
_symmetry_cell_setting 'monoclinic'
loop_
_space_group_symop_operation_xyz
x,y,z
-x,y,-z
-x,-y,-z
x,-y,z
1/2+x,1/2+y,z
1/2-x,1/2+y,-z
1/2-x,1/2-y,-z
1/2+x,1/2-y,z
loop_
_atom_site_type_symbol
_atom_site_label
_atom_site_fract_x
_atom_site_fract_y
_atom_site_fract_z
Si Si1 0.654274 0.665834 0.127848
Si Si2 0.899238 0.331497 0.756308
Si Si3 0.346901 0.834441 0.117347
Si Si4 0.337745 0.174653 0.361415
Si Si5 0.151360 0.174358 0.359276
Si Si6 0.500526 0.826651 0.570061
Si Si7 0.909789 0.668556 0.239492
Si Si8 0.905237 0.826438 0.000520
O O1 0.617410 0.500000 0.134948
O O2 0.611069 0.773107 0.175945
O O3 0.751705 0.665074 0.138950
O O4 0.635705 0.728294 0.061286
O O5 0.868057 0.500000 0.752793
O O6 0.849388 0.231638 0.709493
O O7 0.996197 0.319401 0.738199
O O8 0.395972 0.758285 0.173464
O O9 0.379053 0.000000 0.103304
O O10 0.356213 0.740992 0.057079
O O11 0.243851 0.216476 0.384463
O O12 0.410679 0.233599 0.405170
O O13 0.353715 0.239979 0.293640
O O14 0.346963 0.000000 0.357727
O O15 0.079396 0.248987 0.399405
O O16 0.137485 0.000000 0.359581
O O17 0.500000 0.786952 0.500000
O O18 0.490225 0.000000 0.582124
O O19 0.882147 0.500000 0.230070
O O20 0.897853 0.000000 0.007291
O O21 0.000000 0.771194 0.000000
#
# Coordination Sequence:
#
# PCOD8097555 Si02
#       8
#     8   8   8   8   8   8   8   8
#     4  10  21  36  53  76 108 144 184 231 289 350
#     4  11  21  35  58  84 112 147 191 241 288 342
#     4  10  20  34  54  77 101 139 188 232 278 346
#     4   9  18  36  60  85 119 161 196 234 293 354
#     4  11  22  37  61  89 121 160 197 240 296 351
#     4  10  21  40  65  90 120 160 202 242 285 340
#     4   9  17  32  55  79 106 143 188 234 282 342
#     4  10  21  36  52  73 106 143 177 228 291 343
#
# _framework density 19.910813999999998
#
# number of rings (size 3 to 8) (size 9 to 14) (size 15 to 20)
#    0.000    2.000    1.250    2.625    0.000    4.000 
#    0.000    1.875    0.000    0.000    0.000    0.000 
#    0.000    0.000    0.000    0.000    0.000    0.000 
#
# Total GULP energy -396727.585089 kJ/mol
# GULP energy per Si atom -12397.737034 kJ/mol
# Density = 1.986550 g / cm^3
# Si number density = 19.910814 Si / 1000 Ang^3
#
#
#
# Elastic Constant Matrix: (Units=GPa)
#
#
# Indices 1 2 3 4 5 6 
#
# 1 116.9140 33.5340 59.0688 0.0000 6.4945 0.0000
# 2 33.5340 51.4889 40.2732 0.0000 -3.7313 0.0000
# 3 59.0688 40.2732 139.0585 0.0000 6.9263 0.0000
# 4 0.0000 0.0000 0.0000 28.0176 0.0000 -3.1872
# 5 6.4945 -3.7313 6.9263 0.0000 29.1955 0.0000
# 6 0.0000 0.0000 0.0000 -3.1872 0.0000 20.4956
#
#
#
# Elastic Compliance Matrix: (Units=1/GPa)
#
#
# Indices 1 2 3 4 5 6 
#
# 1 0.011934 -0.005285 -0.003413 0.000000 -0.002520 0.000000
# 2 -0.005285 0.028191 -0.006231 0.000000 0.006257 0.000000
# 3 -0.003413 -0.006231 0.010572 0.000000 -0.002545 0.000000
# 4 0.000000 0.000000 0.000000 0.036335 0.000000 0.005650
# 5 -0.002520 0.006257 -0.002545 0.000000 0.036216 0.000000
# 6 0.000000 0.000000 0.000000 0.005650 0.000000 0.049670
#
#
# Mechanical properties :
#
#
# Convention : Reuss Voigt Hill
#
# Bulk Modulus (GPa) = 47.98831 63.69037 55.83934
# Shear Modulus (GPa) = 23.84109 27.18078 25.51093
#
# Velocity S-wave (km/s) = 3.46409 3.69877 3.58335
# Velocity P-wave (km/s) = 6.33671 7.09214 6.72504
#
# Compressibility (1/GPa) = 0.02083841
#
# Stress axis : x y z
#
# Youngs Moduli (GPa) = 83.79723 35.47216 94.58691
#
# Poissons Ratio (x) = 0.18748 0.32281
# Poissons Ratio (y) = 0.44290 0.58938
# Poissons Ratio (z) = 0.28599 0.22103
#
# Static dielectric constant tensor:
#      x y z
#    x 3.733270 0.000000 0.158860 
#    y 0.000000 3.359240 0.000000 
#    z 0.158860 0.000000 3.691310 
# 
# 
# High freq. dielectric constant tensor:
#      x y z
#    x 1.786620 0.000000 0.006460 
#    y 0.000000 1.742010 0.000000 
#    z 0.006460 0.000000 1.785580 
# 
# From -- ./inp_files/314086.got.cif
#   From: 2010.06.25/outbox.cif.g09.slc.cpg/sg12_158_cif.got.tgz:314086.got - 2010.06.28 00:19:55.
