data_PCOD8097011
_publ_section_title
;
Structure prediction by ZEFSAII (Michael W. Deem and Ramdas Pophale) SiO2 
 PCOD8097011
Probable space group: C 2/M
;
_chemical_formula_sum "Si O2"
_cell_formula_units_Z 48
_cell_length_a 30.869640
_cell_length_b 8.730887
_cell_length_c 18.076958
_cell_angle_alpha 90.000000
_cell_angle_beta 148.747263
_cell_angle_gamma 90.000000
_cell_volume 2527.708848
_symmetry_space_group_name_H-M "C 2/M"
_symmetry_group_IT_number 12
_symmetry_cell_setting 'monoclinic'
loop_
_space_group_symop_operation_xyz
x,y,z
-x,y,-z
-x,-y,-z
x,-y,z
1/2+x,1/2+y,z
1/2-x,1/2+y,-z
1/2-x,1/2-y,-z
1/2+x,1/2-y,z
loop_
_atom_site_type_symbol
_atom_site_label
_atom_site_fract_x
_atom_site_fract_y
_atom_site_fract_z
Si Si1 0.407979 0.821809 0.888610
Si Si2 0.318770 0.178052 0.902942
Si Si3 0.754801 0.179620 0.587252
Si Si4 0.662368 0.681553 0.583673
Si Si5 0.832936 0.681790 0.087222
Si Si6 0.000984 0.680289 0.587015
O O1 0.394651 0.790624 0.956713
O O2 0.345530 0.717265 0.751706
O O3 0.390509 0.000000 0.844704
O O4 0.500000 0.771548 0.000000
O O5 0.232159 0.245446 0.743279
O O6 0.304638 0.000000 0.894365
O O7 0.341201 0.248754 0.015631
O O8 0.750000 0.250000 0.500000
O O9 0.681610 0.249920 0.531110
O O10 0.741036 0.000000 0.562692
O O11 0.667434 0.500000 0.584951
O O12 0.571776 0.732469 0.476878
O O13 0.827120 0.500000 0.080383
O O14 0.912223 0.736556 0.250607
O O15 0.750000 0.750000 0.000000
O O16 0.987306 0.500000 0.576961
O O17 0.000000 0.728460 0.500000
#
# Coordination Sequence:
#
# PCOD8097011 Si02
#       6
#     8   8   8   8   8   8
#     4   9  18  34  56  81 109 142 181 225 275 331
#     4   8  16  32  52  74 100 133 174 217 262 313
#     4  11  22  37  57  81 112 147 184 227 277 331
#     4  10  20  36  57  79 104 138 183 229 274 326
#     4  10  20  34  52  74 103 139 178 219 264 316
#     4  10  21  35  52  79 113 145 178 221 273 325
#
# _framework density 18.989529999999998
#
# number of rings (size 3 to 8) (size 9 to 14) (size 15 to 20)
#    0.000    2.333    0.000    4.000    0.000    2.667 
#    0.000    6.667    0.000    0.000    0.000    0.000 
#    0.000    0.000    0.000    0.000    0.000    0.000 
#
# Total GULP energy -297591.593006 kJ/mol
# GULP energy per Si atom -12399.649709 kJ/mol
# Density = 1.894631 g / cm^3
# Si number density = 18.989530 Si / 1000 Ang^3
#
#
#
# Elastic Constant Matrix: (Units=GPa)
#
#
# Indices 1 2 3 4 5 6 
#
# 1 178.5157 49.1044 97.5842 0.0000 -2.9713 0.0000
# 2 49.1044 66.4369 38.1048 0.0000 1.4074 0.0000
# 3 97.5842 38.1048 126.9326 0.0000 -0.2280 0.0000
# 4 0.0000 0.0000 0.0000 24.2459 0.0000 6.0901
# 5 -2.9713 1.4074 -0.2280 0.0000 45.1459 0.0000
# 6 0.0000 0.0000 0.0000 6.0901 0.0000 30.5434
#
#
#
# Elastic Compliance Matrix: (Units=1/GPa)
#
#
# Indices 1 2 3 4 5 6 
#
# 1 0.010404 -0.003768 -0.006866 0.000000 0.000768 0.000000
# 2 -0.003768 0.019563 -0.002977 0.000000 -0.000873 0.000000
# 3 -0.006866 -0.002977 0.014050 0.000000 -0.000288 0.000000
# 4 0.000000 0.000000 0.000000 0.043419 0.000000 -0.008657
# 5 0.000768 -0.000873 -0.000288 0.000000 0.022227 0.000000
# 6 0.000000 0.000000 0.000000 -0.008657 0.000000 0.034466
#
#
# Mechanical properties :
#
#
# Convention : Reuss Voigt Hill
#
# Bulk Modulus (GPa) = 59.54479 82.38577 70.96528
# Shear Modulus (GPa) = 28.25637 32.45982 30.35810
#
# Velocity S-wave (km/s) = 3.86164 4.13892 4.00268
# Velocity P-wave (km/s) = 7.16294 8.14370 7.66902
#
# Compressibility (1/GPa) = 0.01679408
#
# Stress axis : x y z
#
# Youngs Moduli (GPa) = 96.11339 51.11637 71.17368
#
# Poissons Ratio (x) = 0.19262 0.48869
# Poissons Ratio (y) = 0.36217 0.21192
# Poissons Ratio (z) = 0.65993 0.15220
#
# Static dielectric constant tensor:
#      x y z
#    x 3.548880 0.000000 -0.361360 
#    y 0.000000 3.272510 0.000000 
#    z -0.361360 0.000000 2.879340 
# 
# 
# High freq. dielectric constant tensor:
#      x y z
#    x 1.755220 0.000000 -0.002380 
#    y 0.000000 1.718660 0.000000 
#    z -0.002380 0.000000 1.736200 
# 
# From -- ./inp_files/274098.got.cif
#   From: 2010.06.25/outbox.cif.g09.slc.cpg/sg12_138_cif.got.tgz:274098.got - 2010.06.28 00:19:55.
