data_PCOD8097724
_publ_section_title
;
Structure prediction by ZEFSAII (Michael W. Deem and Ramdas Pophale) SiO2 
 PCOD8097724
Probable space group: C 2/M
;
_chemical_formula_sum "Si O2"
_cell_formula_units_Z 56
_cell_length_a 31.425089
_cell_length_b 9.144476
_cell_length_c 31.957800
_cell_angle_alpha 90.000000
_cell_angle_beta 17.794199
_cell_angle_gamma 90.000000
_cell_volume 2806.493282
_symmetry_space_group_name_H-M "C 2/M"
_symmetry_group_IT_number 12
_symmetry_cell_setting 'monoclinic'
loop_
_space_group_symop_operation_xyz
x,y,z
-x,y,-z
-x,-y,-z
x,-y,z
1/2+x,1/2+y,z
1/2-x,1/2+y,-z
1/2-x,1/2-y,-z
1/2+x,1/2-y,z
loop_
_atom_site_type_symbol
_atom_site_label
_atom_site_fract_x
_atom_site_fract_y
_atom_site_fract_z
Si Si1 0.122655 0.673888 0.915643
Si Si2 0.172682 0.827852 0.444430
Si Si3 0.189377 0.668236 0.515875
Si Si4 0.374761 0.171575 0.932718
Si Si5 0.039210 0.671585 0.854973
Si Si6 0.434368 0.674167 0.605167
Si Si7 0.612509 0.164176 0.172037
O O1 0.135476 0.500000 0.903548
O O2 0.276696 0.736327 0.759623
O O3 0.000000 0.726109 0.000000
O O4 0.065653 0.740655 0.012753
O O5 0.216136 0.747058 0.446688
O O6 0.296338 0.793103 0.294949
O O7 0.030593 0.775176 0.554634
O O8 0.167215 0.000000 0.460106
O O9 0.243568 0.500000 0.464845
O O10 0.250000 0.750000 0.500000
O O11 0.023637 0.671869 0.673087
O O12 0.228264 0.236668 0.085386
O O13 0.360466 0.000000 0.948670
O O14 0.493989 0.229436 0.851782
O O15 0.417202 0.226175 0.846871
O O16 0.017685 0.500000 0.879541
O O17 0.500000 0.733921 0.500000
O O18 0.432972 0.500000 0.604826
O O19 0.670496 0.000000 0.114131
#
# Coordination Sequence:
#
# PCOD8097724 Si02
#       7
#     8   8   8   8   8   8   8
#     4   9  16  26  43  70 106 145 180 219 271 324
#     4  10  20  34  54  80 112 148 186 231 281 328
#     4  11  23  38  56  78 109 146 187 231 278 330
#     4   9  17  30  50  71  96 131 172 213 261 318
#     4   9  17  29  46  70 103 139 176 220 269 317
#     4   9  17  29  48  78 114 148 185 229 276 329
#     4   9  19  34  49  70 101 134 169 216 268 314
#
# _framework density 19.953726
#
# number of rings (size 3 to 8) (size 9 to 14) (size 15 to 20)
#    0.000    2.571    0.000    2.143    2.000    6.857 
#    0.000    3.571    0.000    0.429    0.000    0.000 
#    0.000    2.857    0.000    0.000    0.000    0.000 
#
# Total GULP energy -346868.950967 kJ/mol
# GULP energy per Si atom -12388.176820 kJ/mol
# Density = 1.990831 g / cm^3
# Si number density = 19.953726 Si / 1000 Ang^3
#
#
#
# Elastic Constant Matrix: (Units=GPa)
#
#
# Indices 1 2 3 4 5 6 
#
# 1 108.7597 28.7976 63.0525 0.0005 -6.7660 -0.0091
# 2 28.7976 31.9460 15.9458 -0.0277 0.1740 0.0534
# 3 63.0525 15.9458 140.8648 -0.0088 -4.3920 0.0133
# 4 0.0005 -0.0277 -0.0088 17.9204 0.0015 -0.7443
# 5 -6.7660 0.1740 -4.3920 0.0015 32.7455 0.0011
# 6 -0.0091 0.0534 0.0133 -0.7443 0.0011 16.5816
#
#
#
# Elastic Compliance Matrix: (Units=1/GPa)
#
#
# Indices 1 2 3 4 5 6 
#
# 1 0.015597 -0.011265 -0.005627 -0.000019 0.002528 0.000048
# 2 -0.011265 0.041329 0.000286 0.000059 -0.002509 -0.000137
# 3 -0.005627 0.000286 0.009589 0.000005 0.000122 -0.000011
# 4 -0.000019 0.000059 0.000005 0.055906 -0.000006 0.002509
# 5 0.002528 -0.002509 0.000122 -0.000006 0.031090 0.000007
# 6 0.000048 -0.000137 -0.000011 0.002509 0.000007 0.060421
#
#
# Mechanical properties :
#
#
# Convention : Reuss Voigt Hill
#
# Bulk Modulus (GPa) = 30.02822 55.24026 42.63424
# Shear Modulus (GPa) = 19.36134 25.03450 22.19792
#
# Velocity S-wave (km/s) = 3.11836 3.54591 3.33899
# Velocity P-wave (km/s) = 5.29596 6.67150 6.02313
#
# Compressibility (1/GPa) = 0.03330200
#
# Stress axis : x y z
#
# Youngs Moduli (GPa) = 64.11493 24.19624 104.28228
#
# Poissons Ratio (x) = 0.27257 0.58684
# Poissons Ratio (y) = 0.72224 -0.02979
# Poissons Ratio (z) = 0.36080 -0.00691
#
# Static dielectric constant tensor:
#      x y z
#    x 3.846680 -0.000040 -0.040170 
#    y -0.000040 3.122290 0.000090 
#    z -0.040170 0.000090 3.910670 
# 
# 
# High freq. dielectric constant tensor:
#      x y z
#    x 1.783210 0.000000 -0.002650 
#    y 0.000000 1.713050 0.000010 
#    z -0.002650 0.000010 1.794150 
# 
# From -- ./inp_files/369361.got.cif
#   From: 2010.06.25/outbox.cif.g09.slc.cpg/sg12_185_cif.got.tgz:369361.got - 2010.06.28 00:19:55.
