data_PCOD8097864
_publ_section_title
;
Structure prediction by ZEFSAII (Michael W. Deem and Ramdas Pophale) SiO2 
 PCOD8097864
Probable space group: C 2/M
;
_chemical_formula_sum "Si O2"
_cell_formula_units_Z 56
_cell_length_a 9.492173
_cell_length_b 19.400450
_cell_length_c 30.868077
_cell_angle_alpha 90.000000
_cell_angle_beta 150.276135
_cell_angle_gamma 90.000000
_cell_volume 2818.457182
_symmetry_space_group_name_H-M "C 2/M"
_symmetry_group_IT_number 12
_symmetry_cell_setting 'monoclinic'
loop_
_space_group_symop_operation_xyz
x,y,z
-x,y,-z
-x,-y,-z
x,-y,z
1/2+x,1/2+y,z
1/2-x,1/2+y,-z
1/2-x,1/2-y,-z
1/2+x,1/2-y,z
loop_
_atom_site_type_symbol
_atom_site_label
_atom_site_fract_x
_atom_site_fract_y
_atom_site_fract_z
Si Si1 0.434128 0.315413 0.410274
Si Si2 0.600261 0.420425 0.244546
Si Si3 0.179151 0.081140 0.415751
Si Si4 0.953077 0.691401 0.614544
Si Si5 0.362259 0.582439 0.918974
Si Si6 0.744684 0.421056 0.767499
Si Si7 0.320126 0.417966 0.081449
O O1 0.481886 0.390441 0.401870
O O2 0.154685 0.306936 0.364727
O O3 0.703664 0.310256 0.513282
O O4 0.393628 0.261871 0.359390
O O5 0.706094 0.500000 0.272491
O O6 0.314670 0.413256 0.197211
O O7 0.514148 0.394079 0.173826
O O8 0.842671 0.374795 0.332025
O O9 0.500000 0.112731 0.500000
O O10 0.028682 0.106870 0.331513
O O11 0.197838 0.000000 0.427066
O O12 0.363037 0.500000 0.918774
O O13 0.534556 0.610883 0.923489
O O14 0.042422 0.613858 0.833204
O O15 0.500000 0.610061 0.000000
O O16 0.777563 0.500000 0.762848
O O17 0.306380 0.500000 0.077291
O O18 0.000000 0.388127 0.000000
#
# Coordination Sequence:
#
# PCOD8097864 Si02
#       7
#     8   8   8   8   8   8   8
#     4  10  23  39  58  78 111 145 194 235 281 346
#     4  10  20  34  54  83 118 147 188 237 286 335
#     4  10  21  35  57  84 112 147 185 233 288 339
#     4  10  23  39  57  82 106 152 190 238 286 330
#     4   9  16  27  45  70 105 147 187 222 270 337
#     4   9  18  30  48  75 107 145 181 223 278 333
#     4   9  17  29  48  76 114 153 184 227 284 339
#
# _framework density 19.869026000000002
#
# number of rings (size 3 to 8) (size 9 to 14) (size 15 to 20)
#    0.000    2.429    0.000    1.714    8.000    5.714 
#    0.000    1.429    0.000    0.000    0.000    2.000 
#    0.000    0.000    0.000    0.000    0.000    0.000 
#
# Total GULP energy -346915.960461 kJ/mol
# GULP energy per Si atom -12389.855731 kJ/mol
# Density = 1.982380 g / cm^3
# Si number density = 19.869026 Si / 1000 Ang^3
#
#
#
# Elastic Constant Matrix: (Units=GPa)
#
#
# Indices 1 2 3 4 5 6 
#
# 1 164.9654 29.8214 61.8499 -0.0019 -0.0714 -0.0008
# 2 29.8214 47.0270 25.0378 -0.0138 1.9437 -0.0079
# 3 61.8499 25.0378 108.0092 -0.0126 8.4929 -0.0062
# 4 -0.0019 -0.0138 -0.0126 11.0954 -0.0104 -3.7116
# 5 -0.0714 1.9437 8.4929 -0.0104 30.8210 -0.0042
# 6 -0.0008 -0.0079 -0.0062 -3.7116 -0.0042 23.4936
#
#
#
# Elastic Compliance Matrix: (Units=1/GPa)
#
#
# Indices 1 2 3 4 5 6 
#
# 1 0.008135 -0.003055 -0.004055 -0.000007 0.001329 -0.000003
# 2 -0.003055 0.025405 -0.004102 0.000030 -0.000479 0.000012
# 3 -0.004055 -0.004102 0.012789 0.000006 -0.003275 0.000002
# 4 -0.000007 0.000030 0.000006 0.095156 0.000031 0.015033
# 5 0.001329 -0.000479 -0.003275 0.000031 0.033381 0.000010
# 6 -0.000003 0.000012 0.000002 0.015033 0.000010 0.044940
#
#
# Mechanical properties :
#
#
# Convention : Reuss Voigt Hill
#
# Bulk Modulus (GPa) = 41.83130 61.49107 51.66118
# Shear Modulus (GPa) = 19.98415 26.63483 23.30949
#
# Velocity S-wave (km/s) = 3.17487 3.66528 3.42885
# Velocity P-wave (km/s) = 5.87698 6.99484 6.46014
#
# Compressibility (1/GPa) = 0.02390555
#
# Stress axis : x y z
#
# Youngs Moduli (GPa) = 122.92746 39.36159 78.19353
#
# Poissons Ratio (x) = 0.12024 0.31705
# Poissons Ratio (y) = 0.37552 0.32078
# Poissons Ratio (z) = 0.49843 0.16148
#
# Static dielectric constant tensor:
#      x y z
#    x 3.898900 -0.000010 0.012690 
#    y -0.000010 3.141690 0.000000 
#    z 0.012690 0.000000 3.696950 
# 
# 
# High freq. dielectric constant tensor:
#      x y z
#    x 1.792890 0.000000 -0.002350 
#    y 0.000000 1.714810 0.000000 
#    z -0.002350 0.000000 1.770920 
# 
# From -- ./inp_files/373174.got.cif
#   From: 2010.06.25/outbox.cif.g09.slc.cpg/sg12_187_cif.got.tgz:373174.got - 2010.06.28 00:19:55.
