data_PCOD8097986
_publ_section_title
;
Structure prediction by ZEFSAII (Michael W. Deem and Ramdas Pophale) SiO2 
 PCOD8097986
Probable space group: C 2/M
;
_chemical_formula_sum "Si O2"
_cell_formula_units_Z 52
_cell_length_a 12.810888
_cell_length_b 19.750575
_cell_length_c 20.895698
_cell_angle_alpha 90.000000
_cell_angle_beta 149.255338
_cell_angle_gamma 90.000000
_cell_volume 2702.823987
_symmetry_space_group_name_H-M "C 2/M"
_symmetry_group_IT_number 12
_symmetry_cell_setting 'monoclinic'
loop_
_space_group_symop_operation_xyz
x,y,z
-x,y,-z
-x,-y,-z
x,-y,z
1/2+x,1/2+y,z
1/2-x,1/2+y,-z
1/2-x,1/2-y,-z
1/2+x,1/2-y,z
loop_
_atom_site_type_symbol
_atom_site_label
_atom_site_fract_x
_atom_site_fract_y
_atom_site_fract_z
Si Si1 0.249964 0.348816 0.450745
Si Si2 0.515159 0.077462 0.218419
Si Si3 0.820463 0.297673 0.451653
Si Si4 0.141224 0.075790 0.705948
Si Si5 0.686169 0.674749 0.987013
Si Si6 0.500000 0.733604 0.000000
Si Si7 0.636431 0.338331 0.821574
O O1 0.116213 0.400272 0.338523
O O2 0.127783 0.325972 0.450234
O O3 0.314189 0.283236 0.444468
O O4 0.459549 0.383477 0.579342
O O5 0.669603 0.080852 0.241270
O O6 0.434005 0.000000 0.183442
O O7 0.342466 0.131724 0.111604
O O8 0.598222 0.321083 0.313025
O O9 0.000000 0.324778 0.500000
O O10 0.207743 0.103613 0.810439
O O11 0.065145 0.000000 0.675790
O O12 0.644167 0.634600 0.898928
O O13 0.750000 0.750000 0.000000
O O14 0.492936 0.686314 0.932536
O O15 0.710311 0.775881 0.110199
#
# Coordination Sequence:
#
# PCOD8097986 Si02
#       7
#     8   8   8   8   8   4   8
#     4  10  20  34  55  83 114 147 184 233 285 340
#     4  11  22  36  56  83 115 151 191 235 289 344
#     4  10  21  35  58  88 114 144 185 237 290 335
#     4  10  20  34  55  81 112 148 184 230 284 340
#     4  10  21  36  57  81 109 146 188 234 279 333
#     4  10  20  36  58  82 112 148 186 232 284 334
#     4  10  21  36  56  84 114 144 186 233 283 337
#
# _framework density 19.239135999999998
#
# number of rings (size 3 to 8) (size 9 to 14) (size 15 to 20)
#    0.000    1.846    0.000    5.538    0.000    6.769 
#    0.000    2.308    0.000   15.231    0.000    0.000 
#    0.000    0.000    0.000    0.000    0.000    0.000 
#
# Total GULP energy -322228.619846 kJ/mol
# GULP energy per Si atom -12393.408456 kJ/mol
# Density = 1.919535 g / cm^3
# Si number density = 19.239136 Si / 1000 Ang^3
#
#
#
# Elastic Constant Matrix: (Units=GPa)
#
#
# Indices 1 2 3 4 5 6 
#
# 1 -840.8671-1283.8516-1063.9696 -0.1632 579.9308 0.1509
# 2 -1283.8516-1689.1376-1473.8113 -0.2184 793.6292 0.2005
# 3 -1063.9696-1473.8113-1181.1864 -0.1780 661.7104 0.1622
# 4 -0.1632 -0.2184 -0.1780 57.8892 0.1020 -20.8163
# 5 579.9308 793.6292 661.7104 0.1020 -320.9595 -0.0927
# 6 0.1509 0.2005 0.1622 -20.8163 -0.0927 36.3432
#
#
#
# Elastic Compliance Matrix: (Units=1/GPa)
#
#
# Indices 1 2 3 4 5 6 
#
# 1 0.009643 -0.002488 -0.004729 0.000000 0.001523 -0.000001
# 2 -0.002488 0.008383 -0.005647 -0.000001 0.004589 0.000001
# 3 -0.004729 -0.005647 0.013875 -0.000001 0.006097 0.000004
# 4 0.000000 -0.000001 -0.000001 0.021755 -0.000001 0.012461
# 5 0.001523 0.004589 0.006097 -0.000001 0.023553 0.000001
# 6 -0.000001 0.000001 0.000004 0.012461 0.000001 0.034653
#
#
# Mechanical properties :
#
#
# Convention : Reuss Voigt Hill
#
# Bulk Modulus (GPa) = 162.00965 -1261.60624 -549.79830
# Shear Modulus (GPa) = 35.80450 -37.98268 -1.08909
#
# Velocity S-wave (km/s) = 4.31864 -4.44806 -0.75320
# Velocity P-wave (km/s) = 10.45269 26.14486 16.94543
#
# Compressibility (1/GPa) = 0.00617247
#
# Stress axis : x y z
#
# Youngs Moduli (GPa) = 103.69700 119.29493 72.07430
#
# Poissons Ratio (x) = 0.29682 0.34083
# Poissons Ratio (y) = 0.25801 0.40701
# Poissons Ratio (z) = 0.49036 0.67367
#
# Static dielectric constant tensor:
#      x y z
#    x 5.038150 0.000060 -0.593100 
#    y 0.000060 3.562470 -0.000020 
#    z -0.593100 -0.000020 3.514930 
# 
# 
# High freq. dielectric constant tensor:
#      x y z
#    x 1.766280 0.000000 -0.014550 
#    y 0.000000 1.734080 0.000000 
#    z -0.014550 0.000000 1.741220 
# 
# From -- ./inp_files/306938.got.cif
#   From: 2010.06.25/outbox.cif.g09.slc.cpg/sg12_154_cif.got.tgz:306938.got - 2010.06.28 00:19:55.
