data_PCOD8097998
_publ_section_title
;
Structure prediction by ZEFSAII (Michael W. Deem and Ramdas Pophale) SiO2 
 PCOD8097998
Probable space group: C 2/M
;
_chemical_formula_sum "Si O2"
_cell_formula_units_Z 56
_cell_length_a 19.501179
_cell_length_b 8.931631
_cell_length_c 30.474413
_cell_angle_alpha 90.000000
_cell_angle_beta 35.501302
_cell_angle_gamma 90.000000
_cell_volume 3082.441635
_symmetry_space_group_name_H-M "C 2/M"
_symmetry_group_IT_number 12
_symmetry_cell_setting 'monoclinic'
loop_
_space_group_symop_operation_xyz
x,y,z
-x,y,-z
-x,-y,-z
x,-y,z
1/2+x,1/2+y,z
1/2-x,1/2+y,-z
1/2-x,1/2-y,-z
1/2+x,1/2-y,z
loop_
_atom_site_type_symbol
_atom_site_label
_atom_site_fract_x
_atom_site_fract_y
_atom_site_fract_z
Si Si1 0.029940 0.330123 0.336790
Si Si2 0.317367 0.173134 0.504126
Si Si3 0.126728 0.829497 0.060833
Si Si4 0.229365 0.675972 0.775864
Si Si5 0.905667 0.821604 0.230390
Si Si6 0.352373 0.174427 0.349466
Si Si7 0.462142 0.672989 0.067386
O O1 0.077758 0.500000 0.308560
O O2 0.956593 0.310601 0.420666
O O3 0.947239 0.294869 0.338175
O O4 0.136828 0.214502 0.281123
O O5 0.250000 0.250000 0.500000
O O6 0.275694 0.256642 0.570281
O O7 0.280683 0.000000 0.526188
O O8 0.031730 0.767666 0.145401
O O9 0.076029 0.806325 0.038632
O O10 0.151900 0.000000 0.058470
O O11 0.250000 0.750000 0.000000
O O12 0.215688 0.500000 0.776563
O O13 0.197262 0.757681 0.747095
O O14 0.146566 0.729169 0.858816
O O15 0.897089 0.757361 0.283192
O O16 0.894375 0.000000 0.236238
O O17 0.335689 0.000000 0.348500
O O18 0.421255 0.500000 0.087688
O O19 0.500000 0.731268 0.000000
#
# Coordination Sequence:
#
# PCOD8097998 Si02
#       7
#     8   8   8   8   8   8   8
#     4   9  19  35  54  77 107 142 176 212 259 314
#     4   9  17  31  52  77 106 140 175 215 263 310
#     4   9  19  34  53  76 101 133 169 209 257 307
#     4  11  22  35  54  79 107 139 176 220 264 307
#     4  10  21  38  56  75 106 144 177 212 262 319
#     4  10  20  34  55  82 108 137 176 220 264 310
#     4   9  19  37  57  75 100 137 176 212 258 313
#
# _framework density 18.167417
#
# number of rings (size 3 to 8) (size 9 to 14) (size 15 to 20)
#    0.000    2.429    0.000    4.286    0.000    7.714 
#    0.000    5.000    0.000    4.286    0.000    0.000 
#    0.000    0.000    0.000    0.000    0.000    0.000 
#
# Total GULP energy -347151.600097 kJ/mol
# GULP energy per Si atom -12398.271432 kJ/mol
# Density = 1.812607 g / cm^3
# Si number density = 18.167417 Si / 1000 Ang^3
#
#
#
# Elastic Constant Matrix: (Units=GPa)
#
#
# Indices 1 2 3 4 5 6 
#
# 1 65.1658 38.4070 59.3978 -0.0045 9.5194 0.0297
# 2 38.4070 104.4130 54.6048 -0.0077 1.1675 0.0156
# 3 59.3978 54.6048 114.7579 -0.0050 12.8355 0.0054
# 4 -0.0045 -0.0077 -0.0050 36.3826 -0.0011 -0.3054
# 5 9.5194 1.1675 12.8355 -0.0011 31.4294 -0.0009
# 6 0.0297 0.0156 0.0054 -0.3054 -0.0009 30.7165
#
#
#
# Elastic Compliance Matrix: (Units=1/GPa)
#
#
# Indices 1 2 3 4 5 6 
#
# 1 0.030587 -0.004184 -0.013436 0.000001 -0.003622 -0.000025
# 2 -0.004184 0.013456 -0.004530 0.000002 0.002617 -0.000002
# 3 -0.013436 -0.004530 0.018180 0.000000 -0.003187 0.000012
# 4 0.000001 0.000002 0.000000 0.027488 0.000001 0.000273
# 5 -0.003622 0.002617 -0.003187 0.000001 0.034119 0.000004
# 6 -0.000025 -0.000002 0.000012 0.000273 0.000004 0.032558
#
#
# Mechanical properties :
#
#
# Convention : Reuss Voigt Hill
#
# Bulk Modulus (GPa) = 55.79113 65.46175 60.62644
# Shear Modulus (GPa) = 24.19411 28.50083 26.34747
#
# Velocity S-wave (km/s) = 3.65325 3.96509 3.81236
# Velocity P-wave (km/s) = 6.96930 7.55469 7.26789
#
# Compressibility (1/GPa) = 0.01792400
#
# Stress axis : x y z
#
# Youngs Moduli (GPa) = 32.69375 74.31545 55.00554
#
# Poissons Ratio (x) = 0.31095 0.73903
# Poissons Ratio (y) = 0.13680 0.24917
# Poissons Ratio (z) = 0.43926 0.33664
#
# Static dielectric constant tensor:
#      x y z
#    x 3.175550 0.000000 0.161830 
#    y 0.000000 3.431330 0.000070 
#    z 0.161830 0.000070 3.764100 
# 
# 
# High freq. dielectric constant tensor:
#      x y z
#    x 1.682100 0.000000 0.006140 
#    y 0.000000 1.710440 0.000000 
#    z 0.006140 0.000000 1.714640 
# 
# From -- ./inp_files/377676.got.cif
#   From: 2010.06.25/outbox.cif.g09.slc.cpg/sg12_189_cif.got.tgz:377676.got - 2010.06.28 00:19:55.
