data_PCOD8097366
_publ_section_title
;
Structure prediction by ZEFSAII (Michael W. Deem and Ramdas Pophale) SiO2 
 PCOD8097366
Probable space group: C 2/M
;
_chemical_formula_sum "Si O2"
_cell_formula_units_Z 64
_cell_length_a 29.463538
_cell_length_b 9.128199
_cell_length_c 14.645336
_cell_angle_alpha 90.000000
_cell_angle_beta 61.154095
_cell_angle_gamma 90.000000
_cell_volume 3450.118300
_symmetry_space_group_name_H-M "C 2/M"
_symmetry_group_IT_number 12
_symmetry_cell_setting 'monoclinic'
loop_
_space_group_symop_operation_xyz
x,y,z
-x,y,-z
-x,-y,-z
x,-y,z
1/2+x,1/2+y,z
1/2-x,1/2+y,-z
1/2-x,1/2-y,-z
1/2+x,1/2-y,z
loop_
_atom_site_type_symbol
_atom_site_label
_atom_site_fract_x
_atom_site_fract_y
_atom_site_fract_z
Si Si1 0.881909 0.674557 0.950273
Si Si2 0.365139 0.671317 0.491086
Si Si3 0.286272 0.173104 0.688440
Si Si4 0.594824 0.670510 0.744745
Si Si5 0.140248 0.668152 0.226960
Si Si6 0.995463 0.327167 0.900083
Si Si7 0.558153 0.831003 0.455491
Si Si8 0.168884 0.171890 0.835737
O O1 0.878541 0.500000 0.958405
O O2 0.864706 0.740211 0.868434
O O3 0.940497 0.725939 0.913904
O O4 0.842539 0.741640 0.061020
O O5 0.360105 0.500000 0.515771
O O6 0.312767 0.750219 0.575702
O O7 0.372182 0.705215 0.377524
O O8 0.415334 0.732464 0.493791
O O9 0.313363 0.233541 0.755516
O O10 0.226270 0.214115 0.747041
O O11 0.296390 0.000000 0.669485
O O12 0.581888 0.500000 0.764566
O O13 0.540629 0.755766 0.795892
O O14 0.629153 0.723944 0.796708
O O15 0.152923 0.500000 0.197522
O O16 0.085929 0.689325 0.331330
O O17 0.002046 0.500000 0.886664
O O18 0.000000 0.272999 0.000000
O O19 0.500000 0.774798 0.500000
O O20 0.560226 0.000000 0.485491
O O21 0.164616 0.000000 0.859355
#
# Coordination Sequence:
#
# PCOD8097366 Si02
#       8
#     8   8   8   8   8   8   8   8
#     4  10  20  34  53  79 109 138 172 219 268 314
#     4  10  21  36  53  78 110 140 174 221 271 316
#     4   9  19  38  59  77 102 139 181 223 266 317
#     4  10  22  37  53  77 110 145 177 214 269 324
#     4   8  16  32  52  76 105 135 170 215 263 311
#     4  10  20  34  53  78 107 138 178 223 261 308
#     4   9  18  33  55  79 104 141 182 216 259 316
#     4  10  21  37  56  77 104 140 182 222 263 320
#
# _framework density 18.550087000000001
#
# number of rings (size 3 to 8) (size 9 to 14) (size 15 to 20)
#    0.000    2.500    1.250    1.125    1.750    3.500 
#    0.000    2.500    0.000    0.000    0.000    0.000 
#    0.000    0.000    0.000    0.000    0.000    0.000 
#
# Total GULP energy -396812.334857 kJ/mol
# GULP energy per Si atom -12400.385464 kJ/mol
# Density = 1.850787 g / cm^3
# Si number density = 18.550087 Si / 1000 Ang^3
#
#
#
# Elastic Constant Matrix: (Units=GPa)
#
#
# Indices 1 2 3 4 5 6 
#
# 1 60.7556 21.2858 35.2477 0.0000 -15.9150 0.0000
# 2 21.2858 38.3787 36.8815 0.0000 -4.5702 0.0000
# 3 35.2477 36.8815 103.0534 0.0000 0.2689 0.0000
# 4 0.0000 0.0000 0.0000 33.0749 0.0000 -2.6028
# 5 -15.9150 -4.5702 0.2689 0.0000 36.8128 0.0000
# 6 0.0000 0.0000 0.0000 -2.6028 0.0000 18.4465
#
#
#
# Elastic Compliance Matrix: (Units=1/GPa)
#
#
# Indices 1 2 3 4 5 6 
#
# 1 0.025034 -0.006763 -0.006168 0.000000 0.010028 0.000000
# 2 -0.006763 0.042498 -0.012903 0.000000 0.002447 0.000000
# 3 -0.006168 -0.012903 0.016443 0.000000 -0.004389 0.000000
# 4 0.000000 0.000000 0.000000 0.030574 0.000000 0.004314
# 5 0.010028 0.002447 -0.004389 0.000000 0.031836 0.000000
# 6 0.000000 0.000000 0.000000 0.004314 0.000000 0.054819
#
#
# Mechanical properties :
#
#
# Convention : Reuss Voigt Hill
#
# Bulk Modulus (GPa) = 30.95310 43.22419 37.08865
# Shear Modulus (GPa) = 18.96524 24.91835 21.94179
#
# Velocity S-wave (km/s) = 3.20094 3.66908 3.44298
# Velocity P-wave (km/s) = 5.51215 6.42662 5.98687
#
# Compressibility (1/GPa) = 0.03230694
#
# Stress axis : x y z
#
# Youngs Moduli (GPa) = 39.94523 23.53077 60.81735
#
# Poissons Ratio (x) = 0.15913 0.37515
# Poissons Ratio (y) = 0.27014 0.78471
# Poissons Ratio (z) = 0.24640 0.30361
#
# Static dielectric constant tensor:
#      x y z
#    x 3.562730 0.000000 0.080650 
#    y 0.000000 3.180100 0.000000 
#    z 0.080650 0.000000 3.440530 
# 
# 
# High freq. dielectric constant tensor:
#      x y z
#    x 1.723960 0.000000 -0.000420 
#    y 0.000000 1.696840 0.000000 
#    z -0.000420 0.000000 1.725540 
# 
# From -- ./inp_files/248969.got.cif
#   From: 2010.06.25/outbox.cif.g09.slc.cpg/sg12_125_cif.got.tgz:248969.got - 2010.06.28 00:19:55.
