data_PCOD8097085
_publ_section_title
;
Structure prediction by ZEFSAII (Michael W. Deem and Ramdas Pophale) SiO2 
 PCOD8097085
Probable space group: C 2/M
;
_chemical_formula_sum "Si O2"
_cell_formula_units_Z 64
_cell_length_a 24.801231
_cell_length_b 8.960495
_cell_length_c 16.788598
_cell_angle_alpha 90.000000
_cell_angle_beta 103.239411
_cell_angle_gamma 90.000000
_cell_volume 3631.789333
_symmetry_space_group_name_H-M "C 2/M"
_symmetry_group_IT_number 12
_symmetry_cell_setting 'monoclinic'
loop_
_space_group_symop_operation_xyz
x,y,z
-x,y,-z
-x,-y,-z
x,-y,z
1/2+x,1/2+y,z
1/2-x,1/2+y,-z
1/2-x,1/2-y,-z
1/2+x,1/2-y,z
loop_
_atom_site_type_symbol
_atom_site_label
_atom_site_fract_x
_atom_site_fract_y
_atom_site_fract_z
Si Si1 0.804043 0.329256 0.049142
Si Si2 0.307771 0.327122 0.515559
Si Si3 0.696710 0.325058 0.658038
Si Si4 0.970141 0.675382 0.169413
Si Si5 0.919516 0.824199 0.826104
Si Si6 0.684355 0.675466 0.309490
Si Si7 0.088618 0.332378 0.013402
Si Si8 0.631678 0.323150 0.790044
O O1 0.791897 0.500000 0.069710
O O2 0.824837 0.239952 0.132320
O O3 0.750000 0.250000 0.000000
O O4 0.848281 0.323331 0.993334
O O5 0.295556 0.500000 0.511743
O O6 0.250000 0.250000 0.500000
O O7 0.333198 0.283438 0.437421
O O8 0.339218 0.284674 0.608677
O O9 0.707955 0.500000 0.669188
O O10 0.756697 0.249767 0.689277
O O11 0.653785 0.273431 0.710954
O O12 0.969157 0.500000 0.185528
O O13 0.928670 0.751881 0.217996
O O14 0.030897 0.742102 0.203596
O O15 0.951610 0.711730 0.072796
O O16 0.861941 0.767601 0.768056
O O17 0.920605 0.783780 0.919311
O O18 0.927250 0.000000 0.818384
O O19 0.693228 0.500000 0.302844
O O20 0.074640 0.500000 0.038809
O O21 0.627287 0.500000 0.798321
#
# Coordination Sequence:
#
# PCOD8097085 Si02
#       8
#     8   8   8   8   8   8   8   8
#     4  10  21  35  50  70 101 138 171 205 249 297
#     4   8  14  29  49  70 100 133 163 197 241 296
#     4   9  18  31  52  78 102 132 167 202 245 300
#     4  10  21  38  55  71  94 132 174 211 253 297
#     4  11  22  33  50  77 102 129 165 210 255 297
#     4   9  19  32  48  75 107 134 162 201 250 300
#     4   9  20  36  51  69  94 128 170 209 248 295
#     4  10  20  34  52  76 101 128 167 212 252 298
#
# _framework density 17.622167999999999
#
# number of rings (size 3 to 8) (size 9 to 14) (size 15 to 20)
#    0.000    2.500    0.000    2.625    1.750    6.500 
#    0.000    0.000    0.000    0.750    0.000    5.250 
#    0.000    0.000    0.000    0.000    0.000    0.000 
#
# Total GULP energy -396579.880458 kJ/mol
# GULP energy per Si atom -12393.121264 kJ/mol
# Density = 1.758206 g / cm^3
# Si number density = 17.622168 Si / 1000 Ang^3
#
#
#
# Elastic Constant Matrix: (Units=GPa)
#
#
# Indices 1 2 3 4 5 6 
#
# 1 80.2777 39.2698 49.9138 0.0000 -9.3363 0.0000
# 2 39.2698 67.2727 37.0713 0.0000 -9.0587 0.0000
# 3 49.9138 37.0713 89.5530 0.0000 -23.3286 0.0000
# 4 0.0000 0.0000 0.0000 20.4301 0.0000 -1.2182
# 5 -9.3363 -9.0587 -23.3286 0.0000 23.2833 0.0000
# 6 0.0000 0.0000 0.0000 -1.2182 0.0000 29.7058
#
#
#
# Elastic Compliance Matrix: (Units=1/GPa)
#
#
# Indices 1 2 3 4 5 6 
#
# 1 0.022175 -0.007895 -0.010251 0.000000 -0.004450 0.000000
# 2 -0.007895 0.022076 -0.004500 0.000000 0.000915 0.000000
# 3 -0.010251 -0.004500 0.023297 0.000000 0.017481 0.000000
# 4 0.000000 0.000000 0.000000 0.049067 0.000000 0.002012
# 5 -0.004450 0.000915 0.017481 0.000000 0.059035 0.000000
# 6 0.000000 0.000000 0.000000 0.002012 0.000000 0.033746
#
#
# Mechanical properties :
#
#
# Convention : Reuss Voigt Hill
#
# Bulk Modulus (GPa) = 44.93100 54.40145 49.66622
# Shear Modulus (GPa) = 19.07625 22.07372 20.57498
#
# Velocity S-wave (km/s) = 3.29373 3.54306 3.42067
# Velocity P-wave (km/s) = 6.32590 6.90477 6.62166
#
# Compressibility (1/GPa) = 0.02225635
#
# Stress axis : x y z
#
# Youngs Moduli (GPa) = 45.09672 45.29721 42.92487
#
# Poissons Ratio (x) = 0.35761 0.44000
# Poissons Ratio (y) = 0.35603 0.19317
# Poissons Ratio (z) = 0.46227 0.20385
#
# Static dielectric constant tensor:
#      x y z
#    x 3.220560 0.000000 -0.152470 
#    y 0.000000 3.984420 0.000000 
#    z -0.152470 0.000000 3.952560 
# 
# 
# High freq. dielectric constant tensor:
#      x y z
#    x 1.666850 0.000000 -0.009730 
#    y 0.000000 1.688220 0.000000 
#    z -0.009730 0.000000 1.678360 
# 
# From -- ./inp_files/287751.got.cif
#   From: 2010.06.25/outbox.cif.g09.slc.cpg/sg12_144_cif.got.tgz:287751.got - 2010.06.28 00:19:55.
