data_PCOD8097967
_publ_section_title
;
Structure prediction by ZEFSAII (Michael W. Deem and Ramdas Pophale) SiO2 
 PCOD8097967
Probable space group: C 2/M
;
_chemical_formula_sum "Si O2"
_cell_formula_units_Z 48
_cell_length_a 15.030288
_cell_length_b 8.984542
_cell_length_c 32.545663
_cell_angle_alpha 90.000000
_cell_angle_beta 144.119027
_cell_angle_gamma 90.000000
_cell_volume 2575.909211
_symmetry_space_group_name_H-M "C 2/M"
_symmetry_group_IT_number 12
_symmetry_cell_setting 'monoclinic'
loop_
_space_group_symop_operation_xyz
x,y,z
-x,y,-z
-x,-y,-z
x,-y,z
1/2+x,1/2+y,z
1/2-x,1/2+y,-z
1/2-x,1/2-y,-z
1/2+x,1/2-y,z
loop_
_atom_site_type_symbol
_atom_site_label
_atom_site_fract_x
_atom_site_fract_y
_atom_site_fract_z
Si Si1 0.208631 0.325480 0.421429
Si Si2 0.469899 0.173792 0.564880
Si Si3 0.692279 0.674461 0.330800
Si Si4 0.401916 0.176220 0.073647
Si Si5 0.895728 0.324606 0.925078
Si Si6 0.569200 0.324127 0.829344
O O1 0.226235 0.500000 0.422850
O O2 0.372550 0.259817 0.494410
O O3 0.085245 0.283186 0.410044
O O4 0.151251 0.257018 0.357486
O O5 0.643845 0.222847 0.625151
O O6 0.447049 0.000000 0.547830
O O7 0.684879 0.500000 0.336815
O O8 0.569806 0.723379 0.251349
O O9 0.539228 0.221425 0.094754
O O10 0.450345 0.238801 0.135485
O O11 0.377041 0.000000 0.066228
O O12 0.250000 0.250000 0.000000
O O13 0.898482 0.500000 0.931457
O O14 0.723399 0.268152 0.865095
O O15 0.000000 0.252940 0.000000
O O16 0.571436 0.500000 0.838849
#
# Coordination Sequence:
#
# PCOD8097967 Si02
#       6
#     8   8   8   8   8   8
#     4  10  20  34  55  81 108 140 180 224 264 309
#     4   9  19  36  55  78 109 144 179 218 267 317
#     4  10  21  36  55  77 108 146 179 215 266 323
#     4  11  21  35  57  81 105 136 175 220 267 314
#     4   9  17  33  56  77 103 137 170 211 264 317
#     4  10  21  38  56  78 107 143 181 216 264 323
#
# _framework density 18.634198000000001
#
# number of rings (size 3 to 8) (size 9 to 14) (size 15 to 20)
#    0.000    2.167    1.667    1.500    0.000    5.333 
#    0.000    2.500    0.000    0.000    0.000    0.000 
#    0.000    0.000    0.000    0.000    0.000    0.000 
#
# Total GULP energy -297654.625810 kJ/mol
# GULP energy per Si atom -12402.276075 kJ/mol
# Density = 1.859179 g / cm^3
# Si number density = 18.634198 Si / 1000 Ang^3
#
#
#
# Elastic Constant Matrix: (Units=GPa)
#
#
# Indices 1 2 3 4 5 6 
#
# 1 135.8278 39.6433 78.8615 0.0000 -11.0590 0.0000
# 2 39.6433 49.3892 45.1236 0.0000 -11.7753 0.0000
# 3 78.8615 45.1236 147.2748 0.0000 -13.1658 0.0000
# 4 0.0000 0.0000 0.0000 28.0171 0.0000 -9.4425
# 5 -11.0590 -11.7753 -13.1658 0.0000 32.3977 0.0000
# 6 0.0000 0.0000 0.0000 -9.4425 0.0000 28.2352
#
#
#
# Elastic Compliance Matrix: (Units=1/GPa)
#
#
# Indices 1 2 3 4 5 6 
#
# 1 0.011514 -0.004958 -0.004624 0.000000 0.000249 0.000000
# 2 -0.004958 0.031858 -0.006457 0.000000 0.007263 0.000000
# 3 -0.004624 -0.006457 0.011304 0.000000 0.000669 0.000000
# 4 0.000000 0.000000 0.000000 0.040226 0.000000 0.013453
# 5 0.000249 0.007263 0.000669 0.000000 0.033863 0.000000
# 6 0.000000 0.000000 0.000000 0.013453 0.000000 0.039916
#
#
# Mechanical properties :
#
#
# Convention : Reuss Voigt Hill
#
# Bulk Modulus (GPa) = 44.25125 73.30542 58.77833
# Shear Modulus (GPa) = 24.00475 28.98757 26.49616
#
# Velocity S-wave (km/s) = 3.59306 3.94840 3.77491
# Velocity P-wave (km/s) = 6.40408 7.75958 7.11419
#
# Compressibility (1/GPa) = 0.02259823
#
# Stress axis : x y z
#
# Youngs Moduli (GPa) = 86.84705 31.38967 88.46213
#
# Poissons Ratio (x) = 0.15563 0.40908
# Poissons Ratio (y) = 0.43059 0.57118
# Poissons Ratio (z) = 0.40161 0.20267
#
# Static dielectric constant tensor:
#      x y z
#    x 3.712030 0.000000 0.022960 
#    y 0.000000 3.252580 0.000000 
#    z 0.022960 0.000000 3.513140 
# 
# 
# High freq. dielectric constant tensor:
#      x y z
#    x 1.738100 0.000000 -0.001860 
#    y 0.000000 1.705990 0.000000 
#    z -0.001860 0.000000 1.721930 
# 
# From -- ./inp_files/267722.got.cif
#   From: 2010.06.25/outbox.cif.g09.slc.cpg/sg12_134_cif.got.tgz:267722.got - 2010.06.28 00:19:55.
