data_PCOD8097526
_publ_section_title
;
Structure prediction by ZEFSAII (Michael W. Deem and Ramdas Pophale) SiO2 
 PCOD8097526
Probable space group: C 2/M
;
_chemical_formula_sum "Si O2"
_cell_formula_units_Z 44
_cell_length_a 13.810096
_cell_length_b 19.881432
_cell_length_c 9.409231
_cell_angle_alpha 90.000000
_cell_angle_beta 123.227156
_cell_angle_gamma 90.000000
_cell_volume 2161.060242
_symmetry_space_group_name_H-M "C 2/M"
_symmetry_group_IT_number 12
_symmetry_cell_setting 'monoclinic'
loop_
_space_group_symop_operation_xyz
x,y,z
-x,y,-z
-x,-y,-z
x,-y,z
1/2+x,1/2+y,z
1/2-x,1/2+y,-z
1/2-x,1/2-y,-z
1/2+x,1/2-y,z
loop_
_atom_site_type_symbol
_atom_site_label
_atom_site_fract_x
_atom_site_fract_y
_atom_site_fract_z
Si Si1 0.730144 0.317425 0.395641
Si Si2 0.112693 0.078345 0.664582
Si Si3 0.163004 0.246353 0.056627
Si Si4 0.666426 0.078395 0.337297
Si Si5 0.500000 0.862469 0.000000
Si Si6 0.989655 0.130694 0.146878
O O1 0.750000 0.250000 0.500000
O O2 0.733293 0.293750 0.235272
O O3 0.826601 0.373219 0.517641
O O4 0.611010 0.359020 0.325957
O O5 0.232198 0.103619 0.690532
O O6 0.103391 0.093760 0.826231
O O7 0.000000 0.112112 0.500000
O O8 0.108480 0.000000 0.636921
O O9 0.114549 0.319354 0.057517
O O10 0.250000 0.250000 0.000000
O O11 0.050780 0.206116 0.916736
O O12 0.678750 0.000000 0.390515
O O13 0.541232 0.089928 0.163137
O O14 0.000000 0.092928 0.000000
#
# Coordination Sequence:
#
# PCOD8097526 Si02
#       6
#     8   8   8   8   4   8
#     4  11  20  38  59  88 122 159 208 260 313 372
#     4  10  20  35  58  88 119 163 215 256 307 380
#     4  11  22  38  62  92 127 163 211 266 318 379
#     4  11  23  39  64  92 129 172 214 266 324 387
#     4  12  21  42  62  92 131 166 222 262 321 392
#     4  10  20  34  53  85 123 157 200 259 319 364
#
# _framework density 20.360377
#
# number of rings (size 3 to 8) (size 9 to 14) (size 15 to 20)
#    0.000    1.273    6.364    1.364    0.000    0.364 
#    0.000    5.455    0.000    3.273    0.000    0.000 
#    0.000    0.000    0.000    0.000    0.000    0.000 
#
# Total GULP energy -272566.981432 kJ/mol
# GULP energy per Si atom -12389.408247 kJ/mol
# Density = 2.031404 g / cm^3
# Si number density = 20.360377 Si / 1000 Ang^3
#
#
#
# Elastic Constant Matrix: (Units=GPa)
#
#
# Indices 1 2 3 4 5 6 
#
# 1 68.0962 17.5145 19.9551 0.0000 -17.0801 0.0000
# 2 17.5145 85.2192 47.5669 0.0000 4.0647 0.0000
# 3 19.9551 47.5669 125.6244 0.0000 8.7100 0.0000
# 4 0.0000 0.0000 0.0000 34.3010 0.0000 -4.8896
# 5 -17.0801 4.0647 8.7100 0.0000 30.6799 0.0000
# 6 0.0000 0.0000 0.0000 -4.8896 0.0000 18.7422
#
#
#
# Elastic Compliance Matrix: (Units=1/GPa)
#
#
# Indices 1 2 3 4 5 6 
#
# 1 0.019241 -0.002987 -0.002750 0.000000 0.011888 0.000000
# 2 -0.002987 0.015347 -0.005182 0.000000 -0.002225 0.000000
# 3 -0.002750 -0.005182 0.010627 0.000000 -0.003861 0.000000
# 4 0.000000 0.000000 0.000000 0.030280 0.000000 0.007900
# 5 0.011888 -0.002225 -0.003861 0.000000 0.040604 0.000000
# 6 0.000000 0.000000 0.000000 0.007900 0.000000 0.055417
#
#
# Mechanical properties :
#
#
# Convention : Reuss Voigt Hill
#
# Bulk Modulus (GPa) = 42.77637 49.89030 46.33334
# Shear Modulus (GPa) = 24.85767 29.67149 27.26458
#
# Velocity S-wave (km/s) = 3.49791 3.82162 3.66334
# Velocity P-wave (km/s) = 6.11302 6.63550 6.37961
#
# Compressibility (1/GPa) = 0.02337739
#
# Stress axis : x y z
#
# Youngs Moduli (GPa) = 51.97273 65.15914 94.09980
#
# Poissons Ratio (x) = 0.19461 0.25875
# Poissons Ratio (y) = 0.15522 0.48766
# Poissons Ratio (z) = 0.14291 0.33768
#
# Static dielectric constant tensor:
#      x y z
#    x 3.382350 0.000000 0.066830 
#    y 0.000000 3.643050 0.000000 
#    z 0.066830 0.000000 3.999790 
# 
# 
# High freq. dielectric constant tensor:
#      x y z
#    x 1.767960 0.000000 0.003800 
#    y 0.000000 1.788350 0.000000 
#    z 0.003800 0.000000 1.809700 
# 
# From -- ./inp_files/65557.got.cif
#   From: 2010.06.25/outbox.cif.g09.slc.cpg/sg12_33_cif.got.tgz:65557.got - 2010.06.28 00:19:55.
