data_PCOD8097565
_publ_section_title
;
Structure prediction by ZEFSAII (Michael W. Deem and Ramdas Pophale) SiO2 
 PCOD8097565
Probable space group: C 2/M
;
_chemical_formula_sum "Si O2"
_cell_formula_units_Z 56
_cell_length_a 19.842648
_cell_length_b 9.045622
_cell_length_c 30.432254
_cell_angle_alpha 90.000000
_cell_angle_beta 145.326531
_cell_angle_gamma 90.000000
_cell_volume 3107.471652
_symmetry_space_group_name_H-M "C 2/M"
_symmetry_group_IT_number 12
_symmetry_cell_setting 'monoclinic'
loop_
_space_group_symop_operation_xyz
x,y,z
-x,y,-z
-x,-y,-z
x,-y,z
1/2+x,1/2+y,z
1/2-x,1/2+y,-z
1/2-x,1/2-y,-z
1/2+x,1/2-y,z
loop_
_atom_site_type_symbol
_atom_site_label
_atom_site_fract_x
_atom_site_fract_y
_atom_site_fract_z
Si Si1 0.232620 0.171434 0.231826
Si Si2 0.467840 0.667949 0.335984
Si Si3 0.906432 0.327297 0.769022
Si Si4 0.311407 0.670733 0.492834
Si Si5 0.130643 0.329023 0.948457
Si Si6 0.992337 0.170566 0.945833
Si Si7 0.363710 0.673451 0.655843
O O1 0.358671 0.221633 0.280887
O O2 0.198499 0.262751 0.257028
O O3 0.138919 0.201070 0.142814
O O4 0.237962 0.000000 0.247645
O O5 0.421281 0.500000 0.307256
O O6 0.547578 0.684961 0.423080
O O7 0.543278 0.708753 0.333079
O O8 0.881994 0.500000 0.748685
O O9 0.913048 0.243708 0.726581
O O10 0.032475 0.296812 0.858997
O O11 0.272879 0.500000 0.470652
O O12 0.250000 0.750000 0.500000
O O13 0.264562 0.752209 0.423778
O O14 0.157316 0.500000 0.968063
O O15 0.088250 0.267980 0.972281
O O16 0.250000 0.250000 0.000000
O O17 0.027887 0.000000 0.959166
O O18 0.000000 0.221421 0.000000
O O19 0.344213 0.500000 0.651503
#
# Coordination Sequence:
#
# PCOD8097565 Si02
#       7
#     8   8   8   8   8   8   8
#     4  10  20  34  54  77 103 137 173 212 258 307
#     4   9  19  34  52  76 106 137 169 210 257 305
#     4  10  21  37  55  75 104 140 174 211 259 312
#     4   9  17  31  51  75 104 138 174 214 261 307
#     4  10  21  36  55  78 104 137 174 213 258 307
#     4   9  19  36  55  76 104 136 171 213 259 307
#     4  10  20  34  54  80 107 136 173 217 262 307
#
# _framework density 18.021082
#
# number of rings (size 3 to 8) (size 9 to 14) (size 15 to 20)
#    0.000    2.429    0.000    3.000    0.000    7.143 
#    0.000    5.000    0.000    4.286    0.000    0.000 
#    0.000    0.000    0.000    0.000    0.000    0.000 
#
# Total GULP energy -347197.235939 kJ/mol
# GULP energy per Si atom -12399.901284 kJ/mol
# Density = 1.798006 g / cm^3
# Si number density = 18.021082 Si / 1000 Ang^3
#
#
#
# Elastic Constant Matrix: (Units=GPa)
#
#
# Indices 1 2 3 4 5 6 
#
# 1 99.3619 67.9841 70.6792 0.0000 -4.7206 0.0000
# 2 67.9841 122.9772 67.2883 0.0000 -3.2240 0.0000
# 3 70.6792 67.2883 93.1900 0.0000 -3.9184 0.0000
# 4 0.0000 0.0000 0.0000 34.4564 0.0000 1.0410
# 5 -4.7206 -3.2240 -3.9184 0.0000 27.6097 0.0000
# 6 0.0000 0.0000 0.0000 1.0410 0.0000 35.1033
#
#
#
# Elastic Compliance Matrix: (Units=1/GPa)
#
#
# Indices 1 2 3 4 5 6 
#
# 1 0.023927 -0.005444 -0.014156 0.000000 0.001446 0.000000
# 2 -0.005444 0.014682 -0.006478 0.000000 -0.000136 0.000000
# 3 -0.014156 -0.006478 0.026167 0.000000 0.000537 0.000000
# 4 0.000000 0.000000 0.000000 0.029048 0.000000 -0.000861
# 5 0.001446 -0.000136 0.000537 0.000000 0.036527 0.000000
# 6 0.000000 0.000000 0.000000 -0.000861 0.000000 0.028513
#
#
# Mechanical properties :
#
#
# Convention : Reuss Voigt Hill
#
# Bulk Modulus (GPa) = 79.23354 80.82585 80.02970
# Shear Modulus (GPa) = 23.23134 26.73904 24.98519
#
# Velocity S-wave (km/s) = 3.59433 3.85615 3.72754
# Velocity P-wave (km/s) = 7.82868 8.04826 7.93923
#
# Compressibility (1/GPa) = 0.01262092
#
# Stress axis : x y z
#
# Youngs Moduli (GPa) = 41.79361 68.11008 38.21604
#
# Poissons Ratio (x) = 0.37079 0.54097
# Poissons Ratio (y) = 0.22753 0.24756
# Poissons Ratio (z) = 0.59161 0.44122
#
# Static dielectric constant tensor:
#      x y z
#    x 3.295860 0.000000 0.033390 
#    y 0.000000 3.508260 0.000000 
#    z 0.033390 0.000000 3.646010 
# 
# 
# High freq. dielectric constant tensor:
#      x y z
#    x 1.678630 0.000000 -0.003820 
#    y 0.000000 1.713180 0.000000 
#    z -0.003820 0.000000 1.703200 
# 
# From -- ./inp_files/320228.got.cif
#   From: 2010.06.25/outbox.cif.g09.slc.cpg/sg12_161_cif.got.tgz:320228.got - 2010.06.28 00:19:55.
