data_PCOD8097932
_publ_section_title
;
Structure prediction by ZEFSAII (Michael W. Deem and Ramdas Pophale) SiO2 
 PCOD8097932
Probable space group: C 2/M
;
_chemical_formula_sum "Si O2"
_cell_formula_units_Z 64
_cell_length_a 28.394445
_cell_length_b 8.930951
_cell_length_c 15.791763
_cell_angle_alpha 90.000000
_cell_angle_beta 116.717749
_cell_angle_gamma 90.000000
_cell_volume 3577.058623
_symmetry_space_group_name_H-M "C 2/M"
_symmetry_group_IT_number 12
_symmetry_cell_setting 'monoclinic'
loop_
_space_group_symop_operation_xyz
x,y,z
-x,y,-z
-x,-y,-z
x,-y,z
1/2+x,1/2+y,z
1/2-x,1/2+y,-z
1/2-x,1/2-y,-z
1/2+x,1/2-y,z
loop_
_atom_site_type_symbol
_atom_site_label
_atom_site_fract_x
_atom_site_fract_y
_atom_site_fract_z
Si Si1 0.385921 0.676850 0.260210
Si Si2 0.260884 0.175488 0.744815
Si Si3 0.900482 0.674154 0.610278
Si Si4 0.026084 0.176408 0.104409
Si Si5 0.861294 0.822803 0.743361
Si Si6 0.005766 0.176774 0.739111
Si Si7 0.154806 0.325782 0.611839
Si Si8 0.275896 0.672817 0.100420
O O1 0.383479 0.500000 0.276478
O O2 0.438712 0.725808 0.254991
O O3 0.384164 0.762246 0.347878
O O4 0.336213 0.726588 0.162490
O O5 0.311820 0.257936 0.751891
O O6 0.209913 0.238489 0.655770
O O7 0.257162 0.209113 0.841808
O O8 0.264677 0.000000 0.729059
O O9 0.904132 0.500000 0.635614
O O10 0.865463 0.755440 0.652952
O O11 0.959145 0.741380 0.651195
O O12 0.872577 0.703696 0.499213
O O13 0.087095 0.224037 0.161143
O O14 0.994830 0.228456 0.163194
O O15 0.021675 0.000000 0.092545
O O16 0.000000 0.252376 0.000000
O O17 0.855930 0.000000 0.730506
O O18 0.996036 0.000000 0.723576
O O19 0.165539 0.500000 0.637149
O O20 0.275259 0.500000 0.078711
O O21 0.250000 0.750000 0.000000
#
# Coordination Sequence:
#
# PCOD8097932 Si02
#       8
#     8   8   8   8   8   8   8   8
#     4   9  19  35  53  75 105 138 171 213 261 304
#     4  10  21  37  55  76 105 137 170 213 260 303
#     4  10  21  36  53  75 105 136 167 212 262 304
#     4   8  15  29  50  76 103 131 167 209 247 290
#     4  10  20  34  55  80 104 135 173 210 253 308
#     4   9  18  33  53  76 102 135 174 210 250 306
#     4  10  21  36  54  76 101 133 174 214 256 308
#     4   9  19  34  52  76 105 137 172 210 254 302
#
# _framework density 17.891795999999999
#
# number of rings (size 3 to 8) (size 9 to 14) (size 15 to 20)
#    0.000    2.625    0.000    3.000    0.000    7.000 
#    0.000    5.000    0.000   10.875    0.000    0.000 
#    0.000    0.000    0.000    0.000    0.000    0.000 
#
# Total GULP energy -396795.619463 kJ/mol
# GULP energy per Si atom -12399.863108 kJ/mol
# Density = 1.785107 g / cm^3
# Si number density = 17.891796 Si / 1000 Ang^3
#
#
#
# Elastic Constant Matrix: (Units=GPa)
#
#
# Indices 1 2 3 4 5 6 
#
# 1 148.2357 45.9026 63.3012 0.0000 -9.3460 0.0000
# 2 45.9026 60.3360 57.9871 0.0000 -8.4237 0.0000
# 3 63.3012 57.9871 131.9740 0.0000 -0.5808 0.0000
# 4 0.0000 0.0000 0.0000 30.1371 0.0000 -1.1121
# 5 -9.3460 -8.4237 -0.5808 0.0000 11.4326 0.0000
# 6 0.0000 0.0000 0.0000 -1.1121 0.0000 32.5902
#
#
#
# Elastic Compliance Matrix: (Units=1/GPa)
#
#
# Indices 1 2 3 4 5 6 
#
# 1 0.009431 -0.003773 -0.002845 0.000000 0.004785 0.000000
# 2 -0.003773 0.035968 -0.013894 0.000000 0.022712 0.000000
# 3 -0.002845 -0.013894 0.014995 0.000000 -0.011801 0.000000
# 4 0.000000 0.000000 0.000000 0.033224 0.000000 0.001134
# 5 0.004785 0.022712 -0.011801 0.000000 0.107516 0.000000
# 6 0.000000 0.000000 0.000000 0.001134 0.000000 0.030723
#
#
# Mechanical properties :
#
#
# Convention : Reuss Voigt Hill
#
# Bulk Modulus (GPa) = 51.62540 74.99194 63.30867
# Shear Modulus (GPa) = 17.89957 26.38897 22.14427
#
# Velocity S-wave (km/s) = 3.16640 3.84464 3.52188
# Velocity P-wave (km/s) = 6.50269 7.85579 7.21105
#
# Compressibility (1/GPa) = 0.01937031
#
# Stress axis : x y z
#
# Youngs Moduli (GPa) = 106.03602 27.80218 66.69005
#
# Poissons Ratio (x) = 0.10489 0.18972
# Poissons Ratio (y) = 0.40004 0.92662
# Poissons Ratio (z) = 0.30165 0.38629
#
# Static dielectric constant tensor:
#      x y z
#    x 3.477130 0.000000 0.000240 
#    y 0.000000 3.282510 0.000000 
#    z 0.000240 0.000000 3.437620 
# 
# 
# High freq. dielectric constant tensor:
#      x y z
#    x 1.698040 0.000000 -0.000420 
#    y 0.000000 1.687540 0.000000 
#    z -0.000420 0.000000 1.694940 
# 
# From -- ./inp_files/244154.got.cif
#   From: 2010.06.25/outbox.cif.g09.slc.cpg/sg12_123_cif.got.tgz:244154.got - 2010.06.28 00:19:55.
