data_PCOD8097487
_publ_section_title
;
Structure prediction by ZEFSAII (Michael W. Deem and Ramdas Pophale) SiO2 
 PCOD8097487
Probable space group: C 2/M
;
_chemical_formula_sum "Si O2"
_cell_formula_units_Z 40
_cell_length_a 30.449969
_cell_length_b 9.194848
_cell_length_c 15.206792
_cell_angle_alpha 90.000000
_cell_angle_beta 28.303316
_cell_angle_gamma 90.000000
_cell_volume 2018.714239
_symmetry_space_group_name_H-M "C 2/M"
_symmetry_group_IT_number 12
_symmetry_cell_setting 'monoclinic'
loop_
_space_group_symop_operation_xyz
x,y,z
-x,y,-z
-x,-y,-z
x,-y,z
1/2+x,1/2+y,z
1/2-x,1/2+y,-z
1/2-x,1/2-y,-z
1/2+x,1/2-y,z
loop_
_atom_site_type_symbol
_atom_site_label
_atom_site_fract_x
_atom_site_fract_y
_atom_site_fract_z
Si Si1 0.803616 0.172008 0.161049
Si Si2 0.452112 0.339397 0.499518
Si Si3 0.096855 0.667033 0.573219
Si Si4 0.531173 0.831425 0.042213
Si Si5 0.756456 0.662630 0.078397
O O1 0.704514 0.213536 0.379148
O O2 0.817544 0.248183 0.041246
O O3 0.814585 0.000000 0.129443
O O4 0.881540 0.231839 0.088670
O O5 0.500000 0.263472 0.500000
O O6 0.496310 0.500000 0.408760
O O7 0.468530 0.248365 0.382316
O O8 0.344019 0.351481 0.704259
O O9 0.087782 0.500000 0.564082
O O10 0.056409 0.702040 0.740511
O O11 0.561003 0.000000 0.996289
O O12 0.500000 0.788665 0.000000
O O13 0.798018 0.500000 0.990010
O O14 0.750000 0.750000 0.000000
#
# Coordination Sequence:
#
# PCOD8097487 Si02
#       5
#     8   8   8   8   8
#     4  10  21  38  58  82 115 150 191 238 283 337
#     4   9  19  34  52  78 110 145 184 228 278 330
#     4   9  20  38  57  81 113 150 188 232 284 338
#     4  10  22  40  61  86 115 149 190 237 292 346
#     4  10  20  34  53  80 114 150 187 228 282 338
#
# _framework density 19.814591
#
# number of rings (size 3 to 8) (size 9 to 14) (size 15 to 20)
#    0.000    2.400    0.000    1.200    2.800    4.000 
#    0.000    0.000    0.000    0.000    0.000    0.000 
#    0.000    0.000    0.000    0.000    0.000    0.000 
#
# Total GULP energy -247980.692192 kJ/mol
# GULP energy per Si atom -12399.034610 kJ/mol
# Density = 1.976949 g / cm^3
# Si number density = 19.814591 Si / 1000 Ang^3
#
#
#
# Elastic Constant Matrix: (Units=GPa)
#
#
# Indices 1 2 3 4 5 6 
#
# 1 174.9447 79.9568 57.6422 0.0000 14.8621 0.0000
# 2 79.9568 110.9146 48.0646 -0.0001 6.3381 0.0000
# 3 57.6422 48.0646 72.6216 0.0000 11.7709 0.0000
# 4 0.0000 -0.0001 0.0000 15.2313 0.0000 1.5306
# 5 14.8621 6.3381 11.7709 0.0000 34.4397 0.0000
# 6 0.0000 0.0000 0.0000 1.5306 0.0000 36.7940
#
#
#
# Elastic Compliance Matrix: (Units=1/GPa)
#
#
# Indices 1 2 3 4 5 6 
#
# 1 0.009445 -0.005025 -0.003875 0.000000 -0.001827 0.000000
# 2 -0.005025 0.015326 -0.006404 0.000000 0.001537 0.000000
# 3 -0.003875 -0.006404 0.021831 0.000000 -0.004611 0.000000
# 4 0.000000 0.000000 0.000000 0.065930 0.000000 -0.002743
# 5 -0.001827 0.001537 -0.004611 0.000000 0.031118 0.000000
# 6 0.000000 0.000000 0.000000 -0.002743 0.000000 0.027292
#
#
# Mechanical properties :
#
#
# Convention : Reuss Voigt Hill
#
# Bulk Modulus (GPa) = 62.52164 81.08981 71.80572
# Shear Modulus (GPa) = 24.16863 28.81414 26.49139
#
# Velocity S-wave (km/s) = 3.49627 3.81752 3.66042
# Velocity P-wave (km/s) = 6.92245 7.77460 7.36087
#
# Compressibility (1/GPa) = 0.01599446
#
# Stress axis : x y z
#
# Youngs Moduli (GPa) = 105.88141 65.24983 45.80617
#
# Poissons Ratio (x) = 0.32788 0.17748
# Poissons Ratio (y) = 0.53206 0.29334
# Poissons Ratio (z) = 0.41024 0.41785
#
# Static dielectric constant tensor:
#      x y z
#    x 3.591010 0.000000 0.044260 
#    y 0.000000 3.863790 0.000000 
#    z 0.044260 0.000000 3.758340 
# 
# 
# High freq. dielectric constant tensor:
#      x y z
#    x 1.771490 0.000000 0.000770 
#    y 0.000000 1.773240 0.000000 
#    z 0.000770 0.000000 1.766970 
# 
# From -- ./inp_files/211158.got.cif
#   From: 2010.06.25/outbox.cif.g09.slc.cpg/sg12_106_cif.got.tgz:211158.got - 2010.06.28 00:19:55.
