data_PCOD8097845
_publ_section_title
;
Structure prediction by ZEFSAII (Michael W. Deem and Ramdas Pophale) SiO2 
 PCOD8097845
Probable space group: C 2/M
;
_chemical_formula_sum "Si O2"
_cell_formula_units_Z 64
_cell_length_a 32.947424
_cell_length_b 8.815179
_cell_length_c 15.732055
_cell_angle_alpha 90.000000
_cell_angle_beta 45.657982
_cell_angle_gamma 90.000000
_cell_volume 3267.786196
_symmetry_space_group_name_H-M "C 2/M"
_symmetry_group_IT_number 12
_symmetry_cell_setting 'monoclinic'
loop_
_space_group_symop_operation_xyz
x,y,z
-x,y,-z
-x,-y,-z
x,-y,z
1/2+x,1/2+y,z
1/2-x,1/2+y,-z
1/2-x,1/2-y,-z
1/2+x,1/2-y,z
loop_
_atom_site_type_symbol
_atom_site_label
_atom_site_fract_x
_atom_site_fract_y
_atom_site_fract_z
Si Si1 0.660843 0.176936 0.186040
Si Si2 0.739552 0.179281 0.218142
Si Si3 0.463550 0.680053 0.132857
Si Si4 0.032721 0.820147 0.194689
Si Si5 0.534162 0.819751 0.367953
Si Si6 0.345525 0.822279 0.994131
Si Si7 0.770257 0.825015 0.598130
Si Si8 0.834560 0.176800 0.334515
O O1 0.702864 0.249484 0.193971
O O2 0.597619 0.242347 0.289615
O O3 0.680787 0.211852 0.060917
O O4 0.658525 0.000000 0.208155
O O5 0.709994 0.228043 0.349252
O O6 0.745666 0.000000 0.203232
O O7 0.801919 0.253784 0.125619
O O8 0.464054 0.500000 0.128623
O O9 0.490899 0.735621 0.181228
O O10 0.398368 0.736970 0.224611
O O11 0.500000 0.745595 0.000000
O O12 0.009406 0.753740 0.317956
O O13 0.094686 0.758619 0.081267
O O14 0.035174 0.000000 0.197222
O O15 0.500000 0.764356 0.500000
O O16 0.532064 0.000000 0.359261
O O17 0.354525 0.000000 0.995451
O O18 0.817805 0.796209 0.457223
O O19 0.707804 0.772572 0.661300
O O20 0.766707 0.000000 0.628769
O O21 0.828163 0.000000 0.319948
#
# Coordination Sequence:
#
# PCOD8097845 Si02
#       8
#     8   8   8   8   8   8   8   8
#     4   8  17  33  51  75 106 140 179 220 263 317
#     4  11  21  33  53  79 105 140 185 223 265 323
#     4   9  19  35  57  84 112 145 186 229 276 331
#     4  10  20  34  54  83 112 142 184 227 274 331
#     4   9  18  35  57  78 107 148 185 222 274 328
#     4  10  20  36  55  76 110 145 177 223 274 322
#     4  10  21  36  54  81 111 142 180 226 279 325
#     4   9  19  38  60  78 106 146 184 224 272 329
#
# _framework density 19.585125000000001
#
# number of rings (size 3 to 8) (size 9 to 14) (size 15 to 20)
#    0.000    2.500    0.000    2.625    1.750    1.750 
#    0.000    6.875    0.000    1.875    0.000    0.000 
#    0.000    0.000    0.000    0.000    0.000    0.000 
#
# Total GULP energy -396768.550340 kJ/mol
# GULP energy per Si atom -12399.017198 kJ/mol
# Density = 1.954055 g / cm^3
# Si number density = 19.585125 Si / 1000 Ang^3
#
#
#
# Elastic Constant Matrix: (Units=GPa)
#
#
# Indices 1 2 3 4 5 6 
#
# 1 90.0378 20.7509 42.7448 0.0001 1.9658 -0.0001
# 2 20.7509 45.1254 24.8591 0.0006 3.6350 -0.0009
# 3 42.7448 24.8591 120.3995 0.0001 -0.7196 0.0001
# 4 0.0001 0.0006 0.0001 29.0466 0.0000 4.3742
# 5 1.9658 3.6350 -0.7196 0.0000 26.9772 0.0000
# 6 -0.0001 -0.0009 0.0001 4.3742 0.0000 26.1712
#
#
#
# Elastic Compliance Matrix: (Units=1/GPa)
#
#
# Indices 1 2 3 4 5 6 
#
# 1 0.014033 -0.004130 -0.004133 0.000000 -0.000576 0.000000
# 2 -0.004130 0.026556 -0.004037 -0.000001 -0.003385 0.000001
# 3 -0.004133 -0.004037 0.010613 0.000000 0.001128 0.000000
# 4 0.000000 -0.000001 0.000000 0.035316 0.000000 -0.005903
# 5 -0.000576 -0.003385 0.001128 0.000000 0.037597 0.000000
# 6 0.000000 0.000001 0.000000 -0.005903 0.000000 0.039196
#
#
# Mechanical properties :
#
#
# Convention : Reuss Voigt Hill
#
# Bulk Modulus (GPa) = 37.59006 48.03027 42.81017
# Shear Modulus (GPa) = 25.40923 27.58620 26.49771
#
# Velocity S-wave (km/s) = 3.60582 3.75711 3.68224
# Velocity P-wave (km/s) = 6.04737 6.58773 6.32333
#
# Compressibility (1/GPa) = 0.02660278
#
# Stress axis : x y z
#
# Youngs Moduli (GPa) = 71.26149 37.65582 94.22222
#
# Poissons Ratio (x) = 0.15551 0.38940
# Poissons Ratio (y) = 0.29430 0.38039
# Poissons Ratio (z) = 0.29450 0.15202
#
# Static dielectric constant tensor:
#      x y z
#    x 3.694430 0.000000 0.069760 
#    y 0.000000 3.299300 0.000000 
#    z 0.069760 0.000000 3.693290 
# 
# 
# High freq. dielectric constant tensor:
#      x y z
#    x 1.762820 0.000000 0.007140 
#    y 0.000000 1.740660 0.000000 
#    z 0.007140 0.000000 1.769320 
# 
# From -- ./inp_files/249818.got.cif
#   From: 2010.06.25/outbox.cif.g09.slc.cpg/sg12_125_cif.got.tgz:249818.got - 2010.06.28 00:19:55.
