data_PCOD8097564
_publ_section_title
;
Structure prediction by ZEFSAII (Michael W. Deem and Ramdas Pophale) SiO2 
 PCOD8097564
Probable space group: C 2/M
;
_chemical_formula_sum "Si O2"
_cell_formula_units_Z 56
_cell_length_a 8.984821
_cell_length_b 10.588072
_cell_length_c 33.162500
_cell_angle_alpha 90.000000
_cell_angle_beta 65.903092
_cell_angle_gamma 90.000000
_cell_volume 2879.890355
_symmetry_space_group_name_H-M "C 2/M"
_symmetry_group_IT_number 12
_symmetry_cell_setting 'monoclinic'
loop_
_space_group_symop_operation_xyz
x,y,z
-x,y,-z
-x,-y,-z
x,-y,z
1/2+x,1/2+y,z
1/2-x,1/2+y,-z
1/2-x,1/2-y,-z
1/2+x,1/2-y,z
loop_
_atom_site_type_symbol
_atom_site_label
_atom_site_fract_x
_atom_site_fract_y
_atom_site_fract_z
Si Si1 0.489865 0.138717 0.763208
Si Si2 0.643926 0.638546 0.123093
Si Si3 0.327565 0.209527 0.179898
Si Si4 0.227820 0.354832 0.667631
Si Si5 0.308356 0.142977 0.023552
Si Si6 0.985860 0.357464 0.624463
Si Si7 0.876241 0.640364 0.477402
O O1 0.597464 0.128516 0.792076
O O2 0.321676 0.211703 0.785759
O O3 0.597910 0.194687 0.715058
O O4 0.435499 0.000000 0.756429
O O5 0.584823 0.500000 0.118900
O O6 0.476451 0.711624 0.145901
O O7 0.754957 0.630619 0.150936
O O8 0.751703 0.689949 0.074093
O O9 0.286520 0.500000 0.670792
O O10 0.371262 0.253010 0.653904
O O11 0.151355 0.351316 0.631715
O O12 0.242918 0.000000 0.020737
O O13 0.500000 0.139410 0.000000
O O14 0.250000 0.250000 0.000000
O O15 0.909424 0.500000 0.636901
O O16 0.027057 0.326979 0.573862
O O17 0.794101 0.500000 0.482789
O O18 0.750000 0.750000 0.500000
O O19 0.000000 0.638779 0.500000
#
# Coordination Sequence:
#
# PCOD8097564 Si02
#       7
#     8   8   8   8   8   8   8
#     4  10  20  35  53  76 105 135 172 217 262 311
#     4  10  20  35  54  77 105 137 175 216 261 314
#     4  10  20  34  54  77 103 136 173 213 264 314
#     4  10  21  36  55  79 107 140 178 219 265 319
#     4  10  21  37  56  80 110 142 178 221 266 315
#     4  10  21  37  55  79 110 142 179 223 269 318
#     4  10  21  36  55  80 109 141 180 224 269 320
#
# _framework density 19.445184000000001
#
# number of rings (size 3 to 8) (size 9 to 14) (size 15 to 20)
#    0.000    2.000    0.000    3.429    0.000    1.714 
#    0.000    7.143    0.000    0.000    0.000    0.000 
#    0.000    0.000    0.000    0.000    0.000    0.000 
#
# Total GULP energy -346984.208858 kJ/mol
# GULP energy per Si atom -12392.293173 kJ/mol
# Density = 1.940093 g / cm^3
# Si number density = 19.445184 Si / 1000 Ang^3
#
#
#
# Elastic Constant Matrix: (Units=GPa)
#
#
# Indices 1 2 3 4 5 6 
#
# 1 57.1974 36.4368 16.5594 0.0000 -10.9333 0.0000
# 2 36.4368 107.3308 44.7322 0.0000 -19.2640 0.0000
# 3 16.5594 44.7322 106.9078 0.0000 -7.1514 0.0000
# 4 0.0000 0.0000 0.0000 28.6407 0.0000 1.4301
# 5 -10.9333 -19.2640 -7.1514 0.0000 31.5607 0.0000
# 6 0.0000 0.0000 0.0000 1.4301 0.0000 27.2328
#
#
#
# Elastic Compliance Matrix: (Units=1/GPa)
#
#
# Indices 1 2 3 4 5 6 
#
# 1 0.022668 -0.006895 -0.000388 0.000000 0.003556 0.000000
# 2 -0.006895 0.014583 -0.004669 0.000000 0.005454 0.000000
# 3 -0.000388 -0.004669 0.011340 0.000000 -0.000415 0.000000
# 4 0.000000 0.000000 0.000000 0.035007 0.000000 -0.001838
# 5 0.003556 0.005454 -0.000415 0.000000 0.036152 0.000000
# 6 0.000000 0.000000 0.000000 -0.001838 0.000000 0.036817
#
#
# Mechanical properties :
#
#
# Convention : Reuss Voigt Hill
#
# Bulk Modulus (GPa) = 40.50902 51.87697 46.19300
# Shear Modulus (GPa) = 26.49717 29.06736 27.78226
#
# Velocity S-wave (km/s) = 3.69543 3.87051 3.78398
# Velocity P-wave (km/s) = 6.25187 6.83454 6.54969
#
# Compressibility (1/GPa) = 0.02468586
#
# Stress axis : x y z
#
# Youngs Moduli (GPa) = 44.11513 68.57500 88.18563
#
# Poissons Ratio (x) = 0.47285 0.03423
# Poissons Ratio (y) = 0.30419 0.41171
# Poissons Ratio (z) = 0.01712 0.32016
#
# Static dielectric constant tensor:
#      x y z
#    x 3.363580 0.000000 0.124910 
#    y 0.000000 3.766000 0.000000 
#    z 0.124910 0.000000 3.812130 
# 
# 
# High freq. dielectric constant tensor:
#      x y z
#    x 1.745390 0.000000 0.007000 
#    y 0.000000 1.761730 0.000000 
#    z 0.007000 0.000000 1.776180 
# 
# From -- ./inp_files/355749.got.cif
#   From: 2010.06.25/outbox.cif.g09.slc.cpg/sg12_178_cif.got.tgz:355749.got - 2010.06.28 00:19:55.
