data_PCOD8097270
_publ_section_title
;
Structure prediction by ZEFSAII (Michael W. Deem and Ramdas Pophale) SiO2 
 PCOD8097270
Probable space group: C 2/M
;
_chemical_formula_sum "Si O2"
_cell_formula_units_Z 64
_cell_length_a 20.758958
_cell_length_b 9.077637
_cell_length_c 20.653604
_cell_angle_alpha 90.000000
_cell_angle_beta 122.685473
_cell_angle_gamma 90.000000
_cell_volume 3275.703346
_symmetry_space_group_name_H-M "C 2/M"
_symmetry_group_IT_number 12
_symmetry_cell_setting 'monoclinic'
loop_
_space_group_symop_operation_xyz
x,y,z
-x,y,-z
-x,-y,-z
x,-y,z
1/2+x,1/2+y,z
1/2-x,1/2+y,-z
1/2-x,1/2-y,-z
1/2+x,1/2-y,z
loop_
_atom_site_type_symbol
_atom_site_label
_atom_site_fract_x
_atom_site_fract_y
_atom_site_fract_z
Si Si1 0.586835 0.826586 0.416271
Si Si2 0.057064 0.174594 0.275518
Si Si3 0.669191 0.829781 0.589987
Si Si4 0.455746 0.336595 0.409471
Si Si5 0.314202 0.329524 0.744750
Si Si6 0.399237 0.168503 0.172101
Si Si7 0.263372 0.674930 0.855393
Si Si8 0.817662 0.669512 0.001151
O O1 0.607440 0.744408 0.361049
O O2 0.647839 0.780603 0.505186
O O3 0.501583 0.771368 0.387178
O O4 0.585575 0.000000 0.404375
O O5 0.101628 0.222825 0.233475
O O6 0.970465 0.231009 0.230077
O O7 0.057536 0.000000 0.283920
O O8 0.625860 0.736008 0.621101
O O9 0.757807 0.800370 0.653236
O O10 0.645474 0.000000 0.586163
O O11 0.500000 0.350185 0.500000
O O12 0.446057 0.500000 0.373320
O O13 0.317078 0.500000 0.762497
O O14 0.283861 0.258676 0.795427
O O15 0.323208 0.220666 0.170319
O O16 0.389721 0.183312 0.088856
O O17 0.417911 0.000000 0.200681
O O18 0.271594 0.500000 0.865572
O O19 0.327040 0.748964 0.937280
O O20 0.796582 0.500000 0.977504
O O21 0.750000 0.750000 0.000000
#
# Coordination Sequence:
#
# PCOD8097270 Si02
#       8
#     8   8   8   8   8   8   8   8
#     4  10  20  34  53  76 104 142 188 230 275 331
#     4  11  23  37  54  78 111 147 185 232 280 326
#     4   9  18  34  56  77 101 143 190 227 271 332
#     4   9  17  30  49  77 108 131 164 222 280 323
#     4   9  20  38  56  78 110 147 186 228 276 328
#     4   9  19  35  57  84 111 142 180 222 269 324
#     4   9  18  35  60  85 110 143 181 223 270 324
#     4   9  17  32  56  86 115 142 176 220 268 320
#
# _framework density 19.537787999999999
#
# number of rings (size 3 to 8) (size 9 to 14) (size 15 to 20)
#    0.000    2.625    0.000    2.250    1.750    5.000 
#    0.000    3.750    0.000    3.750    0.000    0.000 
#    0.000    0.000    0.000    0.000    0.000    0.000 
#
# Total GULP energy -396518.490720 kJ/mol
# GULP energy per Si atom -12391.202835 kJ/mol
# Density = 1.949332 g / cm^3
# Si number density = 19.537788 Si / 1000 Ang^3
#
#
#
# Elastic Constant Matrix: (Units=GPa)
#
#
# Indices 1 2 3 4 5 6 
#
# 1 91.2332 29.6275 48.3093 0.0000 -19.4641 0.0000
# 2 29.6275 73.6026 36.9925 0.0000 -6.5564 0.0000
# 3 48.3093 36.9925 105.0376 0.0000 -22.3068 0.0000
# 4 0.0000 0.0000 0.0000 31.9217 0.0000 -2.1298
# 5 -19.4641 -6.5564 -22.3068 0.0000 21.9659 0.0000
# 6 0.0000 0.0000 0.0000 -2.1298 0.0000 19.8789
#
#
#
# Elastic Compliance Matrix: (Units=1/GPa)
#
#
# Indices 1 2 3 4 5 6 
#
# 1 0.016348 -0.003598 -0.004339 0.000000 0.009006 0.000000
# 2 -0.003598 0.017327 -0.005133 0.000000 -0.003229 0.000000
# 3 -0.004339 -0.005133 0.015532 0.000000 0.010395 0.000000
# 4 0.000000 0.000000 0.000000 0.031552 0.000000 0.003380
# 5 0.009006 -0.003229 0.010395 0.000000 0.063098 0.000000
# 6 0.000000 0.000000 0.000000 0.003380 0.000000 0.050667
#
#
# Mechanical properties :
#
#
# Convention : Reuss Voigt Hill
#
# Bulk Modulus (GPa) = 43.35337 55.52577 49.43957
# Shear Modulus (GPa) = 21.89584 25.08291 23.48937
#
# Velocity S-wave (km/s) = 3.35131 3.58692 3.47111
# Velocity P-wave (km/s) = 6.10022 6.75545 6.43618
#
# Compressibility (1/GPa) = 0.02306626
#
# Stress axis : x y z
#
# Youngs Moduli (GPa) = 61.16831 57.71320 64.38394
#
# Poissons Ratio (x) = 0.20763 0.27939
# Poissons Ratio (y) = 0.22006 0.33051
# Poissons Ratio (z) = 0.26544 0.29627
#
# Static dielectric constant tensor:
#      x y z
#    x 3.516200 0.000000 -0.242570 
#    y 0.000000 3.591950 0.000000 
#    z -0.242570 0.000000 3.867980 
# 
# 
# High freq. dielectric constant tensor:
#      x y z
#    x 1.737350 0.000000 -0.011760 
#    y 0.000000 1.751070 0.000000 
#    z -0.011760 0.000000 1.761410 
# 
# From -- ./inp_files/320164.got.cif
#   From: 2010.06.25/outbox.cif.g09.slc.cpg/sg12_161_cif.got.tgz:320164.got - 2010.06.28 00:19:55.
