data_PCOD8097124
_publ_section_title
;
Structure prediction by ZEFSAII (Michael W. Deem and Ramdas Pophale) SiO2 
 PCOD8097124
Probable space group: C 2/M
;
_chemical_formula_sum "Si O2"
_cell_formula_units_Z 48
_cell_length_a 19.221385
_cell_length_b 8.700315
_cell_length_c 24.393863
_cell_angle_alpha 90.000000
_cell_angle_beta 39.319097
_cell_angle_gamma 90.000000
_cell_volume 2584.889438
_symmetry_space_group_name_H-M "C 2/M"
_symmetry_group_IT_number 12
_symmetry_cell_setting 'monoclinic'
loop_
_space_group_symop_operation_xyz
x,y,z
-x,y,-z
-x,-y,-z
x,-y,z
1/2+x,1/2+y,z
1/2-x,1/2+y,-z
1/2-x,1/2-y,-z
1/2+x,1/2-y,z
loop_
_atom_site_type_symbol
_atom_site_label
_atom_site_fract_x
_atom_site_fract_y
_atom_site_fract_z
Si Si1 0.222684 0.823448 0.590238
Si Si2 0.045983 0.173604 0.778672
Si Si3 0.604258 0.675437 0.235221
Si Si4 0.512955 0.178950 0.911515
Si Si5 0.925023 0.674144 0.406754
Si Si6 0.663115 0.320375 0.907552
O O1 0.172641 0.800053 0.681792
O O2 0.163636 0.701855 0.586941
O O3 0.355526 0.796288 0.505829
O O4 0.195396 0.000000 0.588393
O O5 0.966056 0.206543 0.776348
O O6 0.016882 0.290406 0.844489
O O7 0.029624 0.000000 0.810159
O O8 0.642510 0.500000 0.216852
O O9 0.530562 0.716876 0.333770
O O10 0.708913 0.784180 0.169555
O O11 0.611358 0.268950 0.881325
O O12 0.527839 0.000000 0.913849
O O13 0.395832 0.232643 0.006483
O O14 0.967871 0.500000 0.377839
O O15 0.644336 0.500000 0.927032
#
# Coordination Sequence:
#
# PCOD8097124 Si02
#       6
#     8   8   8   8   8   8
#     4   8  15  27  44  68 101 137 170 207 248 293
#     4   9  18  33  52  76 106 138 171 208 251 297
#     4  10  20  34  52  77 108 137 168 211 257 298
#     4  11  22  37  56  77 102 132 168 209 254 304
#     4   9  15  25  44  71 101 134 171 207 248 297
#     4  11  22  38  58  76  98 132 172 209 251 307
#
# _framework density 18.569458999999998
#
# number of rings (size 3 to 8) (size 9 to 14) (size 15 to 20)
#    0.000    2.333    0.000    6.000    0.000    4.667 
#    0.000    0.000    0.000    1.000    0.000    7.000 
#    0.000    0.000    0.000    0.000    0.000    0.000 
#
# Total GULP energy -297462.524646 kJ/mol
# GULP energy per Si atom -12394.271860 kJ/mol
# Density = 1.852719 g / cm^3
# Si number density = 18.569459 Si / 1000 Ang^3
#
#
#
# Elastic Constant Matrix: (Units=GPa)
#
#
# Indices 1 2 3 4 5 6 
#
# 1 32.5809 14.4892 38.4156 -0.0004 -7.9639 0.0010
# 2 14.4892 71.4510 26.2435 -0.0008 -5.7856 0.0019
# 3 38.4156 26.2435 128.7882 0.0001 -10.9988 -0.0003
# 4 -0.0004 -0.0008 0.0001 32.2684 0.0003 -1.8723
# 5 -7.9639 -5.7856 -10.9988 0.0003 -0.2451 -0.0014
# 6 0.0010 0.0019 -0.0003 -1.8723 -0.0014 22.4997
#
#
#
# Elastic Compliance Matrix: (Units=1/GPa)
#
#
# Indices 1 2 3 4 5 6 
#
# 1 0.029355 -0.007912 -0.015034 0.000001 -0.092389 -0.000006
# 2 -0.007912 0.015169 -0.001936 0.000000 -0.014109 -0.000002
# 3 -0.015034 -0.001936 0.012057 0.000000 -0.006867 0.000001
# 4 0.000001 0.000000 0.000000 0.031140 0.000001 0.002591
# 5 -0.092389 -0.014109 -0.006867 0.000001 -0.436761 -0.000021
# 6 -0.000006 -0.000002 0.000001 0.002591 -0.000021 0.044661
#
#
# Mechanical properties :
#
#
# Convention : Reuss Voigt Hill
#
# Bulk Modulus (GPa) = 146.69163 43.45741 95.07452
# Shear Modulus (GPa) = -19.81424 21.14938 0.66757
#
# Velocity S-wave (km/s) = -3.27009 3.37847 0.60023
# Velocity P-wave (km/s) = 8.05665 6.21870 7.19659
#
# Compressibility (1/GPa) = 0.00681702
#
# Stress axis : x y z
#
# Youngs Moduli (GPa) = 34.06616 65.92560 82.93851
#
# Poissons Ratio (x) = 0.52159 1.24690
# Poissons Ratio (y) = 0.26952 0.16056
# Poissons Ratio (z) = 0.51215 0.12762
#
# Static dielectric constant tensor:
#      x y z
#    x 2.880170 0.000000 0.026130 
#    y 0.000000 3.441010 0.000000 
#    z 0.026130 0.000000 3.808470 
# 
# 
# High freq. dielectric constant tensor:
#      x y z
#    x 1.658330 0.000000 0.000410 
#    y 0.000000 1.730580 0.000000 
#    z 0.000410 0.000000 1.744580 
# 
# From -- ./inp_files/365349.got.cif
#   From: 2010.06.25/outbox.cif.g09.slc.cpg/sg12_183_cif.got.tgz:365349.got - 2010.06.28 00:19:55.
