data_PCOD8097659
_publ_section_title
;
Structure prediction by ZEFSAII (Michael W. Deem and Ramdas Pophale) SiO2 
 PCOD8097659
Probable space group: C 2/M
;
_chemical_formula_sum "Si O2"
_cell_formula_units_Z 64
_cell_length_a 30.399026
_cell_length_b 9.099363
_cell_length_c 17.862131
_cell_angle_alpha 90.000000
_cell_angle_beta 138.367037
_cell_angle_gamma 90.000000
_cell_volume 3282.502011
_symmetry_space_group_name_H-M "C 2/M"
_symmetry_group_IT_number 12
_symmetry_cell_setting 'monoclinic'
loop_
_space_group_symop_operation_xyz
x,y,z
-x,y,-z
-x,-y,-z
x,-y,z
1/2+x,1/2+y,z
1/2-x,1/2+y,-z
1/2-x,1/2-y,-z
1/2+x,1/2-y,z
loop_
_atom_site_type_symbol
_atom_site_label
_atom_site_fract_x
_atom_site_fract_y
_atom_site_fract_z
Si Si1 0.315315 0.161529 0.067992
Si Si2 0.787220 0.330875 0.440358
Si Si3 0.002369 0.833283 0.353503
Si Si4 0.348890 0.668608 0.654096
Si Si5 0.061702 0.324593 0.863772
Si Si6 0.644792 0.665845 0.596500
Si Si7 0.094077 0.664992 0.672321
Si Si8 0.990077 0.827937 0.901309
O O1 0.362675 0.222239 0.061380
O O2 0.358556 0.159713 0.196888
O O3 0.291201 0.000000 0.015284
O O4 0.250000 0.250000 0.000000
O O5 0.805787 0.500000 0.451807
O O6 0.710549 0.309330 0.363025
O O7 0.836170 0.269941 0.566435
O O8 0.796806 0.243889 0.375185
O O9 0.988452 0.747459 0.259342
O O10 0.971691 0.753917 0.387649
O O11 0.080576 0.833091 0.462478
O O12 0.974763 0.000000 0.313355
O O13 0.352315 0.500000 0.630914
O O14 0.416374 0.715874 0.781124
O O15 0.053664 0.500000 0.849642
O O16 0.044283 0.263335 0.923340
O O17 0.666046 0.500000 0.643619
O O18 0.633522 0.753535 0.657940
O O19 0.074368 0.500000 0.622152
O O20 0.003486 0.000000 0.906199
O O21 0.000000 0.783055 0.000000
#
# Coordination Sequence:
#
# PCOD8097659 Si02
#       8
#     8   8   8   8   8   8   8   8
#     4   9  20  38  58  80 107 141 182 226 270 322
#     4  10  20  34  55  80 108 144 183 227 277 328
#     4  10  20  34  54  79 109 145 183 222 266 320
#     4   9  19  37  57  78 108 141 182 231 275 333
#     4  10  21  37  57  84 113 141 183 230 276 328
#     4  11  22  34  50  78 113 146 181 219 265 325
#     4  10  21  36  53  78 110 141 178 225 272 321
#     4  10  21  38  59  83 111 146 187 232 285 337
#
# _framework density 19.497322
#
# number of rings (size 3 to 8) (size 9 to 14) (size 15 to 20)
#    0.000    2.125    0.000    3.750    0.000   10.750 
#    2.250    0.000    0.000    0.000    0.000    0.000 
#    0.000    0.000    0.000    0.000    0.000    0.000 
#
# Total GULP energy -396838.121293 kJ/mol
# GULP energy per Si atom -12401.191290 kJ/mol
# Density = 1.945295 g / cm^3
# Si number density = 19.497322 Si / 1000 Ang^3
#
#
#
# Elastic Constant Matrix: (Units=GPa)
#
#
# Indices 1 2 3 4 5 6 
#
# 1 148.6183 72.1633 37.0081 0.0000 -8.6256 0.0000
# 2 72.1633 125.0445 25.1507 0.0000 -3.7895 0.0000
# 3 37.0081 25.1507 49.1425 0.0000 7.8850 0.0000
# 4 0.0000 0.0000 0.0000 26.5146 0.0000 -3.1860
# 5 -8.6256 -3.7895 7.8850 0.0000 29.6620 0.0000
# 6 0.0000 0.0000 0.0000 -3.1860 0.0000 42.0653
#
#
#
# Elastic Compliance Matrix: (Units=1/GPa)
#
#
# Indices 1 2 3 4 5 6 
#
# 1 0.010957 -0.004901 -0.006428 0.000000 0.004269 0.000000
# 2 -0.004901 0.011282 -0.002179 0.000000 0.000595 0.000000
# 3 -0.006428 -0.002179 0.027837 0.000000 -0.009547 0.000000
# 4 0.000000 0.000000 0.000000 0.038062 0.000000 0.002883
# 5 0.004269 0.000595 -0.009547 0.000000 0.037569 0.000000
# 6 0.000000 0.000000 0.000000 0.002883 0.000000 0.023991
#
#
# Mechanical properties :
#
#
# Convention : Reuss Voigt Hill
#
# Bulk Modulus (GPa) = 43.36498 65.71661 54.54079
# Shear Modulus (GPa) = 27.11528 32.21390 29.66459
#
# Velocity S-wave (km/s) = 3.73328 4.06916 3.90483
# Velocity P-wave (km/s) = 6.39320 7.47369 6.95446
#
# Compressibility (1/GPa) = 0.02306008
#
# Stress axis : x y z
#
# Youngs Moduli (GPa) = 91.26786 88.63914 35.92383
#
# Poissons Ratio (x) = 0.43441 0.23092
# Poissons Ratio (y) = 0.44729 0.07826
# Poissons Ratio (z) = 0.58667 0.19311
#
# Static dielectric constant tensor:
#      x y z
#    x 0.131060 0.000000 -2.422700 
#    y 0.000000 3.814390 0.000000 
#    z -2.422700 0.000000 1.603730 
# 
# 
# High freq. dielectric constant tensor:
#      x y z
#    x 1.773440 0.000000 0.000790 
#    y 0.000000 1.767980 0.000000 
#    z 0.000790 0.000000 1.734100 
# 
# From -- ./inp_files/295820.got.cif
#   From: 2010.06.25/outbox.cif.g09.slc.cpg/sg12_148_cif.got.tgz:295820.got - 2010.06.28 00:19:55.
