data_PCOD8097807
_publ_section_title
;
Structure prediction by ZEFSAII (Michael W. Deem and Ramdas Pophale) SiO2 
 PCOD8097807
Probable space group: C 2/M
;
_chemical_formula_sum "Si O2"
_cell_formula_units_Z 64
_cell_length_a 24.667445
_cell_length_b 8.866476
_cell_length_c 22.193460
_cell_angle_alpha 90.000000
_cell_angle_beta 45.340059
_cell_angle_gamma 90.000000
_cell_volume 3452.610545
_symmetry_space_group_name_H-M "C 2/M"
_symmetry_group_IT_number 12
_symmetry_cell_setting 'monoclinic'
loop_
_space_group_symop_operation_xyz
x,y,z
-x,y,-z
-x,-y,-z
x,-y,z
1/2+x,1/2+y,z
1/2-x,1/2+y,-z
1/2-x,1/2-y,-z
1/2+x,1/2-y,z
loop_
_atom_site_type_symbol
_atom_site_label
_atom_site_fract_x
_atom_site_fract_y
_atom_site_fract_z
Si Si1 0.868520 0.322624 0.990754
Si Si2 0.586827 0.664797 0.923389
Si Si3 0.441765 0.822876 0.719133
Si Si4 0.860715 0.323571 0.230404
Si Si5 0.279018 0.174209 0.713318
Si Si6 0.059797 0.177703 0.403311
Si Si7 0.999370 0.321371 0.201000
Si Si8 0.766998 0.673738 0.861245
O O1 0.878204 0.500000 0.993480
O O2 0.926217 0.263407 0.894195
O O3 0.881553 0.225814 0.039636
O O4 0.779112 0.276883 0.053587
O O5 0.625313 0.500000 0.876985
O O6 0.595698 0.791215 0.865536
O O7 0.500000 0.632346 0.000000
O O8 0.470172 0.738136 0.637479
O O9 0.492973 0.768686 0.735779
O O10 0.354688 0.780654 0.801334
O O11 0.449669 0.000000 0.701086
O O12 0.843806 0.500000 0.250767
O O13 0.780492 0.234323 0.290766
O O14 0.918066 0.263708 0.238276
O O15 0.357910 0.260062 0.643149
O O16 0.244762 0.202787 0.807464
O O17 0.296505 0.000000 0.688483
O O18 0.000000 0.232036 0.500000
O O19 0.065447 0.000000 0.395301
O O20 0.000923 0.500000 0.195197
O O21 0.754762 0.500000 0.888210
#
# Coordination Sequence:
#
# PCOD8097807 Si02
#       8
#     8   8   8   8   8   8   8   8
#     4  11  20  30  47  70  99 139 187 231 273 315
#     4  11  21  31  44  66  99 138 186 237 276 307
#     4   9  19  38  58  75 105 143 178 216 262 324
#     4  11  20  32  52  75 104 142 183 225 270 314
#     4  10  20  34  54  82 113 140 172 216 266 318
#     4  10  21  38  62  91 115 132 161 210 262 314
#     4   9  20  35  50  73 104 144 188 226 266 311
#     4   9  18  31  48  71 101 137 177 227 274 307
#
# _framework density 18.536698999999999
#
# number of rings (size 3 to 8) (size 9 to 14) (size 15 to 20)
#    0.000    2.000    2.500    2.625    0.000    4.000 
#    0.000    2.500    0.000    0.750    0.000    0.000 
#    0.000    0.000    0.000    0.000    0.000    0.000 
#
# Total GULP energy -396562.592780 kJ/mol
# GULP energy per Si atom -12392.581024 kJ/mol
# Density = 1.849451 g / cm^3
# Si number density = 18.536699 Si / 1000 Ang^3
#
#
#
# Elastic Constant Matrix: (Units=GPa)
#
#
# Indices 1 2 3 4 5 6 
#
# 1 122.4778 24.1605 55.6297 -0.0038 12.8646 -0.0034
# 2 24.1605 50.4237 32.5668 -0.0127 3.1142 -0.0062
# 3 55.6297 32.5668 103.8665 0.0004 -0.1751 0.0046
# 4 -0.0038 -0.0127 0.0004 22.8294 0.0017 -3.9263
# 5 12.8646 3.1142 -0.1751 0.0017 15.7910 0.0000
# 6 -0.0034 -0.0062 0.0046 -3.9263 0.0000 23.9779
#
#
#
# Elastic Compliance Matrix: (Units=1/GPa)
#
#
# Indices 1 2 3 4 5 6 
#
# 1 0.012252 -0.001275 -0.006179 0.000003 -0.009798 0.000003
# 2 -0.001275 0.025400 -0.007288 0.000016 -0.004052 0.000010
# 3 -0.006179 -0.007288 0.015233 -0.000007 0.006640 -0.000007
# 4 0.000003 0.000016 -0.000007 0.045072 -0.000010 0.007380
# 5 -0.009798 -0.004052 0.006640 -0.000010 0.072182 -0.000005
# 6 0.000003 0.000010 -0.000007 0.007380 -0.000005 0.042914
#
#
# Mechanical properties :
#
#
# Convention : Reuss Voigt Hill
#
# Bulk Modulus (GPa) = 42.73137 55.72024 49.22580
# Shear Modulus (GPa) = 19.97304 23.48041 21.72673
#
# Velocity S-wave (km/s) = 3.28607 3.56293 3.42730
# Velocity P-wave (km/s) = 6.12373 6.85935 6.50195
#
# Compressibility (1/GPa) = 0.02340201
#
# Stress axis : x y z
#
# Youngs Moduli (GPa) = 81.62074 39.36992 65.64515
#
# Poissons Ratio (x) = 0.05018 0.40561
# Poissons Ratio (y) = 0.10404 0.47844
# Poissons Ratio (z) = 0.50432 0.28694
#
# Static dielectric constant tensor:
#      x y z
#    x 3.707440 0.000000 -0.083600 
#    y 0.000000 3.279720 0.000000 
#    z -0.083600 0.000000 3.189120 
# 
# 
# High freq. dielectric constant tensor:
#      x y z
#    x 1.725640 0.000000 -0.015640 
#    y 0.000000 1.713740 0.000000 
#    z -0.015640 0.000000 1.686110 
# 
# From -- ./inp_files/324208.got.cif
#   From: 2010.06.25/outbox.cif.g09.slc.cpg/sg12_163_cif.got.tgz:324208.got - 2010.06.28 00:19:55.
