data_PCOD8097826
_publ_section_title
;
Structure prediction by ZEFSAII (Michael W. Deem and Ramdas Pophale) SiO2 
 PCOD8097826
Probable space group: C 2/M
;
_chemical_formula_sum "Si O2"
_cell_formula_units_Z 64
_cell_length_a 14.445185
_cell_length_b 9.199771
_cell_length_c 25.324564
_cell_angle_alpha 90.000000
_cell_angle_beta 90.351090
_cell_angle_gamma 90.000000
_cell_volume 3365.378755
_symmetry_space_group_name_H-M "C 2/M"
_symmetry_group_IT_number 12
_symmetry_cell_setting 'monoclinic'
loop_
_space_group_symop_operation_xyz
x,y,z
-x,y,-z
-x,-y,-z
x,-y,z
1/2+x,1/2+y,z
1/2-x,1/2+y,-z
1/2-x,1/2-y,-z
1/2+x,1/2-y,z
loop_
_atom_site_type_symbol
_atom_site_label
_atom_site_fract_x
_atom_site_fract_y
_atom_site_fract_z
Si Si1 0.752268 0.164475 0.180984
Si Si2 0.580851 0.667696 0.889494
Si Si3 0.343303 0.832898 0.010849
Si Si4 0.405011 0.669375 0.627481
Si Si5 0.244187 0.168673 0.285745
Si Si6 0.910333 0.336960 0.896498
Si Si7 0.766313 0.670007 0.554502
Si Si8 0.117291 0.168397 0.642248
O O1 0.855541 0.195676 0.161148
O O2 0.724600 0.272191 0.227484
O O3 0.689211 0.192351 0.129554
O O4 0.742063 0.000000 0.202017
O O5 0.583531 0.500000 0.906682
O O6 0.605424 0.765869 0.939332
O O7 0.479130 0.718659 0.871470
O O8 0.320493 0.000000 0.022836
O O9 0.250000 0.750000 0.000000
O O10 0.406888 0.817487 0.959446
O O11 0.400667 0.500000 0.611385
O O12 0.348579 0.699186 0.681025
O O13 0.358230 0.763299 0.581197
O O14 0.511293 0.720949 0.634586
O O15 0.334987 0.244857 0.310082
O O16 0.267056 0.000000 0.282968
O O17 0.944304 0.500000 0.882917
O O18 0.783431 0.500000 0.545085
O O19 0.750000 0.750000 0.500000
O O20 0.674806 0.697721 0.589139
O O21 0.119315 0.000000 0.658115
#
# Coordination Sequence:
#
# PCOD8097826 Si02
#       8
#     8   8   8   8   8   8   8   8
#     4  10  22  41  58  76 112 149 179 221 277 335
#     4  11  23  39  58  84 111 143 185 225 271 330
#     4  11  21  37  60  83 112 146 181 222 273 330
#     4   9  19  37  58  80 109 144 186 232 273 323
#     4  10  21  36  57  84 109 136 181 235 279 321
#     4  10  22  40  58  81 112 146 180 222 278 332
#     4  10  20  34  54  82 116 152 188 226 272 323
#     4   9  19  37  59  80 108 150 189 222 275 334
#
# _framework density 19.017175999999999
#
# number of rings (size 3 to 8) (size 9 to 14) (size 15 to 20)
#    0.000    2.000    1.250    1.875    0.000    7.000 
#    0.000    6.250    0.000    0.000    0.000    0.000 
#    0.000    0.000    0.000    0.000    0.000    0.000 
#
# Total GULP energy -396876.679395 kJ/mol
# GULP energy per Si atom -12402.396231 kJ/mol
# Density = 1.897389 g / cm^3
# Si number density = 19.017176 Si / 1000 Ang^3
#
#
#
# Elastic Constant Matrix: (Units=GPa)
#
#
# Indices 1 2 3 4 5 6 
#
# 1 112.8333 45.2710 22.7086 0.0000 -3.0388 0.0000
# 2 45.2710 97.1476 48.2080 0.0000 -2.5674 0.0000
# 3 22.7086 48.2080 92.6446 0.0000 1.6570 0.0000
# 4 0.0000 0.0000 0.0000 38.0750 0.0000 3.5407
# 5 -3.0388 -2.5674 1.6570 0.0000 16.4643 0.0000
# 6 0.0000 0.0000 0.0000 3.5407 0.0000 35.6647
#
#
#
# Elastic Compliance Matrix: (Units=1/GPa)
#
#
# Indices 1 2 3 4 5 6 
#
# 1 0.010926 -0.005013 -0.000092 0.000000 0.001244 0.000000
# 2 -0.005013 0.016316 -0.007304 0.000000 0.002354 0.000000
# 3 -0.000092 -0.007304 0.014664 0.000000 -0.002632 0.000000
# 4 0.000000 0.000000 0.000000 0.026509 0.000000 -0.002632
# 5 0.001244 0.002354 -0.002632 0.000000 0.061599 0.000000
# 6 0.000000 0.000000 0.000000 -0.002632 0.000000 0.028300
#
#
# Mechanical properties :
#
#
# Convention : Reuss Voigt Hill
#
# Bulk Modulus (GPa) = 58.51622 59.44452 58.98037
# Shear Modulus (GPa) = 26.47925 30.47002 28.47463
#
# Velocity S-wave (km/s) = 3.73552 4.00714 3.87371
# Velocity P-wave (km/s) = 7.03153 7.26194 7.14766
#
# Compressibility (1/GPa) = 0.01708928
#
# Stress axis : x y z
#
# Youngs Moduli (GPa) = 91.52513 61.28882 68.19464
#
# Poissons Ratio (x) = 0.30725 0.00626
# Poissons Ratio (y) = 0.45882 0.49806
# Poissons Ratio (z) = 0.00840 0.44762
#
# Static dielectric constant tensor:
#      x y z
#    x 3.827350 0.000000 0.111680 
#    y 0.000000 3.544990 0.000000 
#    z 0.111680 0.000000 3.454710 
# 
# 
# High freq. dielectric constant tensor:
#      x y z
#    x 1.745300 0.000000 0.000270 
#    y 0.000000 1.745320 0.000000 
#    z 0.000270 0.000000 1.731380 
# 
# From -- ./inp_files/338860.got.cif
#   From: 2010.06.25/outbox.cif.g09.slc.cpg/sg12_170_cif.got.tgz:338860.got - 2010.06.28 00:19:55.
