data_PCOD8097717
_publ_section_title
;
Structure prediction by ZEFSAII (Michael W. Deem and Ramdas Pophale) SiO2 
 PCOD8097717
Probable space group: C 2/M
;
_chemical_formula_sum "Si O2"
_cell_formula_units_Z 64
_cell_length_a 24.925463
_cell_length_b 9.006792
_cell_length_c 13.943604
_cell_angle_alpha 90.000000
_cell_angle_beta 86.719000
_cell_angle_gamma 90.000000
_cell_volume 3125.186577
_symmetry_space_group_name_H-M "C 2/M"
_symmetry_group_IT_number 12
_symmetry_cell_setting 'monoclinic'
loop_
_space_group_symop_operation_xyz
x,y,z
-x,y,-z
-x,-y,-z
x,-y,z
1/2+x,1/2+y,z
1/2-x,1/2+y,-z
1/2-x,1/2-y,-z
1/2+x,1/2-y,z
loop_
_atom_site_type_symbol
_atom_site_label
_atom_site_fract_x
_atom_site_fract_y
_atom_site_fract_z
Si Si1 0.092690 0.173508 0.115262
Si Si2 0.241265 0.175659 0.397848
Si Si3 0.062913 0.667983 0.480304
Si Si4 0.516210 0.828203 0.826955
Si Si5 0.928341 0.163510 0.337998
Si Si6 0.181733 0.165629 0.758399
Si Si7 0.626201 0.670618 0.323321
Si Si8 0.873136 0.327478 0.073115
O O1 0.033308 0.242656 0.121081
O O2 0.124804 0.203491 0.210388
O O3 0.086872 0.000000 0.093811
O O4 0.128315 0.250628 0.030168
O O5 0.250000 0.250000 0.500000
O O6 0.282660 0.238520 0.316730
O O7 0.182809 0.216511 0.363361
O O8 0.249609 0.000000 0.407290
O O9 0.082760 0.500000 0.487431
O O10 0.091011 0.762323 0.561171
O O11 0.079714 0.731294 0.375905
O O12 0.000000 0.684668 0.500000
O O13 0.527201 0.764180 0.719566
O O14 0.567850 0.804584 0.888356
O O15 0.500996 0.000000 0.817825
O O16 0.876846 0.147707 0.278306
O O17 0.953162 0.000000 0.354583
O O18 0.174237 0.252384 0.859359
O O19 0.206249 0.000000 0.772105
O O20 0.613194 0.500000 0.345789
O O21 0.859154 0.500000 0.064551
#
# Coordination Sequence:
#
# PCOD8097717 Si02
#       8
#     8   8   8   8   8   8   8   8
#     4  11  22  37  57  81 113 153 194 236 282 333
#     4  11  23  41  64  89 116 146 185 233 286 341
#     4  11  23  36  53  80 113 149 188 229 274 330
#     4  10  20  34  54  83 118 153 191 234 280 332
#     4  10  20  34  54  80 111 146 184 229 280 336
#     4  10  21  38  60  87 114 142 184 234 283 336
#     4  10  24  42  58  81 114 151 190 233 282 338
#     4  10  21  37  58  85 117 153 191 234 283 332
#
# _framework density 20.478776
#
# number of rings (size 3 to 8) (size 9 to 14) (size 15 to 20)
#    0.000    1.625    0.000    4.500    0.000   12.500 
#    0.000    0.625    0.000    0.000    0.000    0.000 
#    0.000    0.000    0.000    0.000    0.000    0.000 
#
# Total GULP energy -396905.024023 kJ/mol
# GULP energy per Si atom -12403.282001 kJ/mol
# Density = 2.043216 g / cm^3
# Si number density = 20.478776 Si / 1000 Ang^3
#
#
#
# Elastic Constant Matrix: (Units=GPa)
#
#
# Indices 1 2 3 4 5 6 
#
# 1 58.9657 46.2028 46.2673 0.0000 -16.4039 0.0000
# 2 46.2028 157.2135 87.3667 0.0000 -10.3044 0.0000
# 3 46.2673 87.3667 154.7272 0.0000 -25.2058 0.0000
# 4 0.0000 0.0000 0.0000 38.4611 0.0000 -5.9303
# 5 -16.4039 -10.3044 -25.2058 0.0000 32.2670 0.0000
# 6 0.0000 0.0000 0.0000 -5.9303 0.0000 23.3246
#
#
#
# Elastic Compliance Matrix: (Units=1/GPa)
#
#
# Indices 1 2 3 4 5 6 
#
# 1 0.026243 -0.005211 -0.003440 0.000000 0.008990 0.000000
# 2 -0.005211 0.010352 -0.004789 0.000000 -0.003085 0.000000
# 3 -0.003440 -0.004789 0.011071 0.000000 0.005370 0.000000
# 4 0.000000 0.000000 0.000000 0.027061 0.000000 0.006880
# 5 0.008990 -0.003085 0.005370 0.000000 0.038771 0.000000
# 6 0.000000 0.000000 0.000000 0.006880 0.000000 0.044623
#
#
# Mechanical properties :
#
#
# Convention : Reuss Voigt Hill
#
# Bulk Modulus (GPa) = 48.11536 81.17553 64.64545
# Shear Modulus (GPa) = 26.05135 31.54852 28.79993
#
# Velocity S-wave (km/s) = 3.57054 3.92924 3.75418
# Velocity P-wave (km/s) = 6.36746 7.76596 7.10122
#
# Compressibility (1/GPa) = 0.02078338
#
# Stress axis : x y z
#
# Youngs Moduli (GPa) = 38.10608 96.60350 90.32893
#
# Poissons Ratio (x) = 0.50343 0.31074
# Poissons Ratio (y) = 0.19858 0.43261
# Poissons Ratio (z) = 0.13109 0.46266
#
# Static dielectric constant tensor:
#      x y z
#    x 3.530600 0.000000 -0.105280 
#    y 0.000000 4.014530 0.000000 
#    z -0.105280 0.000000 3.906330 
# 
# 
# High freq. dielectric constant tensor:
#      x y z
#    x 1.778060 0.000000 -0.010030 
#    y 0.000000 1.817520 0.000000 
#    z -0.010030 0.000000 1.810750 
# 
# From -- ./inp_files/238734.got.cif
#   From: 2010.06.25/outbox.cif.g09.slc.cpg/sg12_120_cif.got.tgz:238734.got - 2010.06.28 00:19:55.
