data_PCOD8097464
_publ_section_title
;
Structure prediction by ZEFSAII (Michael W. Deem and Ramdas Pophale) SiO2 
 PCOD8097464
Probable space group: C 2/M
;
_chemical_formula_sum "Si O2"
_cell_formula_units_Z 64
_cell_length_a 9.865188
_cell_length_b 31.103129
_cell_length_c 24.308779
_cell_angle_alpha 90.000000
_cell_angle_beta 150.796530
_cell_angle_gamma 90.000000
_cell_volume 3639.272366
_symmetry_space_group_name_H-M "C 2/M"
_symmetry_group_IT_number 12
_symmetry_cell_setting 'monoclinic'
loop_
_space_group_symop_operation_xyz
x,y,z
-x,y,-z
-x,-y,-z
x,-y,z
1/2+x,1/2+y,z
1/2-x,1/2+y,-z
1/2-x,1/2-y,-z
1/2+x,1/2-y,z
loop_
_atom_site_type_symbol
_atom_site_label
_atom_site_fract_x
_atom_site_fract_y
_atom_site_fract_z
Si Si1 0.546114 0.178177 0.315060
Si Si2 0.703306 0.738591 0.421417
Si Si3 0.932046 0.394481 0.120355
Si Si4 0.386839 0.657396 0.332559
Si Si5 0.240620 0.550486 0.727484
Si Si6 0.151966 0.109497 0.133702
Si Si7 0.674715 0.950068 0.113439
Si Si8 0.792287 0.104871 0.472834
O O1 0.496318 0.226270 0.320016
O O2 0.749591 0.181762 0.335255
O O3 0.263731 0.154599 0.197026
O O4 0.683305 0.150483 0.412236
O O5 0.750000 0.750000 0.500000
O O6 0.581488 0.690970 0.369796
O O7 0.000000 0.740813 0.500000
O O8 0.832925 0.408179 0.146324
O O9 0.157990 0.356793 0.206790
O O10 0.074579 0.432492 0.136685
O O11 0.662793 0.378474 0.992077
O O12 0.551385 0.615247 0.414230
O O13 0.189827 0.500000 0.717631
O O14 0.325253 0.570612 0.815707
O O15 0.496427 0.559349 0.776635
O O16 0.958906 0.571881 0.604302
O O17 0.610076 0.000000 0.092561
O O18 0.500000 0.930102 0.000000
O O19 0.000000 0.084818 0.500000
#
# Coordination Sequence:
#
# PCOD8097464 Si02
#       8
#     8   8   8   8   8   8   8   8
#     4   9  17  34  55  76 107 140 177 223 270 308
#     4  12  20  33  55  81 107 140 182 220 263 320
#     4  10  20  36  55  81 107 142 183 222 271 325
#     4  10  20  34  53  80 111 137 174 223 270 320
#     4  10  20  34  56  81 107 144 185 222 270 326
#     4   9  19  35  58  78 104 143 186 228 267 312
#     4  10  20  36  55  77 110 145 177 224 278 321
#     4   9  17  33  54  78 108 145 180 224 270 314
#
# _framework density 17.585933000000001
#
# number of rings (size 3 to 8) (size 9 to 14) (size 15 to 20)
#    0.000    2.125    3.750    1.125    0.000    1.750 
#    0.000    2.500    0.000    1.500    0.000    0.000 
#    0.000    0.000    0.000    0.000    0.000    0.000 
#
# Total GULP energy -396657.347847 kJ/mol
# GULP energy per Si atom -12395.542120 kJ/mol
# Density = 1.754591 g / cm^3
# Si number density = 17.585933 Si / 1000 Ang^3
#
#
#
# Elastic Constant Matrix: (Units=GPa)
#
#
# Indices 1 2 3 4 5 6 
#
# 1 86.6938 48.1002 43.0304 -0.0002 4.9450 -0.0001
# 2 48.1002 91.2468 56.4258 0.0003 5.9532 -0.0003
# 3 43.0304 56.4258 116.6887 0.0056 7.6582 -0.0006
# 4 -0.0002 0.0003 0.0056 25.3781 0.0004 2.1748
# 5 4.9450 5.9532 7.6582 0.0004 22.0708 -0.0001
# 6 -0.0001 -0.0003 -0.0006 2.1748 -0.0001 26.4078
#
#
#
# Elastic Compliance Matrix: (Units=1/GPa)
#
#
# Indices 1 2 3 4 5 6 
#
# 1 0.016915 -0.007186 -0.002703 0.000001 -0.000914 0.000000
# 2 -0.007186 0.018744 -0.006332 0.000001 -0.001249 0.000000
# 3 -0.002703 -0.006332 0.012768 -0.000003 -0.002117 0.000000
# 4 0.000001 0.000001 -0.000003 0.039684 0.000000 -0.003268
# 5 -0.000914 -0.001249 -0.002117 0.000000 0.046585 0.000000
# 6 0.000000 0.000000 0.000000 -0.003268 0.000000 0.038137
#
#
# Mechanical properties :
#
#
# Convention : Reuss Voigt Hill
#
# Bulk Modulus (GPa) = 62.55742 65.52690 64.04216
# Shear Modulus (GPa) = 23.74128 24.57621 24.15874
#
# Velocity S-wave (km/s) = 3.67824 3.74236 3.71044
# Velocity P-wave (km/s) = 7.32727 7.48435 7.40623
#
# Compressibility (1/GPa) = 0.01598531
#
# Stress axis : x y z
#
# Youngs Moduli (GPa) = 59.11741 53.34916 78.32360
#
# Poissons Ratio (x) = 0.38335 0.21172
# Poissons Ratio (y) = 0.42480 0.49597
# Poissons Ratio (z) = 0.15980 0.33782
#
# Static dielectric constant tensor:
#      x y z
#    x 3.251910 0.000000 0.084500 
#    y 0.000000 3.129980 -0.000010 
#    z 0.084500 -0.000010 3.471100 
# 
# 
# High freq. dielectric constant tensor:
#      x y z
#    x 1.675750 0.000000 0.006820 
#    y 0.000000 1.657580 0.000000 
#    z 0.006820 0.000000 1.684940 
# 
# From -- ./inp_files/334362.got.cif
#   From: 2010.06.25/outbox.cif.g09.slc.cpg/sg12_168_cif.got.tgz:334362.got - 2010.06.28 00:19:55.
