data_PCOD8097292
_publ_section_title
;
Structure prediction by ZEFSAII (Michael W. Deem and Ramdas Pophale) SiO2 
 PCOD8097292
Probable space group: C 2/M
;
_chemical_formula_sum "Si O2"
_cell_formula_units_Z 56
_cell_length_a 19.279692
_cell_length_b 8.777863
_cell_length_c 19.844852
_cell_angle_alpha 90.000000
_cell_angle_beta 118.578730
_cell_angle_gamma 90.000000
_cell_volume 2949.244053
_symmetry_space_group_name_H-M "C 2/M"
_symmetry_group_IT_number 12
_symmetry_cell_setting 'monoclinic'
loop_
_space_group_symop_operation_xyz
x,y,z
-x,y,-z
-x,-y,-z
x,-y,z
1/2+x,1/2+y,z
1/2-x,1/2+y,-z
1/2-x,1/2-y,-z
1/2+x,1/2-y,z
loop_
_atom_site_type_symbol
_atom_site_label
_atom_site_fract_x
_atom_site_fract_y
_atom_site_fract_z
Si Si1 0.710110 0.325565 0.074172
Si Si2 0.120290 0.679197 0.381958
Si Si3 0.160547 0.823318 0.199923
Si Si4 0.915253 0.318750 0.486803
Si Si5 0.863868 0.174674 0.099182
Si Si6 0.977398 0.677936 0.789880
Si Si7 0.763278 0.819814 0.358759
O O1 0.739996 0.500000 0.083875
O O2 0.667409 0.289837 0.124123
O O3 0.784255 0.214153 0.101945
O O4 0.647434 0.293347 0.985573
O O5 0.124368 0.500000 0.392054
O O6 0.101505 0.750575 0.446367
O O7 0.050403 0.725122 0.298156
O O8 0.204221 0.737122 0.391045
O O9 0.072973 0.771079 0.179081
O O10 0.227109 0.728687 0.270399
O O11 0.172255 0.000000 0.222497
O O12 0.913289 0.500000 0.485886
O O13 0.848126 0.258015 0.405666
O O14 0.000000 0.259519 0.500000
O O15 0.931521 0.282596 0.159578
O O16 0.886252 0.000000 0.123476
O O17 0.962423 0.500000 0.795011
O O18 0.773184 0.000000 0.364570
#
# Coordination Sequence:
#
# PCOD8097292 Si02
#       7
#     8   8   8   8   8   8   8
#     4   9  20  37  55  76 105 141 178 219 265 312
#     4   8  17  34  53  73 100 135 172 210 254 306
#     4  10  20  36  57  79 104 137 179 222 264 312
#     4  10  20  34  53  77 103 134 173 213 255 309
#     4  10  20  35  55  79 107 140 178 216 260 318
#     4  10  20  35  54  78 109 141 176 220 267 312
#     4  10  20  35  54  76 104 136 170 213 264 314
#
# _framework density 18.987918000000001
#
# number of rings (size 3 to 8) (size 9 to 14) (size 15 to 20)
#    0.000    2.429    0.000    3.000    0.000    3.714 
#    0.000    9.286    0.000    0.000    0.000    0.000 
#    0.000    0.000    0.000    0.000    0.000    0.000 
#
# Total GULP energy -347241.563337 kJ/mol
# GULP energy per Si atom -12401.484405 kJ/mol
# Density = 1.894470 g / cm^3
# Si number density = 18.987918 Si / 1000 Ang^3
#
#
#
# Elastic Constant Matrix: (Units=GPa)
#
#
# Indices 1 2 3 4 5 6 
#
# 1 59.0232 22.0244 25.1607 0.0000 10.5655 0.0000
# 2 22.0244 33.8999 18.4194 0.0000 -0.9401 0.0000
# 3 25.1607 18.4194 59.1836 0.0000 13.3268 0.0000
# 4 0.0000 0.0000 0.0000 29.6002 0.0000 5.9210
# 5 10.5655 -0.9401 13.3268 0.0000 34.7431 0.0000
# 6 0.0000 0.0000 0.0000 5.9210 0.0000 29.7969
#
#
#
# Elastic Compliance Matrix: (Units=1/GPa)
#
#
# Indices 1 2 3 4 5 6 
#
# 1 0.025402 -0.013911 -0.005085 0.000000 -0.006151 0.000000
# 2 -0.013911 0.044179 -0.009914 0.000000 0.009229 0.000000
# 3 -0.005085 -0.009914 0.023922 0.000000 -0.007898 0.000000
# 4 0.000000 0.000000 0.000000 0.035182 0.000000 -0.006991
# 5 -0.006151 0.009229 -0.007898 0.000000 0.033932 0.000000
# 6 0.000000 0.000000 0.000000 -0.006991 0.000000 0.034950
#
#
# Mechanical properties :
#
#
# Convention : Reuss Voigt Hill
#
# Bulk Modulus (GPa) = 28.02361 31.47951 29.75156
# Shear Modulus (GPa) = 18.70693 24.59488 21.65091
#
# Velocity S-wave (km/s) = 3.14220 3.60292 3.38042
# Velocity P-wave (km/s) = 5.28727 5.82432 5.56228
#
# Compressibility (1/GPa) = 0.03568420
#
# Stress axis : x y z
#
# Youngs Moduli (GPa) = 39.36700 22.63518 41.80256
#
# Poissons Ratio (x) = 0.31488 0.21255
# Poissons Ratio (y) = 0.54765 0.41441
# Poissons Ratio (z) = 0.20016 0.22440
#
# Static dielectric constant tensor:
#      x y z
#    x 3.483760 0.000000 -0.115860 
#    y 0.000000 3.342860 0.000000 
#    z -0.115860 0.000000 3.541440 
# 
# 
# High freq. dielectric constant tensor:
#      x y z
#    x 1.732430 0.000000 0.000370 
#    y 0.000000 1.729840 0.000000 
#    z 0.000370 0.000000 1.742720 
# 
# From -- ./inp_files/314421.got.cif
#   From: 2010.06.25/outbox.cif.g09.slc.cpg/sg12_158_cif.got.tgz:314421.got - 2010.06.28 00:19:55.
