data_PCOD8097625
_publ_section_title
;
Structure prediction by ZEFSAII (Michael W. Deem and Ramdas Pophale) SiO2 
 PCOD8097625
Probable space group: C 2/M
;
_chemical_formula_sum "Si O2"
_cell_formula_units_Z 44
_cell_length_a 31.829390
_cell_length_b 12.664313
_cell_length_c 18.718137
_cell_angle_alpha 90.000000
_cell_angle_beta 18.073042
_cell_angle_gamma 90.000000
_cell_volume 2340.750941
_symmetry_space_group_name_H-M "C 2/M"
_symmetry_group_IT_number 12
_symmetry_cell_setting 'monoclinic'
loop_
_space_group_symop_operation_xyz
x,y,z
-x,y,-z
-x,-y,-z
x,-y,z
1/2+x,1/2+y,z
1/2-x,1/2+y,-z
1/2-x,1/2-y,-z
1/2+x,1/2-y,z
loop_
_atom_site_type_symbol
_atom_site_label
_atom_site_fract_x
_atom_site_fract_y
_atom_site_fract_z
Si Si1 0.500000 0.764097 0.500000
Si Si2 0.725257 0.119101 0.608264
Si Si3 0.244705 0.122428 0.141204
Si Si4 0.519907 0.123623 0.616521
Si Si5 0.740968 0.772225 0.732656
Si Si6 0.537738 0.700098 0.862062
O O1 0.631891 0.690549 0.283176
O O2 0.501662 0.839662 0.429313
O O3 0.760416 0.162052 0.629334
O O4 0.606923 0.185530 0.762017
O O5 0.861414 0.121678 0.341074
O O6 0.672602 0.000000 0.698215
O O7 0.244485 0.147682 0.225379
O O8 0.210316 0.000000 0.185397
O O9 0.388557 0.152364 0.875039
O O10 0.646413 0.181600 0.447918
O O11 0.550982 0.000000 0.567177
O O12 0.595115 0.715795 0.971227
O O13 0.500000 0.649992 0.000000
#
# Coordination Sequence:
#
# PCOD8097625 Si02
#       6
#     4   8   8   8   8   8
#     4  10  20  36  56  78 106 136 172 214 256 308
#     4  10  20  35  55  77 103 138 177 215 257 305
#     4  10  20  34  54  79 106 137 172 213 260 307
#     4  10  21  36  55  78 105 138 173 211 258 310
#     4  10  20  35  53  77 107 137 173 216 258 306
#     4   9  20  36  52  76 107 137 174 217 258 303
#
# _framework density 18.797385999999999
#
# number of rings (size 3 to 8) (size 9 to 14) (size 15 to 20)
#    0.000    2.182    0.000    2.727    0.000    5.091 
#    0.000   10.909    0.000   12.000    0.000    0.000 
#    0.000    0.000    0.000    0.000    0.000    0.000 
#
# Total GULP energy -272886.696640 kJ/mol
# GULP energy per Si atom -12403.940756 kJ/mol
# Density = 1.875460 g / cm^3
# Si number density = 18.797386 Si / 1000 Ang^3
#
#
#
# Elastic Constant Matrix: (Units=GPa)
#
#
# Indices 1 2 3 4 5 6 
#
# 1 67.2515 35.5135 40.8895 0.0000 -8.4535 0.0000
# 2 35.5135 99.8395 50.6746 0.0000 -5.7171 0.0000
# 3 40.8895 50.6746 127.2154 0.0001 -3.4255 0.0000
# 4 0.0000 0.0000 0.0001 15.1537 0.0000 0.8666
# 5 -8.4535 -5.7171 -3.4255 0.0000 33.8036 0.0000
# 6 0.0000 0.0000 0.0000 0.8666 0.0000 20.1704
#
#
#
# Elastic Compliance Matrix: (Units=1/GPa)
#
#
# Indices 1 2 3 4 5 6 
#
# 1 0.020712 -0.004786 -0.004646 0.000000 0.003899 0.000000
# 2 -0.004786 0.013749 -0.003919 0.000000 0.000731 0.000000
# 3 -0.004646 -0.003919 0.010896 0.000000 -0.000720 0.000000
# 4 0.000000 0.000000 0.000000 0.066153 0.000000 -0.002842
# 5 0.003899 0.000731 -0.000720 0.000000 0.030608 0.000000
# 6 0.000000 0.000000 0.000000 -0.002842 0.000000 0.049700
#
#
# Mechanical properties :
#
#
# Convention : Reuss Voigt Hill
#
# Bulk Modulus (GPa) = 53.60364 60.94018 57.27191
# Shear Modulus (GPa) = 22.24819 24.97414 23.61117
#
# Velocity S-wave (km/s) = 3.44405 3.64895 3.54798
# Velocity P-wave (km/s) = 6.66286 7.08823 6.87883
#
# Compressibility (1/GPa) = 0.01865545
#
# Stress axis : x y z
#
# Youngs Moduli (GPa) = 48.28202 72.73021 91.78064
#
# Poissons Ratio (x) = 0.34809 0.42638
# Poissons Ratio (y) = 0.23108 0.35968
# Poissons Ratio (z) = 0.22430 0.28502
#
# Static dielectric constant tensor:
#      x y z
#    x 3.455050 0.000000 0.057400 
#    y 0.000000 3.267900 0.000000 
#    z 0.057400 0.000000 3.648210 
# 
# 
# High freq. dielectric constant tensor:
#      x y z
#    x 1.735920 0.000000 0.003300 
#    y 0.000000 1.723580 0.000000 
#    z 0.003300 0.000000 1.747000 
# 
# From -- ./inp_files/262033.got.cif
#   From: 2010.06.25/outbox.cif.g09.slc.cpg/sg12_132_cif.got.tgz:262033.got - 2010.06.28 00:19:55.
