data_PCOD8097951
_publ_section_title
;
Structure prediction by ZEFSAII (Michael W. Deem and Ramdas Pophale) SiO2 
 PCOD8097951
Probable space group: C 2/M
;
_chemical_formula_sum "Si O2"
_cell_formula_units_Z 64
_cell_length_a 18.483164
_cell_length_b 19.730088
_cell_length_c 17.916590
_cell_angle_alpha 90.000000
_cell_angle_beta 147.640877
_cell_angle_gamma 90.000000
_cell_volume 3497.007017
_symmetry_space_group_name_H-M "C 2/M"
_symmetry_group_IT_number 12
_symmetry_cell_setting 'monoclinic'
loop_
_space_group_symop_operation_xyz
x,y,z
-x,y,-z
-x,-y,-z
x,-y,z
1/2+x,1/2+y,z
1/2-x,1/2+y,-z
1/2-x,1/2-y,-z
1/2+x,1/2-y,z
loop_
_atom_site_type_symbol
_atom_site_label
_atom_site_fract_x
_atom_site_fract_y
_atom_site_fract_z
Si Si1 0.199851 0.675784 0.333465
Si Si2 0.000511 0.078284 0.088009
Si Si3 0.215299 0.578391 0.906635
Si Si4 0.294220 0.673329 0.652682
Si Si5 0.307367 0.421828 0.147908
Si Si6 0.453987 0.680134 0.642320
Si Si7 0.151361 0.575208 0.157722
Si Si8 0.534200 0.169099 0.340506
O O1 0.191047 0.753105 0.295302
O O2 0.357611 0.662023 0.488860
O O3 0.160189 0.625957 0.233274
O O4 0.101858 0.660827 0.318032
O O5 0.859532 0.104592 0.000316
O O6 0.021106 0.000000 0.126839
O O7 0.000000 0.090813 0.000000
O O8 0.129713 0.117255 0.232991
O O9 0.194772 0.500000 0.867166
O O10 0.094012 0.619864 0.763556
O O11 0.211197 0.589351 0.992440
O O12 0.355901 0.684211 0.626078
O O13 0.138971 0.651736 0.499445
O O14 0.351197 0.500000 0.190720
O O15 0.440178 0.378425 0.252814
O O16 0.235407 0.397114 0.160371
O O17 0.521205 0.754487 0.693815
O O18 0.202471 0.500000 0.226125
O O19 0.000000 0.569464 0.000000
#
# Coordination Sequence:
#
# PCOD8097951 Si02
#       8
#     8   8   8   8   8   8   8   8
#     4   9  19  35  54  78 110 145 182 223 264 313
#     4  10  21  38  58  79 106 137 173 224 277 326
#     4  10  20  36  56  82 110 136 178 226 268 324
#     4   9  18  37  58  79 107 142 182 221 267 325
#     4  10  20  34  55  80 110 146 183 222 267 321
#     4   9  18  35  55  78 108 140 181 227 268 311
#     4  10  21  36  51  75 114 151 183 224 269 316
#     4   9  19  35  57  81 109 143 179 225 269 314
#
# _framework density 18.301364
#
# number of rings (size 3 to 8) (size 9 to 14) (size 15 to 20)
#    0.000    2.500    1.250    2.250    0.000    4.000 
#    4.500    4.375    0.000    2.250    0.000    0.000 
#    0.000    0.000    0.000    0.000    0.000    0.000 
#
# Total GULP energy -396667.562641 kJ/mol
# GULP energy per Si atom -12395.861333 kJ/mol
# Density = 1.825971 g / cm^3
# Si number density = 18.301364 Si / 1000 Ang^3
#
#
#
# Elastic Constant Matrix: (Units=GPa)
#
#
# Indices 1 2 3 4 5 6 
#
# 1 54.8580 31.4286 28.4841 -0.0009 -5.9734 -0.0010
# 2 31.4286 89.0093 68.4504 -0.0012 1.6233 -0.0020
# 3 28.4841 68.4504 107.1816 0.0004 4.3852 -0.0011
# 4 -0.0009 -0.0012 0.0004 56.4016 -0.0004 -3.1524
# 5 -5.9734 1.6233 4.3852 -0.0004 25.2977 -0.0015
# 6 -0.0010 -0.0020 -0.0011 -3.1524 -0.0015 27.6907
#
#
#
# Elastic Compliance Matrix: (Units=1/GPa)
#
#
# Indices 1 2 3 4 5 6 
#
# 1 0.024051 -0.006860 -0.002277 0.000000 0.006514 0.000001
# 2 -0.006860 0.024061 -0.013510 0.000001 -0.000822 0.000001
# 3 -0.002277 -0.013510 0.018682 0.000000 -0.002909 -0.000001
# 4 0.000000 0.000001 0.000000 0.017844 0.000000 0.002031
# 5 0.006514 -0.000822 -0.002909 0.000000 0.041624 0.000002
# 6 0.000001 0.000001 -0.000001 0.002031 0.000002 0.036345
#
#
# Mechanical properties :
#
#
# Convention : Reuss Voigt Hill
#
# Bulk Modulus (GPa) = 46.51068 56.41947 51.46507
# Shear Modulus (GPa) = 23.24859 30.05705 26.65282
#
# Velocity S-wave (km/s) = 3.56802 4.05698 3.82033
# Velocity P-wave (km/s) = 6.51485 7.26914 6.90231
#
# Compressibility (1/GPa) = 0.02150044
#
# Stress axis : x y z
#
# Youngs Moduli (GPa) = 41.57912 41.56044 53.52704
#
# Poissons Ratio (x) = 0.28509 0.12189
# Poissons Ratio (y) = 0.28522 0.72315
# Poissons Ratio (z) = 0.09468 0.56148
#
# Static dielectric constant tensor:
#      x y z
#    x 3.152790 -0.000010 -0.065900 
#    y -0.000010 3.457780 -0.000010 
#    z -0.065900 -0.000010 3.295010 
# 
# 
# High freq. dielectric constant tensor:
#      x y z
#    x 1.695960 0.000000 0.002000 
#    y 0.000000 1.710680 0.000000 
#    z 0.002000 0.000000 1.709850 
# 
# From -- ./inp_files/285232.got.cif
#   From: 2010.06.25/outbox.cif.g09.slc.cpg/sg12_143_cif.got.tgz:285232.got - 2010.06.28 00:19:55.
