data_PCOD8097860
_publ_section_title
;
Structure prediction by ZEFSAII (Michael W. Deem and Ramdas Pophale) SiO2 
 PCOD8097860
Probable space group: C 2/M
;
_chemical_formula_sum "Si O2"
_cell_formula_units_Z 64
_cell_length_a 18.696279
_cell_length_b 8.725296
_cell_length_c 27.279127
_cell_angle_alpha 90.000000
_cell_angle_beta 49.717487
_cell_angle_gamma 90.000000
_cell_volume 3394.797741
_symmetry_space_group_name_H-M "C 2/M"
_symmetry_group_IT_number 12
_symmetry_cell_setting 'monoclinic'
loop_
_space_group_symop_operation_xyz
x,y,z
-x,y,-z
-x,-y,-z
x,-y,z
1/2+x,1/2+y,z
1/2-x,1/2+y,-z
1/2-x,1/2-y,-z
1/2+x,1/2-y,z
loop_
_atom_site_type_symbol
_atom_site_label
_atom_site_fract_x
_atom_site_fract_y
_atom_site_fract_z
Si Si1 0.345941 0.176271 0.647188
Si Si2 0.862864 0.322984 0.368995
Si Si3 0.894057 0.672724 0.064776
Si Si4 0.669309 0.823457 0.459384
Si Si5 0.331618 0.319905 0.996822
Si Si6 0.348828 0.178308 0.262715
Si Si7 0.960450 0.820748 0.129657
Si Si8 0.970790 0.822470 0.404279
O O1 0.360619 0.204699 0.583099
O O2 0.243418 0.226533 0.710373
O O3 0.419996 0.281115 0.642636
O O4 0.361341 0.000000 0.654543
O O5 0.880637 0.500000 0.373411
O O6 0.758380 0.280834 0.433058
O O7 0.878278 0.285592 0.305239
O O8 0.936165 0.218370 0.365342
O O9 0.858420 0.500000 0.089876
O O10 0.827333 0.750271 0.053579
O O11 0.891136 0.767140 0.116682
O O12 0.000000 0.673860 0.000000
O O13 0.583157 0.777965 0.531622
O O14 0.696110 0.000000 0.456582
O O15 0.316596 0.500000 0.007710
O O16 0.250000 0.250000 0.000000
O O17 0.431619 0.278784 0.928617
O O18 0.433781 0.231545 0.190816
O O19 0.327400 0.000000 0.265043
O O20 0.946500 0.000000 0.143492
O O21 0.955224 0.000000 0.422534
#
# Coordination Sequence:
#
# PCOD8097860 Si02
#       8
#     8   8   8   8   8   8   8   8
#     4  10  21  37  56  77 104 137 174 219 268 318
#     4  10  21  37  55  76 105 139 177 221 268 320
#     4   9  17  31  53  80 109 141 178 218 258 303
#     4  10  20  35  55  78 104 136 174 216 268 328
#     4  10  20  34  54  83 117 148 179 218 267 315
#     4  10  21  38  59  80 103 137 180 221 262 314
#     4  10  20  35  57  82 109 143 180 218 260 313
#     4  12  23  34  52  78 107 137 173 220 272 323
#
# _framework density 18.852374999999999
#
# number of rings (size 3 to 8) (size 9 to 14) (size 15 to 20)
#    0.000    1.875    0.000    4.500    0.000    7.500 
#    0.000    1.250    0.000    3.000    0.000    0.000 
#    0.000    0.000    0.000    0.000    0.000    0.000 
#
# Total GULP energy -396948.049706 kJ/mol
# GULP energy per Si atom -12404.626553 kJ/mol
# Density = 1.880947 g / cm^3
# Si number density = 18.852375 Si / 1000 Ang^3
#
#
#
# Elastic Constant Matrix: (Units=GPa)
#
#
# Indices 1 2 3 4 5 6 
#
# 1 115.4883 48.4274 33.3075 0.0000 -7.7653 0.0003
# 2 48.4274 86.8924 26.8006 -0.0008 2.8428 -0.0005
# 3 33.3075 26.8006 71.4363 0.0000 7.3018 0.0002
# 4 0.0000 -0.0008 0.0000 30.8972 -0.0001 -0.2886
# 5 -7.7653 2.8428 7.3018 -0.0001 15.1474 -0.0001
# 6 0.0003 -0.0005 0.0002 -0.2886 -0.0001 35.5282
#
#
#
# Elastic Compliance Matrix: (Units=1/GPa)
#
#
# Indices 1 2 3 4 5 6 
#
# 1 0.013438 -0.006298 -0.004973 0.000000 0.010468 0.000000
# 2 -0.006298 0.015966 -0.002543 0.000000 -0.004999 0.000000
# 3 -0.004973 -0.002543 0.018389 0.000000 -0.010936 0.000000
# 4 0.000000 0.000000 0.000000 0.032368 0.000000 0.000263
# 5 0.010468 -0.004999 -0.010936 0.000000 0.077594 0.000000
# 6 0.000000 0.000000 0.000000 0.000263 0.000000 0.028149
#
#
# Mechanical properties :
#
#
# Convention : Reuss Voigt Hill
#
# Bulk Modulus (GPa) = 49.58711 54.54309 52.06510
# Shear Modulus (GPa) = 22.70124 27.33331 25.01728
#
# Velocity S-wave (km/s) = 3.47386 3.81183 3.64677
# Velocity P-wave (km/s) = 6.51539 6.95471 6.73863
#
# Compressibility (1/GPa) = 0.02016653
#
# Stress axis : x y z
#
# Youngs Moduli (GPa) = 74.41721 62.63202 54.38125
#
# Poissons Ratio (x) = 0.39445 0.27042
# Poissons Ratio (y) = 0.46868 0.13827
# Poissons Ratio (z) = 0.37005 0.15925
#
# Static dielectric constant tensor:
#      x y z
#    x 3.526330 0.000000 0.094260 
#    y 0.000000 3.583650 0.000000 
#    z 0.094260 0.000000 3.241600 
# 
# 
# High freq. dielectric constant tensor:
#      x y z
#    x 1.734080 0.000000 0.007420 
#    y 0.000000 1.749470 0.000000 
#    z 0.007420 0.000000 1.708550 
# 
# From -- ./inp_files/378170.got.cif
#   From: 2010.06.25/outbox.cif.g09.slc.cpg/sg12_190_cif.got.tgz:378170.got - 2010.06.28 00:19:55.
