data_PCOD8097226
_publ_section_title
;
Structure prediction by ZEFSAII (Michael W. Deem and Ramdas Pophale) SiO2 
 PCOD8097226
Probable space group: C 2/M
;
_chemical_formula_sum "Si O2"
_cell_formula_units_Z 64
_cell_length_a 14.317925
_cell_length_b 9.723983
_cell_length_c 28.615795
_cell_angle_alpha 90.000000
_cell_angle_beta 62.778238
_cell_angle_gamma 90.000000
_cell_volume 3542.830674
_symmetry_space_group_name_H-M "C 2/M"
_symmetry_group_IT_number 12
_symmetry_cell_setting 'monoclinic'
loop_
_space_group_symop_operation_xyz
x,y,z
-x,y,-z
-x,-y,-z
x,-y,z
1/2+x,1/2+y,z
1/2-x,1/2+y,-z
1/2-x,1/2-y,-z
1/2+x,1/2-y,z
loop_
_atom_site_type_symbol
_atom_site_label
_atom_site_fract_x
_atom_site_fract_y
_atom_site_fract_z
Si Si1 0.469692 0.839027 0.361877
Si Si2 0.946412 0.336658 0.558821
Si Si3 0.326963 0.154563 0.181211
Si Si4 0.406255 0.162939 0.991260
Si Si5 0.782449 0.838612 0.361547
Si Si6 0.437170 0.160947 0.879908
Si Si7 0.761992 0.155219 0.897638
Si Si8 0.296959 0.157415 0.722455
O O1 0.486048 0.788755 0.411692
O O2 0.378839 0.749769 0.358898
O O3 0.579334 0.812152 0.310473
O O4 0.438896 0.000000 0.366519
O O5 0.946797 0.500000 0.558712
O O6 0.824897 0.289172 0.588408
O O7 0.000000 0.274950 0.500000
O O8 0.446598 0.195227 0.164802
O O9 0.317058 0.165099 0.127691
O O10 0.246425 0.252301 0.225669
O O11 0.303326 0.000000 0.203703
O O12 0.297577 0.203519 0.041554
O O13 0.419837 0.000000 0.986788
O O14 0.500000 0.228934 0.000000
O O15 0.414434 0.220133 0.936987
O O16 0.766657 0.808921 0.310287
O O17 0.804368 0.000000 0.365506
O O18 0.358843 0.244192 0.864424
O O19 0.413075 0.000000 0.882050
O O20 0.804066 0.000000 0.893631
O O21 0.279311 0.000000 0.740163
#
# Coordination Sequence:
#
# PCOD8097226 Si02
#       8
#     8   8   8   8   8   8   8   8
#     4   9  18  33  53  76 101 133 172 209 248 295
#     4   8  15  30  51  75 106 141 171 201 245 300
#     4  10  21  36  53  74  99 129 166 205 248 298
#     4   9  15  30  55  74  95 130 163 193 236 294
#     4   9  18  33  53  76 101 133 172 209 248 295
#     4  10  20  34  53  76 100 128 162 199 243 296
#     4  10  20  34  53  76 100 128 162 199 243 296
#     4   9  20  37  53  70  98 134 168 206 252 298
#
# _framework density 18.06465
#
# number of rings (size 3 to 8) (size 9 to 14) (size 15 to 20)
#    0.000    2.750    1.250    1.875    0.000    3.500 
#    0.000    6.875    0.000    1.500    0.000    0.000 
#    0.000    0.000    0.000    0.000    0.000    0.000 
#
# Total GULP energy -396685.564499 kJ/mol
# GULP energy per Si atom -12396.423891 kJ/mol
# Density = 1.802353 g / cm^3
# Si number density = 18.064650 Si / 1000 Ang^3
#
#
#
# Elastic Constant Matrix: (Units=GPa)
#
#
# Indices 1 2 3 4 5 6 
#
# 1 109.6755 48.6105 21.7819 0.0000 -13.6304 0.0000
# 2 48.6105 57.1096 37.2338 0.0000 -10.9107 0.0000
# 3 21.7819 37.2338 93.2071 0.0000 -10.4398 0.0000
# 4 0.0000 0.0000 0.0000 23.0975 0.0000 -1.2615
# 5 -13.6304 -10.9107 -10.4398 0.0000 16.9438 0.0000
# 6 0.0000 0.0000 0.0000 -1.2615 0.0000 34.2765
#
#
#
# Elastic Compliance Matrix: (Units=1/GPa)
#
#
# Indices 1 2 3 4 5 6 
#
# 1 0.015316 -0.013670 0.002444 0.000000 0.005024 0.000000
# 2 -0.013670 0.037611 -0.011116 0.000000 0.006373 0.000000
# 3 0.002444 -0.011116 0.015056 0.000000 0.004085 0.000000
# 4 0.000000 0.000000 0.000000 0.043382 0.000000 0.001597
# 5 0.005024 0.006373 0.004085 0.000000 0.069681 0.000000
# 6 0.000000 0.000000 0.000000 0.001597 0.000000 0.029233
#
#
# Mechanical properties :
#
#
# Convention : Reuss Voigt Hill
#
# Bulk Modulus (GPa) = 42.92136 52.80497 47.86316
# Shear Modulus (GPa) = 19.03112 25.02132 22.02622
#
# Velocity S-wave (km/s) = 3.24929 3.72573 3.49564
# Velocity P-wave (km/s) = 6.15537 6.91395 6.54566
#
# Compressibility (1/GPa) = 0.02329842
#
# Stress axis : x y z
#
# Youngs Moduli (GPa) = 65.29275 26.58809 66.42027
#
# Poissons Ratio (x) = 0.36346 -0.16236
# Poissons Ratio (y) = 0.89257 0.73833
# Poissons Ratio (z) = -0.15960 0.29556
#
# Static dielectric constant tensor:
#      x y z
#    x 3.287260 0.000000 -0.005730 
#    y 0.000000 3.007460 0.000000 
#    z -0.005730 0.000000 3.404170 
# 
# 
# High freq. dielectric constant tensor:
#      x y z
#    x 1.704030 0.000000 -0.003620 
#    y 0.000000 1.670420 0.000000 
#    z -0.003620 0.000000 1.698480 
# 
# From -- ./inp_files/375041.got.cif
#   From: 2010.06.25/outbox.cif.g09.slc.cpg/sg12_188_cif.got.tgz:375041.got - 2010.06.28 00:19:55.
