data_PCOD8097602
_publ_section_title
;
Structure prediction by ZEFSAII (Michael W. Deem and Ramdas Pophale) SiO2 
 PCOD8097602
Probable space group: C 2/M
;
_chemical_formula_sum "Si O2"
_cell_formula_units_Z 52
_cell_length_a 22.396832
_cell_length_b 23.898542
_cell_length_c 4.979615
_cell_angle_alpha 90.000000
_cell_angle_beta 60.254166
_cell_angle_gamma 90.000000
_cell_volume 2314.147306
_symmetry_space_group_name_H-M "C 2/M"
_symmetry_group_IT_number 12
_symmetry_cell_setting 'monoclinic'
loop_
_space_group_symop_operation_xyz
x,y,z
-x,y,-z
-x,-y,-z
x,-y,z
1/2+x,1/2+y,z
1/2-x,1/2+y,-z
1/2-x,1/2-y,-z
1/2+x,1/2-y,z
loop_
_atom_site_type_symbol
_atom_site_label
_atom_site_fract_x
_atom_site_fract_y
_atom_site_fract_z
Si Si1 0.769987 0.620842 0.401480
Si Si2 0.924275 0.882039 0.789486
Si Si3 0.135509 0.620241 0.309269
Si Si4 0.953556 0.723710 0.362347
Si Si5 0.360115 0.000000 0.598246
Si Si6 0.132792 0.826652 0.580094
Si Si7 0.950842 0.000000 0.857169
Si Si8 0.272736 0.000000 0.292823
O O1 0.801496 0.627876 0.625414
O O2 0.711751 0.668508 0.499491
O O3 0.734346 0.558765 0.446906
O O4 0.832682 0.629268 0.055789
O O5 0.872368 0.866832 0.667375
O O6 0.904925 0.944100 0.941777
O O7 0.000000 0.876841 0.500000
O O8 0.918046 0.842277 0.061945
O O9 0.074593 0.663676 0.487086
O O10 0.100931 0.558115 0.417396
O O11 0.888198 0.764004 0.457552
O O12 0.000000 0.748880 0.500000
O O13 0.000000 0.715872 0.000000
O O14 0.341718 0.000000 0.323984
O O15 0.291022 0.000000 0.937015
O O16 0.000000 0.000000 0.500000
O O17 0.000000 0.000000 0.000000
#
# Coordination Sequence:
#
# PCOD8097602 Si02
#       8
#     8   8   8   8   4   8   4   4
#     4  10  21  37  61  92 120 157 193 241 304 356
#     4  11  22  38  56  79 114 159 205 253 303 349
#     4  10  21  41  64  89 124 154 194 244 302 368
#     4  12  26  43  63  88 118 160 207 252 297 350
#     4   8  16  34  61  87 116 154 180 234 305 354
#     4  12  24  38  60  87 120 158 202 246 293 356
#     4  10  20  34  54  78 108 152 208 262 306 342
#     4   8  16  32  55  85 121 150 189 230 287 364
#
# _framework density 22.470479000000001
#
# number of rings (size 3 to 8) (size 9 to 14) (size 15 to 20)
#    0.000    1.538    0.000    6.462    0.000    2.462 
#    0.000    2.308    0.000    0.000    0.000    0.000 
#    0.000    0.000    0.000    0.000    0.000    0.000 
#
# Total GULP energy -322300.165884 kJ/mol
# GULP energy per Si atom -12396.160226 kJ/mol
# Density = 2.241934 g / cm^3
# Si number density = 22.470479 Si / 1000 Ang^3
#
#
#
# Elastic Constant Matrix: (Units=GPa)
#
#
# Indices 1 2 3 4 5 6 
#
# 1 41.9134 17.1938 11.9585 0.0000 9.3086 0.0000
# 2 17.1938 107.0173 29.0322 0.0000 -9.2226 0.0000
# 3 11.9585 29.0322 92.5304 0.0000 16.0871 0.0000
# 4 0.0000 0.0000 0.0000 17.1137 0.0000 5.9237
# 5 9.3086 -9.2226 16.0871 0.0000 35.1949 0.0000
# 6 0.0000 0.0000 0.0000 5.9237 0.0000 25.8301
#
#
#
# Elastic Compliance Matrix: (Units=1/GPa)
#
#
# Indices 1 2 3 4 5 6 
#
# 1 0.027982 -0.005078 -0.000549 0.000000 -0.008481 0.000000
# 2 -0.005078 0.011836 -0.004161 0.000000 0.006346 0.000000
# 3 -0.000549 -0.004161 0.013414 0.000000 -0.007076 0.000000
# 4 0.000000 0.000000 0.000000 0.063471 0.000000 -0.014556
# 5 -0.008481 0.006346 -0.007076 0.000000 0.035554 0.000000
# 6 0.000000 0.000000 0.000000 -0.014556 0.000000 0.042053
#
#
# Mechanical properties :
#
#
# Convention : Reuss Voigt Hill
#
# Bulk Modulus (GPa) = 29.71130 39.75888 34.73509
# Shear Modulus (GPa) = 22.21218 27.84619 25.02918
#
# Velocity S-wave (km/s) = 3.14746 3.52409 3.34109
# Velocity P-wave (km/s) = 5.14390 5.85587 5.51140
#
# Compressibility (1/GPa) = 0.03365723
#
# Stress axis : x y z
#
# Youngs Moduli (GPa) = 35.73765 84.49013 74.54944
#
# Poissons Ratio (x) = 0.42901 0.04091
# Poissons Ratio (y) = 0.18146 0.31017
# Poissons Ratio (z) = 0.01961 0.35153
#
# Static dielectric constant tensor:
#      x y z
#    x 3.730980 0.000000 0.422090 
#    y 0.000000 3.930130 0.000000 
#    z 0.422090 0.000000 3.954860 
# 
# 
# High freq. dielectric constant tensor:
#      x y z
#    x 1.857760 0.000000 0.036370 
#    y 0.000000 1.895060 0.000000 
#    z 0.036370 0.000000 1.888970 
# 
# From -- ./inp_files/21835.got.cif
#   From: 2010.06.25/outbox.cif.g09.slc.cpg/sg12_11_cif.got.tgz:21835.got - 2010.06.28 00:19:55.
