data_PCOD8097504
_publ_section_title
;
Structure prediction by ZEFSAII (Michael W. Deem and Ramdas Pophale) SiO2 
 PCOD8097504
Probable space group: C 2/M
;
_chemical_formula_sum "Si O2"
_cell_formula_units_Z 56
_cell_length_a 29.551240
_cell_length_b 9.038322
_cell_length_c 12.129170
_cell_angle_alpha 90.000000
_cell_angle_beta 59.326884
_cell_angle_gamma 90.000000
_cell_volume 2786.373775
_symmetry_space_group_name_H-M "C 2/M"
_symmetry_group_IT_number 12
_symmetry_cell_setting 'monoclinic'
loop_
_space_group_symop_operation_xyz
x,y,z
-x,y,-z
-x,-y,-z
x,-y,z
1/2+x,1/2+y,z
1/2-x,1/2+y,-z
1/2-x,1/2-y,-z
1/2+x,1/2-y,z
loop_
_atom_site_type_symbol
_atom_site_label
_atom_site_fract_x
_atom_site_fract_y
_atom_site_fract_z
Si Si1 0.112111 0.174354 0.854344
Si Si2 0.904696 0.825601 0.873534
Si Si3 0.907280 0.670989 0.330718
Si Si4 0.198562 0.662681 0.031762
Si Si5 0.284589 0.837528 0.242209
Si Si6 0.210203 0.674730 0.463175
Si Si7 0.997412 0.328267 0.630846
O O1 0.075442 0.237472 0.800942
O O2 0.168669 0.246550 0.758032
O O3 0.116915 0.000000 0.837790
O O4 0.090811 0.218542 0.002312
O O5 0.854160 0.753639 0.876058
O O6 0.955527 0.769854 0.747138
O O7 0.899030 0.000000 0.867836
O O8 0.908312 0.500000 0.295608
O O9 0.849982 0.720883 0.444310
O O10 0.946646 0.703870 0.382167
O O11 0.196623 0.500000 0.091603
O O12 0.250000 0.750000 0.000000
O O13 0.201116 0.639099 0.899993
O O14 0.229900 0.746478 0.322867
O O15 0.281030 0.000000 0.304453
O O16 0.217333 0.500000 0.450449
O O17 0.250000 0.750000 0.500000
O O18 0.981266 0.500000 0.660740
O O19 0.000000 0.279507 0.500000
#
# Coordination Sequence:
#
# PCOD8097504 Si02
#       7
#     8   8   8   8   8   8   8
#     4  10  20  35  58  87 118 151 191 239 296 360
#     4  10  22  40  62  89 120 155 195 246 305 358
#     4  10  22  38  58  85 118 156 200 248 297 356
#     4  10  21  37  59  87 119 156 199 246 295 352
#     4  10  20  34  53  81 118 156 192 237 292 350
#     4  11  21  33  53  83 119 157 194 237 291 352
#     4  10  23  44  65  86 115 156 204 250 299 357
#
# _framework density 20.097805999999999
#
# number of rings (size 3 to 8) (size 9 to 14) (size 15 to 20)
#    0.000    1.857    1.429    2.143    0.000    6.571 
#    0.000    4.286    0.000    0.000    0.000    0.000 
#    0.000    0.000    0.000    0.000    0.000    0.000 
#
# Total GULP energy -347093.106033 kJ/mol
# GULP energy per Si atom -12396.182358 kJ/mol
# Density = 2.005206 g / cm^3
# Si number density = 20.097806 Si / 1000 Ang^3
#
#
#
# Elastic Constant Matrix: (Units=GPa)
#
#
# Indices 1 2 3 4 5 6 
#
# 1 122.8892 55.4092 50.7619 0.0000 -4.7175 0.0000
# 2 55.4092 114.3355 54.9577 0.0000 -5.8790 0.0000
# 3 50.7619 54.9577 100.1459 0.0000 -13.3622 0.0000
# 4 0.0000 0.0000 0.0000 35.2266 0.0000 -2.3539
# 5 -4.7175 -5.8790 -13.3622 0.0000 29.7879 0.0000
# 6 0.0000 0.0000 0.0000 -2.3539 0.0000 30.5183
#
#
#
# Elastic Compliance Matrix: (Units=1/GPa)
#
#
# Indices 1 2 3 4 5 6 
#
# 1 0.011357 -0.003706 -0.003808 0.000000 -0.000641 0.000000
# 2 -0.003706 0.013100 -0.005365 0.000000 -0.000408 0.000000
# 3 -0.003808 -0.005365 0.015570 0.000000 0.005322 0.000000
# 4 0.000000 0.000000 0.000000 0.028535 0.000000 0.002201
# 5 -0.000641 -0.000408 0.005322 0.000000 0.035776 0.000000
# 6 0.000000 0.000000 0.000000 0.002201 0.000000 0.032937
#
#
# Mechanical properties :
#
#
# Convention : Reuss Voigt Hill
#
# Bulk Modulus (GPa) = 70.08518 73.29202 71.68860
# Shear Modulus (GPa) = 29.79924 30.85603 30.32764
#
# Velocity S-wave (km/s) = 3.85478 3.92253 3.88880
# Velocity P-wave (km/s) = 7.40001 7.55393 7.47737
#
# Compressibility (1/GPa) = 0.01426835
#
# Stress axis : x y z
#
# Youngs Moduli (GPa) = 88.05152 76.33572 64.22616
#
# Poissons Ratio (x) = 0.28292 0.24459
# Poissons Ratio (y) = 0.32634 0.34456
# Poissons Ratio (z) = 0.33532 0.40953
#
# Static dielectric constant tensor:
#      x y z
#    x 3.939170 0.000000 0.131330 
#    y 0.000000 3.953810 0.000000 
#    z 0.131330 0.000000 4.031450 
# 
# 
# High freq. dielectric constant tensor:
#      x y z
#    x 1.772930 0.000000 0.001070 
#    y 0.000000 1.794110 0.000000 
#    z 0.001070 0.000000 1.786230 
# 
# From -- ./inp_files/187160.got.cif
#   From: 2010.06.25/outbox.cif.g09.slc.cpg/sg12_94_cif.got.tgz:187160.got - 2010.06.28 00:19:55.
