data_PCOD8097462
_publ_section_title
;
Structure prediction by ZEFSAII (Michael W. Deem and Ramdas Pophale) SiO2 
 PCOD8097462
Probable space group: C 2/M
;
_chemical_formula_sum "Si O2"
_cell_formula_units_Z 64
_cell_length_a 20.036794
_cell_length_b 9.104233
_cell_length_c 33.697108
_cell_angle_alpha 90.000000
_cell_angle_beta 145.082980
_cell_angle_gamma 90.000000
_cell_volume 3518.486337
_symmetry_space_group_name_H-M "C 2/M"
_symmetry_group_IT_number 12
_symmetry_cell_setting 'monoclinic'
loop_
_space_group_symop_operation_xyz
x,y,z
-x,y,-z
-x,-y,-z
x,-y,z
1/2+x,1/2+y,z
1/2-x,1/2+y,-z
1/2-x,1/2-y,-z
1/2+x,1/2-y,z
loop_
_atom_site_type_symbol
_atom_site_label
_atom_site_fract_x
_atom_site_fract_y
_atom_site_fract_z
Si Si1 0.388558 0.327540 0.967937
Si Si2 0.640345 0.174634 0.818079
Si Si3 0.629912 0.672284 0.950294
Si Si4 0.869690 0.673363 0.547841
Si Si5 0.223148 0.832174 0.704515
Si Si6 0.001086 0.170166 0.545789
Si Si7 0.907321 0.673073 0.293266
Si Si8 0.516253 0.828112 0.185591
O O1 0.384752 0.500000 0.958039
O O2 0.267022 0.260643 0.892100
O O3 0.500000 0.256822 0.000000
O O4 0.405451 0.291673 0.022134
O O5 0.603715 0.234938 0.756904
O O6 0.544747 0.227279 0.803640
O O7 0.643816 0.000000 0.819159
O O8 0.644251 0.500000 0.949910
O O9 0.530133 0.736801 0.874042
O O10 0.750000 0.750000 0.000000
O O11 0.851589 0.500000 0.537533
O O12 0.750000 0.750000 0.500000
O O13 0.908132 0.730732 0.523563
O O14 0.966919 0.719162 0.627836
O O15 0.129985 0.799247 0.624910
O O16 0.196988 0.737671 0.730960
O O17 0.346877 0.793307 0.745239
O O18 0.218706 0.000000 0.716274
O O19 0.000000 0.221135 0.500000
O O20 0.964885 0.000000 0.532683
O O21 0.891575 0.500000 0.286331
O O22 0.490043 0.000000 0.165864
#
# Coordination Sequence:
#
# PCOD8097462 Si02
#       8
#     8   8   8   8   8   8   8   8
#     4   9  18  31  50  77 101 127 168 211 252 297
#     4   9  17  32  52  73 101 135 172 215 253 296
#     4  11  21  35  56  78 102 133 169 215 263 308
#     4  10  20  34  53  80 109 141 179 221 268 318
#     4   9  19  34  53  77 108 140 169 211 266 315
#     4   9  18  34  56  81 107 140 181 223 266 318
#     4   9  19  34  55  78 102 135 178 219 253 304
#     4  10  20  35  53  75 104 138 173 208 256 312
#
# _framework density 18.189640000000001
#
# number of rings (size 3 to 8) (size 9 to 14) (size 15 to 20)
#    0.000    2.500    1.250    0.750    1.750    2.250 
#    0.000    4.375    0.000    3.000    0.000    0.000 
#    0.000    0.000    0.000    0.000    0.000    0.000 
#
# Total GULP energy -396809.560469 kJ/mol
# GULP energy per Si atom -12400.298765 kJ/mol
# Density = 1.814824 g / cm^3
# Si number density = 18.189640 Si / 1000 Ang^3
#
#
#
# Elastic Constant Matrix: (Units=GPa)
#
#
# Indices 1 2 3 4 5 6 
#
# 1 174.1233 48.4004 95.4683 -0.0001 4.4451 0.0000
# 2 48.4004 44.8891 37.5213 -0.0003 -1.3426 0.0004
# 3 95.4683 37.5213 114.9423 0.0000 -5.9055 0.0000
# 4 -0.0001 -0.0003 0.0000 24.8141 0.0001 -0.9946
# 5 4.4451 -1.3426 -5.9055 0.0001 39.5395 0.0000
# 6 0.0000 0.0004 0.0000 -0.9946 0.0000 28.1501
#
#
#
# Elastic Compliance Matrix: (Units=1/GPa)
#
#
# Indices 1 2 3 4 5 6 
#
# 1 0.011955 -0.006264 -0.008027 0.000000 -0.002756 0.000000
# 2 -0.006264 0.033926 -0.005822 0.000000 0.000987 0.000000
# 3 -0.008027 -0.005822 0.017437 0.000000 0.003309 0.000000
# 4 0.000000 0.000000 0.000000 0.040357 0.000000 0.001426
# 5 -0.002756 0.000987 0.003309 0.000000 0.026129 0.000000
# 6 0.000000 0.000000 0.000000 0.001426 0.000000 0.035574
#
#
# Mechanical properties :
#
#
# Convention : Reuss Voigt Hill
#
# Bulk Modulus (GPa) = 43.29963 77.41497 60.35730
# Shear Modulus (GPa) = 23.44103 28.67172 26.05638
#
# Velocity S-wave (km/s) = 3.59374 3.97453 3.78892
# Velocity P-wave (km/s) = 6.40907 7.98216 7.23848
#
# Compressibility (1/GPa) = 0.02309489
#
# Stress axis : x y z
#
# Youngs Moduli (GPa) = 83.64409 29.47562 57.34850
#
# Poissons Ratio (x) = 0.18463 0.46032
# Poissons Ratio (y) = 0.52392 0.33386
# Poissons Ratio (z) = 0.67139 0.17159
#
# Static dielectric constant tensor:
#      x y z
#    x 3.560280 0.000000 0.041820 
#    y 0.000000 3.261850 0.000000 
#    z 0.041820 0.000000 3.744820 
# 
# 
# High freq. dielectric constant tensor:
#      x y z
#    x 1.714360 0.000000 0.001190 
#    y 0.000000 1.677220 0.000000 
#    z 0.001190 0.000000 1.710740 
# 
# From -- ./inp_files/378514.got.cif
#   From: 2010.06.25/outbox.cif.g09.slc.cpg/sg12_190_cif.got.tgz:378514.got - 2010.06.28 00:19:55.
