data_PCOD8097567
_publ_section_title
;
Structure prediction by ZEFSAII (Michael W. Deem and Ramdas Pophale) SiO2 
 PCOD8097567
Probable space group: C 2/M
;
_chemical_formula_sum "Si O2"
_cell_formula_units_Z 48
_cell_length_a 8.870672
_cell_length_b 10.617111
_cell_length_c 26.736942
_cell_angle_alpha 90.000000
_cell_angle_beta 75.168784
_cell_angle_gamma 90.000000
_cell_volume 2434.216355
_symmetry_space_group_name_H-M "C 2/M"
_symmetry_group_IT_number 12
_symmetry_cell_setting 'monoclinic'
loop_
_space_group_symop_operation_xyz
x,y,z
-x,y,-z
-x,-y,-z
x,-y,z
1/2+x,1/2+y,z
1/2-x,1/2+y,-z
1/2-x,1/2-y,-z
1/2+x,1/2-y,z
loop_
_atom_site_type_symbol
_atom_site_label
_atom_site_fract_x
_atom_site_fract_y
_atom_site_fract_z
Si Si1 0.329545 0.144543 0.392273
Si Si2 0.080180 0.361040 0.722439
Si Si3 0.986001 0.138554 0.142549
Si Si4 0.103532 0.640704 0.442610
Si Si5 0.202678 0.210765 0.209782
Si Si6 0.864852 0.857566 0.971799
O O1 0.343709 0.197007 0.334155
O O2 0.225668 0.245016 0.431068
O O3 0.499905 0.147058 0.401782
O O4 0.261561 0.000000 0.400570
O O5 0.028195 0.500000 0.712143
O O6 0.206876 0.368565 0.756114
O O7 0.920657 0.296310 0.751260
O O8 0.830563 0.213579 0.167800
O O9 0.106452 0.127953 0.178593
O O10 0.071218 0.194553 0.086644
O O11 0.927577 0.000000 0.133830
O O12 0.182096 0.500000 0.438801
O O13 0.000000 0.662576 0.500000
O O14 0.790606 0.000000 0.972243
O O15 0.750000 0.750000 0.000000
O O16 0.000000 0.867719 0.000000
#
# Coordination Sequence:
#
# PCOD8097567 Si02
#       6
#     8   8   8   8   8   8
#     4  10  21  36  55  80 109 141 178 219 264 316
#     4  10  20  35  53  76 106 137 173 216 260 310
#     4  10  20  35  54  77 105 136 174 217 260 310
#     4  10  21  37  56  80 109 140 178 222 266 315
#     4  10  20  34  54  77 103 137 174 212 262 312
#     4  10  21  37  56  80 109 140 177 220 265 316
#
# _framework density 19.718872999999999
#
# number of rings (size 3 to 8) (size 9 to 14) (size 15 to 20)
#    0.000    2.000    0.000    3.500    0.000    1.333 
#    0.000    8.333    0.000    0.000    0.000    0.000 
#    0.000    0.000    0.000    0.000    0.000    0.000 
#
# Total GULP energy -297436.997016 kJ/mol
# GULP energy per Si atom -12393.208209 kJ/mol
# Density = 1.967399 g / cm^3
# Si number density = 19.718873 Si / 1000 Ang^3
#
#
#
# Elastic Constant Matrix: (Units=GPa)
#
#
# Indices 1 2 3 4 5 6 
#
# 1 57.1407 34.7577 15.0470 0.0000 -11.9198 0.0000
# 2 34.7577 101.6735 37.2107 0.0000 -23.3325 0.0000
# 3 15.0470 37.2107 109.6402 0.0000 -7.5372 0.0000
# 4 0.0000 0.0000 0.0000 33.6227 0.0000 -15.7526
# 5 -11.9198 -23.3325 -7.5372 0.0000 28.4293 0.0000
# 6 0.0000 0.0000 0.0000 -15.7526 0.0000 46.5565
#
#
#
# Elastic Compliance Matrix: (Units=1/GPa)
#
#
# Indices 1 2 3 4 5 6 
#
# 1 0.022462 -0.006578 -0.000585 0.000000 0.003864 0.000000
# 2 -0.006578 0.015517 -0.003746 0.000000 0.008984 0.000000
# 3 -0.000585 -0.003746 0.010434 0.000000 -0.000553 0.000000
# 4 0.000000 0.000000 0.000000 0.035345 0.000000 0.011959
# 5 0.003864 0.008984 -0.000553 0.000000 0.044022 0.000000
# 6 0.000000 0.000000 0.000000 0.011959 0.000000 0.025526
#
#
# Mechanical properties :
#
#
# Convention : Reuss Voigt Hill
#
# Bulk Modulus (GPa) = 37.59959 49.16501 43.38230
# Shear Modulus (GPa) = 27.17579 33.81763 30.49671
#
# Velocity S-wave (km/s) = 3.71639 4.14573 3.93692
# Velocity P-wave (km/s) = 6.12573 6.92122 6.53559
#
# Compressibility (1/GPa) = 0.02659604
#
# Stress axis : x y z
#
# Youngs Moduli (GPa) = 44.51967 64.44667 95.83828
#
# Poissons Ratio (x) = 0.42394 0.05602
# Poissons Ratio (y) = 0.29285 0.35899
# Poissons Ratio (z) = 0.02602 0.24141
#
# Static dielectric constant tensor:
#      x y z
#    x 3.400270 0.000000 0.146910 
#    y 0.000000 3.664800 0.000000 
#    z 0.146910 0.000000 3.868340 
# 
# 
# High freq. dielectric constant tensor:
#      x y z
#    x 1.755020 0.000000 0.011460 
#    y 0.000000 1.768510 0.000000 
#    z 0.011460 0.000000 1.789880 
# 
# From -- ./inp_files/331980.got.cif
#   From: 2010.06.25/outbox.cif.g09.slc.cpg/sg12_166_cif.got.tgz:331980.got - 2010.06.28 00:19:55.
