data_PCOD8097877
_publ_section_title
;
Structure prediction by ZEFSAII (Michael W. Deem and Ramdas Pophale) SiO2 
 PCOD8097877
Probable space group: C 2/M
;
_chemical_formula_sum "Si O2"
_cell_formula_units_Z 64
_cell_length_a 25.668408
_cell_length_b 9.175406
_cell_length_c 32.262282
_cell_angle_alpha 90.000000
_cell_angle_beta 154.724287
_cell_angle_gamma 90.000000
_cell_volume 3244.302510
_symmetry_space_group_name_H-M "C 2/M"
_symmetry_group_IT_number 12
_symmetry_cell_setting 'monoclinic'
loop_
_space_group_symop_operation_xyz
x,y,z
-x,y,-z
-x,-y,-z
x,-y,z
1/2+x,1/2+y,z
1/2-x,1/2+y,-z
1/2-x,1/2-y,-z
1/2+x,1/2-y,z
loop_
_atom_site_type_symbol
_atom_site_label
_atom_site_fract_x
_atom_site_fract_y
_atom_site_fract_z
Si Si1 0.581003 0.339509 0.598188
Si Si2 0.236562 0.832748 0.447934
Si Si3 0.841041 0.663896 0.807812
Si Si4 0.505783 0.833652 0.618110
Si Si5 0.720710 0.327600 0.808316
Si Si6 0.772647 0.669175 0.104798
Si Si7 0.976954 0.833454 0.117052
Si Si8 0.999539 0.173629 0.772424
O O1 0.500000 0.329089 0.500000
O O2 0.561413 0.500000 0.605568
O O3 0.725567 0.324791 0.693397
O O4 0.543176 0.204083 0.598617
O O5 0.250000 0.750000 0.500000
O O6 0.362217 0.805586 0.514710
O O7 0.126107 0.775899 0.339791
O O8 0.214089 0.000000 0.442577
O O9 0.890613 0.500000 0.846671
O O10 0.799504 0.715548 0.824181
O O11 0.949127 0.757516 0.866631
O O12 0.580775 0.728914 0.703111
O O13 0.538996 0.000000 0.652697
O O14 0.719640 0.500000 0.814900
O O15 0.775184 0.246049 0.887449
O O16 0.802289 0.500000 0.134810
O O17 0.891755 0.748892 0.173542
O O18 0.666534 0.685906 0.994520
O O19 0.004480 0.770795 0.182770
O O20 0.017695 0.000000 0.144749
O O21 0.019676 0.000000 0.785135
#
# Coordination Sequence:
#
# PCOD8097877 Si02
#       8
#     8   8   8   8   8   8   8   8
#     4   9  19  35  54  79 114 153 191 229 274 335
#     4  10  22  37  55  82 115 147 188 233 279 337
#     4   9  20  37  57  84 116 151 196 239 282 340
#     4  10  20  34  54  84 115 146 188 236 280 333
#     4  10  21  39  61  85 117 157 194 237 290 349
#     4  11  23  39  60  88 114 145 194 248 297 345
#     4  10  23  40  60  85 118 153 189 241 298 347
#     4  10  22  41  61  83 115 156 194 234 289 353
#
# _framework density 19.726889
#
# number of rings (size 3 to 8) (size 9 to 14) (size 15 to 20)
#    0.000    2.125    0.000    3.000    1.750    8.250 
#    0.000    2.500    0.000    0.000    0.000    0.000 
#    0.000    0.000    0.000    0.000    0.000    0.000 
#
# Total GULP energy -396697.661936 kJ/mol
# GULP energy per Si atom -12396.801935 kJ/mol
# Density = 1.968199 g / cm^3
# Si number density = 19.726889 Si / 1000 Ang^3
#
#
#
# Elastic Constant Matrix: (Units=GPa)
#
#
# Indices 1 2 3 4 5 6 
#
# 1 99.4858 45.0082 45.8718 -0.0049 -2.8729 0.0005
# 2 45.0082 67.5288 37.4703 -0.0030 0.8140 0.0036
# 3 45.8718 37.4703 101.9625 0.0028 -9.2842 0.0002
# 4 -0.0049 -0.0030 0.0028 30.4368 0.0073 2.1199
# 5 -2.8729 0.8140 -9.2842 0.0073 30.5109 0.0009
# 6 0.0005 0.0036 0.0002 2.1199 0.0009 34.3387
#
#
#
# Elastic Compliance Matrix: (Units=1/GPa)
#
#
# Indices 1 2 3 4 5 6 
#
# 1 0.015606 -0.008210 -0.003960 0.000002 0.000484 0.000001
# 2 -0.008210 0.023131 -0.005074 0.000002 -0.002934 -0.000002
# 3 -0.003960 -0.005074 0.013815 -0.000003 0.003966 0.000001
# 4 0.000002 0.000002 -0.000003 0.032997 -0.000009 -0.002037
# 5 0.000484 -0.002934 0.003966 -0.000009 0.034106 0.000000
# 6 0.000001 -0.000002 0.000001 -0.002037 0.000000 0.029247
#
#
# Mechanical properties :
#
#
# Convention : Reuss Voigt Hill
#
# Bulk Modulus (GPa) = 55.35805 58.40864 56.88334
# Shear Modulus (GPa) = 26.39762 28.43241 27.41502
#
# Velocity S-wave (km/s) = 3.66205 3.80057 3.73195
# Velocity P-wave (km/s) = 6.78262 6.99514 6.88970
#
# Compressibility (1/GPa) = 0.01806422
#
# Stress axis : x y z
#
# Youngs Moduli (GPa) = 64.07935 43.23132 72.38599
#
# Poissons Ratio (x) = 0.35492 0.28663
# Poissons Ratio (y) = 0.52609 0.36730
# Poissons Ratio (z) = 0.25374 0.21936
#
# Static dielectric constant tensor:
#      x y z
#    x 3.041090 -0.000040 -0.241200 
#    y -0.000040 3.671060 -0.000040 
#    z -0.241200 -0.000040 3.823220 
# 
# 
# High freq. dielectric constant tensor:
#      x y z
#    x 1.761430 0.000000 -0.003950 
#    y 0.000000 1.767740 0.000000 
#    z -0.003950 0.000000 1.779980 
# 
# From -- ./inp_files/382475.got.cif
#   From: 2010.06.25/outbox.cif.g09.slc.cpg/sg12_192_cif.got.tgz:382475.got - 2010.06.28 00:19:55.
