data_PCOD8097327
_publ_section_title
;
Structure prediction by ZEFSAII (Michael W. Deem and Ramdas Pophale) SiO2 
 PCOD8097327
Probable space group: C 2/M
;
_chemical_formula_sum "Si O2"
_cell_formula_units_Z 40
_cell_length_a 28.729725
_cell_length_b 7.796790
_cell_length_c 9.471773
_cell_angle_alpha 90.000000
_cell_angle_beta 88.068765
_cell_angle_gamma 90.000000
_cell_volume 2120.468546
_symmetry_space_group_name_H-M "C 2/M"
_symmetry_group_IT_number 12
_symmetry_cell_setting 'monoclinic'
loop_
_space_group_symop_operation_xyz
x,y,z
-x,y,-z
-x,-y,-z
x,-y,z
1/2+x,1/2+y,z
1/2-x,1/2+y,-z
1/2-x,1/2-y,-z
1/2+x,1/2-y,z
loop_
_atom_site_type_symbol
_atom_site_label
_atom_site_fract_x
_atom_site_fract_y
_atom_site_fract_z
Si Si1 0.045379 0.000000 0.180165
Si Si2 0.294279 0.700980 0.317503
Si Si3 0.057790 0.000000 0.845695
Si Si4 0.378959 0.808106 0.133466
Si Si5 0.608759 0.808721 0.190308
Si Si6 0.307221 0.699493 0.637722
O O1 0.069733 0.170700 0.240039
O O2 0.991291 0.000000 0.232451
O O3 0.048388 0.000000 0.012098
O O4 0.300714 0.500000 0.297065
O O5 0.328218 0.798008 0.207514
O O6 0.306224 0.759138 0.475343
O O7 0.241912 0.756047 0.284520
O O8 0.086223 0.170641 0.798330
O O9 0.399183 0.000000 0.154066
O O10 0.373252 0.766258 0.968716
O O11 0.652468 0.803877 0.289783
O O12 0.586921 0.000000 0.199954
O O13 0.318051 0.500000 0.652298
#
# Coordination Sequence:
#
# PCOD8097327 Si02
#       6
#     4   8   4   8   8   8
#     4   9  18  34  55  79 109 141 175 221 270 315
#     4  10  20  34  53  77 106 142 180 217 262 316
#     4   9  18  34  55  79 109 141 175 221 270 315
#     4  10  20  34  54  80 108 139 176 218 265 314
#     4  10  20  34  54  80 108 139 176 218 265 314
#     4  10  20  34  53  77 106 142 180 217 262 316
#
# _framework density 18.863755000000001
#
# number of rings (size 3 to 8) (size 9 to 14) (size 15 to 20)
#    0.000    2.200    2.000    1.200    0.000    4.000 
#    0.000    4.000    0.000    2.400    0.000    2.800 
#    0.000    0.000    0.000    0.000    0.000    0.000 
#
# Total GULP energy -248029.526135 kJ/mol
# GULP energy per Si atom -12401.476307 kJ/mol
# Density = 1.882082 g / cm^3
# Si number density = 18.863755 Si / 1000 Ang^3
#
#
#
# Elastic Constant Matrix: (Units=GPa)
#
#
# Indices 1 2 3 4 5 6 
#
# 1 93.5178 38.2664 14.0296 0.0000 28.1445 0.0000
# 2 38.2664 115.1394 15.8092 0.0000 14.0478 0.0000
# 3 14.0296 15.8092 27.0384 0.0000 13.0544 0.0000
# 4 0.0000 0.0000 0.0000 18.2036 0.0000 -0.4685
# 5 28.1445 14.0478 13.0544 0.0000 15.6272 0.0000
# 6 0.0000 0.0000 0.0000 -0.4685 0.0000 29.2260
#
#
#
# Elastic Compliance Matrix: (Units=1/GPa)
#
#
# Indices 1 2 3 4 5 6 
#
# 1 0.028627 -0.004333 0.017918 0.000000 -0.062630 0.000000
# 2 -0.004333 0.010510 -0.005201 0.000000 0.002701 0.000000
# 3 0.017918 -0.005201 0.073827 0.000000 -0.089268 0.000000
# 4 0.000000 0.000000 0.000000 0.054957 0.000000 0.000881
# 5 -0.062630 0.002701 -0.089268 0.000000 0.248931 0.000000
# 6 0.000000 0.000000 0.000000 0.000881 0.000000 0.034230
#
#
# Mechanical properties :
#
#
# Convention : Reuss Voigt Hill
#
# Bulk Modulus (GPa) = 7.70816 41.32288 24.51552
# Shear Modulus (GPa) = 10.46994 23.78404 17.12699
#
# Velocity S-wave (km/s) = 2.35846 3.55467 3.01646
# Velocity P-wave (km/s) = 3.39287 6.22905 5.01561
#
# Compressibility (1/GPa) = 0.12973267
#
# Stress axis : x y z
#
# Youngs Moduli (GPa) = 34.93233 95.14941 13.54510
#
# Poissons Ratio (x) = 0.41229 -0.24270
# Poissons Ratio (y) = 0.15136 0.07044
# Poissons Ratio (z) = -0.62592 0.49483
#
# Static dielectric constant tensor:
#      x y z
#    x 3.468020 0.000000 0.003470 
#    y 0.000000 3.630350 0.000000 
#    z 0.003470 0.000000 3.178810 
# 
# 
# High freq. dielectric constant tensor:
#      x y z
#    x 1.723030 0.000000 0.001540 
#    y 0.000000 1.751760 0.000000 
#    z 0.001540 0.000000 1.699760 
# 
# From -- ./inp_files/101132.got.cif
#   From: 2010.06.25/outbox.cif.g09.slc.cpg/sg12_51_cif.got.tgz:101132.got - 2010.06.28 00:19:55.
