data_PCOD8097192
_publ_section_title
;
Structure prediction by ZEFSAII (Michael W. Deem and Ramdas Pophale) SiO2 
 PCOD8097192
Probable space group: C 2/M
;
_chemical_formula_sum "Si O2"
_cell_formula_units_Z 56
_cell_length_a 29.782572
_cell_length_b 8.529513
_cell_length_c 12.567348
_cell_angle_alpha 90.000000
_cell_angle_beta 74.848829
_cell_angle_gamma 90.000000
_cell_volume 3081.521505
_symmetry_space_group_name_H-M "C 2/M"
_symmetry_group_IT_number 12
_symmetry_cell_setting 'monoclinic'
loop_
_space_group_symop_operation_xyz
x,y,z
-x,y,-z
-x,-y,-z
x,-y,z
1/2+x,1/2+y,z
1/2-x,1/2+y,-z
1/2-x,1/2-y,-z
1/2+x,1/2-y,z
loop_
_atom_site_type_symbol
_atom_site_label
_atom_site_fract_x
_atom_site_fract_y
_atom_site_fract_z
Si Si1 0.694702 0.180801 0.417712
Si Si2 0.894874 0.181365 0.607867
Si Si3 0.299249 0.318379 0.358694
Si Si4 0.942877 0.817317 0.358368
Si Si5 0.952182 0.314319 0.983063
Si Si6 0.384844 0.816654 0.204573
Si Si7 0.541133 0.183037 0.260981
O O1 0.660028 0.283604 0.367795
O O2 0.687776 0.217513 0.546236
O O3 0.747431 0.222034 0.349874
O O4 0.682949 0.000000 0.405927
O O5 0.920359 0.232634 0.483889
O O6 0.914982 0.283423 0.691672
O O7 0.902912 0.000000 0.628384
O O8 0.302860 0.500000 0.388436
O O9 0.336184 0.275786 0.244616
O O10 0.919452 0.715975 0.280678
O O11 0.997428 0.780947 0.330887
O O12 0.934125 0.000000 0.340870
O O13 0.954701 0.500000 0.990518
O O14 0.908993 0.255018 0.081222
O O15 0.945518 0.259820 0.865891
O O16 0.000000 0.241862 0.000000
O O17 0.374056 0.000000 0.206529
O O18 0.528454 0.000000 0.269746
#
# Coordination Sequence:
#
# PCOD8097192 Si02
#       7
#     8   8   8   8   8   8   8
#     4  10  20  34  55  79 107 144 182 214 261 327
#     4  11  23  37  53  77 114 146 176 224 272 315
#     4  10  20  34  52  81 114 139 171 224 274 312
#     4  11  22  35  51  77 113 146 176 219 272 316
#     4   9  18  35  55  78 106 138 180 230 268 303
#     4  11  20  33  57  81 107 143 182 219 266 324
#     4  11  22  37  57  77 105 145 188 224 262 322
#
# _framework density 18.172840000000001
#
# number of rings (size 3 to 8) (size 9 to 14) (size 15 to 20)
#    0.000    1.571    2.857    3.000    0.000    5.143 
#    0.000    3.571    0.000    0.857    0.000    0.000 
#    0.000    0.000    0.000    0.000    0.000    0.000 
#
# Total GULP energy -347310.547756 kJ/mol
# GULP energy per Si atom -12403.948134 kJ/mol
# Density = 1.813148 g / cm^3
# Si number density = 18.172840 Si / 1000 Ang^3
#
#
#
# Elastic Constant Matrix: (Units=GPa)
#
#
# Indices 1 2 3 4 5 6 
#
# 1 120.1200 16.8128 62.0558 0.0000 -12.2404 0.0000
# 2 16.8128 34.8426 24.1236 0.0000 -1.6045 0.0000
# 3 62.0558 24.1236 101.9506 0.0000 -2.8242 0.0000
# 4 0.0000 0.0000 0.0000 18.8668 0.0000 -3.9336
# 5 -12.2404 -1.6045 -2.8242 0.0000 29.4345 0.0000
# 6 0.0000 0.0000 0.0000 -3.9336 0.0000 29.0888
#
#
#
# Elastic Compliance Matrix: (Units=1/GPa)
#
#
# Indices 1 2 3 4 5 6 
#
# 1 0.012744 -0.000785 -0.007446 0.000000 0.004543 0.000000
# 2 -0.000785 0.034407 -0.007641 0.000000 0.000816 0.000000
# 3 -0.007446 -0.007641 0.016094 0.000000 -0.001969 0.000000
# 4 0.000000 0.000000 0.000000 0.054541 0.000000 0.007375
# 5 0.004543 0.000816 -0.001969 0.000000 0.035718 0.000000
# 6 0.000000 0.000000 0.000000 0.007375 0.000000 0.035375
#
#
# Mechanical properties :
#
#
# Convention : Reuss Voigt Hill
#
# Bulk Modulus (GPa) = 31.74393 51.43308 41.58850
# Shear Modulus (GPa) = 21.63339 25.73941 23.68640
#
# Velocity S-wave (km/s) = 3.45400 3.76755 3.61417
# Velocity P-wave (km/s) = 5.78035 6.87674 6.35224
#
# Compressibility (1/GPa) = 0.03150209
#
# Stress axis : x y z
#
# Youngs Moduli (GPa) = 78.46622 29.06368 62.13436
#
# Poissons Ratio (x) = 0.02283 0.46263
# Poissons Ratio (y) = 0.06163 0.47476
# Poissons Ratio (z) = 0.58423 0.22207
#
# Static dielectric constant tensor:
#      x y z
#    x 3.388690 0.000000 -0.185190 
#    y 0.000000 3.244260 0.000000 
#    z -0.185190 0.000000 3.370700 
# 
# 
# High freq. dielectric constant tensor:
#      x y z
#    x 1.703950 0.000000 -0.012680 
#    y 0.000000 1.703410 0.000000 
#    z -0.012680 0.000000 1.685360 
# 
# From -- ./inp_files/186394.got.cif
#   From: 2010.06.25/outbox.cif.g09.slc.cpg/sg12_94_cif.got.tgz:186394.got - 2010.06.28 00:19:55.
