data_PCOD8097391
_publ_section_title
;
Structure prediction by ZEFSAII (Michael W. Deem and Ramdas Pophale) SiO2 
 PCOD8097391
Probable space group: C 2/M
;
_chemical_formula_sum "Si O2"
_cell_formula_units_Z 40
_cell_length_a 14.600508
_cell_length_b 8.532778
_cell_length_c 20.125618
_cell_angle_alpha 90.000000
_cell_angle_beta 123.579977
_cell_angle_gamma 90.000000
_cell_volume 2088.874626
_symmetry_space_group_name_H-M "C 2/M"
_symmetry_group_IT_number 12
_symmetry_cell_setting 'monoclinic'
loop_
_space_group_symop_operation_xyz
x,y,z
-x,y,-z
-x,-y,-z
x,-y,z
1/2+x,1/2+y,z
1/2-x,1/2+y,-z
1/2-x,1/2-y,-z
1/2+x,1/2-y,z
loop_
_atom_site_type_symbol
_atom_site_label
_atom_site_fract_x
_atom_site_fract_y
_atom_site_fract_z
Si Si1 0.145636 0.313500 0.498680
Si Si2 0.091311 0.812859 0.617602
Si Si3 0.335086 0.680281 0.085150
Si Si4 0.776915 0.183476 0.203255
Si Si5 0.953303 0.180959 0.911157
O O1 0.143530 0.500000 0.493618
O O2 0.250000 0.250000 0.500000
O O3 0.151270 0.260211 0.577551
O O4 0.033621 0.244323 0.422940
O O5 0.158813 0.746926 0.707841
O O6 0.092784 0.000000 0.611475
O O7 0.303861 0.500000 0.077901
O O8 0.323686 0.758077 0.153471
O O9 0.457999 0.706844 0.110348
O O10 0.250000 0.750000 0.000000
O O11 0.648439 0.219613 0.155461
O O12 0.797095 0.000000 0.212261
O O13 0.919091 0.000000 0.906020
O O14 0.000000 0.245155 0.000000
#
# Coordination Sequence:
#
# PCOD8097391 Si02
#       5
#     8   8   8   8   8
#     4  11  22  39  64  91 118 153 191 233 290 352
#     4  10  21  39  59  87 122 154 194 242 289 346
#     4  10  20  35  53  76 106 144 188 234 283 332
#     4  10  22  37  56  82 114 149 189 237 287 337
#     4  10  20  34  53  78 108 146 193 239 284 334
#
# _framework density 19.149066000000001
#
# number of rings (size 3 to 8) (size 9 to 14) (size 15 to 20)
#    0.000    1.800    2.000    3.600    0.000    4.400 
#    0.000    2.000    0.000    0.000    0.000    0.000 
#    0.000    0.000    0.000    0.000    0.000    0.000 
#
# Total GULP energy -247993.001913 kJ/mol
# GULP energy per Si atom -12399.650096 kJ/mol
# Density = 1.910548 g / cm^3
# Si number density = 19.149066 Si / 1000 Ang^3
#
#
#
# Elastic Constant Matrix: (Units=GPa)
#
#
# Indices 1 2 3 4 5 6 
#
# 1 131.6772 24.5003 69.3873 0.0000 -6.5736 0.0000
# 2 24.5003 45.6889 19.8788 0.0000 -3.7007 0.0000
# 3 69.3873 19.8788 181.7429 0.0000 -10.3566 0.0000
# 4 0.0000 0.0000 0.0000 28.1668 0.0000 4.1788
# 5 -6.5736 -3.7007 -10.3566 0.0000 23.6973 0.0000
# 6 0.0000 0.0000 0.0000 4.1788 0.0000 31.9959
#
#
#
# Elastic Compliance Matrix: (Units=1/GPa)
#
#
# Indices 1 2 3 4 5 6 
#
# 1 0.010152 -0.003903 -0.003408 0.000000 0.000717 0.000000
# 2 -0.003903 0.024633 -0.001073 0.000000 0.002295 0.000000
# 3 -0.003408 -0.001073 0.007033 0.000000 0.001960 0.000000
# 4 0.000000 0.000000 0.000000 0.036204 0.000000 -0.004728
# 5 0.000717 0.002295 0.001960 0.000000 0.043613 0.000000
# 6 0.000000 0.000000 0.000000 -0.004728 0.000000 0.031872
#
#
# Mechanical properties :
#
#
# Convention : Reuss Voigt Hill
#
# Bulk Modulus (GPa) = 39.92251 65.18241 52.55246
# Shear Modulus (GPa) = 27.99147 33.12819 30.55983
#
# Velocity S-wave (km/s) = 3.82745 4.16386 3.99919
# Velocity P-wave (km/s) = 6.35815 7.56507 6.98772
#
# Compressibility (1/GPa) = 0.02504853
#
# Stress axis : x y z
#
# Youngs Moduli (GPa) = 98.49948 40.59582 142.19427
#
# Poissons Ratio (x) = 0.15845 0.48463
# Poissons Ratio (y) = 0.38445 0.15263
# Poissons Ratio (z) = 0.33571 0.04358
#
# Static dielectric constant tensor:
#      x y z
#    x 3.650970 0.000000 -0.210730 
#    y 0.000000 3.465610 0.000000 
#    z -0.210730 0.000000 3.742630 
# 
# 
# High freq. dielectric constant tensor:
#      x y z
#    x 1.755740 0.000000 -0.004920 
#    y 0.000000 1.739160 0.000000 
#    z -0.004920 0.000000 1.748990 
# 
# From -- ./inp_files/250237.got.cif
#   From: 2010.06.25/outbox.cif.g09.slc.cpg/sg12_126_cif.got.tgz:250237.got - 2010.06.28 00:19:55.
