data_PCOD8097507
_publ_section_title
;
Structure prediction by ZEFSAII (Michael W. Deem and Ramdas Pophale) SiO2 
 PCOD8097507
Probable space group: C 2/M
;
_chemical_formula_sum "Si O2"
_cell_formula_units_Z 48
_cell_length_a 17.116538
_cell_length_b 14.141977
_cell_length_c 10.237852
_cell_angle_alpha 90.000000
_cell_angle_beta 86.697612
_cell_angle_gamma 90.000000
_cell_volume 2474.076479
_symmetry_space_group_name_H-M "C 2/M"
_symmetry_group_IT_number 12
_symmetry_cell_setting 'monoclinic'
loop_
_space_group_symop_operation_xyz
x,y,z
-x,y,-z
-x,-y,-z
x,-y,z
1/2+x,1/2+y,z
1/2-x,1/2+y,-z
1/2-x,1/2-y,-z
1/2+x,1/2-y,z
loop_
_atom_site_type_symbol
_atom_site_label
_atom_site_fract_x
_atom_site_fract_y
_atom_site_fract_z
Si Si1 0.678990 0.764954 0.347512
Si Si2 0.261660 0.102420 0.459585
Si Si3 0.193595 0.239380 0.885333
Si Si4 0.945208 0.111228 0.127663
Si Si5 0.892164 0.395034 0.237806
Si Si6 0.495239 0.253349 0.656184
O O1 0.682239 0.860572 0.430879
O O2 0.689608 0.674111 0.442287
O O3 0.751512 0.768078 0.244365
O O4 0.594562 0.758745 0.288725
O O5 0.314004 0.091541 0.327285
O O6 0.226568 0.000000 0.501145
O O7 0.142375 0.144170 0.901587
O O8 0.133226 0.328535 0.881867
O O9 0.250000 0.250000 0.000000
O O10 0.970493 0.161072 0.260879
O O11 0.945836 0.000000 0.153480
O O12 0.000000 0.138589 0.000000
O O13 0.921026 0.500000 0.189273
O O14 0.959615 0.343806 0.315572
O O15 0.500000 0.274657 0.500000
#
# Coordination Sequence:
#
# PCOD8097507 Si02
#       6
#     8   8   8   8   8   8
#     4  10  20  34  53  82 113 142 187 229 283 338
#     4   9  18  33  53  76 108 145 181 227 277 331
#     4  10  21  38  60  83 110 150 192 242 286 339
#     4  10  23  42  61  83 115 156 198 238 289 352
#     4   9  19  36  57  83 113 149 190 229 279 345
#     4  11  21  36  59  88 120 155 192 238 288 342
#
# _framework density 19.401178000000002
#
# number of rings (size 3 to 8) (size 9 to 14) (size 15 to 20)
#    0.000    2.167    1.667    1.000    2.333    3.333 
#    0.000    3.333    0.000   17.000    0.000    0.000 
#    0.000    0.000    0.000    0.000    0.000    0.000 
#
# Total GULP energy -297479.916298 kJ/mol
# GULP energy per Si atom -12394.996512 kJ/mol
# Density = 1.935702 g / cm^3
# Si number density = 19.401178 Si / 1000 Ang^3
#
#
#
# Elastic Constant Matrix: (Units=GPa)
#
#
# Indices 1 2 3 4 5 6 
#
# 1 107.0659 37.0779 34.8467 0.0000 13.9716 0.0000
# 2 37.0779 132.9246 51.9057 0.0000 7.0387 0.0000
# 3 34.8467 51.9057 77.9990 0.0000 20.8655 0.0000
# 4 0.0000 0.0000 0.0000 18.5085 0.0000 -2.9908
# 5 13.9716 7.0387 20.8655 0.0000 33.1252 0.0000
# 6 0.0000 0.0000 0.0000 -2.9908 0.0000 20.6199
#
#
#
# Elastic Compliance Matrix: (Units=1/GPa)
#
#
# Indices 1 2 3 4 5 6 
#
# 1 0.011316 -0.001761 -0.003256 0.000000 -0.002348 0.000000
# 2 -0.001761 0.010617 -0.007064 0.000000 0.002936 0.000000
# 3 -0.003256 -0.007064 0.021897 0.000000 -0.010919 0.000000
# 4 0.000000 0.000000 0.000000 0.055326 0.000000 0.008025
# 5 -0.002348 0.002936 -0.010919 0.000000 0.037433 0.000000
# 6 0.000000 0.000000 0.000000 0.008025 0.000000 0.049661
#
#
# Mechanical properties :
#
#
# Convention : Reuss Voigt Hill
#
# Bulk Modulus (GPa) = 50.84208 62.85001 56.84604
# Shear Modulus (GPa) = 23.04497 27.39466 25.21982
#
# Velocity S-wave (km/s) = 3.45021 3.76175 3.60934
# Velocity P-wave (km/s) = 6.49111 7.16470 6.83620
#
# Compressibility (1/GPa) = 0.01966875
#
# Stress axis : x y z
#
# Youngs Moduli (GPa) = 88.37187 94.18615 45.66830
#
# Poissons Ratio (x) = 0.16585 0.14868
# Poissons Ratio (y) = 0.15561 0.32261
# Poissons Ratio (z) = 0.28770 0.66536
#
# Static dielectric constant tensor:
#      x y z
#    x 3.572730 0.000000 0.114460 
#    y 0.000000 3.749020 0.000000 
#    z 0.114460 0.000000 3.090860 
# 
# 
# High freq. dielectric constant tensor:
#      x y z
#    x 1.756850 0.000000 0.005780 
#    y 0.000000 1.757500 0.000000 
#    z 0.005780 0.000000 1.742430 
# 
# From -- ./inp_files/73608.got.cif
#   From: 2010.06.25/outbox.cif.g09.slc.cpg/sg12_37_cif.got.tgz:73608.got - 2010.06.28 00:19:55.
