data_PCOD8097370
_publ_section_title
;
Structure prediction by ZEFSAII (Michael W. Deem and Ramdas Pophale) SiO2 
 PCOD8097370
Probable space group: C 2/M
;
_chemical_formula_sum "Si O2"
_cell_formula_units_Z 56
_cell_length_a 18.044342
_cell_length_b 9.066980
_cell_length_c 28.687443
_cell_angle_alpha 90.000000
_cell_angle_beta 141.163907
_cell_angle_gamma 90.000000
_cell_volume 2943.259982
_symmetry_space_group_name_H-M "C 2/M"
_symmetry_group_IT_number 12
_symmetry_cell_setting 'monoclinic'
loop_
_space_group_symop_operation_xyz
x,y,z
-x,y,-z
-x,-y,-z
x,-y,z
1/2+x,1/2+y,z
1/2-x,1/2+y,-z
1/2-x,1/2-y,-z
1/2+x,1/2-y,z
loop_
_atom_site_type_symbol
_atom_site_label
_atom_site_fract_x
_atom_site_fract_y
_atom_site_fract_z
Si Si1 0.584579 0.325411 0.631869
Si Si2 0.480662 0.327790 0.216396
Si Si3 0.333821 0.171156 0.504520
Si Si4 0.248368 0.330771 0.640145
Si Si5 0.370126 0.669699 0.927308
Si Si6 0.798648 0.669797 0.068628
Si Si7 0.683559 0.672498 0.779526
O O1 0.563891 0.500000 0.620311
O O2 0.460728 0.245225 0.566979
O O3 0.665646 0.277358 0.628703
O O4 0.646199 0.274958 0.709993
O O5 0.462180 0.500000 0.198176
O O6 0.617124 0.284137 0.284940
O O7 0.422775 0.240181 0.145147
O O8 0.420119 0.280791 0.235518
O O9 0.250000 0.250000 0.500000
O O10 0.276343 0.191643 0.426074
O O11 0.345997 0.000000 0.523779
O O12 0.224597 0.500000 0.643369
O O13 0.380454 0.500000 0.917786
O O14 0.296699 0.693387 0.937973
O O15 0.307159 0.751291 0.853476
O O16 0.500000 0.737093 0.000000
O O17 0.820443 0.500000 0.067517
O O18 0.750000 0.750000 0.000000
O O19 0.706078 0.500000 0.792054
#
# Coordination Sequence:
#
# PCOD8097370 Si02
#       7
#     8   8   8   8   8   8   8
#     4  11  23  38  57  85 118 148 184 230 276 325
#     4   9  18  36  58  76 102 142 183 224 272 325
#     4  11  23  40  62  86 113 148 189 229 274 330
#     4  10  22  39  58  82 113 148 185 227 278 333
#     4   9  19  35  54  77 105 138 179 225 270 321
#     4  10  20  34  53  78 107 139 178 223 270 324
#     4   9  19  36  56  78 106 142 183 225 271 325
#
# _framework density 19.026520999999999
#
# number of rings (size 3 to 8) (size 9 to 14) (size 15 to 20)
#    0.000    2.143    0.000    2.571    0.000    8.857 
#    0.000    7.143    0.000    0.000    0.000    0.000 
#    0.000    0.000    0.000    0.000    0.000    0.000 
#
# Total GULP energy -347306.150410 kJ/mol
# GULP energy per Si atom -12403.791086 kJ/mol
# Density = 1.898322 g / cm^3
# Si number density = 19.026521 Si / 1000 Ang^3
#
#
#
# Elastic Constant Matrix: (Units=GPa)
#
#
# Indices 1 2 3 4 5 6 
#
# 1 89.0995 50.1791 59.9868 0.0000 12.4219 0.0000
# 2 50.1791 90.4375 72.1338 0.0001 3.3058 -0.0001
# 3 59.9868 72.1338 159.6178 0.0000 15.4646 0.0000
# 4 0.0000 0.0001 0.0000 33.8902 0.0000 -3.3787
# 5 12.4219 3.3058 15.4646 0.0000 37.0152 0.0000
# 6 0.0000 -0.0001 0.0000 -3.3787 0.0000 28.5072
#
#
#
# Elastic Compliance Matrix: (Units=1/GPa)
#
#
# Indices 1 2 3 4 5 6 
#
# 1 0.018017 -0.007449 -0.003005 0.000000 -0.004126 0.000000
# 2 -0.007449 0.020484 -0.006798 0.000000 0.003510 0.000000
# 3 -0.003005 -0.006798 0.010745 0.000000 -0.002873 0.000000
# 4 0.000000 0.000000 0.000000 0.029860 0.000000 0.003539
# 5 -0.004126 0.003510 -0.002873 0.000000 0.029287 0.000000
# 6 0.000000 0.000000 0.000000 0.003539 0.000000 0.035498
#
#
# Mechanical properties :
#
#
# Convention : Reuss Voigt Hill
#
# Bulk Modulus (GPa) = 67.83273 78.19492 73.01383
# Shear Modulus (GPa) = 27.27641 30.33953 28.80797
#
# Velocity S-wave (km/s) = 3.79040 3.99757 3.89536
# Velocity P-wave (km/s) = 7.40846 7.90534 7.66093
#
# Compressibility (1/GPa) = 0.01474215
#
# Stress axis : x y z
#
# Youngs Moduli (GPa) = 55.50359 48.81852 93.06944
#
# Poissons Ratio (x) = 0.36365 0.27967
# Poissons Ratio (y) = 0.41345 0.63266
# Poissons Ratio (z) = 0.16679 0.33185
#
# Static dielectric constant tensor:
#      x y z
#    x 31.221350 0.000000 8.221840 
#    y 0.000000 3.530420 0.000000 
#    z 8.221840 0.000000 6.166960 
# 
# 
# High freq. dielectric constant tensor:
#      x y z
#    x 1.737130 0.000000 0.002440 
#    y 0.000000 1.740760 0.000000 
#    z 0.002440 0.000000 1.756900 
# 
# From -- ./inp_files/363155.got.cif
#   From: 2010.06.25/outbox.cif.g09.slc.cpg/sg12_182_cif.got.tgz:363155.got - 2010.06.28 00:19:55.
