data_PCOD8097154
_publ_section_title
;
Structure prediction by ZEFSAII (Michael W. Deem and Ramdas Pophale) SiO2 
 PCOD8097154
Probable space group: C 2/M
;
_chemical_formula_sum "Si O2"
_cell_formula_units_Z 56
_cell_length_a 20.680027
_cell_length_b 9.127627
_cell_length_c 29.608065
_cell_angle_alpha 90.000000
_cell_angle_beta 150.052152
_cell_angle_gamma 90.000000
_cell_volume 2789.996165
_symmetry_space_group_name_H-M "C 2/M"
_symmetry_group_IT_number 12
_symmetry_cell_setting 'monoclinic'
loop_
_space_group_symop_operation_xyz
x,y,z
-x,y,-z
-x,-y,-z
x,-y,z
1/2+x,1/2+y,z
1/2-x,1/2+y,-z
1/2-x,1/2-y,-z
1/2+x,1/2-y,z
loop_
_atom_site_type_symbol
_atom_site_label
_atom_site_fract_x
_atom_site_fract_y
_atom_site_fract_z
Si Si1 0.827164 0.339233 0.482158
Si Si2 0.631898 0.172791 0.205514
Si Si3 0.929820 0.161407 0.617892
Si Si4 0.848983 0.171064 0.408934
Si Si5 0.881575 0.823902 0.096439
Si Si6 0.629053 0.826091 0.100388
Si Si7 0.870667 0.825682 0.191848
O O1 0.878225 0.500000 0.499440
O O2 0.938794 0.251180 0.576515
O O3 0.712454 0.353344 0.448302
O O4 0.781988 0.254800 0.410012
O O5 0.764481 0.210948 0.313252
O O6 0.508058 0.262259 0.148125
O O7 0.652430 0.223799 0.166197
O O8 0.600741 0.000000 0.190158
O O9 0.016164 0.239028 0.708225
O O10 0.984635 0.000000 0.638956
O O11 0.000000 0.222481 0.500000
O O12 0.841671 0.000000 0.414504
O O13 0.892319 0.770480 0.154522
O O14 0.874510 0.000000 0.086816
O O15 0.750000 0.750000 0.000000
O O16 0.739253 0.764668 0.134030
O O17 0.625019 0.000000 0.096713
O O18 0.500000 0.759515 0.000000
O O19 0.874246 0.000000 0.194131
#
# Coordination Sequence:
#
# PCOD8097154 Si02
#       7
#     8   8   8   8   8   8   8
#     4  10  20  34  52  78 111 146 183 231 290 340
#     4  10  21  37  59  87 117 152 194 243 298 348
#     4   9  18  33  55  79 105 140 185 236 283 337
#     4  10  22  37  56  82 112 153 201 244 285 340
#     4  11  22  38  61  89 119 153 193 239 295 354
#     4   9  17  31  54  83 111 140 183 238 284 332
#     4   9  18  32  56  83 106 141 191 238 279 332
#
# _framework density 20.071712999999999
#
# number of rings (size 3 to 8) (size 9 to 14) (size 15 to 20)
#    0.000    2.286    0.000    2.571    2.000    4.857 
#    0.000    1.429    0.000    4.714    0.000    0.000 
#    0.000    0.000    0.000    0.000    0.000    0.000 
#
# Total GULP energy -347022.130594 kJ/mol
# GULP energy per Si atom -12393.647521 kJ/mol
# Density = 2.002603 g / cm^3
# Si number density = 20.071713 Si / 1000 Ang^3
#
#
#
# Elastic Constant Matrix: (Units=GPa)
#
#
# Indices 1 2 3 4 5 6 
#
# 1 72.7006 14.6153 13.4997 -0.0005 -14.1885 0.0002
# 2 14.6153 51.5460 24.3918 -0.0008 -5.9824 0.0005
# 3 13.4997 24.3918 121.2615 -0.0020 -19.3729 0.0000
# 4 -0.0005 -0.0008 -0.0020 21.1358 -0.0001 -1.4626
# 5 -14.1885 -5.9824 -19.3729 -0.0001 41.4646 -0.0001
# 6 0.0002 0.0005 0.0000 -1.4626 -0.0001 18.5806
#
#
#
# Elastic Compliance Matrix: (Units=1/GPa)
#
#
# Indices 1 2 3 4 5 6 
#
# 1 0.015454 -0.003735 -0.000227 0.000000 0.004643 0.000000
# 2 -0.003735 0.022396 -0.004082 0.000000 0.000046 -0.000001
# 3 -0.000227 -0.004082 0.009711 0.000001 0.003871 0.000000
# 4 0.000000 0.000000 0.000001 0.047572 0.000001 0.003745
# 5 0.004643 0.000046 0.003871 0.000001 0.027521 0.000000
# 6 0.000000 -0.000001 0.000000 0.003745 0.000000 0.054114
#
#
# Mechanical properties :
#
#
# Convention : Reuss Voigt Hill
#
# Bulk Modulus (GPa) = 31.77351 38.94684 35.36017
# Shear Modulus (GPa) = 24.58825 29.10295 26.84560
#
# Velocity S-wave (km/s) = 3.50383 3.81195 3.66113
# Velocity P-wave (km/s) = 5.67745 6.23062 5.96045
#
# Compressibility (1/GPa) = 0.03147276
#
# Stress axis : x y z
#
# Youngs Moduli (GPa) = 64.70662 44.65058 102.97201
#
# Poissons Ratio (x) = 0.16679 0.02341
# Poissons Ratio (y) = 0.24171 0.42031
# Poissons Ratio (z) = 0.01471 0.18225
#
# Static dielectric constant tensor:
#      x y z
#    x 3.692760 0.000000 -0.147990 
#    y 0.000000 3.552430 0.000000 
#    z -0.147990 0.000000 3.929240 
# 
# 
# High freq. dielectric constant tensor:
#      x y z
#    x 1.786260 0.000000 -0.011700 
#    y 0.000000 1.748110 0.000000 
#    z -0.011700 0.000000 1.797460 
# 
# From -- ./inp_files/380753.got.cif
#   From: 2010.06.25/outbox.cif.g09.slc.cpg/sg12_191_cif.got.tgz:380753.got - 2010.06.28 00:19:55.
