data_PCOD8097429
_publ_section_title
;
Structure prediction by ZEFSAII (Michael W. Deem and Ramdas Pophale) SiO2 
 PCOD8097429
Probable space group: C 2/M
;
_chemical_formula_sum "Si O2"
_cell_formula_units_Z 56
_cell_length_a 17.927235
_cell_length_b 8.915522
_cell_length_c 18.704288
_cell_angle_alpha 90.000000
_cell_angle_beta 76.141720
_cell_angle_gamma 90.000000
_cell_volume 2902.497199
_symmetry_space_group_name_H-M "C 2/M"
_symmetry_group_IT_number 12
_symmetry_cell_setting 'monoclinic'
loop_
_space_group_symop_operation_xyz
x,y,z
-x,y,-z
-x,-y,-z
x,-y,z
1/2+x,1/2+y,z
1/2-x,1/2+y,-z
1/2-x,1/2-y,-z
1/2+x,1/2-y,z
loop_
_atom_site_type_symbol
_atom_site_label
_atom_site_fract_x
_atom_site_fract_y
_atom_site_fract_z
Si Si1 0.547882 0.822192 0.146418
Si Si2 0.761756 0.678178 0.287175
Si Si3 0.406244 0.675317 0.716926
Si Si4 0.619400 0.821420 0.857109
Si Si5 0.330662 0.177954 0.998927
Si Si6 0.809007 0.677524 0.432211
Si Si7 0.967504 0.826378 0.430189
O O1 0.570934 0.761403 0.217594
O O2 0.464356 0.758767 0.144222
O O3 0.546246 0.000000 0.150389
O O4 0.608231 0.766062 0.073541
O O5 0.763766 0.500000 0.286355
O O6 0.676067 0.736054 0.290758
O O7 0.819126 0.742646 0.213755
O O8 0.788843 0.738337 0.357854
O O9 0.402403 0.500000 0.735174
O O10 0.467291 0.712214 0.641854
O O11 0.641459 0.762855 0.930510
O O12 0.618873 0.000000 0.856213
O O13 0.322179 0.000000 0.000473
O O14 0.250000 0.250000 0.000000
O O15 0.800642 0.500000 0.438529
O O16 0.750000 0.750000 0.500000
O O17 0.895053 0.723105 0.431387
O O18 0.000000 0.784768 0.500000
O O19 0.942487 0.000000 0.432581
#
# Coordination Sequence:
#
# PCOD8097429 Si02
#       7
#     8   8   8   8   8   8   8
#     4  10  20  34  53  79 108 137 174 221 267 312
#     4   9  18  33  54  78 104 139 179 218 264 319
#     4  10  20  35  56  80 107 141 177 214 265 323
#     4   9  17  32  54  77 103 137 177 217 259 312
#     4  10  20  34  54  78 104 137 176 218 265 316
#     4  11  22  37  58  83 111 143 182 226 273 325
#     4  10  21  38  58  80 110 146 183 225 271 319
#
# _framework density 19.29373
#
# number of rings (size 3 to 8) (size 9 to 14) (size 15 to 20)
#    0.000    2.143    0.000    3.429    0.000    7.714 
#    0.000    3.571    0.000    7.714    0.000    0.000 
#    0.000    0.000    0.000    0.000    0.000    0.000 
#
# Total GULP energy -347284.256737 kJ/mol
# GULP energy per Si atom -12403.009169 kJ/mol
# Density = 1.924982 g / cm^3
# Si number density = 19.293730 Si / 1000 Ang^3
#
#
#
# Elastic Constant Matrix: (Units=GPa)
#
#
# Indices 1 2 3 4 5 6 
#
# 1 179.8348 29.7152 89.9634 0.0000 -0.0681 0.0000
# 2 29.7152 24.1037 26.7494 0.0000 -0.0059 0.0000
# 3 89.9634 26.7494 182.1598 0.0000 5.8054 0.0000
# 4 0.0000 0.0000 0.0000 22.9658 0.0000 1.9834
# 5 -0.0681 -0.0059 5.8054 0.0000 43.9985 0.0000
# 6 0.0000 0.0000 0.0000 1.9834 0.0000 32.3882
#
#
#
# Elastic Compliance Matrix: (Units=1/GPa)
#
#
# Indices 1 2 3 4 5 6 
#
# 1 0.008211 -0.006699 -0.003085 0.000000 0.000419 0.000000
# 2 -0.006699 0.055072 -0.004799 0.000000 0.000630 0.000000
# 3 -0.003085 -0.004799 0.007751 0.000000 -0.001028 0.000000
# 4 0.000000 0.000000 0.000000 0.043774 0.000000 -0.002681
# 5 0.000419 0.000630 -0.001028 0.000000 0.022864 0.000000
# 6 0.000000 0.000000 0.000000 -0.002681 0.000000 0.031040
#
#
# Mechanical properties :
#
#
# Convention : Reuss Voigt Hill
#
# Bulk Modulus (GPa) = 23.88446 75.43936 49.66191
# Shear Modulus (GPa) = 23.60355 35.84852 29.72604
#
# Velocity S-wave (km/s) = 3.50148 4.31518 3.92945
# Velocity P-wave (km/s) = 5.36222 8.00081 6.81052
#
# Compressibility (1/GPa) = 0.04186823
#
# Stress axis : x y z
#
# Youngs Moduli (GPa) = 121.78937 18.15817 129.02249
#
# Poissons Ratio (x) = 0.12164 0.39800
# Poissons Ratio (y) = 0.81587 0.61914
# Poissons Ratio (z) = 0.37569 0.08714
#
# Static dielectric constant tensor:
#      x y z
#    x 3.769320 0.000000 -0.038740 
#    y 0.000000 3.114440 0.000000 
#    z -0.038740 0.000000 3.811230 
# 
# 
# High freq. dielectric constant tensor:
#      x y z
#    x 1.770810 0.000000 -0.001320 
#    y 0.000000 1.711770 0.000000 
#    z -0.001320 0.000000 1.773390 
# 
# From -- ./inp_files/275069.got.cif
#   From: 2010.06.25/outbox.cif.g09.slc.cpg/sg12_138_cif.got.tgz:275069.got - 2010.06.28 00:19:55.
