data_PCOD8097843
_publ_section_title
;
Structure prediction by ZEFSAII (Michael W. Deem and Ramdas Pophale) SiO2 
 PCOD8097843
Probable space group: C 2/M
;
_chemical_formula_sum "Si O2"
_cell_formula_units_Z 64
_cell_length_a 14.427896
_cell_length_b 8.779696
_cell_length_c 28.931020
_cell_angle_alpha 90.000000
_cell_angle_beta 119.016243
_cell_angle_gamma 90.000000
_cell_volume 3204.772584
_symmetry_space_group_name_H-M "C 2/M"
_symmetry_group_IT_number 12
_symmetry_cell_setting 'monoclinic'
loop_
_space_group_symop_operation_xyz
x,y,z
-x,y,-z
-x,-y,-z
x,-y,z
1/2+x,1/2+y,z
1/2-x,1/2+y,-z
1/2-x,1/2-y,-z
1/2+x,1/2-y,z
loop_
_atom_site_type_symbol
_atom_site_label
_atom_site_fract_x
_atom_site_fract_y
_atom_site_fract_z
Si Si1 0.500700 0.326267 0.397284
Si Si2 0.586406 0.820603 0.330262
Si Si3 0.833430 0.174475 0.486675
Si Si4 0.209217 0.322222 0.943489
Si Si5 0.301719 0.821385 0.381702
Si Si6 0.777740 0.321945 0.868207
Si Si7 0.023355 0.678758 0.144597
Si Si8 0.455303 0.677947 0.220279
O O1 0.472317 0.500000 0.377733
O O2 0.580538 0.258427 0.378882
O O3 0.552782 0.319428 0.460669
O O4 0.395865 0.223176 0.369812
O O5 0.699129 0.766766 0.337571
O O6 0.491721 0.766455 0.274566
O O7 0.582151 0.000000 0.334729
O O8 0.750000 0.250000 0.500000
O O9 0.837560 0.269233 0.440980
O O10 0.801252 0.000000 0.467892
O O11 0.227488 0.500000 0.950493
O O12 0.278916 0.260541 0.917823
O O13 0.085180 0.281028 0.908253
O O14 0.250000 0.250000 0.000000
O O15 0.279743 0.000000 0.375566
O O16 0.787976 0.500000 0.880573
O O17 0.668651 0.282752 0.815580
O O18 0.877124 0.264212 0.861810
O O19 0.032063 0.500000 0.157349
O O20 0.024369 0.766710 0.193373
O O21 0.474677 0.500000 0.231822
#
# Coordination Sequence:
#
# PCOD8097843 Si02
#       8
#     8   8   8   8   8   8   8   8
#     4  11  24  42  63  89 120 154 194 239 291 355
#     4  12  25  42  63  86 118 156 196 243 295 352
#     4  11  22  38  63  89 119 156 194 236 288 349
#     4  10  20  34  54  82 119 156 194 239 284 338
#     4  12  25  41  62  89 120 154 195 242 291 350
#     4   9  19  37  60  83 111 150 193 237 286 342
#     4   9  19  37  59  83 112 152 197 237 286 347
#     4  10  21  38  60  85 114 146 187 242 296 347
#
# _framework density 19.970216000000001
#
# number of rings (size 3 to 8) (size 9 to 14) (size 15 to 20)
#    0.000    1.500    1.250    4.125    0.000    6.000 
#    0.000    6.250    0.000    0.000    0.000    0.000 
#    0.000    0.000    0.000    0.000    0.000    0.000 
#
# Total GULP energy -396948.217319 kJ/mol
# GULP energy per Si atom -12404.631791 kJ/mol
# Density = 1.992476 g / cm^3
# Si number density = 19.970216 Si / 1000 Ang^3
#
#
#
# Elastic Constant Matrix: (Units=GPa)
#
#
# Indices 1 2 3 4 5 6 
#
# 1 108.8882 28.3812 19.9905 0.0000 6.8237 0.0000
# 2 28.3812 102.9293 43.5415 0.0000 -4.2548 0.0000
# 3 19.9905 43.5415 89.1672 0.0000 -1.3323 0.0000
# 4 0.0000 0.0000 0.0000 37.2800 0.0000 -4.1921
# 5 6.8237 -4.2548 -1.3323 0.0000 19.4971 0.0000
# 6 0.0000 0.0000 0.0000 -4.1921 0.0000 34.2006
#
#
#
# Elastic Compliance Matrix: (Units=1/GPa)
#
#
# Indices 1 2 3 4 5 6 
#
# 1 0.010321 -0.002540 -0.001137 0.000000 -0.004244 0.000000
# 2 -0.002540 0.012971 -0.005715 0.000000 0.003329 0.000000
# 3 -0.001137 -0.005715 0.014262 0.000000 0.000125 0.000000
# 4 0.000000 0.000000 0.000000 0.027199 0.000000 0.003334
# 5 -0.004244 0.003329 0.000125 0.000000 0.053510 0.000000
# 6 0.000000 0.000000 0.000000 0.003334 0.000000 0.029648
#
#
# Mechanical properties :
#
#
# Convention : Reuss Voigt Hill
#
# Bulk Modulus (GPa) = 53.27573 53.86789 53.57181
# Shear Modulus (GPa) = 28.91003 32.13363 30.52183
#
# Velocity S-wave (km/s) = 3.80894 4.01568 3.91368
# Velocity P-wave (km/s) = 6.78819 6.96661 6.87798
#
# Compressibility (1/GPa) = 0.01877027
#
# Stress axis : x y z
#
# Youngs Moduli (GPa) = 96.89451 77.09579 70.11585
#
# Poissons Ratio (x) = 0.19585 0.07970
# Poissons Ratio (y) = 0.24614 0.40068
# Poissons Ratio (z) = 0.11014 0.44057
#
# Static dielectric constant tensor:
#      x y z
#    x 3.671580 0.000000 0.049780 
#    y 0.000000 3.674660 0.000000 
#    z 0.049780 0.000000 3.598450 
# 
# 
# High freq. dielectric constant tensor:
#      x y z
#    x 1.784940 0.000000 0.004620 
#    y 0.000000 1.787670 0.000000 
#    z 0.004620 0.000000 1.774220 
# 
# From -- ./inp_files/359691.got.cif
#   From: 2010.06.25/outbox.cif.g09.slc.cpg/sg12_180_cif.got.tgz:359691.got - 2010.06.28 00:19:55.
