data_PCOD8097668
_publ_section_title
;
Structure prediction by ZEFSAII (Michael W. Deem and Ramdas Pophale) SiO2 
 PCOD8097668
Probable space group: C 2/M
;
_chemical_formula_sum "Si O2"
_cell_formula_units_Z 56
_cell_length_a 12.565346
_cell_length_b 12.437160
_cell_length_c 19.615890
_cell_angle_alpha 90.000000
_cell_angle_beta 89.191754
_cell_angle_gamma 90.000000
_cell_volume 3065.211725
_symmetry_space_group_name_H-M "C 2/M"
_symmetry_group_IT_number 12
_symmetry_cell_setting 'monoclinic'
loop_
_space_group_symop_operation_xyz
x,y,z
-x,y,-z
-x,-y,-z
x,-y,z
1/2+x,1/2+y,z
1/2-x,1/2+y,-z
1/2-x,1/2-y,-z
1/2+x,1/2-y,z
loop_
_atom_site_type_symbol
_atom_site_label
_atom_site_fract_x
_atom_site_fract_y
_atom_site_fract_z
Si Si1 0.251045 0.231653 0.608958
Si Si2 0.358234 0.125602 0.059774
Si Si3 0.375560 0.625498 0.270558
Si Si4 0.122090 0.625482 0.511271
Si Si5 0.263373 0.739623 0.824551
Si Si6 0.406858 0.874696 0.910162
Si Si7 0.880260 0.125018 0.706222
O O1 0.193206 0.154024 0.662641
O O2 0.162782 0.307607 0.575559
O O3 0.307985 0.153921 0.555001
O O4 0.340594 0.305905 0.642612
O O5 0.270039 0.183385 0.105329
O O6 0.473864 0.168514 0.081120
O O7 0.350109 0.000000 0.074025
O O8 0.339762 0.149694 0.979802
O O9 0.362400 0.500000 0.254051
O O10 0.333984 0.694094 0.206918
O O11 0.497983 0.656249 0.280995
O O12 0.134536 0.500000 0.527738
O O13 0.000000 0.656981 0.500000
O O14 0.357621 0.820176 0.843982
O O15 0.307856 0.650891 0.772313
O O16 0.408505 0.000000 0.895079
O O17 0.868250 0.000000 0.688256
#
# Coordination Sequence:
#
# PCOD8097668 Si02
#       7
#     8   8   8   8   8   8   8
#     4  10  20  35  55  74  98 134 164 190 236 290
#     4   9  18  32  49  70  96 125 159 200 245 294
#     4  10  21  35  50  71 100 131 164 200 236 281
#     4  10  20  34  54  80 104 124 156 202 242 278
#     4  11  19  31  51  73  95 126 164 202 245 285
#     4   9  18  32  49  70  96 125 159 200 245 294
#     4  10  21  35  50  71 100 131 164 200 236 281
#
# _framework density 18.269537
#
# number of rings (size 3 to 8) (size 9 to 14) (size 15 to 20)
#    0.000    2.143    0.000    4.714    0.000    0.000 
#    0.000    0.000    0.000   20.571    0.000   12.000 
#    0.000    0.000    0.000    0.000    0.000    0.000 
#
# Total GULP energy -347253.008060 kJ/mol
# GULP energy per Si atom -12401.893145 kJ/mol
# Density = 1.822795 g / cm^3
# Si number density = 18.269537 Si / 1000 Ang^3
#
#
#
# Elastic Constant Matrix: (Units=GPa)
#
#
# Indices 1 2 3 4 5 6 
#
# 1 81.9930 28.7811 4.1571 0.0000 11.4365 0.0000
# 2 28.7811 49.3204 8.6042 0.0000 5.0711 0.0000
# 3 4.1571 8.6042 43.1564 0.0000 4.5156 0.0000
# 4 0.0000 0.0000 0.0000 6.1401 0.0000 -0.0827
# 5 11.4365 5.0711 4.5156 0.0000 29.0774 0.0000
# 6 0.0000 0.0000 0.0000 -0.0827 0.0000 20.9812
#
#
#
# Elastic Compliance Matrix: (Units=1/GPa)
#
#
# Indices 1 2 3 4 5 6 
#
# 1 0.015977 -0.008957 0.000753 0.000000 -0.004839 0.000000
# 2 -0.008957 0.026300 -0.004340 0.000000 -0.000390 0.000000
# 3 0.000753 -0.004340 0.024311 0.000000 -0.003315 0.000000
# 4 0.000000 0.000000 0.000000 0.162872 0.000000 0.000642
# 5 -0.004839 -0.000390 -0.003315 0.000000 0.036877 0.000000
# 6 0.000000 0.000000 0.000000 0.000642 0.000000 0.047664
#
#
# Mechanical properties :
#
#
# Convention : Reuss Voigt Hill
#
# Bulk Modulus (GPa) = 24.09648 28.61718 26.35683
# Shear Modulus (GPa) = 14.16743 20.10158 17.13450
#
# Velocity S-wave (km/s) = 2.78774 3.32064 3.06579
# Velocity P-wave (km/s) = 4.85593 5.51363 5.19520
#
# Compressibility (1/GPa) = 0.04149984
#
# Stress axis : x y z
#
# Youngs Moduli (GPa) = 62.58963 38.02306 41.13356
#
# Poissons Ratio (x) = 0.34059 -0.03098
# Poissons Ratio (y) = 0.56064 0.17851
# Poissons Ratio (z) = -0.04714 0.16501
#
# Static dielectric constant tensor:
#      x y z
#    x 3.379070 0.000000 0.069840 
#    y 0.000000 3.245220 0.000000 
#    z 0.069840 0.000000 3.303770 
# 
# 
# High freq. dielectric constant tensor:
#      x y z
#    x 1.713230 0.000000 0.003760 
#    y 0.000000 1.708990 0.000000 
#    z 0.003760 0.000000 1.711820 
# 
# From -- ./inp_files/304154.got.cif
#   From: 2010.06.25/outbox.cif.g09.slc.cpg/sg12_153_cif.got.tgz:304154.got - 2010.06.28 00:19:55.
