data_PCOD8097924
_publ_section_title
;
Structure prediction by ZEFSAII (Michael W. Deem and Ramdas Pophale) SiO2 
 PCOD8097924
Probable space group: C 2/M
;
_chemical_formula_sum "Si O2"
_cell_formula_units_Z 56
_cell_length_a 18.357257
_cell_length_b 9.282616
_cell_length_c 24.955804
_cell_angle_alpha 90.000000
_cell_angle_beta 134.825671
_cell_angle_gamma 90.000000
_cell_volume 3016.144331
_symmetry_space_group_name_H-M "C 2/M"
_symmetry_group_IT_number 12
_symmetry_cell_setting 'monoclinic'
loop_
_space_group_symop_operation_xyz
x,y,z
-x,y,-z
-x,-y,-z
x,-y,z
1/2+x,1/2+y,z
1/2-x,1/2+y,-z
1/2-x,1/2-y,-z
1/2+x,1/2-y,z
loop_
_atom_site_type_symbol
_atom_site_label
_atom_site_fract_x
_atom_site_fract_y
_atom_site_fract_z
Si Si1 0.108812 0.168346 0.192588
Si Si2 0.305452 0.333429 0.481661
Si Si3 0.905912 0.668105 0.063769
Si Si4 0.992050 0.163920 0.645926
Si Si5 0.336939 0.668051 0.659002
Si Si6 0.259212 0.167316 0.085007
Si Si7 0.808526 0.331519 0.230029
O O1 0.123549 0.209658 0.262047
O O2 0.209664 0.214214 0.212621
O O3 0.016697 0.259724 0.120407
O O4 0.083802 0.000000 0.172591
O O5 0.271808 0.500000 0.464067
O O6 0.250000 0.250000 0.500000
O O7 0.427355 0.319852 0.556871
O O8 0.268176 0.257852 0.407236
O O9 0.916920 0.500000 0.057181
O O10 0.853194 0.697269 0.093694
O O11 0.839130 0.739212 0.982172
O O12 0.092879 0.258716 0.692478
O O13 0.924527 0.213747 0.662069
O O14 0.026431 0.000000 0.672475
O O15 0.309801 0.500000 0.640048
O O16 0.294815 0.219437 0.161779
O O17 0.226776 0.000000 0.067865
O O18 0.827661 0.500000 0.243028
#
# Coordination Sequence:
#
# PCOD8097924 Si02
#       7
#     8   8   8   8   8   8   8
#     4  10  21  36  52  73 104 137 168 206 252 299
#     4   9  17  30  50  77 104 131 167 210 256 300
#     4  10  20  34  55  80 101 128 168 209 252 300
#     4   9  18  32  51  75 101 129 163 207 255 296
#     4   9  18  33  53  76 101 132 170 209 252 300
#     4   9  19  36  55  76 102 130 165 208 251 298
#     4  10  21  35  52  74 100 135 173 205 246 301
#
# _framework density 18.566751
#
# number of rings (size 3 to 8) (size 9 to 14) (size 15 to 20)
#    0.000    2.571    0.000    2.571    0.000    5.714 
#    0.000    3.571    0.000    4.286    0.000    0.000 
#    0.000    0.000    0.000    0.000    0.000    0.000 
#
# Total GULP energy -347200.534902 kJ/mol
# GULP energy per Si atom -12400.019104 kJ/mol
# Density = 1.852449 g / cm^3
# Si number density = 18.566751 Si / 1000 Ang^3
#
#
#
# Elastic Constant Matrix: (Units=GPa)
#
#
# Indices 1 2 3 4 5 6 
#
# 1 65.7392 34.4354 37.8237 0.0000 23.7799 0.0000
# 2 34.4354 77.7055 54.6026 0.0000 23.1240 0.0000
# 3 37.8237 54.6026 93.2290 0.0000 34.9581 0.0000
# 4 0.0000 0.0000 0.0000 37.8503 0.0000 7.6320
# 5 23.7799 23.1240 34.9581 0.0000 22.3766 0.0000
# 6 0.0000 0.0000 0.0000 7.6320 0.0000 23.7424
#
#
#
# Elastic Compliance Matrix: (Units=1/GPa)
#
#
# Indices 1 2 3 4 5 6 
#
# 1 0.026019 -0.005519 0.002187 0.000000 -0.025364 0.000000
# 2 -0.005519 0.023409 -0.011105 0.000000 -0.000977 0.000000
# 3 0.002187 -0.011105 0.031172 0.000000 -0.039547 0.000000
# 4 0.000000 0.000000 0.000000 0.028251 0.000000 -0.009081
# 5 -0.025364 -0.000977 -0.039547 0.000000 0.134437 0.000000
# 6 0.000000 0.000000 0.000000 -0.009081 0.000000 0.045038
#
#
# Mechanical properties :
#
#
# Convention : Reuss Voigt Hill
#
# Bulk Modulus (GPa) = 19.33246 54.48856 36.91051
# Shear Modulus (GPa) = 14.95029 24.11467 19.53248
#
# Velocity S-wave (km/s) = 2.84072 3.60781 3.24700
# Velocity P-wave (km/s) = 4.60376 6.83858 5.82927
#
# Compressibility (1/GPa) = 0.05172648
#
# Stress axis : x y z
#
# Youngs Moduli (GPa) = 38.43282 42.71903 32.08042
#
# Poissons Ratio (x) = 0.23579 -0.07017
# Poissons Ratio (y) = 0.21213 0.35624
# Poissons Ratio (z) = -0.08406 0.47437
#
# Static dielectric constant tensor:
#      x y z
#    x 3.198720 0.000000 -0.017170 
#    y 0.000000 3.436720 0.000000 
#    z -0.017170 0.000000 3.699860 
# 
# 
# High freq. dielectric constant tensor:
#      x y z
#    x 1.694220 0.000000 0.005090 
#    y 0.000000 1.720660 0.000000 
#    z 0.005090 0.000000 1.732700 
# 
# From -- ./inp_files/342536.got.cif
#   From: 2010.06.25/outbox.cif.g09.slc.cpg/sg12_172_cif.got.tgz:342536.got - 2010.06.28 00:19:55.
