data_PCOD8097549
_publ_section_title
;
Structure prediction by ZEFSAII (Michael W. Deem and Ramdas Pophale) SiO2 
 PCOD8097549
Probable space group: C 2/M
;
_chemical_formula_sum "Si O2"
_cell_formula_units_Z 64
_cell_length_a 13.291545
_cell_length_b 11.070496
_cell_length_c 22.828408
_cell_angle_alpha 90.000000
_cell_angle_beta 76.339748
_cell_angle_gamma 90.000000
_cell_volume 3264.045984
_symmetry_space_group_name_H-M "C 2/M"
_symmetry_group_IT_number 12
_symmetry_cell_setting 'monoclinic'
loop_
_space_group_symop_operation_xyz
x,y,z
-x,y,-z
-x,-y,-z
x,-y,z
1/2+x,1/2+y,z
1/2-x,1/2+y,-z
1/2-x,1/2-y,-z
1/2+x,1/2-y,z
loop_
_atom_site_type_symbol
_atom_site_label
_atom_site_fract_x
_atom_site_fract_y
_atom_site_fract_z
Si Si1 0.078174 0.284272 0.037128
Si Si2 0.591630 0.286406 0.259297
Si Si3 0.774273 0.869177 0.060185
Si Si4 0.586945 0.136046 0.664198
Si Si5 0.326958 0.637315 0.634166
Si Si6 0.455963 0.137963 0.570207
Si Si7 0.770589 0.138284 0.187908
Si Si8 0.501756 0.365617 0.155498
O O1 0.159711 0.383085 0.048025
O O2 0.019325 0.228630 0.100807
O O3 0.145030 0.182293 0.996546
O O4 0.000000 0.341556 0.000000
O O5 0.484322 0.217076 0.284486
O O6 0.619235 0.373911 0.309413
O O7 0.689735 0.197684 0.243005
O O8 0.580765 0.354010 0.198898
O O9 0.766892 0.799367 0.123359
O O10 0.818885 0.000000 0.068989
O O11 0.706479 0.172833 0.653977
O O12 0.551549 0.150661 0.601722
O O13 0.572038 0.000000 0.688476
O O14 0.340165 0.500000 0.604660
O O15 0.376621 0.750498 0.591873
O O16 0.500000 0.156319 0.500000
O O17 0.407669 0.000000 0.583077
O O18 0.886300 0.154026 0.196851
O O19 0.735882 0.000000 0.188195
O O20 0.514523 0.500000 0.127681
#
# Coordination Sequence:
#
# PCOD8097549 Si02
#       8
#     8   8   8   8   8   8   8   8
#     4  11  21  36  56  73 100 133 166 212 276 338
#     4  11  20  36  54  77 108 144 185 228 275 327
#     4  10  21  36  53  76 100 127 167 214 265 330
#     4   9  19  36  57  81 114 154 190 227 278 329
#     4  10  21  37  57  83 118 155 190 233 280 329
#     4   9  19  37  61  89 121 156 194 233 272 321
#     4  10  20  34  54  77 101 131 176 225 269 326
#     4  11  22  34  51  77 102 132 173 223 277 329
#
# _framework density 19.607565999999998
#
# number of rings (size 3 to 8) (size 9 to 14) (size 15 to 20)
#    0.000    1.875    2.500    1.875    0.000    2.000 
#    0.000    3.125    0.000    0.750    0.000    0.000 
#    0.000    0.000    0.000    0.000    0.000    0.000 
#
# Total GULP energy -396480.388300 kJ/mol
# GULP energy per Si atom -12390.012134 kJ/mol
# Density = 1.956294 g / cm^3
# Si number density = 19.607566 Si / 1000 Ang^3
#
#
#
# Elastic Constant Matrix: (Units=GPa)
#
#
# Indices 1 2 3 4 5 6 
#
# 1 93.5665 24.6107 16.0188 0.0000 -8.8936 0.0000
# 2 24.6107 85.4751 28.2849 0.0000 -17.7513 0.0000
# 3 16.0188 28.2849 74.2297 0.0000 -2.5969 0.0000
# 4 0.0000 0.0000 0.0000 10.1970 0.0000 6.3214
# 5 -8.8936 -17.7513 -2.5969 0.0000 28.8160 0.0000
# 6 0.0000 0.0000 0.0000 6.3214 0.0000 9.6455
#
#
#
# Elastic Compliance Matrix: (Units=1/GPa)
#
#
# Indices 1 2 3 4 5 6 
#
# 1 0.011789 -0.002478 -0.001531 0.000000 0.001974 0.000000
# 2 -0.002478 0.015925 -0.005234 0.000000 0.008574 0.000000
# 3 -0.001531 -0.005234 0.015717 0.000000 -0.002280 0.000000
# 4 0.000000 0.000000 0.000000 0.165176 0.000000 -0.108251
# 5 0.001974 0.008574 -0.002280 0.000000 0.040388 0.000000
# 6 0.000000 0.000000 0.000000 -0.108251 0.000000 0.174619
#
#
# Mechanical properties :
#
#
# Convention : Reuss Voigt Hill
#
# Bulk Modulus (GPa) = 40.08612 43.45557 41.77084
# Shear Modulus (GPa) = 11.10091 22.02217 16.56154
#
# Velocity S-wave (km/s) = 2.38198 3.35497 2.90944
# Velocity P-wave (km/s) = 5.29657 6.10070 5.71280
#
# Compressibility (1/GPa) = 0.02494629
#
# Stress axis : x y z
#
# Youngs Moduli (GPa) = 84.82447 62.79344 63.62732
#
# Poissons Ratio (x) = 0.15559 0.09740
# Poissons Ratio (y) = 0.21018 0.33300
# Poissons Ratio (z) = 0.12985 0.32863
#
# Static dielectric constant tensor:
#      x y z
#    x 3.749640 0.000000 0.121260 
#    y 0.000000 3.463940 0.000000 
#    z 0.121260 0.000000 3.481690 
# 
# 
# High freq. dielectric constant tensor:
#      x y z
#    x 1.773580 0.000000 0.007660 
#    y 0.000000 1.750780 0.000000 
#    z 0.007660 0.000000 1.755690 
# 
# From -- ./inp_files/335635.got.cif
#   From: 2010.06.25/outbox.cif.g09.slc.cpg/sg12_168_cif.got.tgz:335635.got - 2010.06.28 00:19:55.
