data_PCOD8097307
_publ_section_title
;
Structure prediction by ZEFSAII (Michael W. Deem and Ramdas Pophale) SiO2 
 PCOD8097307
Probable space group: C 2/M
;
_chemical_formula_sum "Si O2"
_cell_formula_units_Z 48
_cell_length_a 18.130213
_cell_length_b 8.872517
_cell_length_c 18.150964
_cell_angle_alpha 90.000000
_cell_angle_beta 117.688275
_cell_angle_gamma 90.000000
_cell_volume 2585.428199
_symmetry_space_group_name_H-M "C 2/M"
_symmetry_group_IT_number 12
_symmetry_cell_setting 'monoclinic'
loop_
_space_group_symop_operation_xyz
x,y,z
-x,y,-z
-x,-y,-z
x,-y,z
1/2+x,1/2+y,z
1/2-x,1/2+y,-z
1/2-x,1/2-y,-z
1/2+x,1/2-y,z
loop_
_atom_site_type_symbol
_atom_site_label
_atom_site_fract_x
_atom_site_fract_y
_atom_site_fract_z
Si Si1 0.506442 0.326685 0.830909
Si Si2 0.088805 0.665824 0.579488
Si Si3 0.327780 0.326595 0.998271
Si Si4 0.510480 0.821920 0.331616
Si Si5 0.916613 0.330103 0.914045
Si Si6 0.335681 0.677435 0.515782
O O1 0.487455 0.500000 0.803539
O O2 0.512307 0.229512 0.760252
O O3 0.431241 0.263399 0.846083
O O4 0.593394 0.306922 0.912523
O O5 0.131233 0.500000 0.598494
O O6 0.147136 0.781175 0.562045
O O7 0.000000 0.654627 0.500000
O O8 0.069676 0.719810 0.654261
O O9 0.307579 0.500000 0.973739
O O10 0.343518 0.248036 0.926838
O O11 0.250000 0.250000 0.000000
O O12 0.592783 0.738042 0.397460
O O13 0.527688 0.000000 0.342302
O O14 0.889585 0.500000 0.881436
O O15 0.000000 0.329850 0.000000
O O16 0.329992 0.500000 0.520828
O O17 0.250000 0.750000 0.500000
#
# Coordination Sequence:
#
# PCOD8097307 Si02
#       6
#     8   8   8   8   8   8
#     4  10  20  34  53  78 106 135 170 213 257 304
#     4   8  16  32  52  74 101 133 170 209 251 303
#     4  10  20  34  53  77 105 136 173 215 259 307
#     4  10  20  35  55  78 105 136 170 210 256 307
#     4   9  17  31  52  75 100 134 174 211 252 306
#     4  11  21  34  54  78 105 136 173 214 256 304
#
# _framework density 18.56559
#
# number of rings (size 3 to 8) (size 9 to 14) (size 15 to 20)
#    0.000    2.333    0.000    4.500    0.000    7.667 
#    0.000    1.667    0.000    4.000    0.000    0.000 
#    0.000    0.000    0.000    0.000    0.000    0.000 
#
# Total GULP energy -297570.403888 kJ/mol
# GULP energy per Si atom -12398.766829 kJ/mol
# Density = 1.852333 g / cm^3
# Si number density = 18.565590 Si / 1000 Ang^3
#
#
#
# Elastic Constant Matrix: (Units=GPa)
#
#
# Indices 1 2 3 4 5 6 
#
# 1 140.6198 77.3693 35.2118 0.0000 -29.7982 0.0000
# 2 77.3693 148.3888 35.1960 0.0000 -13.1141 0.0000
# 3 35.2118 35.1960 52.5787 0.0000 -28.1975 0.0000
# 4 0.0000 0.0000 0.0000 29.6044 0.0000 -5.8540
# 5 -29.7982 -13.1141 -28.1975 0.0000 31.1079 0.0000
# 6 0.0000 0.0000 0.0000 -5.8540 0.0000 36.3358
#
#
#
# Elastic Compliance Matrix: (Units=1/GPa)
#
#
# Indices 1 2 3 4 5 6 
#
# 1 0.012131 -0.005705 0.001240 0.000000 0.010339 0.000000
# 2 -0.005705 0.010830 -0.007611 0.000000 -0.007798 0.000000
# 3 0.001240 -0.007611 0.043200 0.000000 0.037137 0.000000
# 4 0.000000 0.000000 0.000000 0.034890 0.000000 0.005621
# 5 0.010339 -0.007798 0.037137 0.000000 0.072425 0.000000
# 6 0.000000 0.000000 0.000000 0.005621 0.000000 0.028427
#
#
# Mechanical properties :
#
#
# Convention : Reuss Voigt Hill
#
# Bulk Modulus (GPa) = 23.80513 70.79349 47.29931
# Shear Modulus (GPa) = 20.82831 32.33032 26.57932
#
# Velocity S-wave (km/s) = 3.35308 4.17755 3.78781
# Velocity P-wave (km/s) = 5.27644 7.84115 6.68298
#
# Compressibility (1/GPa) = 0.04200774
#
# Stress axis : x y z
#
# Youngs Moduli (GPa) = 82.43444 92.33815 23.14816
#
# Poissons Ratio (x) = 0.52682 -0.02870
# Poissons Ratio (y) = 0.47031 0.17618
# Poissons Ratio (z) = -0.10219 0.70276
#
# Static dielectric constant tensor:
#      x y z
#    x 3.554110 0.000000 -0.420510 
#    y 0.000000 3.613770 0.000000 
#    z -0.420510 0.000000 3.353280 
# 
# 
# High freq. dielectric constant tensor:
#      x y z
#    x 1.723560 0.000000 -0.030180 
#    y 0.000000 1.735440 0.000000 
#    z -0.030180 0.000000 1.690990 
# 
# From -- ./inp_files/274575.got.cif
#   From: 2010.06.25/outbox.cif.g09.slc.cpg/sg12_138_cif.got.tgz:274575.got - 2010.06.28 00:19:55.
