data_PCOD8097978
_publ_section_title
;
Structure prediction by ZEFSAII (Michael W. Deem and Ramdas Pophale) SiO2 
 PCOD8097978
Probable space group: C 2/M
;
_chemical_formula_sum "Si O2"
_cell_formula_units_Z 56
_cell_length_a 25.511150
_cell_length_b 13.846439
_cell_length_c 10.945512
_cell_angle_alpha 90.000000
_cell_angle_beta 136.151189
_cell_angle_gamma 90.000000
_cell_volume 2678.462920
_symmetry_space_group_name_H-M "C 2/M"
_symmetry_group_IT_number 12
_symmetry_cell_setting 'monoclinic'
loop_
_space_group_symop_operation_xyz
x,y,z
-x,y,-z
-x,-y,-z
x,-y,z
1/2+x,1/2+y,z
1/2-x,1/2+y,-z
1/2-x,1/2-y,-z
1/2+x,1/2-y,z
loop_
_atom_site_type_symbol
_atom_site_label
_atom_site_fract_x
_atom_site_fract_y
_atom_site_fract_z
Si Si1 0.501202 0.692884 0.365951
Si Si2 0.848941 0.392744 0.770255
Si Si3 0.338155 0.393394 0.079404
Si Si4 0.156983 0.104862 0.636647
Si Si5 0.442329 0.744088 0.793194
Si Si6 0.223044 0.246605 0.207934
Si Si7 0.691271 0.392154 0.373928
O O1 0.500000 0.746136 0.500000
O O2 0.424836 0.636856 0.209573
O O3 0.566915 0.613450 0.485819
O O4 0.518457 0.758826 0.274453
O O5 0.878853 0.500000 0.851055
O O6 0.903188 0.346373 0.759257
O O7 0.845581 0.324846 0.886263
O O8 0.761978 0.394266 0.583125
O O9 0.327501 0.500000 0.001414
O O10 0.311595 0.399067 0.173448
O O11 0.285560 0.310924 0.932122
O O12 0.196456 0.199122 0.645061
O O13 0.177386 0.000000 0.608080
O O14 0.380739 0.657299 0.680286
O O15 0.500000 0.717423 0.000000
O O16 0.218149 0.167046 0.303594
O O17 0.667897 0.500000 0.294710
#
# Coordination Sequence:
#
# PCOD8097978 Si02
#       7
#     8   8   8   8   8   8   8
#     4  10  20  36  58  82 111 147 185 226 273 330
#     4  10  21  37  56  77 105 144 188 228 269 326
#     4  10  21  35  52  79 112 144 180 225 278 332
#     4  10  20  34  55  81 109 145 186 224 268 328
#     4  11  22  36  56  84 115 145 182 228 281 331
#     4  11  19  33  54  80 111 140 179 228 280 327
#     4  10  21  36  55  79 108 142 179 224 277 331
#
# _framework density 20.907513000000002
#
# number of rings (size 3 to 8) (size 9 to 14) (size 15 to 20)
#    0.000    1.714    0.000    6.857    0.000    4.571 
#    0.000    0.000    0.000    0.429    0.000    8.000 
#    0.000    0.000    0.000    0.000    0.000    0.000 
#
# Total GULP energy -346882.925325 kJ/mol
# GULP energy per Si atom -12388.675904 kJ/mol
# Density = 2.085993 g / cm^3
# Si number density = 20.907513 Si / 1000 Ang^3
#
#
#
# Elastic Constant Matrix: (Units=GPa)
#
#
# Indices 1 2 3 4 5 6 
#
# 1 89.5518 21.8501 8.7129 0.0000 -1.4615 0.0000
# 2 21.8501 121.5467 9.4556 0.0000 13.7255 0.0000
# 3 8.7129 9.4556 56.4716 0.0000 5.7811 0.0000
# 4 0.0000 0.0000 0.0000 16.3395 0.0000 1.9409
# 5 -1.4615 13.7255 5.7811 0.0000 28.4319 0.0000
# 6 0.0000 0.0000 0.0000 1.9409 0.0000 22.8369
#
#
#
# Elastic Compliance Matrix: (Units=1/GPa)
#
#
# Indices 1 2 3 4 5 6 
#
# 1 0.011909 -0.002241 -0.001670 0.000000 0.002033 0.000000
# 2 -0.002241 0.009184 -0.000742 0.000000 -0.004398 0.000000
# 3 -0.001670 -0.000742 0.018446 0.000000 -0.003478 0.000000
# 4 0.000000 0.000000 0.000000 0.061826 0.000000 -0.005255
# 5 0.002033 -0.004398 -0.003478 0.000000 0.038107 0.000000
# 6 0.000000 0.000000 0.000000 -0.005255 0.000000 0.044235
#
#
# Mechanical properties :
#
#
# Convention : Reuss Voigt Hill
#
# Bulk Modulus (GPa) = 33.07557 38.62304 35.84931
# Shear Modulus (GPa) = 24.61949 28.69176 26.65563
#
# Velocity S-wave (km/s) = 3.43526 3.70850 3.57449
# Velocity P-wave (km/s) = 5.62040 6.07048 5.84977
#
# Compressibility (1/GPa) = 0.03023379
#
# Stress axis : x y z
#
# Youngs Moduli (GPa) = 83.96929 108.87990 54.21216
#
# Poissons Ratio (x) = 0.24395 0.09056
# Poissons Ratio (y) = 0.18814 0.04022
# Poissons Ratio (z) = 0.14027 0.08078
#
# Static dielectric constant tensor:
#      x y z
#    x 4.048430 0.000000 -0.161690 
#    y 0.000000 3.991960 0.000000 
#    z -0.161690 0.000000 3.824260 
# 
# 
# High freq. dielectric constant tensor:
#      x y z
#    x 1.832010 0.000000 -0.008170 
#    y 0.000000 1.806100 0.000000 
#    z -0.008170 0.000000 1.806900 
# 
# From -- ./inp_files/183566.got.cif
#   From: 2010.06.25/outbox.cif.g09.slc.cpg/sg12_92_cif.got.tgz:183566.got - 2010.06.28 00:19:55.
