data_PCOD8097177
_publ_section_title
;
Structure prediction by ZEFSAII (Michael W. Deem and Ramdas Pophale) SiO2 
 PCOD8097177
Probable space group: C 2/M
;
_chemical_formula_sum "Si O2"
_cell_formula_units_Z 56
_cell_length_a 8.799315
_cell_length_b 10.686694
_cell_length_c 28.837181
_cell_angle_alpha 90.000000
_cell_angle_beta 98.673853
_cell_angle_gamma 90.000000
_cell_volume 2680.706772
_symmetry_space_group_name_H-M "C 2/M"
_symmetry_group_IT_number 12
_symmetry_cell_setting 'monoclinic'
loop_
_space_group_symop_operation_xyz
x,y,z
-x,y,-z
-x,-y,-z
x,-y,z
1/2+x,1/2+y,z
1/2-x,1/2+y,-z
1/2-x,1/2-y,-z
1/2+x,1/2-y,z
loop_
_atom_site_type_symbol
_atom_site_label
_atom_site_fract_x
_atom_site_fract_y
_atom_site_fract_z
Si Si1 0.997252 0.225478 0.333706
Si Si2 0.777848 0.861191 0.728281
Si Si3 0.198732 0.500000 0.462056
Si Si4 0.774156 0.785424 0.399475
Si Si5 0.330115 0.214065 0.110820
Si Si6 0.090167 0.139445 0.172224
Si Si7 0.430063 0.860602 0.950520
Si Si8 0.835444 0.500000 0.434436
O O1 0.874082 0.294842 0.296483
O O2 0.914129 0.163072 0.374287
O O3 0.089453 0.131080 0.304772
O O4 0.122187 0.318253 0.362657
O O5 0.841259 0.794416 0.778174
O O6 0.725818 0.000000 0.738970
O O7 0.272971 0.371442 0.445284
O O8 0.238841 0.500000 0.518007
O O9 0.018101 0.500000 0.445059
O O10 0.783831 0.632556 0.407992
O O11 0.216701 0.132756 0.137234
O O12 0.433370 0.296138 0.149768
O O13 0.444116 0.132409 0.084725
O O14 0.226437 0.295046 0.071571
O O15 0.041561 0.000000 0.183415
O O16 0.380631 0.000000 0.961591
O O17 0.500000 0.794686 0.000000
#
# Coordination Sequence:
#
# PCOD8097177 Si02
#       8
#     8   8   4   8   8   8   8   4
#     4  10  23  37  60  85 117 149 193 234 291 346
#     4  10  22  39  59  83 115 150 187 244 291 349
#     4  11  24  43  67  93 125 163 201 245 297 349
#     4  11  23  41  67  91 123 161 201 243 296 356
#     4  10  20  34  56  79 111 145 190 236 284 343
#     4  10  20  36  57  81 109 145 191 235 295 342
#     4  10  20  34  52  79 112 149 189 232 284 337
#     4  11  24  45  63  95 129 159 197 253 295 345
#
# _framework density 20.890014000000001
#
# number of rings (size 3 to 8) (size 9 to 14) (size 15 to 20)
#    0.000    1.714    1.429    2.571    6.000    0.000 
#    0.000    0.714    0.000   15.429    0.000    0.000 
#    0.000    0.000    0.000    0.000    0.000    0.000 
#
# Total GULP energy -346926.862927 kJ/mol
# GULP energy per Si atom -12390.245105 kJ/mol
# Density = 2.084247 g / cm^3
# Si number density = 20.890014 Si / 1000 Ang^3
#
#
#
# Elastic Constant Matrix: (Units=GPa)
#
#
# Indices 1 2 3 4 5 6 
#
# 1 76.2950 2.9153 13.9912 0.0000 10.7898 0.0000
# 2 2.9153 73.8476 15.7139 0.0000 10.1661 0.0000
# 3 13.9912 15.7139 108.7629 0.0000 11.7210 0.0000
# 4 0.0000 0.0000 0.0000 21.2355 0.0000 -3.2972
# 5 10.7898 10.1661 11.7210 0.0000 37.8624 0.0000
# 6 0.0000 0.0000 0.0000 -3.2972 0.0000 22.5164
#
#
#
# Elastic Compliance Matrix: (Units=1/GPa)
#
#
# Indices 1 2 3 4 5 6 
#
# 1 0.013866 0.000250 -0.001435 0.000000 -0.003574 0.000000
# 2 0.000250 0.014369 -0.001743 0.000000 -0.003390 0.000000
# 3 -0.001435 -0.001743 0.009865 0.000000 -0.002177 0.000000
# 4 0.000000 0.000000 0.000000 0.048187 0.000000 0.007056
# 5 -0.003574 -0.003390 -0.002177 0.000000 0.029014 0.000000
# 6 0.000000 0.000000 0.000000 0.007056 0.000000 0.045445
#
#
# Mechanical properties :
#
#
# Convention : Reuss Voigt Hill
#
# Bulk Modulus (GPa) = 31.01224 36.01623 33.51424
# Shear Modulus (GPa) = 28.19283 31.40853 29.80068
#
# Velocity S-wave (km/s) = 3.67765 3.88173 3.78107
# Velocity P-wave (km/s) = 5.73683 6.11300 5.92790
#
# Compressibility (1/GPa) = 0.03224533
#
# Stress axis : x y z
#
# Youngs Moduli (GPa) = 72.11854 69.59406 101.36545
#
# Poissons Ratio (x) = -0.01740 0.14542
# Poissons Ratio (y) = -0.01803 0.17667
# Poissons Ratio (z) = 0.10346 0.12129
#
# Static dielectric constant tensor:
#      x y z
#    x 3.874630 0.000000 -0.015610 
#    y 0.000000 3.435670 0.000000 
#    z -0.015610 0.000000 4.073810 
# 
# 
# High freq. dielectric constant tensor:
#      x y z
#    x 1.827850 0.000000 0.000600 
#    y 0.000000 1.788510 0.000000 
#    z 0.000600 0.000000 1.838120 
# 
# From -- ./inp_files/372026.got.cif
#   From: 2010.06.25/outbox.cif.g09.slc.cpg/sg12_187_cif.got.tgz:372026.got - 2010.06.28 00:19:55.
