data_PCOD8097531
_publ_section_title
;
Structure prediction by ZEFSAII (Michael W. Deem and Ramdas Pophale) SiO2 
 PCOD8097531
Probable space group: C 2/M
;
_chemical_formula_sum "Si O2"
_cell_formula_units_Z 64
_cell_length_a 29.837682
_cell_length_b 8.657375
_cell_length_c 15.032823
_cell_angle_alpha 90.000000
_cell_angle_beta 78.446239
_cell_angle_gamma 90.000000
_cell_volume 3804.533874
_symmetry_space_group_name_H-M "C 2/M"
_symmetry_group_IT_number 12
_symmetry_cell_setting 'monoclinic'
loop_
_space_group_symop_operation_xyz
x,y,z
-x,y,-z
-x,-y,-z
x,-y,z
1/2+x,1/2+y,z
1/2-x,1/2+y,-z
1/2-x,1/2-y,-z
1/2+x,1/2-y,z
loop_
_atom_site_type_symbol
_atom_site_label
_atom_site_fract_x
_atom_site_fract_y
_atom_site_fract_z
Si Si1 0.456894 0.679698 0.197399
Si Si2 0.394277 0.820696 0.076834
Si Si3 0.620861 0.820174 0.242311
Si Si4 0.706884 0.320870 0.130960
Si Si5 0.061894 0.821713 0.111243
Si Si6 0.531446 0.682039 0.610962
Si Si7 0.566727 0.682721 0.412507
Si Si8 0.300991 0.679168 0.071160
O O1 0.443705 0.500000 0.193074
O O2 0.423695 0.782114 0.151549
O O3 0.508584 0.707488 0.146353
O O4 0.450606 0.741625 0.301018
O O5 0.347164 0.726709 0.102343
O O6 0.382310 0.000000 0.079457
O O7 0.422526 0.779315 0.977883
O O8 0.673822 0.777744 0.207252
O O9 0.589089 0.723144 0.188646
O O10 0.607811 0.773294 0.348260
O O11 0.613103 0.000000 0.228739
O O12 0.700182 0.500000 0.154822
O O13 0.759010 0.273731 0.129961
O O14 0.693558 0.280484 0.034939
O O15 0.072458 0.000000 0.085500
O O16 0.525729 0.500000 0.617870
O O17 0.566568 0.726426 0.517780
O O18 0.480730 0.745273 0.610680
O O19 0.573010 0.500000 0.396433
O O20 0.290771 0.500000 0.089545
#
# Coordination Sequence:
#
# PCOD8097531 Si02
#       8
#     8   8   8   8   8   8   8   8
#     4  10  20  35  53  72  97 135 180 216 251 296
#     4  12  24  35  49  72 104 138 173 211 252 298
#     4  12  22  31  48  76 108 138 167 204 253 306
#     4  10  20  34  54  75 100 131 166 207 254 301
#     4  11  21  35  52  70  97 137 180 216 248 292
#     4   8  15  30  53  75  95 128 173 216 252 296
#     4   9  16  31  53  74  98 130 170 211 254 302
#     4  10  20  35  54  74  99 131 168 209 252 297
#
# _framework density 16.822035
#
# number of rings (size 3 to 8) (size 9 to 14) (size 15 to 20)
#    0.000    1.750    2.500    4.500    0.000    3.500 
#    0.000    1.875    0.000    0.000    0.000    0.875 
#    0.000    0.000    0.000    0.000    0.000    0.000 
#
# Total GULP energy -396863.749747 kJ/mol
# GULP energy per Si atom -12401.992180 kJ/mol
# Density = 1.678375 g / cm^3
# Si number density = 16.822035 Si / 1000 Ang^3
#
#
#
# Elastic Constant Matrix: (Units=GPa)
#
#
# Indices 1 2 3 4 5 6 
#
# 1 78.5197 22.6547 40.6961 0.0000 -8.1738 0.0000
# 2 22.6547 47.8625 23.1448 0.0000 -6.3327 0.0000
# 3 40.6961 23.1448 87.9037 0.0000 -7.6243 0.0000
# 4 0.0000 0.0000 0.0000 18.3950 0.0000 -3.1498
# 5 -8.1738 -6.3327 -7.6243 0.0000 22.5389 0.0000
# 6 0.0000 0.0000 0.0000 -3.1498 0.0000 25.7013
#
#
#
# Elastic Compliance Matrix: (Units=1/GPa)
#
#
# Indices 1 2 3 4 5 6 
#
# 1 0.017946 -0.004834 -0.006788 0.000000 0.002854 0.000000
# 2 -0.004834 0.025744 -0.004188 0.000000 0.004064 0.000000
# 3 -0.006788 -0.004188 0.015768 0.000000 0.001696 0.000000
# 4 0.000000 0.000000 0.000000 0.055528 0.000000 0.006805
# 5 0.002854 0.004064 0.001696 0.000000 0.047118 0.000000
# 6 0.000000 0.000000 0.000000 0.006805 0.000000 0.039743
#
#
# Mechanical properties :
#
#
# Convention : Reuss Voigt Hill
#
# Bulk Modulus (GPa) = 35.92175 43.03079 39.47627
# Shear Modulus (GPa) = 20.59771 21.84638 21.22204
#
# Velocity S-wave (km/s) = 3.50301 3.60763 3.55570
# Velocity P-wave (km/s) = 6.14506 6.55659 6.35416
#
# Compressibility (1/GPa) = 0.02783829
#
# Stress axis : x y z
#
# Youngs Moduli (GPa) = 55.72419 38.84387 63.41842
#
# Poissons Ratio (x) = 0.18778 0.43047
# Poissons Ratio (y) = 0.26938 0.26559
# Poissons Ratio (z) = 0.37824 0.16267
#
# Static dielectric constant tensor:
#      x y z
#    x 3.068620 0.000000 -0.070200 
#    y 0.000000 3.042600 0.000000 
#    z -0.070200 0.000000 3.323260 
# 
# 
# High freq. dielectric constant tensor:
#      x y z
#    x 1.630630 0.000000 -0.013270 
#    y 0.000000 1.645490 0.000000 
#    z -0.013270 0.000000 1.636640 
# 
# From -- ./inp_files/244003.got.cif
#   From: 2010.06.25/outbox.cif.g09.slc.cpg/sg12_123_cif.got.tgz:244003.got - 2010.06.28 00:19:55.
