data_PCOD8097747
_publ_section_title
;
Structure prediction by ZEFSAII (Michael W. Deem and Ramdas Pophale) SiO2 
 PCOD8097747
Probable space group: C 2/M
;
_chemical_formula_sum "Si O2"
_cell_formula_units_Z 64
_cell_length_a 32.948721
_cell_length_b 8.841312
_cell_length_c 20.629187
_cell_angle_alpha 90.000000
_cell_angle_beta 32.947971
_cell_angle_gamma 90.000000
_cell_volume 3268.423086
_symmetry_space_group_name_H-M "C 2/M"
_symmetry_group_IT_number 12
_symmetry_cell_setting 'monoclinic'
loop_
_space_group_symop_operation_xyz
x,y,z
-x,y,-z
-x,-y,-z
x,-y,z
1/2+x,1/2+y,z
1/2-x,1/2+y,-z
1/2-x,1/2-y,-z
1/2+x,1/2-y,z
loop_
_atom_site_type_symbol
_atom_site_label
_atom_site_fract_x
_atom_site_fract_y
_atom_site_fract_z
Si Si1 0.175792 0.679255 0.413917
Si Si2 0.146403 0.326959 0.158366
Si Si3 0.513152 0.173843 0.658846
Si Si4 0.450515 0.320222 0.005610
Si Si5 0.698401 0.821782 0.834684
Si Si6 0.696907 0.324920 0.519855
Si Si7 0.717474 0.674014 0.942845
Si Si8 0.973696 0.827045 0.227019
O O1 0.183335 0.500000 0.396612
O O2 0.089388 0.737720 0.524574
O O3 0.222217 0.757066 0.294790
O O4 0.208663 0.733000 0.438166
O O5 0.159238 0.500000 0.117753
O O6 0.194682 0.296941 0.158604
O O7 0.058444 0.299473 0.291815
O O8 0.170753 0.213726 0.069281
O O9 0.493001 0.244799 0.755175
O O10 0.528537 0.000000 0.652368
O O11 0.441998 0.500000 0.018631
O O12 0.368353 0.247456 0.119028
O O13 0.500000 0.264259 0.000000
O O14 0.490705 0.261233 0.886406
O O15 0.689503 0.777058 0.921654
O O16 0.697137 0.000000 0.828606
O O17 0.717049 0.500000 0.480944
O O18 0.750000 0.250000 0.500000
O O19 0.614569 0.305554 0.658590
O O20 0.702875 0.500000 0.943722
O O21 0.996888 0.000000 0.203289
#
# Coordination Sequence:
#
# PCOD8097747 Si02
#       8
#     8   8   8   8   8   8   8   8
#     4  10  21  38  58  79 106 146 190 232 284 340
#     4   9  18  34  58  88 119 145 183 236 281 328
#     4   9  18  34  57  83 108 141 182 231 282 327
#     4  10  22  39  59  82 109 146 186 227 277 336
#     4  12  25  40  57  80 114 151 188 233 281 336
#     4  10  20  34  54  81 109 141 182 229 278 327
#     4  10  20  35  57  86 117 154 189 223 278 339
#     4   9  19  34  52  78 109 141 179 221 270 328
#
# _framework density 19.581309000000001
#
# number of rings (size 3 to 8) (size 9 to 14) (size 15 to 20)
#    0.000    2.125    0.000    3.000    1.750    4.750 
#    0.000    0.625    0.000    3.750    0.000    0.000 
#    0.000    0.000    0.000    0.000    0.000    0.000 
#
# Total GULP energy -396798.369058 kJ/mol
# GULP energy per Si atom -12399.949033 kJ/mol
# Density = 1.953674 g / cm^3
# Si number density = 19.581309 Si / 1000 Ang^3
#
#
#
# Elastic Constant Matrix: (Units=GPa)
#
#
# Indices 1 2 3 4 5 6 
#
# 1 104.9312 31.7163 26.1688 0.0019 -22.0526 0.0000
# 2 31.7163 65.9789 25.8066 0.0298 -6.9015 0.0009
# 3 26.1688 25.8066 72.9308 0.0122 -5.0107 0.0076
# 4 0.0019 0.0298 0.0122 27.5594 0.0013 2.5577
# 5 -22.0526 -6.9015 -5.0107 0.0013 26.7565 -0.0053
# 6 0.0000 0.0009 0.0076 2.5577 -0.0053 25.6920
#
#
#
# Elastic Compliance Matrix: (Units=1/GPa)
#
#
# Indices 1 2 3 4 5 6 
#
# 1 0.013538 -0.004490 -0.002616 0.000004 0.009510 0.000002
# 2 -0.004490 0.019394 -0.005229 -0.000019 0.000322 0.000003
# 3 -0.002616 -0.005229 0.016472 -0.000001 -0.000420 -0.000005
# 4 0.000004 -0.000019 -0.000001 0.036624 -0.000004 -0.003646
# 5 0.009510 0.000322 -0.000420 -0.000004 0.045217 0.000010
# 6 0.000002 0.000003 -0.000005 -0.003646 0.000010 0.039286
#
#
# Mechanical properties :
#
#
# Convention : Reuss Voigt Hill
#
# Bulk Modulus (GPa) = 40.43019 45.69157 43.06088
# Shear Modulus (GPa) = 24.57677 26.67818 25.62747
#
# Velocity S-wave (km/s) = 3.54660 3.69512 3.62162
# Velocity P-wave (km/s) = 6.12073 6.44904 6.28703
#
# Compressibility (1/GPa) = 0.02473399
#
# Stress axis : x y z
#
# Youngs Moduli (GPa) = 73.86518 51.56284 60.71035
#
# Poissons Ratio (x) = 0.23152 0.15879
# Poissons Ratio (y) = 0.33166 0.31747
# Poissons Ratio (z) = 0.19320 0.26963
#
# Static dielectric constant tensor:
#      x y z
#    x 3.668420 -0.000040 -0.219630 
#    y -0.000040 3.543000 0.000030 
#    z -0.219630 0.000030 3.662470 
# 
# 
# High freq. dielectric constant tensor:
#      x y z
#    x 1.763590 0.000000 -0.019250 
#    y 0.000000 1.760350 0.000000 
#    z -0.019250 0.000000 1.756690 
# 
# From -- ./inp_files/295461.got.cif
#   From: 2010.06.25/outbox.cif.g09.slc.cpg/sg12_148_cif.got.tgz:295461.got - 2010.06.28 00:19:55.
