data_PCOD8097361
_publ_section_title
;
Structure prediction by ZEFSAII (Michael W. Deem and Ramdas Pophale) SiO2 
 PCOD8097361
Probable space group: C 2/M
;
_chemical_formula_sum "Si O2"
_cell_formula_units_Z 64
_cell_length_a 20.530918
_cell_length_b 9.402995
_cell_length_c 31.249665
_cell_angle_alpha 90.000000
_cell_angle_beta 145.238538
_cell_angle_gamma 90.000000
_cell_volume 3439.676027
_symmetry_space_group_name_H-M "C 2/M"
_symmetry_group_IT_number 12
_symmetry_cell_setting 'monoclinic'
loop_
_space_group_symop_operation_xyz
x,y,z
-x,y,-z
-x,-y,-z
x,-y,z
1/2+x,1/2+y,z
1/2-x,1/2+y,-z
1/2-x,1/2-y,-z
1/2+x,1/2-y,z
loop_
_atom_site_type_symbol
_atom_site_label
_atom_site_fract_x
_atom_site_fract_y
_atom_site_fract_z
Si Si1 0.432445 0.167810 0.706418
Si Si2 0.921436 0.163042 0.786581
Si Si3 0.665760 0.169158 0.789434
Si Si4 0.684856 0.164529 0.703185
Si Si5 0.884321 0.830936 0.958088
Si Si6 0.495005 0.333596 0.448213
Si Si7 0.857310 0.167158 0.040433
Si Si8 0.733783 0.666131 0.534571
O O1 0.406706 0.239893 0.737450
O O2 0.551817 0.223916 0.751497
O O3 0.332515 0.212701 0.620350
O O4 0.434971 0.000000 0.715393
O O5 0.816404 0.186353 0.761942
O O6 0.034098 0.209313 0.872716
O O7 0.928800 0.000000 0.775518
O O8 0.667037 0.224949 0.741432
O O9 0.775117 0.231019 0.873683
O O10 0.669658 0.000000 0.791343
O O11 0.607539 0.251276 0.629052
O O12 0.648711 0.000000 0.681023
O O13 0.884771 0.000000 0.955034
O O14 0.879392 0.780603 0.004237
O O15 0.000000 0.768285 0.000000
O O16 0.500000 0.285386 0.500000
O O17 0.469244 0.500000 0.430536
O O18 0.613270 0.291421 0.489846
O O19 0.831912 0.000000 0.028196
O O20 0.750000 0.250000 0.000000
O O21 0.741434 0.500000 0.528408
O O22 0.750000 0.750000 0.500000
#
# Coordination Sequence:
#
# PCOD8097361 Si02
#       8
#     8   8   8   8   8   8   8   8
#     4  10  20  35  55  77 102 136 176 213 254 311
#     4  10  21  35  52  78 109 137 169 215 265 307
#     4   9  17  30  50  75 100 129 169 212 250 295
#     4  10  20  35  55  78 104 134 171 216 262 306
#     4   9  16  28  49  75 101 131 168 209 251 296
#     4  10  21  37  55  76 104 137 173 213 258 310
#     4  10  20  34  53  78 107 138 173 213 258 308
#     4  10  21  36  55  79 106 137 174 218 265 312
#
# _framework density 18.606403
#
# number of rings (size 3 to 8) (size 9 to 14) (size 15 to 20)
#    0.000    2.250    0.000    3.000    0.000    8.250 
#    0.000    0.625    0.000    1.125    0.000    0.000 
#    0.000    0.000    0.000    0.000    0.000    0.000 
#
# Total GULP energy -396904.425923 kJ/mol
# GULP energy per Si atom -12403.263310 kJ/mol
# Density = 1.856405 g / cm^3
# Si number density = 18.606403 Si / 1000 Ang^3
#
#
#
# Elastic Constant Matrix: (Units=GPa)
#
#
# Indices 1 2 3 4 5 6 
#
# 1 114.6925 31.2175 38.3002 0.0000 -9.7439 0.0000
# 2 31.2175 29.6863 35.2442 -0.0001 -5.2604 -0.0001
# 3 38.3002 35.2442 129.9981 0.0000 -3.5224 0.0000
# 4 0.0000 -0.0001 0.0000 18.7149 0.0000 0.5443
# 5 -9.7439 -5.2604 -3.5224 0.0000 41.3090 0.0000
# 6 0.0000 -0.0001 0.0000 0.5443 0.0000 28.8622
#
#
#
# Elastic Compliance Matrix: (Units=1/GPa)
#
#
# Indices 1 2 3 4 5 6 
#
# 1 0.012285 -0.012437 -0.000213 0.000000 0.001296 0.000000
# 2 -0.012437 0.063400 -0.013416 0.000000 0.003996 0.000000
# 3 -0.000213 -0.013416 0.011371 0.000000 -0.000789 0.000000
# 4 0.000000 0.000000 0.000000 0.053463 0.000000 -0.001008
# 5 0.001296 0.003996 -0.000789 0.000000 0.024955 0.000000
# 6 0.000000 0.000000 0.000000 -0.001008 0.000000 0.034666
#
#
# Mechanical properties :
#
#
# Convention : Reuss Voigt Hill
#
# Bulk Modulus (GPa) = 28.63279 53.76674 41.19976
# Shear Modulus (GPa) = 18.94565 29.08490 24.01527
#
# Velocity S-wave (km/s) = 3.19444 3.95798 3.59653
# Velocity P-wave (km/s) = 5.38776 7.06025 6.27993
#
# Compressibility (1/GPa) = 0.03492500
#
# Stress axis : x y z
#
# Youngs Moduli (GPa) = 81.39907 15.77288 87.94328
#
# Poissons Ratio (x) = 0.19616 0.01869
# Poissons Ratio (y) = 1.01235 1.17986
# Poissons Ratio (z) = 0.01730 0.21161
#
# Static dielectric constant tensor:
#      x y z
#    x 3.534360 0.000000 0.100490 
#    y 0.000000 3.075160 0.000000 
#    z 0.100490 0.000000 3.540480 
# 
# 
# High freq. dielectric constant tensor:
#      x y z
#    x 1.740740 0.000000 0.001990 
#    y 0.000000 1.684170 0.000000 
#    z 0.001990 0.000000 1.741040 
# 
# From -- ./inp_files/378330.got.cif
#   From: 2010.06.25/outbox.cif.g09.slc.cpg/sg12_190_cif.got.tgz:378330.got - 2010.06.28 00:19:55.
