data_PCOD8097066
_publ_section_title
;
Structure prediction by ZEFSAII (Michael W. Deem and Ramdas Pophale) SiO2 
 PCOD8097066
Probable space group: C 2/M
;
_chemical_formula_sum "Si O2"
_cell_formula_units_Z 48
_cell_length_a 30.291094
_cell_length_b 8.939556
_cell_length_c 17.986204
_cell_angle_alpha 90.000000
_cell_angle_beta 148.169959
_cell_angle_gamma 90.000000
_cell_volume 2568.689715
_symmetry_space_group_name_H-M "C 2/M"
_symmetry_group_IT_number 12
_symmetry_cell_setting 'monoclinic'
loop_
_space_group_symop_operation_xyz
x,y,z
-x,y,-z
-x,-y,-z
x,-y,z
1/2+x,1/2+y,z
1/2-x,1/2+y,-z
1/2-x,1/2-y,-z
1/2+x,1/2-y,z
loop_
_atom_site_type_symbol
_atom_site_label
_atom_site_fract_x
_atom_site_fract_y
_atom_site_fract_z
Si Si1 0.867527 0.672493 0.631162
Si Si2 0.035673 0.322446 0.663396
Si Si3 0.221592 0.674135 0.344634
Si Si4 0.945296 0.675682 0.143133
Si Si5 0.303517 0.322500 0.843858
Si Si6 0.372503 0.177741 0.348706
O O1 0.850048 0.500000 0.586460
O O2 0.840653 0.710411 0.676543
O O3 0.814711 0.769366 0.497014
O O4 0.964383 0.712324 0.761807
O O5 0.030798 0.500000 0.658414
O O6 0.058381 0.263215 0.777563
O O7 0.105824 0.268879 0.704429
O O8 0.944386 0.262052 0.507462
O O9 0.225419 0.500000 0.331761
O O10 0.183889 0.759788 0.220518
O O11 0.924951 0.500000 0.108987
O O12 0.878656 0.768522 0.002174
O O13 0.303131 0.500000 0.840093
O O14 0.216982 0.257836 0.754404
O O15 0.370748 0.000000 0.348606
#
# Coordination Sequence:
#
# PCOD8097066 Si02
#       6
#     8   8   8   8   8   8
#     4   9  19  36  57  79 102 130 166 210 257 303
#     4   8  14  28  52  76  96 125 168 212 253 301
#     4  10  20  35  56  79 102 130 168 212 255 302
#     4  10  20  34  52  75 104 137 171 207 252 304
#     4  11  22  34  49  73 107 141 172 208 251 298
#     4   8  15  29  50  75  99 127 167 212 254 297
#
# _framework density 18.686568999999999
#
# number of rings (size 3 to 8) (size 9 to 14) (size 15 to 20)
#    0.000    2.667    0.000    3.000    0.000    5.333 
#    0.000    3.333    0.000    1.000    0.000    7.000 
#    0.000    0.000    0.000    0.000    0.000    0.000 
#
# Total GULP energy -297585.095040 kJ/mol
# GULP energy per Si atom -12399.378960 kJ/mol
# Density = 1.864404 g / cm^3
# Si number density = 18.686569 Si / 1000 Ang^3
#
#
#
# Elastic Constant Matrix: (Units=GPa)
#
#
# Indices 1 2 3 4 5 6 
#
# 1 115.9398 36.8051 76.4232 0.0000 -17.7626 0.0000
# 2 36.8051 49.1015 43.2870 0.0000 -8.7299 0.0000
# 3 76.4232 43.2870 132.6649 0.0000 -21.6736 0.0000
# 4 0.0000 0.0000 0.0000 32.0133 0.0000 -1.4906
# 5 -17.7626 -8.7299 -21.6736 0.0000 26.4857 0.0000
# 6 0.0000 0.0000 0.0000 -1.4906 0.0000 15.9786
#
#
#
# Elastic Compliance Matrix: (Units=1/GPa)
#
#
# Indices 1 2 3 4 5 6 
#
# 1 0.014944 -0.004925 -0.006498 0.000000 0.003081 0.000000
# 2 -0.004925 0.030311 -0.006880 0.000000 0.001058 0.000000
# 3 -0.006498 -0.006880 0.014364 0.000000 0.005128 0.000000
# 4 0.000000 0.000000 0.000000 0.031373 0.000000 0.002927
# 5 0.003081 0.001058 0.005128 0.000000 0.044368 0.000000
# 6 0.000000 0.000000 0.000000 0.002927 0.000000 0.062857
#
#
# Mechanical properties :
#
#
# Convention : Reuss Voigt Hill
#
# Bulk Modulus (GPa) = 43.45563 67.85965 55.65764
# Shear Modulus (GPa) = 20.61896 24.30827 22.46362
#
# Velocity S-wave (km/s) = 3.32537 3.61063 3.47093
# Velocity P-wave (km/s) = 6.16843 7.33319 6.77589
#
# Compressibility (1/GPa) = 0.02301198
#
# Stress axis : x y z
#
# Youngs Moduli (GPa) = 66.91561 32.99112 69.61814
#
# Poissons Ratio (x) = 0.16248 0.45241
# Poissons Ratio (y) = 0.32956 0.47899
# Poissons Ratio (z) = 0.43485 0.22699
#
# Static dielectric constant tensor:
#      x y z
#    x 3.823210 0.000000 -0.009400 
#    y 0.000000 3.090230 0.000000 
#    z -0.009400 0.000000 3.426600 
# 
# 
# High freq. dielectric constant tensor:
#      x y z
#    x 1.741390 0.000000 -0.002780 
#    y 0.000000 1.690800 0.000000 
#    z -0.002780 0.000000 1.722770 
# 
# From -- ./inp_files/274030.got.cif
#   From: 2010.06.25/outbox.cif.g09.slc.cpg/sg12_138_cif.got.tgz:274030.got - 2010.06.28 00:19:55.
