data_PCOD8097131
_publ_section_title
;
Structure prediction by ZEFSAII (Michael W. Deem and Ramdas Pophale) SiO2 
 PCOD8097131
Probable space group: C 2/M
;
_chemical_formula_sum "Si O2"
_cell_formula_units_Z 64
_cell_length_a 22.677912
_cell_length_b 13.086194
_cell_length_c 11.913289
_cell_angle_alpha 90.000000
_cell_angle_beta 89.999955
_cell_angle_gamma 90.000000
_cell_volume 3535.477660
_symmetry_space_group_name_H-M "C 2/M"
_symmetry_group_IT_number 12
_symmetry_cell_setting 'monoclinic'
loop_
_space_group_symop_operation_xyz
x,y,z
-x,y,-z
-x,-y,-z
x,-y,z
1/2+x,1/2+y,z
1/2-x,1/2+y,-z
1/2-x,1/2-y,-z
1/2+x,1/2-y,z
loop_
_atom_site_type_symbol
_atom_site_label
_atom_site_fract_x
_atom_site_fract_y
_atom_site_fract_z
Si Si1 0.157753 0.618749 0.131920
Si Si2 0.930332 0.729688 0.721970
Si Si3 0.651365 0.383753 0.369695
Si Si4 0.430188 0.887121 0.500000
Si Si5 0.848636 0.883753 0.369695
Si Si6 0.842248 0.618749 0.131919
Si Si7 0.250000 0.750000 0.733862
Si Si8 0.069667 0.270312 0.721971
O O1 0.157831 0.500000 0.165609
O O2 0.096485 0.670280 0.171870
O O3 0.212902 0.674315 0.188148
O O4 0.162523 0.633986 0.000000
O O5 0.902965 0.842717 0.706850
O O6 0.908630 0.669868 0.610999
O O7 1.000000 0.736827 0.737055
O O8 0.663124 0.500000 0.333374
O O9 0.634044 0.376428 0.500000
O O10 0.709414 0.317753 0.346543
O O11 0.500000 0.893247 0.500000
O O12 0.408630 0.830134 0.388999
O O13 0.402113 0.000000 0.500001
O O14 0.790586 0.817754 0.346543
O O15 0.902966 0.842717 0.293150
O O16 0.836878 0.000000 0.333374
O O17 0.842172 0.500000 0.165608
O O18 0.787099 0.674314 0.188150
O O19 0.903516 0.670281 0.171867
#
# Coordination Sequence:
#
# PCOD8097131 Si02
#       8
#     8   8   8   8   8   8   8   8
#     4  10  21  36  55  79 106 140 182 225 268 314
#     4  10  20  34  52  77 109 140 176 217 262 315
#     4  10  20  34  54  80 110 142 177 217 264 320
#     4   9  16  28  47  70  99 134 168 205 252 306
#     4  10  20  34  54  80 110 142 177 217 264 320
#     4  10  21  36  55  79 106 140 182 225 268 314
#     4  10  20  36  56  78 106 139 179 222 274 316
#     4  10  20  34  52  77 109 140 176 217 262 315
#
# _framework density 18.102222999999999
#
# number of rings (size 3 to 8) (size 9 to 14) (size 15 to 20)
#    0.000    2.125    1.250    2.250    0.000    2.500 
#    0.000    2.500    0.000    6.750    0.000    7.000 
#    0.000    0.000    0.000    0.000    0.000    0.000 
#
# Total GULP energy -396834.548130 kJ/mol
# GULP energy per Si atom -12401.079629 kJ/mol
# Density = 1.806102 g / cm^3
# Si number density = 18.102223 Si / 1000 Ang^3
#
#
#
# Elastic Constant Matrix: (Units=GPa)
#
#
# Indices 1 2 3 4 5 6 
#
# 1 111.7212 50.8248 20.4632 0.0000 0.0003 0.0000
# 2 50.8248 136.3473 35.9025 0.0000 0.0005 0.0000
# 3 20.4632 35.9025 54.2168 0.0000 0.0000 0.0000
# 4 0.0000 0.0000 0.0000 28.6849 0.0000 0.0002
# 5 0.0003 0.0005 0.0000 0.0000 23.2258 0.0000
# 6 0.0000 0.0000 0.0000 0.0002 0.0000 20.7174
#
#
#
# Elastic Compliance Matrix: (Units=1/GPa)
#
#
# Indices 1 2 3 4 5 6 
#
# 1 0.010910 -0.003613 -0.001726 0.000000 0.000000 0.000000
# 2 -0.003613 0.010079 -0.005311 0.000000 0.000000 0.000000
# 3 -0.001726 -0.005311 0.022613 0.000000 0.000000 0.000000
# 4 0.000000 0.000000 0.000000 0.034862 0.000000 0.000000
# 5 0.000000 0.000000 0.000000 0.000000 0.043056 0.000000
# 6 0.000000 0.000000 0.000000 0.000000 0.000000 0.048269
#
#
# Mechanical properties :
#
#
# Convention : Reuss Voigt Hill
#
# Bulk Modulus (GPa) = 44.83524 57.40737 51.12130
# Shear Modulus (GPa) = 25.18620 27.53194 26.35907
#
# Velocity S-wave (km/s) = 3.73410 3.90412 3.82006
# Velocity P-wave (km/s) = 6.58885 7.21835 6.91077
#
# Compressibility (1/GPa) = 0.02230389
#
# Stress axis : x y z
#
# Youngs Moduli (GPa) = 91.65591 99.21317 44.22280
#
# Poissons Ratio (x) = 0.35841 0.07632
# Poissons Ratio (y) = 0.33111 0.23487
# Poissons Ratio (z) = 0.15817 0.52693
#
# Static dielectric constant tensor:
#      x y z
#    x 3.216340 0.000000 0.000000 
#    y 0.000000 3.581060 0.000000 
#    z 0.000000 0.000000 3.227160 
# 
# 
# High freq. dielectric constant tensor:
#      x y z
#    x 1.698720 0.000000 0.000000 
#    y 0.000000 1.713210 0.000000 
#    z 0.000000 0.000000 1.693040 
# 
# From -- ./inp_files/174676.got.cif
#   From: 2010.06.25/outbox.cif.g09.slc.cpg/sg12_88_cif.got.tgz:174676.got - 2010.06.28 00:19:55.
