data_PCOD8097750
_publ_section_title
;
Structure prediction by ZEFSAII (Michael W. Deem and Ramdas Pophale) SiO2 
 PCOD8097750
Probable space group: C 2/M
;
_chemical_formula_sum "Si O2"
_cell_formula_units_Z 56
_cell_length_a 18.115952
_cell_length_b 9.140731
_cell_length_c 25.361786
_cell_angle_alpha 90.000000
_cell_angle_beta 43.750426
_cell_angle_gamma 90.000000
_cell_volume 2904.194379
_symmetry_space_group_name_H-M "C 2/M"
_symmetry_group_IT_number 12
_symmetry_cell_setting 'monoclinic'
loop_
_space_group_symop_operation_xyz
x,y,z
-x,y,-z
-x,-y,-z
x,-y,z
1/2+x,1/2+y,z
1/2-x,1/2+y,-z
1/2-x,1/2-y,-z
1/2+x,1/2-y,z
loop_
_atom_site_type_symbol
_atom_site_label
_atom_site_fract_x
_atom_site_fract_y
_atom_site_fract_z
Si Si1 0.431217 0.673058 0.485602
Si Si2 0.848659 0.671452 0.226336
Si Si3 0.092902 0.667747 0.090618
Si Si4 0.016535 0.668755 0.646373
Si Si5 0.776782 0.668860 0.798295
Si Si6 0.304707 0.826376 0.366616
Si Si7 0.752399 0.169898 0.915987
O O1 0.500000 0.724321 0.500000
O O2 0.434479 0.500000 0.477446
O O3 0.484055 0.742429 0.407204
O O4 0.310585 0.730755 0.555178
O O5 0.822023 0.500000 0.235377
O O6 0.769318 0.759973 0.230449
O O7 0.829926 0.730790 0.295060
O O8 0.969380 0.705513 0.146796
O O9 0.108778 0.500000 0.100455
O O10 0.141423 0.767850 0.111398
O O11 0.150190 0.698506 0.005605
O O12 0.039419 0.500000 0.621305
O O13 0.106694 0.734373 0.638711
O O14 0.903979 0.688439 0.733348
O O15 0.743308 0.500000 0.817455
O O16 0.727888 0.748937 0.874198
O O17 0.309099 0.000000 0.363615
O O18 0.770491 0.000000 0.895146
#
# Coordination Sequence:
#
# PCOD8097750 Si02
#       7
#     8   8   8   8   8   8   8
#     4  10  20  34  54  81 110 137 171 217 266 318
#     4  10  20  37  59  79 106 144 182 221 271 328
#     4   9  19  36  58  83 110 142 180 223 270 322
#     4  10  21  37  56  77 104 141 181 219 265 320
#     4  11  23  37  53  77 110 144 183 230 275 319
#     4   9  18  34  56  79 104 138 177 217 266 323
#     4  10  20  35  57  83 110 143 183 222 266 324
#
# _framework density 19.282457000000001
#
# number of rings (size 3 to 8) (size 9 to 14) (size 15 to 20)
#    0.000    2.143    0.000    3.000    0.000    6.571 
#    0.000    4.286    0.000    0.000    0.000    0.000 
#    0.000    0.000    0.000    0.000    0.000    0.000 
#
# Total GULP energy -347333.211020 kJ/mol
# GULP energy per Si atom -12404.757536 kJ/mol
# Density = 1.923857 g / cm^3
# Si number density = 19.282457 Si / 1000 Ang^3
#
#
#
# Elastic Constant Matrix: (Units=GPa)
#
#
# Indices 1 2 3 4 5 6 
#
# 1 113.2638 40.7101 29.2518 0.0000 15.2559 0.0001
# 2 40.7101 64.3189 29.7763 0.0000 9.8192 0.0002
# 3 29.2518 29.7763 75.2451 0.0000 10.9837 0.0000
# 4 0.0000 0.0000 0.0000 25.7643 0.0000 2.6988
# 5 15.2559 9.8192 10.9837 0.0000 38.4474 0.0000
# 6 0.0001 0.0002 0.0000 2.6988 0.0000 33.4571
#
#
#
# Elastic Compliance Matrix: (Units=1/GPa)
#
#
# Indices 1 2 3 4 5 6 
#
# 1 0.011906 -0.006331 -0.001742 0.000000 -0.002610 0.000000
# 2 -0.006331 0.022700 -0.006305 0.000000 -0.001484 0.000000
# 3 -0.001742 -0.006305 0.016828 0.000000 -0.002506 0.000000
# 4 0.000000 0.000000 0.000000 0.039144 0.000000 -0.003158
# 5 -0.002610 -0.001484 -0.002506 0.000000 0.028140 0.000000
# 6 0.000000 0.000000 0.000000 -0.003158 0.000000 0.030144
#
#
# Mechanical properties :
#
#
# Convention : Reuss Voigt Hill
#
# Bulk Modulus (GPa) = 44.09642 50.25603 47.17623
# Shear Modulus (GPa) = 27.00109 29.73973 28.37041
#
# Velocity S-wave (km/s) = 3.74611 3.93150 3.83992
# Velocity P-wave (km/s) = 6.45209 6.83583 6.64673
#
# Compressibility (1/GPa) = 0.02267758
#
# Stress axis : x y z
#
# Youngs Moduli (GPa) = 83.99228 44.05267 59.42420
#
# Poissons Ratio (x) = 0.27889 0.10353
# Poissons Ratio (y) = 0.53173 0.37469
# Poissons Ratio (z) = 0.14634 0.27776
#
# Static dielectric constant tensor:
#      x y z
#    x 3.562140 0.000000 -0.040350 
#    y 0.000000 3.353620 0.000000 
#    z -0.040350 0.000000 3.601580 
# 
# 
# High freq. dielectric constant tensor:
#      x y z
#    x 1.757700 0.000000 0.001860 
#    y 0.000000 1.731880 0.000000 
#    z 0.001860 0.000000 1.761490 
# 
# From -- ./inp_files/342312.got.cif
#   From: 2010.06.25/outbox.cif.g09.slc.cpg/sg12_172_cif.got.tgz:342312.got - 2010.06.28 00:19:55.
