data_PCOD8097399
_publ_section_title
;
Structure prediction by ZEFSAII (Michael W. Deem and Ramdas Pophale) SiO2 
 PCOD8097399
Probable space group: C 2/M
;
_chemical_formula_sum "Si O2"
_cell_formula_units_Z 56
_cell_length_a 18.887674
_cell_length_b 8.766239
_cell_length_c 26.020056
_cell_angle_alpha 90.000000
_cell_angle_beta 140.202394
_cell_angle_gamma 90.000000
_cell_volume 2757.608693
_symmetry_space_group_name_H-M "C 2/M"
_symmetry_group_IT_number 12
_symmetry_cell_setting 'monoclinic'
loop_
_space_group_symop_operation_xyz
x,y,z
-x,y,-z
-x,-y,-z
x,-y,z
1/2+x,1/2+y,z
1/2-x,1/2+y,-z
1/2-x,1/2-y,-z
1/2+x,1/2-y,z
loop_
_atom_site_type_symbol
_atom_site_label
_atom_site_fract_x
_atom_site_fract_y
_atom_site_fract_z
Si Si1 0.329438 0.177857 0.267927
Si Si2 0.618220 0.821213 0.586463
Si Si3 0.336075 0.178337 0.677779
Si Si4 0.078776 0.325099 0.998085
Si Si5 0.784017 0.678541 0.073130
Si Si6 0.046400 0.820150 0.757668
Si Si7 0.882564 0.674039 0.819072
O O1 0.373947 0.223472 0.349219
O O2 0.397890 0.270719 0.264328
O O3 0.200033 0.222837 0.192919
O O4 0.343378 0.000000 0.263801
O O5 0.500000 0.766062 0.500000
O O6 0.710332 0.737144 0.603005
O O7 0.635928 0.000000 0.588652
O O8 0.418729 0.264288 0.684931
O O9 0.378488 0.222333 0.757958
O O10 0.340051 0.000000 0.667993
O O11 0.118708 0.500000 0.027274
O O12 0.009374 0.304083 0.906941
O O13 0.184442 0.215234 0.057025
O O14 0.000000 0.274022 0.000000
O O15 0.801713 0.500000 0.075830
O O16 0.894796 0.746932 0.159563
O O17 0.750000 0.750000 0.000000
O O18 0.051775 0.000000 0.766043
O O19 0.844107 0.500000 0.805699
#
# Coordination Sequence:
#
# PCOD8097399 Si02
#       7
#     8   8   8   8   8   8   8
#     4  10  20  35  58  86 115 148 188 233 281 335
#     4   9  19  38  63  90 120 152 186 226 276 337
#     4  10  20  35  57  84 113 146 187 232 280 335
#     4  10  20  34  53  78 109 145 186 234 287 337
#     4  12  25  40  58  81 112 150 194 241 290 340
#     4  12  24  39  58  81 114 152 192 236 285 339
#     4   9  18  33  53  77 108 145 184 229 280 336
#
# _framework density 20.307449999999999
#
# number of rings (size 3 to 8) (size 9 to 14) (size 15 to 20)
#    0.000    1.714    0.000    5.143    0.000    4.571 
#    0.000    0.714    0.000    0.000    0.000    0.000 
#    0.000    0.000    0.000    0.000    0.000    0.000 
#
# Total GULP energy -347284.993456 kJ/mol
# GULP energy per Si atom -12403.035481 kJ/mol
# Density = 2.026123 g / cm^3
# Si number density = 20.307450 Si / 1000 Ang^3
#
#
#
# Elastic Constant Matrix: (Units=GPa)
#
#
# Indices 1 2 3 4 5 6 
#
# 1 89.3397 47.8245 22.0326 0.0000 20.8180 0.0000
# 2 47.8245 119.7975 28.1766 0.0000 13.9183 0.0003
# 3 22.0326 28.1766 67.0082 0.0000 20.3183 0.0000
# 4 0.0000 0.0000 0.0000 27.8087 0.0000 6.1590
# 5 20.8180 13.9183 20.3183 0.0000 29.6568 0.0000
# 6 0.0000 0.0003 0.0000 6.1590 0.0000 39.2164
#
#
#
# Elastic Compliance Matrix: (Units=1/GPa)
#
#
# Indices 1 2 3 4 5 6 
#
# 1 0.016156 -0.005348 -0.000487 0.000000 -0.008498 0.000000
# 2 -0.005348 0.011141 -0.003129 0.000000 0.000669 0.000000
# 3 -0.000487 -0.003129 0.020007 0.000000 -0.011897 0.000000
# 4 0.000000 0.000000 0.000000 0.037256 0.000000 -0.005851
# 5 -0.008498 0.000669 -0.011897 0.000000 0.047521 0.000000
# 6 0.000000 0.000000 0.000000 -0.005851 0.000000 0.026418
#
#
# Mechanical properties :
#
#
# Convention : Reuss Voigt Hill
#
# Bulk Modulus (GPa) = 34.04159 52.46810 43.25485
# Shear Modulus (GPa) = 26.85024 31.21050 29.03037
#
# Velocity S-wave (km/s) = 3.64013 3.92458 3.78503
# Velocity P-wave (km/s) = 5.87085 6.81391 6.35989
#
# Compressibility (1/GPa) = 0.02937583
#
# Stress axis : x y z
#
# Youngs Moduli (GPa) = 61.89546 89.76178 49.98330
#
# Poissons Ratio (x) = 0.48005 0.02433
# Poissons Ratio (y) = 0.33102 0.15640
# Poissons Ratio (z) = 0.03013 0.28088
#
# Static dielectric constant tensor:
#      x y z
#    x 3.758590 0.000000 0.136160 
#    y 0.000000 3.616150 0.000000 
#    z 0.136160 0.000000 3.741760 
# 
# 
# High freq. dielectric constant tensor:
#      x y z
#    x 1.801370 0.000000 0.011890 
#    y 0.000000 1.791700 0.000000 
#    z 0.011890 0.000000 1.779200 
# 
# From -- ./inp_files/363088.got.cif
#   From: 2010.06.25/outbox.cif.g09.slc.cpg/sg12_182_cif.got.tgz:363088.got - 2010.06.28 00:19:55.
