data_PCOD8097112
_publ_section_title
;
Structure prediction by ZEFSAII (Michael W. Deem and Ramdas Pophale) SiO2 
 PCOD8097112
Probable space group: C 2/M
;
_chemical_formula_sum "Si O2"
_cell_formula_units_Z 56
_cell_length_a 19.428319
_cell_length_b 9.425511
_cell_length_c 20.892983
_cell_angle_alpha 90.000000
_cell_angle_beta 126.011826
_cell_angle_gamma 90.000000
_cell_volume 3094.803538
_symmetry_space_group_name_H-M "C 2/M"
_symmetry_group_IT_number 12
_symmetry_cell_setting 'monoclinic'
loop_
_space_group_symop_operation_xyz
x,y,z
-x,y,-z
-x,-y,-z
x,-y,z
1/2+x,1/2+y,z
1/2-x,1/2+y,-z
1/2-x,1/2-y,-z
1/2+x,1/2-y,z
loop_
_atom_site_type_symbol
_atom_site_label
_atom_site_fract_x
_atom_site_fract_y
_atom_site_fract_z
Si Si1 0.024028 0.659817 0.815230
Si Si2 0.143734 0.337246 0.197009
Si Si3 0.740149 0.168275 0.371713
Si Si4 0.071955 0.832297 0.488366
Si Si5 0.583689 0.164497 0.368042
Si Si6 0.334434 0.338949 0.045689
Si Si7 0.094103 0.160345 0.056087
O O1 0.060539 0.500000 0.840066
O O2 0.098391 0.771273 0.868582
O O3 0.950858 0.681054 0.827522
O O4 0.987381 0.687136 0.724739
O O5 0.164179 0.500000 0.192042
O O6 0.210538 0.275841 0.285822
O O7 0.152737 0.248808 0.136855
O O8 0.835801 0.220428 0.436565
O O9 0.675201 0.221417 0.391671
O O10 0.731818 0.000000 0.365413
O O11 0.053006 0.755652 0.411454
O O12 0.000000 0.787679 0.500000
O O13 0.071421 0.000000 0.476517
O O14 0.590439 0.000000 0.391715
O O15 0.317918 0.500000 0.059042
O O16 0.250000 0.250000 0.000000
O O17 0.365994 0.333465 0.991128
O O18 0.088376 0.000000 0.079352
O O19 0.000000 0.227603 0.000000
#
# Coordination Sequence:
#
# PCOD8097112 Si02
#       7
#     8   8   8   8   8   8   8
#     4   9  18  34  55  79 106 136 175 223 269 312
#     4   9  17  31  55  81 103 135 180 223 261 311
#     4   8  16  33  54  77 105 136 174 219 261 303
#     4  10  20  34  52  76 110 143 171 211 262 315
#     4   9  18  34  57  79 101 134 176 221 262 306
#     4  11  23  38  55  76 108 145 178 218 264 317
#     4  10  20  35  54  78 109 138 170 220 272 307
#
# _framework density 18.094849
#
# number of rings (size 3 to 8) (size 9 to 14) (size 15 to 20)
#    0.000    2.571    1.429    2.571    0.000    2.286 
#    2.571    2.857    0.000    0.000    0.000    0.000 
#    0.000    0.000    0.000    0.000    0.000    0.000 
#
# Total GULP energy -347175.516997 kJ/mol
# GULP energy per Si atom -12399.125607 kJ/mol
# Density = 1.805366 g / cm^3
# Si number density = 18.094849 Si / 1000 Ang^3
#
#
#
# Elastic Constant Matrix: (Units=GPa)
#
#
# Indices 1 2 3 4 5 6 
#
# 1 86.6520 42.8086 49.4395 0.0000 4.0846 0.0000
# 2 42.8086 79.6019 56.1758 0.0000 3.6764 0.0000
# 3 49.4395 56.1758 110.6283 0.0000 -0.9863 0.0000
# 4 0.0000 0.0000 0.0000 27.4012 0.0000 -2.7567
# 5 4.0846 3.6764 -0.9863 0.0000 25.0515 0.0000
# 6 0.0000 0.0000 0.0000 -2.7567 0.0000 23.6684
#
#
#
# Elastic Compliance Matrix: (Units=1/GPa)
#
#
# Indices 1 2 3 4 5 6 
#
# 1 0.017230 -0.005797 -0.004776 0.000000 -0.002147 0.000000
# 2 -0.005797 0.021799 -0.008502 0.000000 -0.002589 0.000000
# 3 -0.004776 -0.008502 0.015514 0.000000 0.002637 0.000000
# 4 0.000000 0.000000 0.000000 0.036927 0.000000 0.004301
# 5 -0.002147 -0.002589 0.002637 0.000000 0.040751 0.000000
# 6 0.000000 0.000000 0.000000 0.004301 0.000000 0.042751
#
#
# Mechanical properties :
#
#
# Convention : Reuss Voigt Hill
#
# Bulk Modulus (GPa) = 60.99455 63.74776 62.37116
# Shear Modulus (GPa) = 22.87408 23.78812 23.33110
#
# Velocity S-wave (km/s) = 3.55931 3.62972 3.59469
# Velocity P-wave (km/s) = 7.11849 7.27137 7.19534
#
# Compressibility (1/GPa) = 0.01639491
#
# Stress axis : x y z
#
# Youngs Moduli (GPa) = 58.03787 45.87289 64.45661
#
# Poissons Ratio (x) = 0.26591 0.30783
# Poissons Ratio (y) = 0.33642 0.54801
# Poissons Ratio (z) = 0.27718 0.39001
#
# Static dielectric constant tensor:
#      x y z
#    x 3.229320 0.000000 0.092450 
#    y 0.000000 3.268100 0.000000 
#    z 0.092450 0.000000 3.413070 
# 
# 
# High freq. dielectric constant tensor:
#      x y z
#    x 1.686840 0.000000 -0.000410 
#    y 0.000000 1.685470 0.000000 
#    z -0.000410 0.000000 1.709410 
# 
# From -- ./inp_files/275111.got.cif
#   From: 2010.06.25/outbox.cif.g09.slc.cpg/sg12_138_cif.got.tgz:275111.got - 2010.06.28 00:19:55.
