data_PCOD8097661
_publ_section_title
;
Structure prediction by ZEFSAII (Michael W. Deem and Ramdas Pophale) SiO2 
 PCOD8097661
Probable space group: C 2/M
;
_chemical_formula_sum "Si O2"
_cell_formula_units_Z 56
_cell_length_a 13.605662
_cell_length_b 10.918294
_cell_length_c 18.754230
_cell_angle_alpha 90.000000
_cell_angle_beta 79.542408
_cell_angle_gamma 90.000000
_cell_volume 2739.676449
_symmetry_space_group_name_H-M "C 2/M"
_symmetry_group_IT_number 12
_symmetry_cell_setting 'monoclinic'
loop_
_space_group_symop_operation_xyz
x,y,z
-x,y,-z
-x,-y,-z
x,-y,z
1/2+x,1/2+y,z
1/2-x,1/2+y,-z
1/2-x,1/2-y,-z
1/2+x,1/2-y,z
loop_
_atom_site_type_symbol
_atom_site_label
_atom_site_fract_x
_atom_site_fract_y
_atom_site_fract_z
Si Si1 0.196794 0.142965 0.361413
Si Si2 0.679209 0.288456 0.911395
Si Si3 0.182389 0.865800 0.205150
Si Si4 0.011687 0.221224 0.831982
Si Si5 0.932443 0.359965 0.578054
Si Si6 0.374056 0.132835 0.949428
Si Si7 0.422777 0.862653 0.312070
O O1 0.175277 0.194357 0.284089
O O2 0.146858 0.247564 0.418132
O O3 0.314135 0.148970 0.362018
O O4 0.158662 0.000000 0.378639
O O5 0.734421 0.188450 0.856713
O O6 0.591893 0.347268 0.873376
O O7 0.764136 0.381190 0.927095
O O8 0.625420 0.229038 0.986657
O O9 0.074496 0.871676 0.181112
O O10 0.222671 0.000000 0.215138
O O11 0.068980 0.272398 0.755865
O O12 0.957206 0.331531 0.880762
O O13 0.886622 0.500000 0.589964
O O14 0.000000 0.354300 0.500000
O O15 0.997980 0.328367 0.638347
O O16 0.401788 0.000000 0.976226
O O17 0.441058 0.000000 0.281756
#
# Coordination Sequence:
#
# PCOD8097661 Si02
#       7
#     8   8   8   8   8   8   8
#     4  10  20  37  60  86 115 150 193 235 280 339
#     4  10  21  36  53  76 109 144 184 232 285 335
#     4  10  20  34  54  79 109 145 184 232 285 337
#     4  11  20  34  55  80 108 142 190 234 278 331
#     4  10  22  41  62  87 121 155 186 229 287 344
#     4  10  22  36  52  77 108 143 186 233 279 332
#     4  10  20  35  58  84 114 152 190 231 283 339
#
# _framework density 20.440370000000001
#
# number of rings (size 3 to 8) (size 9 to 14) (size 15 to 20)
#    0.000    1.857    2.857    1.286    0.000    3.714 
#    0.000    1.429    0.000    5.143    0.000    0.000 
#    0.000    0.000    0.000    0.000    0.000    0.000 
#
# Total GULP energy -346935.637164 kJ/mol
# GULP energy per Si atom -12390.558470 kJ/mol
# Density = 2.039385 g / cm^3
# Si number density = 20.440370 Si / 1000 Ang^3
#
#
#
# Elastic Constant Matrix: (Units=GPa)
#
#
# Indices 1 2 3 4 5 6 
#
# 1 62.4342 9.2169 -4.3572 0.0000 -8.1052 0.0000
# 2 9.2169 78.5122 31.5046 0.0000 -13.8925 0.0000
# 3 -4.3572 31.5046 68.7950 0.0000 -15.0713 0.0000
# 4 0.0000 0.0000 0.0000 -106.3309 0.0000 43.2566
# 5 -8.1052 -13.8925 -15.0713 0.0000 23.7385 0.0000
# 6 0.0000 0.0000 0.0000 43.2566 0.0000 -6.0367
#
#
#
# Elastic Compliance Matrix: (Units=1/GPa)
#
#
# Indices 1 2 3 4 5 6 
#
# 1 0.017521 -0.002304 0.003694 0.000000 0.006979 0.000000
# 2 -0.002304 0.016512 -0.006694 0.000000 0.004627 0.000000
# 3 0.003694 -0.006694 0.020041 0.000000 0.010067 0.000000
# 4 0.000000 0.000000 0.000000 0.004911 0.000000 0.035190
# 5 0.006979 0.004627 0.010067 0.000000 0.053608 0.000000
# 6 0.000000 0.000000 0.000000 0.035190 0.000000 0.086501
#
#
# Mechanical properties :
#
#
# Convention : Reuss Voigt Hill
#
# Bulk Modulus (GPa) = 23.00699 31.38556 27.19628
# Shear Modulus (GPa) = 22.30242 -6.16735 8.06753
#
# Velocity S-wave (km/s) = 3.30676 -1.73891 1.98883
# Velocity P-wave (km/s) = 5.08524 3.36991 4.31370
#
# Compressibility (1/GPa) = 0.04346505
#
# Stress axis : x y z
#
# Youngs Moduli (GPa) = 57.07497 60.56125 49.89779
#
# Poissons Ratio (x) = 0.13954 -0.18431
# Poissons Ratio (y) = 0.13151 0.33402
# Poissons Ratio (z) = -0.21082 0.40540
#
# Static dielectric constant tensor:
#      x y z
#    x 4.003740 0.000000 0.204070 
#    y 0.000000 3.455080 0.000000 
#    z 0.204070 0.000000 3.680870 
# 
# 
# High freq. dielectric constant tensor:
#      x y z
#    x 1.808130 0.000000 0.005380 
#    y 0.000000 1.774590 0.000000 
#    z 0.005380 0.000000 1.796170 
# 
# From -- ./inp_files/304311.got.cif
#   From: 2010.06.25/outbox.cif.g09.slc.cpg/sg12_153_cif.got.tgz:304311.got - 2010.06.28 00:19:55.
