data_PCOD8097753
_publ_section_title
;
Structure prediction by ZEFSAII (Michael W. Deem and Ramdas Pophale) SiO2 
 PCOD8097753
Probable space group: C 2/M
;
_chemical_formula_sum "Si O2"
_cell_formula_units_Z 64
_cell_length_a 24.765381
_cell_length_b 9.395247
_cell_length_c 14.846885
_cell_angle_alpha 90.000000
_cell_angle_beta 71.339656
_cell_angle_gamma 90.000000
_cell_volume 3272.929040
_symmetry_space_group_name_H-M "C 2/M"
_symmetry_group_IT_number 12
_symmetry_cell_setting 'monoclinic'
loop_
_space_group_symop_operation_xyz
x,y,z
-x,y,-z
-x,-y,-z
x,-y,z
1/2+x,1/2+y,z
1/2-x,1/2+y,-z
1/2-x,1/2-y,-z
1/2+x,1/2-y,z
loop_
_atom_site_type_symbol
_atom_site_label
_atom_site_fract_x
_atom_site_fract_y
_atom_site_fract_z
Si Si1 0.140479 0.839074 0.367715
Si Si2 0.112735 0.664299 0.092640
Si Si3 0.308698 0.667210 0.472115
Si Si4 0.328964 0.836035 0.120379
Si Si5 0.622012 0.331873 0.743793
Si Si6 0.467161 0.837138 0.603273
Si Si7 0.702644 0.339663 0.157419
Si Si8 0.490627 0.163831 0.224823
O O1 0.159046 0.780700 0.455171
O O2 0.090517 0.747459 0.350925
O O3 0.192612 0.827670 0.270252
O O4 0.118371 0.000000 0.389310
O O5 0.116541 0.500000 0.118609
O O6 0.161163 0.740362 0.123843
O O7 0.049526 0.720714 0.149646
O O8 0.122831 0.687321 0.981089
O O9 0.295117 0.500000 0.483324
O O10 0.250000 0.750000 0.500000
O O11 0.348240 0.706568 0.366472
O O12 0.339440 0.731382 0.197623
O O13 0.268352 0.796290 0.107336
O O14 0.328438 0.000000 0.154376
O O15 0.615763 0.500000 0.759983
O O16 0.559994 0.261431 0.784084
O O17 0.500000 0.772619 0.500000
O O18 0.506924 0.820462 0.668877
O O19 0.450437 0.000000 0.594579
O O20 0.691360 0.500000 0.129784
O O21 0.479054 0.000000 0.202974
#
# Coordination Sequence:
#
# PCOD8097753 Si02
#       8
#     8   8   8   8   8   8   8   8
#     4  10  20  34  54  81 113 147 182 225 282 342
#     4  10  21  38  61  87 115 152 195 240 293 349
#     4  10  22  39  58  84 117 154 196 237 284 343
#     4  10  22  40  61  84 114 155 197 239 294 354
#     4  11  24  40  59  86 117 153 199 246 290 339
#     4  10  20  34  54  81 110 144 188 232 278 334
#     4  10  20  35  58  88 118 149 187 235 294 352
#     4  10  21  38  58  82 116 154 193 240 292 348
#
# _framework density 19.554348999999998
#
# number of rings (size 3 to 8) (size 9 to 14) (size 15 to 20)
#    0.000    1.875    1.250    2.250    0.000    5.250 
#    0.000    2.500    0.000    0.000    0.000    0.000 
#    0.000    0.000    0.000    0.000    0.000    0.000 
#
# Total GULP energy -396910.793388 kJ/mol
# GULP energy per Si atom -12403.462293 kJ/mol
# Density = 1.950984 g / cm^3
# Si number density = 19.554349 Si / 1000 Ang^3
#
#
#
# Elastic Constant Matrix: (Units=GPa)
#
#
# Indices 1 2 3 4 5 6 
#
# 1 99.0054 48.9143 20.3149 0.0000 -7.8064 0.0000
# 2 48.9143 68.3465 25.5507 0.0000 0.4275 0.0000
# 3 20.3149 25.5507 76.5027 0.0000 -6.6259 0.0000
# 4 0.0000 0.0000 0.0000 26.9697 0.0000 1.5041
# 5 -7.8064 0.4275 -6.6259 0.0000 33.7534 0.0000
# 6 0.0000 0.0000 0.0000 1.5041 0.0000 38.6257
#
#
#
# Elastic Compliance Matrix: (Units=1/GPa)
#
#
# Indices 1 2 3 4 5 6 
#
# 1 0.016117 -0.011522 -0.000098 0.000000 0.003854 0.000000
# 2 -0.011522 0.025015 -0.005649 0.000000 -0.004091 0.000000
# 3 -0.000098 -0.005649 0.015248 0.000000 0.003042 0.000000
# 4 0.000000 0.000000 0.000000 0.037159 0.000000 -0.001447
# 5 0.003854 -0.004091 0.003042 0.000000 0.031167 0.000000
# 6 0.000000 0.000000 0.000000 -0.001447 0.000000 0.025946
#
#
# Mechanical properties :
#
#
# Convention : Reuss Voigt Hill
#
# Bulk Modulus (GPa) = 45.78483 48.15714 46.97098
# Shear Modulus (GPa) = 25.97794 29.80806 27.89300
#
# Velocity S-wave (km/s) = 3.64881 3.90855 3.78091
# Velocity P-wave (km/s) = 6.42003 6.71192 6.56759
#
# Compressibility (1/GPa) = 0.02184130
#
# Stress axis : x y z
#
# Youngs Moduli (GPa) = 62.04602 39.97584 65.58403
#
# Poissons Ratio (x) = 0.46061 0.00641
# Poissons Ratio (y) = 0.71491 0.37050
# Poissons Ratio (z) = 0.00606 0.22583
#
# Static dielectric constant tensor:
#      x y z
#    x 3.439110 0.000000 -0.118620 
#    y 0.000000 3.482500 0.000000 
#    z -0.118620 0.000000 3.792890 
# 
# 
# High freq. dielectric constant tensor:
#      x y z
#    x 1.759370 0.000000 -0.006310 
#    y 0.000000 1.753510 0.000000 
#    z -0.006310 0.000000 1.775110 
# 
# From -- ./inp_files/243835.got.cif
#   From: 2010.06.25/outbox.cif.g09.slc.cpg/sg12_122_cif.got.tgz:243835.got - 2010.06.28 00:19:55.
