data_PCOD8097055
_publ_section_title
;
Structure prediction by ZEFSAII (Michael W. Deem and Ramdas Pophale) SiO2 
 PCOD8097055
Probable space group: C 2/M
;
_chemical_formula_sum "Si O2"
_cell_formula_units_Z 56
_cell_length_a 8.482164
_cell_length_b 11.056903
_cell_length_c 31.183768
_cell_angle_alpha 90.000000
_cell_angle_beta 69.792430
_cell_angle_gamma 90.000000
_cell_volume 2744.597654
_symmetry_space_group_name_H-M "C 2/M"
_symmetry_group_IT_number 12
_symmetry_cell_setting 'monoclinic'
loop_
_space_group_symop_operation_xyz
x,y,z
-x,y,-z
-x,-y,-z
x,-y,z
1/2+x,1/2+y,z
1/2-x,1/2+y,-z
1/2-x,1/2-y,-z
1/2+x,1/2-y,z
loop_
_atom_site_type_symbol
_atom_site_label
_atom_site_fract_x
_atom_site_fract_y
_atom_site_fract_z
Si Si1 0.226437 0.638191 0.734884
Si Si2 0.368279 0.208639 0.892124
Si Si3 0.416409 0.310953 0.467310
Si Si4 0.606167 0.361166 0.692028
Si Si5 0.205836 0.368605 0.411085
Si Si6 0.723267 0.866984 0.834153
Si Si7 0.013346 0.864905 0.951453
O O1 0.149258 0.500000 0.735497
O O2 0.411700 0.636931 0.697529
O O3 0.126630 0.750818 0.723626
O O4 0.230669 0.673023 0.784361
O O5 0.532981 0.128340 0.869896
O O6 0.341739 0.281099 0.850604
O O7 0.204946 0.128962 0.916868
O O8 0.393012 0.295248 0.930383
O O9 0.500000 0.384380 0.500000
O O10 0.250000 0.250000 0.500000
O O11 0.357147 0.386056 0.431736
O O12 0.554693 0.214809 0.439617
O O13 0.654736 0.500000 0.703363
O O14 0.712979 0.322227 0.640582
O O15 0.125306 0.500000 0.411453
O O16 0.800643 0.000000 0.831462
O O17 0.941349 0.000000 0.960588
O O18 0.000000 0.804776 0.000000
#
# Coordination Sequence:
#
# PCOD8097055 Si02
#       7
#     8   8   8   8   8   8   8
#     4  10  21  37  57  82 112 144 182 229 275 324
#     4  10  20  34  53  76 103 137 175 215 263 319
#     4   9  19  34  53  79 106 135 176 218 259 316
#     4  10  21  37  57  82 112 147 185 225 272 327
#     4  10  20  36  56  77 108 144 177 220 270 319
#     4  10  20  35  54  77 106 139 175 218 268 319
#     4  10  20  34  52  75 103 135 173 217 263 313
#
# _framework density 20.403718999999999
#
# number of rings (size 3 to 8) (size 9 to 14) (size 15 to 20)
#    0.000    2.143    0.000    3.000    0.000    3.429 
#    0.000    6.429    0.000    6.857    0.000    0.000 
#    0.000    0.000    0.000    0.000    0.000    0.000 
#
# Total GULP energy -346875.379965 kJ/mol
# GULP energy per Si atom -12388.406427 kJ/mol
# Density = 2.035728 g / cm^3
# Si number density = 20.403719 Si / 1000 Ang^3
#
#
#
# Elastic Constant Matrix: (Units=GPa)
#
#
# Indices 1 2 3 4 5 6 
#
# 1 54.4934 16.8279 6.3883 0.0000 4.6872 0.0000
# 2 16.8279 88.5605 20.0457 0.0000 17.2033 0.0000
# 3 6.3883 20.0457 83.9362 0.0000 9.1021 0.0000
# 4 0.0000 0.0000 0.0000 51.9342 0.0000 -4.9578
# 5 4.6872 17.2033 9.1021 0.0000 35.7500 0.0000
# 6 0.0000 0.0000 0.0000 -4.9578 0.0000 1.5453
#
#
#
# Elastic Compliance Matrix: (Units=1/GPa)
#
#
# Indices 1 2 3 4 5 6 
#
# 1 0.019545 -0.003434 -0.000585 0.000000 -0.000761 0.000000
# 2 -0.003434 0.013544 -0.002381 0.000000 -0.005461 0.000000
# 3 -0.000585 -0.002381 0.012746 0.000000 -0.002023 0.000000
# 4 0.000000 0.000000 0.000000 0.027756 0.000000 0.089052
# 5 -0.000761 -0.005461 -0.002023 0.000000 0.031215 0.000000
# 6 0.000000 0.000000 0.000000 0.089052 0.000000 0.932846
#
#
# Mechanical properties :
#
#
# Convention : Reuss Voigt Hill
#
# Bulk Modulus (GPa) = 30.26978 34.83486 32.55232
# Shear Modulus (GPa) = 4.71047 30.09443 17.40245
#
# Velocity S-wave (km/s) = 1.52107 3.84467 2.92362
# Velocity P-wave (km/s) = 4.23704 6.06783 5.23312
#
# Compressibility (1/GPa) = 0.03303625
#
# Stress axis : x y z
#
# Youngs Moduli (GPa) = 51.16334 73.83375 78.45393
#
# Poissons Ratio (x) = 0.25352 0.04589
# Poissons Ratio (y) = 0.17568 0.18680
# Poissons Ratio (z) = 0.02993 0.17580
#
# Static dielectric constant tensor:
#      x y z
#    x 3.758450 0.000000 0.148950 
#    y 0.000000 3.574650 0.000000 
#    z 0.148950 0.000000 3.891820 
# 
# 
# High freq. dielectric constant tensor:
#      x y z
#    x 1.787000 0.000000 -0.001980 
#    y 0.000000 1.789330 0.000000 
#    z -0.001980 0.000000 1.814900 
# 
# From -- ./inp_files/355741.got.cif
#   From: 2010.06.25/outbox.cif.g09.slc.cpg/sg12_178_cif.got.tgz:355741.got - 2010.06.28 00:19:55.
