data_PCOD8097522
_publ_section_title
;
Structure prediction by ZEFSAII (Michael W. Deem and Ramdas Pophale) SiO2 
 PCOD8097522
Probable space group: C 2/M
;
_chemical_formula_sum "Si O2"
_cell_formula_units_Z 48
_cell_length_a 23.227656
_cell_length_b 8.025983
_cell_length_c 18.089405
_cell_angle_alpha 90.000000
_cell_angle_beta 51.398964
_cell_angle_gamma 90.000000
_cell_volume 2635.493767
_symmetry_space_group_name_H-M "C 2/M"
_symmetry_group_IT_number 12
_symmetry_cell_setting 'monoclinic'
loop_
_space_group_symop_operation_xyz
x,y,z
-x,y,-z
-x,-y,-z
x,-y,z
1/2+x,1/2+y,z
1/2-x,1/2+y,-z
1/2-x,1/2-y,-z
1/2+x,1/2-y,z
loop_
_atom_site_type_symbol
_atom_site_label
_atom_site_fract_x
_atom_site_fract_y
_atom_site_fract_z
Si Si1 0.384600 0.804436 0.100843
Si Si2 0.312461 0.812319 0.396154
Si Si3 0.990765 0.500000 0.384692
Si Si4 0.512586 0.802838 0.108880
Si Si5 0.261327 0.318637 0.290361
Si Si6 0.379309 0.000000 0.604684
Si Si7 0.469898 0.687406 0.296937
O O1 0.437634 0.753838 0.126284
O O2 0.303445 0.729970 0.180705
O O3 0.378899 0.000000 0.099864
O O4 0.418197 0.740319 0.996119
O O5 0.250000 0.750000 0.500000
O O6 0.280524 0.812796 0.338647
O O7 0.383580 0.698150 0.347868
O O8 0.335980 0.000000 0.397505
O O9 0.918405 0.500000 0.493751
O O10 0.993040 0.329824 0.336128
O O11 0.063906 0.500000 0.374631
O O12 0.515976 0.711286 0.184597
O O13 0.514579 0.000000 0.120709
O O14 0.290085 0.500000 0.294123
O O15 0.172952 0.334285 0.346999
O O16 0.486040 0.500000 0.314647
#
# Coordination Sequence:
#
# PCOD8097522 Si02
#       7
#     8   8   4   8   8   4   8
#     4   9  17  30  53  82 124 160 192 234 293 360
#     4  12  22  34  52  84 126 157 188 240 305 367
#     4  11  22  48  66  81 118 160 209 252 300 346
#     4   9  17  32  51  85 123 162 194 233 294 360
#     4  10  20  34  53  84 115 149 195 240 294 351
#     4   9  24  42  66  81 112 166 203 252 298 352
#     4  12  23  36  60  91 120 157 201 245 303 358
#
# _framework density 18.212906
#
# number of rings (size 3 to 8) (size 9 to 14) (size 15 to 20)
#    0.500    1.167    3.333    4.000    0.000    0.667 
#    0.000    5.833    0.000    1.000    0.000    0.000 
#    0.000    0.000    0.000    0.000    0.000    0.000 
#
# Total GULP energy -297464.955422 kJ/mol
# GULP energy per Si atom -12394.373143 kJ/mol
# Density = 1.817145 g / cm^3
# Si number density = 18.212906 Si / 1000 Ang^3
#
#
#
# Elastic Constant Matrix: (Units=GPa)
#
#
# Indices 1 2 3 4 5 6 
#
# 1 64.8219 27.2008 46.0331 -0.0017 3.6329 -0.0011
# 2 27.2008 95.8905 42.4580 -0.0123 8.7796 0.0019
# 3 46.0331 42.4580 158.1644 -0.0032 -0.9221 0.0014
# 4 -0.0017 -0.0123 -0.0032 30.4578 0.0022 -1.9913
# 5 3.6329 8.7796 -0.9221 0.0022 20.9076 0.0004
# 6 -0.0011 0.0019 0.0014 -1.9913 0.0004 19.8512
#
#
#
# Elastic Compliance Matrix: (Units=1/GPa)
#
#
# Indices 1 2 3 4 5 6 
#
# 1 0.020598 -0.003363 -0.005106 0.000000 -0.002392 0.000002
# 2 -0.003363 0.012957 -0.002528 0.000005 -0.004968 -0.000001
# 3 -0.005106 -0.002528 0.008501 -0.000001 0.002324 -0.000001
# 4 0.000000 0.000005 -0.000001 0.033049 -0.000006 0.003315
# 5 -0.002392 -0.004968 0.002324 -0.000006 0.050434 -0.000001
# 6 0.000002 -0.000001 -0.000001 0.003315 -0.000001 0.050707
#
#
# Mechanical properties :
#
#
# Convention : Reuss Voigt Hill
#
# Bulk Modulus (GPa) = 49.84818 61.14005 55.49411
# Shear Modulus (GPa) = 24.39874 27.78898 26.09386
#
# Velocity S-wave (km/s) = 3.66408 3.91037 3.78923
# Velocity P-wave (km/s) = 6.73274 7.35054 7.04841
#
# Compressibility (1/GPa) = 0.02006091
#
# Stress axis : x y z
#
# Youngs Moduli (GPa) = 48.54753 77.17892 117.63409
#
# Poissons Ratio (x) = 0.25956 0.60067
# Poissons Ratio (y) = 0.16327 0.29742
# Poissons Ratio (z) = 0.24789 0.19513
#
# Static dielectric constant tensor:
#      x y z
#    x 3.330590 0.000050 0.085480 
#    y 0.000050 3.259970 0.000010 
#    z 0.085480 0.000010 4.024050 
# 
# 
# High freq. dielectric constant tensor:
#      x y z
#    x 1.649350 0.000000 -0.003910 
#    y 0.000000 1.701680 0.000000 
#    z -0.003910 0.000000 1.730520 
# 
# From -- ./inp_files/287300.got.cif
#   From: 2010.06.25/outbox.cif.g09.slc.cpg/sg12_144_cif.got.tgz:287300.got - 2010.06.28 00:19:55.
