data_PCOD8097808
_publ_section_title
;
Structure prediction by ZEFSAII (Michael W. Deem and Ramdas Pophale) SiO2 
 PCOD8097808
Probable space group: C 2/M
;
_chemical_formula_sum "Si O2"
_cell_formula_units_Z 48
_cell_length_a 24.706466
_cell_length_b 9.275330
_cell_length_c 12.387365
_cell_angle_alpha 90.000000
_cell_angle_beta 108.820958
_cell_angle_gamma 90.000000
_cell_volume 2686.914954
_symmetry_space_group_name_H-M "C 2/M"
_symmetry_group_IT_number 12
_symmetry_cell_setting 'monoclinic'
loop_
_space_group_symop_operation_xyz
x,y,z
-x,y,-z
-x,-y,-z
x,-y,z
1/2+x,1/2+y,z
1/2-x,1/2+y,-z
1/2-x,1/2-y,-z
1/2+x,1/2-y,z
loop_
_atom_site_type_symbol
_atom_site_label
_atom_site_fract_x
_atom_site_fract_y
_atom_site_fract_z
Si Si1 0.314936 0.832200 0.249153
Si Si2 0.802706 0.334291 0.485112
Si Si3 0.878739 0.334835 0.730960
Si Si4 0.814479 0.167112 0.871546
Si Si5 0.496309 0.167527 0.123851
Si Si6 0.113984 0.171315 0.876441
O O1 0.317170 0.779891 0.374574
O O2 0.252602 0.801512 0.158944
O O3 0.360920 0.736276 0.216879
O O4 0.331399 0.000000 0.248778
O O5 0.783609 0.500000 0.467726
O O6 0.750000 0.250000 0.500000
O O7 0.858792 0.312010 0.594960
O O8 0.873325 0.500000 0.764434
O O9 0.837578 0.246237 0.781630
O O10 0.944278 0.285611 0.782631
O O11 0.826731 0.000000 0.860692
O O12 0.846296 0.223116 0.998868
O O13 0.449082 0.267012 0.148053
O O14 0.481593 0.000000 0.134638
O O15 0.500000 0.202029 0.000000
O O16 0.111381 0.000000 0.865128
#
# Coordination Sequence:
#
# PCOD8097808 Si02
#       6
#     8   8   8   8   8   8
#     4  10  21  37  55  78 112 149 180 216 273 331
#     4  10  20  35  57  83 110 142 180 223 268 320
#     4  10  20  34  56  85 110 138 182 225 265 320
#     4  10  20  34  54  82 113 142 175 223 276 323
#     4  10  20  36  57  80 108 145 184 222 269 324
#     4  11  23  36  54  82 112 144 184 227 273 320
#
# _framework density 17.864353999999999
#
# number of rings (size 3 to 8) (size 9 to 14) (size 15 to 20)
#    0.000    1.833    3.333    1.000    0.000    3.000 
#    0.000    0.833    0.000    5.000    0.000    0.000 
#    0.000    0.000    0.000    0.000    0.000    0.000 
#
# Total GULP energy -297695.581309 kJ/mol
# GULP energy per Si atom -12403.982555 kJ/mol
# Density = 1.782369 g / cm^3
# Si number density = 17.864354 Si / 1000 Ang^3
#
#
#
# Elastic Constant Matrix: (Units=GPa)
#
#
# Indices 1 2 3 4 5 6 
#
# 1 109.4654 44.9849 42.3334 0.0000 -4.5156 0.0000
# 2 44.9849 52.7289 25.0433 0.0000 -8.0655 0.0000
# 3 42.3334 25.0433 93.2409 0.0000 0.0083 0.0000
# 4 0.0000 0.0000 0.0000 22.3195 0.0000 -7.9239
# 5 -4.5156 -8.0655 0.0083 0.0000 33.1641 0.0000
# 6 0.0000 0.0000 0.0000 -7.9239 0.0000 29.9731
#
#
#
# Elastic Compliance Matrix: (Units=1/GPa)
#
#
# Indices 1 2 3 4 5 6 
#
# 1 0.015239 -0.011251 -0.003897 0.000000 -0.000660 0.000000
# 2 -0.011251 0.031013 -0.003222 0.000000 0.006011 0.000000
# 3 -0.003897 -0.003222 0.013360 0.000000 -0.001318 0.000000
# 4 0.000000 0.000000 0.000000 0.049445 0.000000 0.013072
# 5 -0.000660 0.006011 -0.001318 0.000000 0.031525 0.000000
# 6 0.000000 0.000000 0.000000 0.013072 0.000000 0.036819
#
#
# Mechanical properties :
#
#
# Convention : Reuss Voigt Hill
#
# Bulk Modulus (GPa) = 43.72163 53.35093 48.53628
# Shear Modulus (GPa) = 22.54649 26.62960 24.58804
#
# Velocity S-wave (km/s) = 3.55645 3.86509 3.71398
# Velocity P-wave (km/s) = 6.43365 7.06030 6.75425
#
# Compressibility (1/GPa) = 0.02287197
#
# Stress axis : x y z
#
# Youngs Moduli (GPa) = 65.62287 32.24426 74.85216
#
# Poissons Ratio (x) = 0.36278 0.29168
# Poissons Ratio (y) = 0.73831 0.24119
# Poissons Ratio (z) = 0.25572 0.10390
#
# Static dielectric constant tensor:
#      x y z
#    x 3.221470 0.000000 0.156540 
#    y 0.000000 3.267810 0.000000 
#    z 0.156540 0.000000 3.545130 
# 
# 
# High freq. dielectric constant tensor:
#      x y z
#    x 1.686900 0.000000 0.005990 
#    y 0.000000 1.688430 0.000000 
#    z 0.005990 0.000000 1.696990 
# 
# From -- ./inp_files/172042.got.cif
#   From: 2010.06.25/outbox.cif.g09.slc.cpg/sg12_87_cif.got.tgz:172042.got - 2010.06.28 00:19:55.
