data_PCOD8097459
_publ_section_title
;
Structure prediction by ZEFSAII (Michael W. Deem and Ramdas Pophale) SiO2 
 PCOD8097459
Probable space group: C 2/M
;
_chemical_formula_sum "Si O2"
_cell_formula_units_Z 40
_cell_length_a 15.533932
_cell_length_b 8.707324
_cell_length_c 30.956635
_cell_angle_alpha 90.000000
_cell_angle_beta 28.719509
_cell_angle_gamma 90.000000
_cell_volume 2012.024426
_symmetry_space_group_name_H-M "C 2/M"
_symmetry_group_IT_number 12
_symmetry_cell_setting 'monoclinic'
loop_
_space_group_symop_operation_xyz
x,y,z
-x,y,-z
-x,-y,-z
x,-y,z
1/2+x,1/2+y,z
1/2-x,1/2+y,-z
1/2-x,1/2-y,-z
1/2+x,1/2-y,z
loop_
_atom_site_type_symbol
_atom_site_label
_atom_site_fract_x
_atom_site_fract_y
_atom_site_fract_z
Si Si1 0.719698 0.817863 0.282528
Si Si2 0.818270 0.680746 0.604163
Si Si3 0.561501 0.674232 0.088947
Si Si4 0.875022 0.674409 0.096184
Si Si5 0.959889 0.682079 0.727039
O O1 0.657286 0.759926 0.357053
O O2 0.591759 0.761644 0.299303
O O3 0.926916 0.759608 0.185052
O O4 0.719558 0.000000 0.280712
O O5 0.776792 0.500000 0.621185
O O6 0.661960 0.769693 0.648121
O O7 0.000000 0.722811 0.500000
O O8 0.604943 0.500000 0.079869
O O9 0.452951 0.696221 0.093006
O O10 0.750000 0.750000 0.000000
O O11 0.878877 0.500000 0.112833
O O12 0.668513 0.729448 0.181489
O O13 0.000000 0.682201 0.000000
O O14 0.939171 0.500000 0.741404
#
# Coordination Sequence:
#
# PCOD8097459 Si02
#       5
#     8   8   8   8   8
#     4   8  18  37  56  77 113 152 183 229 288 335
#     4  10  21  38  61  86 111 148 195 236 285 348
#     4  10  20  34  53  79 113 150 190 231 279 338
#     4  10  21  36  55  80 111 149 189 231 285 342
#     4  10  21  38  58  82 115 151 187 236 290 342
#
# _framework density 19.880475000000001
#
# number of rings (size 3 to 8) (size 9 to 14) (size 15 to 20)
#    0.000    2.400    0.000    3.000    2.800    2.800 
#    0.000    5.000    0.000    0.000    0.000    0.000 
#    0.000    0.000    0.000    0.000    0.000    0.000 
#
# Total GULP energy -247763.054259 kJ/mol
# GULP energy per Si atom -12388.152713 kJ/mol
# Density = 1.983523 g / cm^3
# Si number density = 19.880475 Si / 1000 Ang^3
#
#
#
# Elastic Constant Matrix: (Units=GPa)
#
#
# Indices 1 2 3 4 5 6 
#
# 1 99.2960 27.4037 78.0895 -0.0014 1.3555 0.0023
# 2 27.4037 50.8237 50.2818 0.0008 1.6772 -0.0010
# 3 78.0895 50.2818 173.9480 0.0123 2.3807 -0.0040
# 4 -0.0014 0.0008 0.0123 28.2491 -0.0109 -7.3256
# 5 1.3555 1.6772 2.3807 -0.0109 34.0840 0.0003
# 6 0.0023 -0.0010 -0.0040 -7.3256 0.0003 28.2356
#
#
#
# Elastic Compliance Matrix: (Units=1/GPa)
#
#
# Indices 1 2 3 4 5 6 
#
# 1 0.015724 -0.002091 -0.006454 0.000003 -0.000072 -0.000001
# 2 -0.002091 0.027856 -0.007103 0.000002 -0.000792 0.000001
# 3 -0.006454 -0.007103 0.010701 -0.000005 -0.000141 0.000001
# 4 0.000003 0.000002 -0.000005 0.037953 0.000012 0.009847
# 5 -0.000072 -0.000792 -0.000141 0.000012 0.029391 0.000003
# 6 -0.000001 0.000001 0.000001 0.009847 0.000003 0.037971
#
#
# Mechanical properties :
#
#
# Convention : Reuss Voigt Hill
#
# Bulk Modulus (GPa) = 43.50301 70.62420 57.06360
# Shear Modulus (GPa) = 25.18210 29.33323 27.25767
#
# Velocity S-wave (km/s) = 3.56290 3.84536 3.70682
# Velocity P-wave (km/s) = 6.23341 7.43756 6.86195
#
# Compressibility (1/GPa) = 0.02298692
#
# Stress axis : x y z
#
# Youngs Moduli (GPa) = 63.59587 35.89830 93.44920
#
# Poissons Ratio (x) = 0.07508 0.60308
# Poissons Ratio (y) = 0.13300 0.66373
# Poissons Ratio (z) = 0.41042 0.25497
#
# Static dielectric constant tensor:
#      x y z
#    x 3.471390 0.000020 0.549380 
#    y 0.000020 3.529990 -0.000010 
#    z 0.549380 -0.000010 3.218070 
# 
# 
# High freq. dielectric constant tensor:
#      x y z
#    x 1.765020 0.000000 -0.002850 
#    y 0.000000 1.759540 0.000000 
#    z -0.002850 0.000000 1.788030 
# 
# From -- ./inp_files/211212.got.cif
#   From: 2010.06.25/outbox.cif.g09.slc.cpg/sg12_106_cif.got.tgz:211212.got - 2010.06.28 00:19:55.
