data_PCOD8097020
_publ_section_title
;
Structure prediction by ZEFSAII (Michael W. Deem and Ramdas Pophale) SiO2 
 PCOD8097020
Probable space group: C 2/M
;
_chemical_formula_sum "Si O2"
_cell_formula_units_Z 56
_cell_length_a 16.062981
_cell_length_b 8.947714
_cell_length_c 22.947503
_cell_angle_alpha 90.000000
_cell_angle_beta 122.259950
_cell_angle_gamma 90.000000
_cell_volume 2789.052551
_symmetry_space_group_name_H-M "C 2/M"
_symmetry_group_IT_number 12
_symmetry_cell_setting 'monoclinic'
loop_
_space_group_symop_operation_xyz
x,y,z
-x,y,-z
-x,-y,-z
x,-y,z
1/2+x,1/2+y,z
1/2-x,1/2+y,-z
1/2-x,1/2-y,-z
1/2+x,1/2-y,z
loop_
_atom_site_type_symbol
_atom_site_label
_atom_site_fract_x
_atom_site_fract_y
_atom_site_fract_z
Si Si1 0.215906 0.677417 0.840299
Si Si2 0.166602 0.176266 0.430602
Si Si3 0.802816 0.176346 0.284728
Si Si4 0.360711 0.672017 0.710557
Si Si5 0.447688 0.672094 0.152121
Si Si6 0.478947 0.677003 0.428725
Si Si7 0.441249 0.677556 0.921957
O O1 0.210938 0.500000 0.837812
O O2 0.166681 0.743705 0.763660
O O3 0.152152 0.736682 0.871415
O O4 0.328821 0.736200 0.885151
O O5 0.250000 0.250000 0.500000
O O6 0.168994 0.229070 0.364642
O O7 0.063133 0.231780 0.416754
O O8 0.178290 0.000000 0.439804
O O9 0.694128 0.226435 0.262630
O O10 0.875710 0.231411 0.363447
O O11 0.808607 0.000000 0.276888
O O12 0.329160 0.500000 0.708287
O O13 0.477119 0.689211 0.765391
O O14 0.417658 0.500000 0.131480
O O15 0.501771 0.736067 0.114366
O O16 0.500000 0.749243 0.500000
O O17 0.478345 0.500000 0.434230
O O18 0.438308 0.500000 0.918502
O O19 0.500000 0.737100 0.000000
#
# Coordination Sequence:
#
# PCOD8097020 Si02
#       7
#     8   8   8   8   8   8   8
#     4  11  22  38  60  89 122 155 195 244 294 346
#     4  10  20  34  52  74 106 143 187 236 292 350
#     4  11  21  35  59  85 110 147 195 242 292 351
#     4  10  20  36  56  80 113 154 192 238 297 349
#     4  10  20  38  62  87 118 157 199 238 289 352
#     4   9  18  33  52  75 104 141 185 234 286 343
#     4   9  19  38  63  88 119 160 198 236 291 355
#
# _framework density 20.078502
#
# number of rings (size 3 to 8) (size 9 to 14) (size 15 to 20)
#    0.000    2.000    1.429    2.571    0.000    5.143 
#    0.000    2.857    0.000    6.857    0.000    0.000 
#    0.000    0.000    0.000    0.000    0.000    0.000 
#
# Total GULP energy -347182.484742 kJ/mol
# GULP energy per Si atom -12399.374455 kJ/mol
# Density = 2.003280 g / cm^3
# Si number density = 20.078502 Si / 1000 Ang^3
#
#
#
# Elastic Constant Matrix: (Units=GPa)
#
#
# Indices 1 2 3 4 5 6 
#
# 1 153.3984 41.2211 53.7956 0.0000 -2.9291 0.0000
# 2 41.2211 48.3204 27.5000 0.0000 -0.5024 0.0000
# 3 53.7956 27.5000 122.8545 0.0000 -5.8212 0.0000
# 4 0.0000 0.0000 0.0000 19.5881 0.0000 -2.8151
# 5 -2.9291 -0.5024 -5.8212 0.0000 29.4984 0.0000
# 6 0.0000 0.0000 0.0000 -2.8151 0.0000 29.8859
#
#
#
# Elastic Compliance Matrix: (Units=1/GPa)
#
#
# Indices 1 2 3 4 5 6 
#
# 1 0.009122 -0.006319 -0.002566 0.000000 0.000292 0.000000
# 2 -0.006319 0.028105 -0.003565 0.000000 -0.000852 0.000000
# 3 -0.002566 -0.003565 0.010141 0.000000 0.001686 0.000000
# 4 0.000000 0.000000 0.000000 0.051752 0.000000 0.004875
# 5 0.000292 -0.000852 0.001686 0.000000 0.034247 0.000000
# 6 0.000000 0.000000 0.000000 0.004875 0.000000 0.033920
#
#
# Mechanical properties :
#
#
# Convention : Reuss Voigt Hill
#
# Bulk Modulus (GPa) = 44.50435 63.28963 53.89699
# Shear Modulus (GPa) = 25.04037 29.26492 27.15264
#
# Velocity S-wave (km/s) = 3.53529 3.82190 3.68139
# Velocity P-wave (km/s) = 6.23520 7.14600 6.70608
#
# Compressibility (1/GPa) = 0.02246971
#
# Stress axis : x y z
#
# Youngs Moduli (GPa) = 109.61949 35.58039 98.60681
#
# Poissons Ratio (x) = 0.22482 0.25306
# Poissons Ratio (y) = 0.69264 0.35151
# Poissons Ratio (z) = 0.28132 0.12684
#
# Static dielectric constant tensor:
#      x y z
#    x 3.753500 0.000000 -0.032700 
#    y 0.000000 3.248350 0.000000 
#    z -0.032700 0.000000 3.806350 
# 
# 
# High freq. dielectric constant tensor:
#      x y z
#    x 1.794910 0.000000 -0.002640 
#    y 0.000000 1.744690 0.000000 
#    z -0.002640 0.000000 1.789480 
# 
# From -- ./inp_files/339083.got.cif
#   From: 2010.06.25/outbox.cif.g09.slc.cpg/sg12_170_cif.got.tgz:339083.got - 2010.06.28 00:19:55.
