data_PCOD8097721
_publ_section_title
;
Structure prediction by ZEFSAII (Michael W. Deem and Ramdas Pophale) SiO2 
 PCOD8097721
Probable space group: C 2/M
;
_chemical_formula_sum "Si O2"
_cell_formula_units_Z 64
_cell_length_a 30.774507
_cell_length_b 8.962436
_cell_length_c 22.465520
_cell_angle_alpha 90.000000
_cell_angle_beta 32.501821
_cell_angle_gamma 90.000000
_cell_volume 3329.444937
_symmetry_space_group_name_H-M "C 2/M"
_symmetry_group_IT_number 12
_symmetry_cell_setting 'monoclinic'
loop_
_space_group_symop_operation_xyz
x,y,z
-x,y,-z
-x,-y,-z
x,-y,z
1/2+x,1/2+y,z
1/2-x,1/2+y,-z
1/2-x,1/2-y,-z
1/2+x,1/2-y,z
loop_
_atom_site_type_symbol
_atom_site_label
_atom_site_fract_x
_atom_site_fract_y
_atom_site_fract_z
Si Si1 0.755979 0.324659 0.623698
Si Si2 0.893609 0.177485 0.279908
Si Si3 0.929314 0.671207 0.739823
Si Si4 0.436112 0.675075 0.949715
Si Si5 0.784375 0.175000 0.194923
Si Si6 0.186433 0.172616 0.208417
Si Si7 0.653876 0.167084 0.044287
Si Si8 0.411254 0.677181 0.394624
O O1 0.772762 0.500000 0.595551
O O2 0.687711 0.263586 0.657196
O O3 0.725063 0.288717 0.725331
O O4 0.836571 0.232123 0.520168
O O5 0.898733 0.236397 0.341676
O O6 0.971828 0.236689 0.151864
O O7 0.893102 0.000000 0.280133
O O8 0.951397 0.500000 0.701031
O O9 0.895163 0.745875 0.719122
O O10 0.859040 0.685617 0.870570
O O11 0.008745 0.755121 0.669528
O O12 0.439833 0.500000 0.950836
O O13 0.404167 0.716184 0.921281
O O14 0.373544 0.736131 0.071899
O O15 0.714935 0.258155 0.238007
O O16 0.776540 0.000000 0.190213
O O17 0.166787 0.000000 0.241379
O O18 0.253578 0.198550 0.079809
O O19 0.629730 0.000000 0.051479
O O20 0.417237 0.500000 0.389967
#
# Coordination Sequence:
#
# PCOD8097721 Si02
#       8
#     8   8   8   8   8   8   8   8
#     4  10  21  38  57  79 108 146 188 229 271 319
#     4   9  18  33  56  84 112 140 179 227 275 324
#     4  11  21  34  54  81 111 143 181 223 271 325
#     4   9  16  30  53  81 112 145 177 220 270 320
#     4   9  19  35  56  80 110 147 186 224 267 319
#     4  10  20  34  54  80 112 146 180 220 267 323
#     4   9  18  31  49  78 113 146 176 214 267 324
#     4  11  22  37  56  81 111 144 183 227 275 324
#
# _framework density 19.222422999999999
#
# number of rings (size 3 to 8) (size 9 to 14) (size 15 to 20)
#    0.000    2.250    1.250    1.875    0.000    2.000 
#    0.000    4.375    0.000    3.750    0.000    4.375 
#    0.000    0.000    0.000    0.000    0.000    0.000 
#
# Total GULP energy -396724.299430 kJ/mol
# GULP energy per Si atom -12397.634357 kJ/mol
# Density = 1.917867 g / cm^3
# Si number density = 19.222423 Si / 1000 Ang^3
#
#
#
# Elastic Constant Matrix: (Units=GPa)
#
#
# Indices 1 2 3 4 5 6 
#
# 1 75.1864 32.0605 41.0864 -0.0087 -15.0874 -0.0037
# 2 32.0605 53.0794 34.3969 -0.0295 -4.7451 0.0138
# 3 41.0864 34.3969 78.9037 -0.0207 -6.6671 0.0046
# 4 -0.0087 -0.0295 -0.0207 24.7567 0.0104 -0.4919
# 5 -15.0874 -4.7451 -6.6671 0.0104 25.6859 -0.0031
# 6 -0.0037 0.0138 0.0046 -0.4919 -0.0031 24.5428
#
#
#
# Elastic Compliance Matrix: (Units=1/GPa)
#
#
# Indices 1 2 3 4 5 6 
#
# 1 0.022852 -0.008008 -0.007565 -0.000012 0.009980 0.000010
# 2 -0.008008 0.029157 -0.008673 0.000025 -0.001569 -0.000016
# 3 -0.007565 -0.008673 0.020329 0.000004 -0.000769 0.000000
# 4 -0.000012 0.000025 0.000004 0.040409 -0.000017 0.000810
# 5 0.009980 -0.001569 -0.000769 -0.000017 0.044304 0.000008
# 6 0.000010 -0.000016 0.000000 0.000810 0.000008 0.040761
#
#
# Mechanical properties :
#
#
# Convention : Reuss Voigt Hill
#
# Bulk Modulus (GPa) = 41.93768 46.91746 44.42757
# Shear Modulus (GPa) = 19.66548 21.63878 20.65213
#
# Velocity S-wave (km/s) = 3.20198 3.35879 3.28133
# Velocity P-wave (km/s) = 5.96110 6.28511 6.12525
#
# Compressibility (1/GPa) = 0.02384491
#
# Stress axis : x y z
#
# Youngs Moduli (GPa) = 43.76076 34.29720 49.19143
#
# Poissons Ratio (x) = 0.27466 0.37213
# Poissons Ratio (y) = 0.35044 0.42664
# Poissons Ratio (z) = 0.33104 0.29746
#
# Static dielectric constant tensor:
#      x y z
#    x 3.429100 -0.000030 -0.088110 
#    y -0.000030 3.384510 0.000040 
#    z -0.088110 0.000040 3.639640 
# 
# 
# High freq. dielectric constant tensor:
#      x y z
#    x 1.740260 0.000000 -0.008930 
#    y 0.000000 1.733530 0.000000 
#    z -0.008930 0.000000 1.745300 
# 
# From -- ./inp_files/353310.got.cif
#   From: 2010.06.25/outbox.cif.g09.slc.cpg/sg12_177_cif.got.tgz:353310.got - 2010.06.28 00:19:55.
