data_PCOD8097601
_publ_section_title
;
Structure prediction by ZEFSAII (Michael W. Deem and Ramdas Pophale) SiO2 
 PCOD8097601
Probable space group: C 2/M
;
_chemical_formula_sum "Si O2"
_cell_formula_units_Z 56
_cell_length_a 19.344891
_cell_length_b 8.919322
_cell_length_c 19.761648
_cell_angle_alpha 90.000000
_cell_angle_beta 60.592609
_cell_angle_gamma 90.000000
_cell_volume 2970.396802
_symmetry_space_group_name_H-M "C 2/M"
_symmetry_group_IT_number 12
_symmetry_cell_setting 'monoclinic'
loop_
_space_group_symop_operation_xyz
x,y,z
-x,y,-z
-x,-y,-z
x,-y,z
1/2+x,1/2+y,z
1/2-x,1/2+y,-z
1/2-x,1/2-y,-z
1/2+x,1/2-y,z
loop_
_atom_site_type_symbol
_atom_site_label
_atom_site_fract_x
_atom_site_fract_y
_atom_site_fract_z
Si Si1 0.260682 0.677617 0.130400
Si Si2 0.085001 0.677195 0.991560
Si Si3 0.347353 0.825298 0.693153
Si Si4 0.136209 0.671185 0.599281
Si Si5 0.978534 0.826367 0.708647
Si Si6 0.290306 0.827005 0.574712
Si Si7 0.374442 0.676897 0.886830
O O1 0.268557 0.500000 0.116098
O O2 0.346983 0.753903 0.089202
O O3 0.221710 0.720144 0.221041
O O4 0.208290 0.744741 0.094231
O O5 0.096884 0.500000 0.993015
O O6 0.091549 0.754299 0.061154
O O7 0.000000 0.716604 0.000000
O O8 0.429780 0.748101 0.671589
O O9 0.324892 0.772315 0.629213
O O10 0.363521 0.000000 0.688404
O O11 0.118961 0.500000 0.626023
O O12 0.217451 0.719513 0.594845
O O13 0.142566 0.693689 0.515127
O O14 0.067831 0.769888 0.664662
O O15 0.940453 0.786380 0.799040
O O16 0.977855 0.000000 0.694854
O O17 0.261746 0.000000 0.591229
O O18 0.359345 0.500000 0.902664
#
# Coordination Sequence:
#
# PCOD8097601 Si02
#       7
#     8   8   8   8   8   8   8
#     4  10  20  36  59  82 106 139 177 217 263 317
#     4  11  24  39  55  79 111 142 174 217 264 311
#     4   9  19  36  57  80 106 138 177 220 265 313
#     4  10  20  34  54  78 107 144 181 219 265 317
#     4  10  21  36  55  80 109 139 175 221 266 312
#     4   9  19  36  55  77 107 142 181 222 264 313
#     4  10  21  38  59  80 105 140 179 218 262 314
#
# _framework density 18.852701
#
# number of rings (size 3 to 8) (size 9 to 14) (size 15 to 20)
#    0.000    2.143    0.000    2.571    0.000    6.286 
#    0.000    7.143    0.000    0.000    0.000    0.000 
#    0.000    0.000    0.000    0.000    0.000    0.000 
#
# Total GULP energy -347288.675732 kJ/mol
# GULP energy per Si atom -12403.166990 kJ/mol
# Density = 1.880979 g / cm^3
# Si number density = 18.852701 Si / 1000 Ang^3
#
#
#
# Elastic Constant Matrix: (Units=GPa)
#
#
# Indices 1 2 3 4 5 6 
#
# 1 58.6291 28.2057 10.1703 0.0000 -9.5980 -0.0002
# 2 28.2057 47.3857 23.0836 0.0000 2.9115 -0.0001
# 3 10.1703 23.0836 38.0350 0.0000 -11.5287 0.0000
# 4 0.0000 0.0000 0.0000 29.5410 0.0000 -5.6306
# 5 -9.5980 2.9115 -11.5287 0.0000 31.6177 0.0000
# 6 -0.0002 -0.0001 0.0000 -5.6306 0.0000 35.0601
#
#
#
# Elastic Compliance Matrix: (Units=1/GPa)
#
#
# Indices 1 2 3 4 5 6 
#
# 1 0.028906 -0.023532 0.011095 0.000000 0.014987 0.000000
# 2 -0.023532 0.052618 -0.032913 0.000000 -0.023990 0.000000
# 3 0.011095 -0.032913 0.050861 0.000000 0.024944 0.000000
# 4 0.000000 0.000000 0.000000 0.034920 0.000000 0.005608
# 5 0.014987 -0.023990 0.024944 0.000000 0.047482 0.000000
# 6 0.000000 0.000000 0.000000 0.005608 0.000000 0.029423
#
#
# Mechanical properties :
#
#
# Convention : Reuss Voigt Hill
#
# Bulk Modulus (GPa) = 23.98958 29.66323 26.82640
# Shear Modulus (GPa) = 14.33465 24.74978 19.54222
#
# Velocity S-wave (km/s) = 2.76044 3.62719 3.22308
# Velocity P-wave (km/s) = 4.78669 5.77151 5.30201
#
# Compressibility (1/GPa) = 0.04168477
#
# Stress axis : x y z
#
# Youngs Moduli (GPa) = 34.59478 19.00495 19.66148
#
# Poissons Ratio (x) = 0.44722 -0.21814
# Poissons Ratio (y) = 0.81407 0.64713
# Poissons Ratio (z) = -0.38383 0.62552
#
# Static dielectric constant tensor:
#      x y z
#    x 3.397100 0.000000 0.005510 
#    y 0.000000 3.524130 0.000000 
#    z 0.005510 0.000000 3.625030 
# 
# 
# High freq. dielectric constant tensor:
#      x y z
#    x 1.726830 0.000000 -0.001270 
#    y 0.000000 1.743030 0.000000 
#    z -0.001270 0.000000 1.740010 
# 
# From -- ./inp_files/275269.got.cif
#   From: 2010.06.25/outbox.cif.g09.slc.cpg/sg12_138_cif.got.tgz:275269.got - 2010.06.28 00:19:55.
