data_PCOD8097903
_publ_section_title
;
Structure prediction by ZEFSAII (Michael W. Deem and Ramdas Pophale) SiO2 
 PCOD8097903
Probable space group: C 2/M
;
_chemical_formula_sum "Si O2"
_cell_formula_units_Z 44
_cell_length_a 9.253457
_cell_length_b 27.102325
_cell_length_c 15.948781
_cell_angle_alpha 90.000000
_cell_angle_beta 144.432971
_cell_angle_gamma 90.000000
_cell_volume 2326.502374
_symmetry_space_group_name_H-M "C 2/M"
_symmetry_group_IT_number 12
_symmetry_cell_setting 'monoclinic'
loop_
_space_group_symop_operation_xyz
x,y,z
-x,y,-z
-x,-y,-z
x,-y,z
1/2+x,1/2+y,z
1/2-x,1/2+y,-z
1/2-x,1/2-y,-z
1/2+x,1/2-y,z
loop_
_atom_site_type_symbol
_atom_site_label
_atom_site_fract_x
_atom_site_fract_y
_atom_site_fract_z
Si Si1 0.405215 0.599314 0.543099
Si Si2 0.749072 0.783397 0.669882
Si Si3 0.113730 0.385441 0.644949
Si Si4 0.500000 0.875550 0.000000
Si Si5 0.052490 0.943074 0.789363
Si Si6 0.834823 0.190380 0.265093
O O1 0.500000 0.576532 0.500000
O O2 0.498695 0.566742 0.665551
O O3 0.499099 0.655589 0.596583
O O4 0.104663 0.599070 0.394857
O O5 0.500000 0.774515 0.500000
O O6 0.730541 0.831809 0.721445
O O7 0.789650 0.735490 0.745427
O O8 0.989599 0.789387 0.725404
O O9 0.318938 0.428364 0.737419
O O10 0.000000 0.377237 0.500000
O O11 0.281844 0.910894 0.931216
O O12 0.397080 0.841302 0.877584
O O13 0.112816 0.000000 0.831651
#
# Coordination Sequence:
#
# PCOD8097903 Si02
#       6
#     8   8   8   4   8   8
#     4  10  20  34  54  87 119 138 171 232 283 325
#     4  11  19  34  54  84 111 148 181 220 270 332
#     4   9  17  34  53  81 115 140 180 224 268 330
#     4  10  21  40  52  82 110 144 191 234 260 322
#     4  10  20  38  62  79 103 147 189 230 277 326
#     4  11  22  33  54  78 117 150 187 215 266 324
#
# _framework density 18.912510000000001
#
# number of rings (size 3 to 8) (size 9 to 14) (size 15 to 20)
#    0.000    1.818    7.273    1.364    2.545    4.364 
#    0.000    0.000    0.000    4.364    0.000    6.364 
#    0.000    0.000    0.000    0.000    0.000    0.000 
#
# Total GULP energy -272737.674526 kJ/mol
# GULP energy per Si atom -12397.167024 kJ/mol
# Density = 1.886946 g / cm^3
# Si number density = 18.912510 Si / 1000 Ang^3
#
#
#
# Elastic Constant Matrix: (Units=GPa)
#
#
# Indices 1 2 3 4 5 6 
#
# 1 99.0695 35.6603 49.5060 0.0000 21.4224 0.0000
# 2 35.6603 130.8243 48.7266 0.0000 5.5973 0.0000
# 3 49.5060 48.7266 90.6127 0.0000 19.4373 0.0000
# 4 0.0000 0.0000 0.0000 17.7104 0.0000 6.4696
# 5 21.4224 5.5973 19.4373 0.0000 15.8557 0.0000
# 6 0.0000 0.0000 0.0000 6.4696 0.0000 24.0510
#
#
#
# Elastic Compliance Matrix: (Units=1/GPa)
#
#
# Indices 1 2 3 4 5 6 
#
# 1 0.016597 -0.002188 -0.004405 0.000000 -0.016251 0.000000
# 2 -0.002188 0.010035 -0.005529 0.000000 0.006192 0.000000
# 3 -0.004405 -0.005529 0.019972 0.000000 -0.016581 0.000000
# 4 0.000000 0.000000 0.000000 0.062617 0.000000 -0.016844
# 5 -0.016251 0.006192 -0.016581 0.000000 0.103167 0.000000
# 6 0.000000 0.000000 0.000000 -0.016844 0.000000 0.046109
#
#
# Mechanical properties :
#
#
# Convention : Reuss Voigt Hill
#
# Bulk Modulus (GPa) = 44.72204 65.36582 55.04393
# Shear Modulus (GPa) = 17.22989 23.96432 20.59711
#
# Velocity S-wave (km/s) = 3.02160 3.56352 3.30369
# Velocity P-wave (km/s) = 5.98929 7.18114 6.61212
#
# Compressibility (1/GPa) = 0.02236034
#
# Stress axis : x y z
#
# Youngs Moduli (GPa) = 60.25248 99.65521 50.06896
#
# Poissons Ratio (x) = 0.21805 0.22055
# Poissons Ratio (y) = 0.13183 0.27682
# Poissons Ratio (z) = 0.26541 0.55097
#
# Static dielectric constant tensor:
#      x y z
#    x 3.333810 0.000000 0.361450 
#    y 0.000000 3.508760 0.000000 
#    z 0.361450 0.000000 3.447400 
# 
# 
# High freq. dielectric constant tensor:
#      x y z
#    x 1.711010 0.000000 0.032260 
#    y 0.000000 1.740540 0.000000 
#    z 0.032260 0.000000 1.714920 
# 
# From -- ./inp_files/200159.got.cif
#   From: 2010.06.25/outbox.cif.g09.slc.cpg/sg12_101_cif.got.tgz:200159.got - 2010.06.28 00:19:55.
