data_PCOD8097959
_publ_section_title
;
Structure prediction by ZEFSAII (Michael W. Deem and Ramdas Pophale) SiO2 
 PCOD8097959
Probable space group: C 2/M
;
_chemical_formula_sum "Si O2"
_cell_formula_units_Z 64
_cell_length_a 20.369003
_cell_length_b 9.079645
_cell_length_c 19.902042
_cell_angle_alpha 90.000000
_cell_angle_beta 63.934534
_cell_angle_gamma 90.000000
_cell_volume 3306.390090
_symmetry_space_group_name_H-M "C 2/M"
_symmetry_group_IT_number 12
_symmetry_cell_setting 'monoclinic'
loop_
_space_group_symop_operation_xyz
x,y,z
-x,y,-z
-x,-y,-z
x,-y,z
1/2+x,1/2+y,z
1/2-x,1/2+y,-z
1/2-x,1/2-y,-z
1/2+x,1/2-y,z
loop_
_atom_site_type_symbol
_atom_site_label
_atom_site_fract_x
_atom_site_fract_y
_atom_site_fract_z
Si Si1 0.798691 0.327024 0.422575
Si Si2 0.524271 0.171984 0.179565
Si Si3 0.265655 0.827892 0.674464
Si Si4 0.841088 0.165899 0.835839
Si Si5 0.033592 0.669549 0.649587
Si Si6 0.941836 0.330118 0.084191
Si Si7 0.098079 0.166421 0.341267
Si Si8 0.792926 0.829171 0.151198
O O1 0.781338 0.500000 0.426648
O O2 0.750000 0.250000 0.500000
O O3 0.783637 0.255039 0.357493
O O4 0.882485 0.298426 0.405249
O O5 0.601476 0.255860 0.140701
O O6 0.480466 0.213282 0.266687
O O7 0.475284 0.224508 0.139489
O O8 0.541964 0.000000 0.167023
O O9 0.347598 0.761272 0.636482
O O10 0.226715 0.798227 0.762645
O O11 0.271087 0.000000 0.654581
O O12 0.872499 0.171420 0.747086
O O13 0.764287 0.250343 0.872562
O O14 0.828670 0.000000 0.866312
O O15 0.012741 0.500000 0.647578
O O16 0.983171 0.764184 0.621722
O O17 0.917673 0.500000 0.099845
O O18 0.872099 0.232670 0.098652
O O19 0.000000 0.304168 0.000000
O O20 0.094271 0.000000 0.370686
O O21 0.790535 0.000000 0.135345
#
# Coordination Sequence:
#
# PCOD8097959 Si02
#       8
#     8   8   8   8   8   8   8   8
#     4  11  23  38  55  77 108 144 180 218 262 311
#     4   9  17  32  54  78 104 134 171 214 260 311
#     4  10  20  35  56  81 108 138 174 216 262 313
#     4   9  17  30  51  79 107 133 167 213 262 312
#     4   9  18  33  54  78 104 136 171 211 261 313
#     4  10  21  36  53  75 106 143 180 219 264 314
#     4   9  17  30  52  81 108 133 166 213 263 310
#     4  10  20  34  55  81 107 137 174 217 263 312
#
# _framework density 19.356459000000001
#
# number of rings (size 3 to 8) (size 9 to 14) (size 15 to 20)
#    0.000    2.375    0.000    2.625    0.000    7.250 
#    0.000    3.750    0.000    3.750    0.000    0.000 
#    0.000    0.000    0.000    0.000    0.000    0.000 
#
# Total GULP energy -396889.534787 kJ/mol
# GULP energy per Si atom -12402.797962 kJ/mol
# Density = 1.931240 g / cm^3
# Si number density = 19.356459 Si / 1000 Ang^3
#
#
#
# Elastic Constant Matrix: (Units=GPa)
#
#
# Indices 1 2 3 4 5 6 
#
# 1 109.6147 57.4566 22.5315 0.0000 -31.0605 0.0000
# 2 57.4566 110.2830 28.2217 -0.0002 -18.9485 -0.0001
# 3 22.5315 28.2217 38.4976 0.0000 -14.8834 0.0000
# 4 0.0000 -0.0002 0.0000 22.9010 0.0000 -4.2718
# 5 -31.0605 -18.9485 -14.8834 0.0000 17.6475 0.0000
# 6 0.0000 -0.0001 0.0000 -4.2718 0.0000 41.3566
#
#
#
# Elastic Compliance Matrix: (Units=1/GPa)
#
#
# Indices 1 2 3 4 5 6 
#
# 1 0.021506 -0.006602 0.006152 0.000000 0.035952 0.000000
# 2 -0.006602 0.013908 -0.007494 0.000000 -0.003006 0.000000
# 3 0.006152 -0.007494 0.042947 0.000000 0.039001 0.000000
# 4 0.000000 0.000000 0.000000 0.044524 0.000000 0.004599
# 5 0.035952 -0.003006 0.039001 0.000000 0.149608 0.000000
# 6 0.000000 0.000000 0.000000 0.004599 0.000000 0.024655
#
#
# Mechanical properties :
#
#
# Convention : Reuss Voigt Hill
#
# Bulk Modulus (GPa) = 16.00680 52.75721 34.38200
# Shear Modulus (GPa) = 14.97632 26.39340 20.68486
#
# Velocity S-wave (km/s) = 2.78459 3.69663 3.27253
# Velocity P-wave (km/s) = 4.31578 6.74795 5.66396
#
# Compressibility (1/GPa) = 0.06247346
#
# Stress axis : x y z
#
# Youngs Moduli (GPa) = 46.49868 71.89964 23.28442
#
# Poissons Ratio (x) = 0.47465 -0.14324
# Poissons Ratio (y) = 0.30697 0.17450
# Poissons Ratio (z) = -0.28605 0.53883
#
# Static dielectric constant tensor:
#      x y z
#    x 3.694650 0.000000 -0.015370 
#    y 0.000000 3.615620 0.000000 
#    z -0.015370 0.000000 3.192720 
# 
# 
# High freq. dielectric constant tensor:
#      x y z
#    x 1.767190 0.000000 -0.007010 
#    y 0.000000 1.759910 0.000000 
#    z -0.007010 0.000000 1.717540 
# 
# From -- ./inp_files/319921.got.cif
#   From: 2010.06.25/outbox.cif.g09.slc.cpg/sg12_160_cif.got.tgz:319921.got - 2010.06.28 00:19:55.
