data_PCOD8097585
_publ_section_title
;
Structure prediction by ZEFSAII (Michael W. Deem and Ramdas Pophale) SiO2 
 PCOD8097585
Probable space group: C 2/M
;
_chemical_formula_sum "Si O2"
_cell_formula_units_Z 40
_cell_length_a 18.927021
_cell_length_b 9.028416
_cell_length_c 15.239799
_cell_angle_alpha 90.000000
_cell_angle_beta 53.966321
_cell_angle_gamma 90.000000
_cell_volume 2105.935770
_symmetry_space_group_name_H-M "C 2/M"
_symmetry_group_IT_number 12
_symmetry_cell_setting 'monoclinic'
loop_
_space_group_symop_operation_xyz
x,y,z
-x,y,-z
-x,-y,-z
x,-y,z
1/2+x,1/2+y,z
1/2-x,1/2+y,-z
1/2-x,1/2-y,-z
1/2+x,1/2-y,z
loop_
_atom_site_type_symbol
_atom_site_label
_atom_site_fract_x
_atom_site_fract_y
_atom_site_fract_z
Si Si1 0.555743 0.829730 0.090283
Si Si2 0.077652 0.825325 0.251221
Si Si3 0.573033 0.663076 0.520500
Si Si4 0.193986 0.674269 0.310949
Si Si5 0.368910 0.170722 0.151154
O O1 0.590602 0.726905 0.142554
O O2 0.456637 0.788156 0.138901
O O3 0.561408 0.000000 0.115747
O O4 0.617706 0.800438 0.961948
O O5 0.149737 0.748523 0.259110
O O6 0.978625 0.783016 0.354492
O O7 0.093191 0.000000 0.247138
O O8 0.500000 0.652162 0.500000
O O9 0.614953 0.500000 0.504327
O O10 0.648078 0.776633 0.435926
O O11 0.186206 0.500000 0.307768
O O12 0.294366 0.722608 0.242473
O O13 0.343185 0.000000 0.185791
#
# Coordination Sequence:
#
# PCOD8097585 Si02
#       5
#     8   8   8   8   8
#     4   9  19  36  57  77  99 133 173 211 254 304
#     4  10  20  34  54  78 105 136 168 208 257 303
#     4   8  16  32  51  72 101 136 168 203 255 306
#     4  11  21  32  52  80 105 133 172 213 250 296
#     4   9  19  37  56  74 102 137 169 207 259 308
#
# _framework density 18.993932000000001
#
# number of rings (size 3 to 8) (size 9 to 14) (size 15 to 20)
#    0.000    2.600    0.000    4.800    0.000    6.800 
#    0.000    3.000    0.000    0.000    0.000    0.000 
#    0.000    0.000    0.000    0.000    0.000    0.000 
#
# Total GULP energy -247969.529188 kJ/mol
# GULP energy per Si atom -12398.476459 kJ/mol
# Density = 1.895070 g / cm^3
# Si number density = 18.993932 Si / 1000 Ang^3
#
#
#
# Elastic Constant Matrix: (Units=GPa)
#
#
# Indices 1 2 3 4 5 6 
#
# 1 23.7274 14.4078 -0.3582 -0.0001 -12.7532 0.0002
# 2 14.4078 86.9943 14.7256 -0.0003 -15.7240 0.0005
# 3 -0.3582 14.7256 36.4175 -0.0001 -17.5366 0.0001
# 4 -0.0001 -0.0003 -0.0001 29.7873 0.0000 1.0053
# 5 -12.7532 -15.7240 -17.5366 0.0000 30.9362 0.0000
# 6 0.0002 0.0005 0.0001 1.0053 0.0000 27.3741
#
#
#
# Elastic Compliance Matrix: (Units=1/GPa)
#
#
# Indices 1 2 3 4 5 6 
#
# 1 0.066172 -0.008166 0.020756 0.000000 0.034894 0.000000
# 2 -0.008166 0.013873 -0.005386 0.000000 0.000632 0.000000
# 3 0.020756 -0.005386 0.044899 0.000000 0.031271 0.000000
# 4 0.000000 0.000000 0.000000 0.033613 0.000000 -0.001234
# 5 0.034894 0.000632 0.031271 0.000000 0.064757 0.000000
# 6 0.000000 0.000000 0.000000 -0.001234 0.000000 0.036576
#
#
# Mechanical properties :
#
#
# Convention : Reuss Voigt Hill
#
# Bulk Modulus (GPa) = 7.17596 22.74327 14.95961
# Shear Modulus (GPa) = 17.12720 25.51046 21.31883
#
# Velocity S-wave (km/s) = 3.00612 3.66879 3.35386
# Velocity P-wave (km/s) = 3.97935 5.47235 4.78445
#
# Compressibility (1/GPa) = 0.13935425
#
# Stress axis : x y z
#
# Youngs Moduli (GPa) = 15.11207 72.08108 22.27200
#
# Poissons Ratio (x) = 0.58858 -0.46227
# Poissons Ratio (y) = 0.12340 0.11995
# Poissons Ratio (z) = -0.31366 0.38820
#
# Static dielectric constant tensor:
#      x y z
#    x 3.117970 0.000000 -0.050680 
#    y 0.000000 3.363440 0.000000 
#    z -0.050680 0.000000 3.790260 
# 
# 
# High freq. dielectric constant tensor:
#      x y z
#    x 1.709490 0.000000 -0.007400 
#    y 0.000000 1.734180 0.000000 
#    z -0.007400 0.000000 1.745950 
# 
# From -- ./inp_files/220594.got.cif
#   From: 2010.06.25/outbox.cif.g09.slc.cpg/sg12_111_cif.got.tgz:220594.got - 2010.06.28 00:19:55.
