data_PCOD8097320
_publ_section_title
;
Structure prediction by ZEFSAII (Michael W. Deem and Ramdas Pophale) SiO2 
 PCOD8097320
Probable space group: C 2/M
;
_chemical_formula_sum "Si O2"
_cell_formula_units_Z 64
_cell_length_a 19.425487
_cell_length_b 8.961265
_cell_length_c 19.956311
_cell_angle_alpha 90.000000
_cell_angle_beta 89.448665
_cell_angle_gamma 90.000000
_cell_volume 3473.772655
_symmetry_space_group_name_H-M "C 2/M"
_symmetry_group_IT_number 12
_symmetry_cell_setting 'monoclinic'
loop_
_space_group_symop_operation_xyz
x,y,z
-x,y,-z
-x,-y,-z
x,-y,z
1/2+x,1/2+y,z
1/2-x,1/2+y,-z
1/2-x,1/2-y,-z
1/2+x,1/2-y,z
loop_
_atom_site_type_symbol
_atom_site_label
_atom_site_fract_x
_atom_site_fract_y
_atom_site_fract_z
Si Si1 0.676737 0.674346 0.574721
Si Si2 0.580339 0.326802 0.809481
Si Si3 0.174867 0.827609 0.931632
Si Si4 0.421626 0.673994 0.818176
Si Si5 0.317026 0.325521 0.580310
Si Si6 0.584098 0.827565 0.318344
Si Si7 0.333410 0.827655 0.930756
Si Si8 0.577147 0.828074 0.673959
O O1 0.684112 0.500000 0.587979
O O2 0.666394 0.711299 0.496857
O O3 0.744862 0.753159 0.602617
O O4 0.610725 0.736992 0.613378
O O5 0.590557 0.500000 0.792040
O O6 0.628573 0.276327 0.869901
O O7 0.501841 0.291479 0.830031
O O8 0.603744 0.233003 0.744823
O O9 0.254174 0.801497 0.911323
O O10 0.161545 0.000000 0.950766
O O11 0.153090 0.725317 0.993825
O O12 0.408103 0.500000 0.807608
O O13 0.393944 0.759166 0.753035
O O14 0.380520 0.729811 0.882525
O O15 0.312538 0.500000 0.594292
O O16 0.377825 0.256098 0.622605
O O17 0.503845 0.802948 0.331900
O O18 0.605024 0.000000 0.318194
O O19 0.354450 0.000000 0.924304
O O20 0.598072 0.000000 0.667882
#
# Coordination Sequence:
#
# PCOD8097320 Si02
#       8
#     8   8   8   8   8   8   8   8
#     4  10  21  37  57  80 109 143 178 220 268 318
#     4   9  19  36  56  76 101 137 179 220 262 310
#     4   9  19  36  55  75 101 135 175 215 257 310
#     4  10  20  35  55  77 104 138 176 218 261 312
#     4  10  21  37  57  81 108 140 180 223 266 316
#     4  10  21  37  56  79 109 143 178 220 269 318
#     4  10  20  34  53  77 106 137 170 214 265 316
#     4  10  21  36  55  80 110 142 178 221 267 319
#
# _framework density 18.423772
#
# number of rings (size 3 to 8) (size 9 to 14) (size 15 to 20)
#    0.000    2.250    0.000    2.250    0.000    6.500 
#    0.000    8.750    0.000    0.000    0.000    0.000 
#    0.000    0.000    0.000    0.000    0.000    0.000 
#
# Total GULP energy -396967.917861 kJ/mol
# GULP energy per Si atom -12405.247433 kJ/mol
# Density = 1.838184 g / cm^3
# Si number density = 18.423772 Si / 1000 Ang^3
#
#
#
# Elastic Constant Matrix: (Units=GPa)
#
#
# Indices 1 2 3 4 5 6 
#
# 1 52.5184 28.8864 39.2760 0.0000 13.8493 0.0000
# 2 28.8864 76.9464 35.8940 0.0000 9.2952 0.0000
# 3 39.2760 35.8940 73.8917 0.0000 18.4183 0.0000
# 4 0.0000 0.0000 0.0000 37.6288 0.0000 -2.4429
# 5 13.8493 9.2952 18.4183 0.0000 35.6355 0.0000
# 6 0.0000 0.0000 0.0000 -2.4429 0.0000 33.0669
#
#
#
# Elastic Compliance Matrix: (Units=1/GPa)
#
#
# Indices 1 2 3 4 5 6 
#
# 1 0.033887 -0.005559 -0.014223 0.000000 -0.004369 0.000000
# 2 -0.005559 0.017717 -0.005783 0.000000 0.000528 0.000000
# 3 -0.014223 -0.005783 0.025424 0.000000 -0.006104 0.000000
# 4 0.000000 0.000000 0.000000 0.026703 0.000000 0.001973
# 5 -0.004369 0.000528 -0.006104 0.000000 0.032777 0.000000
# 6 0.000000 0.000000 0.000000 0.001973 0.000000 0.030388
#
#
# Mechanical properties :
#
#
# Convention : Reuss Voigt Hill
#
# Bulk Modulus (GPa) = 38.61280 45.71879 42.16579
# Shear Modulus (GPa) = 22.05957 27.88625 24.97291
#
# Velocity S-wave (km/s) = 3.46402 3.89472 3.68567
# Velocity P-wave (km/s) = 6.08300 6.71522 6.40691
#
# Compressibility (1/GPa) = 0.02589815
#
# Stress axis : x y z
#
# Youngs Moduli (GPa) = 29.50962 56.44337 39.33284
#
# Poissons Ratio (x) = 0.31378 0.55943
# Poissons Ratio (y) = 0.16405 0.22746
# Poissons Ratio (z) = 0.41971 0.32641
#
# Static dielectric constant tensor:
#      x y z
#    x 3.360380 0.000000 0.034630 
#    y 0.000000 3.515420 0.000000 
#    z 0.034630 0.000000 3.373380 
# 
# 
# High freq. dielectric constant tensor:
#      x y z
#    x 1.712360 0.000000 0.000320 
#    y 0.000000 1.727810 0.000000 
#    z 0.000320 0.000000 1.717460 
# 
# From -- ./inp_files/313991.got.cif
#   From: 2010.06.25/outbox.cif.g09.slc.cpg/sg12_157_cif.got.tgz:313991.got - 2010.06.28 00:19:55.
