data_PCOD8097775
_publ_section_title
;
Structure prediction by ZEFSAII (Michael W. Deem and Ramdas Pophale) SiO2 
 PCOD8097775
Probable space group: C 2/M
;
_chemical_formula_sum "Si O2"
_cell_formula_units_Z 56
_cell_length_a 14.179315
_cell_length_b 9.065235
_cell_length_c 32.264542
_cell_angle_alpha 90.000000
_cell_angle_beta 133.653250
_cell_angle_gamma 90.000000
_cell_volume 3000.659664
_symmetry_space_group_name_H-M "C 2/M"
_symmetry_group_IT_number 12
_symmetry_cell_setting 'monoclinic'
loop_
_space_group_symop_operation_xyz
x,y,z
-x,y,-z
-x,-y,-z
x,-y,z
1/2+x,1/2+y,z
1/2-x,1/2+y,-z
1/2-x,1/2-y,-z
1/2+x,1/2-y,z
loop_
_atom_site_type_symbol
_atom_site_label
_atom_site_fract_x
_atom_site_fract_y
_atom_site_fract_z
Si Si1 0.616106 0.171417 0.737987
Si Si2 0.058378 0.330146 0.953111
Si Si3 0.826200 0.170949 0.559360
Si Si4 0.372818 0.329151 0.342844
Si Si5 0.741169 0.173550 0.144116
Si Si6 0.243403 0.671295 0.933326
Si Si7 0.815048 0.670610 0.640107
O O1 0.661882 0.230680 0.707321
O O2 0.692764 0.261002 0.795542
O O3 0.463155 0.199774 0.698775
O O4 0.651645 0.000000 0.751883
O O5 0.072473 0.500000 0.970593
O O6 0.131776 0.296711 0.932722
O O7 0.910460 0.283794 0.901021
O O8 0.119060 0.235366 0.008835
O O9 0.750000 0.250000 0.500000
O O10 0.779215 0.235301 0.588939
O O11 0.979091 0.198847 0.598358
O O12 0.790642 0.000000 0.547929
O O13 0.349480 0.500000 0.324298
O O14 0.278854 0.277782 0.351369
O O15 0.803821 0.246474 0.122395
O O16 0.765002 0.000000 0.150388
O O17 0.261345 0.500000 0.929228
O O18 0.792057 0.500000 0.622068
#
# Coordination Sequence:
#
# PCOD8097775 Si02
#       7
#     8   8   8   8   8   8   8
#     4  10  21  36  54  78 105 132 171 222 263 299
#     4   9  20  37  54  74 103 138 170 204 256 317
#     4  10  20  34  54  81 112 141 174 215 255 302
#     4   9  19  37  58  77 102 141 179 210 255 312
#     4  11  22  36  54  75 104 140 173 207 255 316
#     4  10  20  35  55  78 103 131 169 216 259 303
#     4   9  19  37  58  77 103 140 177 214 259 307
#
# _framework density 18.662564
#
# number of rings (size 3 to 8) (size 9 to 14) (size 15 to 20)
#    0.000    2.286    0.000    2.143    0.000    6.857 
#    0.000    8.571    0.000    0.000    0.000    0.000 
#    0.000    0.000    0.000    0.000    0.000    0.000 
#
# Total GULP energy -347330.470185 kJ/mol
# GULP energy per Si atom -12404.659649 kJ/mol
# Density = 1.862009 g / cm^3
# Si number density = 18.662564 Si / 1000 Ang^3
#
#
#
# Elastic Constant Matrix: (Units=GPa)
#
#
# Indices 1 2 3 4 5 6 
#
# 1 108.7491 45.3744 48.1840 0.0000 -19.2197 0.0000
# 2 45.3744 100.2776 68.3241 0.0000 -15.0191 0.0000
# 3 48.1840 68.3241 124.9036 0.0000 -19.6627 0.0000
# 4 0.0000 0.0000 0.0000 41.7168 0.0000 -5.5870
# 5 -19.2197 -15.0191 -19.6627 0.0000 19.4270 0.0000
# 6 0.0000 0.0000 0.0000 -5.5870 0.0000 29.7813
#
#
#
# Elastic Compliance Matrix: (Units=1/GPa)
#
#
# Indices 1 2 3 4 5 6 
#
# 1 0.012863 -0.003327 -0.001837 0.000000 0.008295 0.000000
# 2 -0.003327 0.017044 -0.007713 0.000000 0.002079 0.000000
# 3 -0.001837 -0.007713 0.013928 0.000000 0.006317 0.000000
# 4 0.000000 0.000000 0.000000 0.024589 0.000000 0.004613
# 5 0.008295 0.002079 0.006317 0.000000 0.067683 0.000000
# 6 0.000000 0.000000 0.000000 0.004613 0.000000 0.034443
#
#
# Mechanical properties :
#
#
# Convention : Reuss Voigt Hill
#
# Bulk Modulus (GPa) = 55.29898 73.07726 64.18812
# Shear Modulus (GPa) = 24.71197 29.65487 27.18342
#
# Velocity S-wave (km/s) = 3.64283 3.99055 3.82065
# Velocity P-wave (km/s) = 6.88396 7.77656 7.34383
#
# Compressibility (1/GPa) = 0.01808352
#
# Stress axis : x y z
#
# Youngs Moduli (GPa) = 77.74030 58.67133 71.79697
#
# Poissons Ratio (x) = 0.19518 0.13187
# Poissons Ratio (y) = 0.25862 0.55375
# Poissons Ratio (z) = 0.14278 0.45251
#
# Static dielectric constant tensor:
#      x y z
#    x 3.548580 0.000000 -0.053630 
#    y 0.000000 3.507200 0.000000 
#    z -0.053630 0.000000 3.372690 
# 
# 
# High freq. dielectric constant tensor:
#      x y z
#    x 1.728880 0.000000 -0.007680 
#    y 0.000000 1.732210 0.000000 
#    z -0.007680 0.000000 1.723960 
# 
# From -- ./inp_files/338148.got.cif
#   From: 2010.06.25/outbox.cif.g09.slc.cpg/sg12_170_cif.got.tgz:338148.got - 2010.06.28 00:19:55.
