data_PCOD8097878
_publ_section_title
;
Structure prediction by ZEFSAII (Michael W. Deem and Ramdas Pophale) SiO2 
 PCOD8097878
Probable space group: C 2/M
;
_chemical_formula_sum "Si O2"
_cell_formula_units_Z 64
_cell_length_a 29.537139
_cell_length_b 9.248599
_cell_length_c 23.789217
_cell_angle_alpha 90.000000
_cell_angle_beta 149.667707
_cell_angle_gamma 90.000000
_cell_volume 3281.920739
_symmetry_space_group_name_H-M "C 2/M"
_symmetry_group_IT_number 12
_symmetry_cell_setting 'monoclinic'
loop_
_space_group_symop_operation_xyz
x,y,z
-x,y,-z
-x,-y,-z
x,-y,z
1/2+x,1/2+y,z
1/2-x,1/2+y,-z
1/2-x,1/2-y,-z
1/2+x,1/2-y,z
loop_
_atom_site_type_symbol
_atom_site_label
_atom_site_fract_x
_atom_site_fract_y
_atom_site_fract_z
Si Si1 0.130319 0.670714 0.522965
Si Si2 0.034678 0.843714 0.190996
Si Si3 0.111935 0.670378 0.907034
Si Si4 0.432821 0.829190 0.266900
Si Si5 0.760032 0.171204 0.271750
Si Si6 0.085610 0.162963 0.120055
Si Si7 0.221345 0.170035 0.839300
Si Si8 0.736522 0.335215 0.430575
O O1 0.135936 0.500000 0.541756
O O2 0.152149 0.756214 0.604550
O O3 0.206324 0.723629 0.560695
O O4 0.034410 0.712710 0.393017
O O5 0.042165 0.850363 0.133514
O O6 0.133198 0.807544 0.314737
O O7 0.969825 0.719033 0.142223
O O8 0.001555 0.000000 0.179090
O O9 0.111846 0.500000 0.906163
O O10 0.095689 0.728293 0.825982
O O11 0.202858 0.725806 0.035117
O O12 0.369945 0.752409 0.244712
O O13 0.418922 0.000000 0.255578
O O14 0.671920 0.236163 0.206886
O O15 0.754954 0.208138 0.199897
O O16 0.763682 0.000000 0.285585
O O17 0.109629 0.000000 0.123860
O O18 0.000000 0.237150 0.000000
O O19 0.206023 0.000000 0.829954
O O20 0.765065 0.500000 0.469477
O O21 0.750000 0.250000 0.500000
#
# Coordination Sequence:
#
# PCOD8097878 Si02
#       8
#     8   8   8   8   8   8   8   8
#     4  10  21  40  60  82 119 157 195 246 291 342
#     4  10  20  34  54  84 115 148 187 226 276 336
#     4  10  21  39  61  87 119 152 189 240 300 355
#     4  10  22  39  63  89 111 149 201 246 295 352
#     4  11  23  38  58  86 119 157 199 241 291 350
#     4  10  20  36  58  83 115 154 192 234 285 341
#     4  10  23  41  60  85 119 153 189 244 305 354
#     4  10  20  35  55  80 115 151 187 232 282 338
#
# _framework density 19.500775999999998
#
# number of rings (size 3 to 8) (size 9 to 14) (size 15 to 20)
#    0.000    1.875    1.250    2.250    0.000    5.750 
#    0.000    2.500    0.000    0.000    0.000    0.000 
#    0.000    0.000    0.000    0.000    0.000    0.000 
#
# Total GULP energy -396525.513491 kJ/mol
# GULP energy per Si atom -12391.422297 kJ/mol
# Density = 1.945639 g / cm^3
# Si number density = 19.500776 Si / 1000 Ang^3
#
#
#
# Elastic Constant Matrix: (Units=GPa)
#
#
# Indices 1 2 3 4 5 6 
#
# 1 86.7487 36.7340 34.3511 0.0000 -4.6049 0.0000
# 2 36.7340 49.4096 31.0135 0.0000 -13.4559 0.0000
# 3 34.3511 31.0135 162.4221 0.0000 5.9958 0.0000
# 4 0.0000 0.0000 0.0000 33.2940 0.0000 2.4711
# 5 -4.6049 -13.4559 5.9958 0.0000 54.8743 0.0000
# 6 0.0000 0.0000 0.0000 2.4711 0.0000 36.2498
#
#
#
# Elastic Compliance Matrix: (Units=1/GPa)
#
#
# Indices 1 2 3 4 5 6 
#
# 1 0.017188 -0.012420 -0.001209 0.000000 -0.001471 0.000000
# 2 -0.012420 0.034235 -0.004199 0.000000 0.007812 0.000000
# 3 -0.001209 -0.004199 0.007285 0.000000 -0.001927 0.000000
# 4 0.000000 0.000000 0.000000 0.030188 0.000000 -0.002058
# 5 -0.001471 0.007812 -0.001927 0.000000 0.020226 0.000000
# 6 0.000000 0.000000 0.000000 -0.002058 0.000000 0.027727
#
#
# Mechanical properties :
#
#
# Convention : Reuss Voigt Hill
#
# Bulk Modulus (GPa) = 43.37868 55.86419 49.62143
# Shear Modulus (GPa) = 27.74862 37.98240 32.86551
#
# Velocity S-wave (km/s) = 3.77629 4.41811 4.10975
# Velocity P-wave (km/s) = 6.42703 7.39835 6.92973
#
# Compressibility (1/GPa) = 0.02305280
#
# Stress axis : x y z
#
# Youngs Moduli (GPa) = 58.18172 29.20948 137.26078
#
# Poissons Ratio (x) = 0.36278 0.16598
# Poissons Ratio (y) = 0.72261 0.57632
# Poissons Ratio (z) = 0.07036 0.12264
#
# Static dielectric constant tensor:
#      x y z
#    x 3.565700 0.000000 -0.160810 
#    y 0.000000 3.509320 0.000000 
#    z -0.160810 0.000000 3.854510 
# 
# 
# High freq. dielectric constant tensor:
#      x y z
#    x 1.757400 0.000000 -0.008420 
#    y 0.000000 1.747660 0.000000 
#    z -0.008420 0.000000 1.780120 
# 
# From -- ./inp_files/353509.got.cif
#   From: 2010.06.25/outbox.cif.g09.slc.cpg/sg12_177_cif.got.tgz:353509.got - 2010.06.28 00:19:55.
