data_PCOD8097931
_publ_section_title
;
Structure prediction by ZEFSAII (Michael W. Deem and Ramdas Pophale) SiO2 
 PCOD8097931
Probable space group: C 2/M
;
_chemical_formula_sum "Si O2"
_cell_formula_units_Z 56
_cell_length_a 18.297737
_cell_length_b 9.241693
_cell_length_c 29.235445
_cell_angle_alpha 90.000000
_cell_angle_beta 142.389543
_cell_angle_gamma 90.000000
_cell_volume 3017.134744
_symmetry_space_group_name_H-M "C 2/M"
_symmetry_group_IT_number 12
_symmetry_cell_setting 'monoclinic'
loop_
_space_group_symop_operation_xyz
x,y,z
-x,y,-z
-x,-y,-z
x,-y,z
1/2+x,1/2+y,z
1/2-x,1/2+y,-z
1/2-x,1/2-y,-z
1/2+x,1/2-y,z
loop_
_atom_site_type_symbol
_atom_site_label
_atom_site_fract_x
_atom_site_fract_y
_atom_site_fract_z
Si Si1 0.699642 0.669232 0.291535
Si Si2 0.945554 0.831763 0.424236
Si Si3 0.835509 0.331314 0.137641
Si Si4 0.873480 0.831226 0.566317
Si Si5 0.989333 0.667647 0.857232
Si Si6 0.592651 0.165797 0.005375
Si Si7 0.475650 0.331797 0.713692
O O1 0.710984 0.500000 0.287880
O O2 0.829881 0.736996 0.357694
O O3 0.626267 0.738955 0.213395
O O4 0.633784 0.703420 0.306604
O O5 0.000000 0.789810 0.500000
O O6 0.042841 0.790797 0.434555
O O7 0.909709 0.000000 0.404285
O O8 0.826722 0.500000 0.143707
O O9 0.704040 0.267230 0.070271
O O10 0.901078 0.298575 0.122362
O O11 0.907179 0.257940 0.214659
O O12 0.750000 0.750000 0.500000
O O13 0.938353 0.780963 0.644842
O O14 0.844345 0.000000 0.553732
O O15 0.952143 0.500000 0.836784
O O16 0.029042 0.715594 0.927224
O O17 0.636456 0.000000 0.023046
O O18 0.500000 0.186480 0.000000
O O19 0.510192 0.500000 0.732470
#
# Coordination Sequence:
#
# PCOD8097931 Si02
#       7
#     8   8   8   8   8   8   8
#     4  10  20  34  55  80 104 134 172 215 258 300
#     4  10  21  36  54  77 106 139 172 209 257 310
#     4  10  20  34  55  80 104 134 172 215 259 302
#     4  10  21  36  55  78 104 137 174 213 257 304
#     4   9  19  36  56  77 103 137 174 210 254 309
#     4  10  21  36  54  76 104 139 174 210 256 308
#     4   9  19  36  55  76 104 137 173 211 254 307
#
# _framework density 18.560655000000001
#
# number of rings (size 3 to 8) (size 9 to 14) (size 15 to 20)
#    0.000    2.286    0.000    2.143    0.000    4.571 
#    0.000    5.714    0.000    0.000    0.000    0.000 
#    0.000    0.000    0.000    0.000    0.000    0.000 
#
# Total GULP energy -347340.701943 kJ/mol
# GULP energy per Si atom -12405.025069 kJ/mol
# Density = 1.851841 g / cm^3
# Si number density = 18.560655 Si / 1000 Ang^3
#
#
#
# Elastic Constant Matrix: (Units=GPa)
#
#
# Indices 1 2 3 4 5 6 
#
# 1 95.6344 51.8631 90.5952 0.0000 -7.6023 0.0000
# 2 51.8631 86.3163 84.2714 0.0000 10.1669 0.0000
# 3 90.5952 84.2714 179.4443 0.0000 -4.0973 0.0000
# 4 0.0000 0.0000 0.0000 14.3401 0.0000 10.4831
# 5 -7.6023 10.1669 -4.0973 0.0000 36.0693 0.0000
# 6 0.0000 0.0000 0.0000 10.4831 0.0000 27.1087
#
#
#
# Elastic Compliance Matrix: (Units=1/GPa)
#
#
# Indices 1 2 3 4 5 6 
#
# 1 0.021684 -0.005679 -0.008161 0.000000 0.005244 0.000000
# 2 -0.005679 0.024919 -0.009047 0.000000 -0.009249 0.000000
# 3 -0.008161 -0.009047 0.013997 0.000000 0.002420 0.000000
# 4 0.000000 0.000000 0.000000 0.097217 0.000000 -0.037594
# 5 0.005244 -0.009249 0.002420 0.000000 0.031711 0.000000
# 6 0.000000 0.000000 0.000000 -0.037594 0.000000 0.051426
#
#
# Mechanical properties :
#
#
# Convention : Reuss Voigt Hill
#
# Bulk Modulus (GPa) = 67.44519 90.53939 78.99229
# Shear Modulus (GPa) = 17.14269 24.48132 20.81201
#
# Velocity S-wave (km/s) = 3.04238 3.63573 3.35221
# Velocity P-wave (km/s) = 6.98270 8.15542 7.59174
#
# Compressibility (1/GPa) = 0.01482685
#
# Stress axis : x y z
#
# Youngs Moduli (GPa) = 46.11750 40.12948 71.44594
#
# Poissons Ratio (x) = 0.22790 0.58304
# Poissons Ratio (y) = 0.26190 0.64635
# Poissons Ratio (z) = 0.37635 0.36304
#
# Static dielectric constant tensor:
#      x y z
#    x 3.417420 0.000000 -0.173220 
#    y 0.000000 3.402190 0.000000 
#    z -0.173220 0.000000 3.523000 
# 
# 
# High freq. dielectric constant tensor:
#      x y z
#    x 1.719520 0.000000 -0.003780 
#    y 0.000000 1.719540 0.000000 
#    z -0.003780 0.000000 1.732170 
# 
# From -- ./inp_files/275560.got.cif
#   From: 2010.06.25/outbox.cif.g09.slc.cpg/sg12_138_cif.got.tgz:275560.got - 2010.06.28 00:19:55.
