data_PCOD8097006
_publ_section_title
;
Structure prediction by ZEFSAII (Michael W. Deem and Ramdas Pophale) SiO2 
 PCOD8097006
Probable space group: C 2/M
;
_chemical_formula_sum "Si O2"
_cell_formula_units_Z 56
_cell_length_a 19.475189
_cell_length_b 8.815236
_cell_length_c 23.116357
_cell_angle_alpha 90.000000
_cell_angle_beta 51.106103
_cell_angle_gamma 90.000000
_cell_volume 3088.784765
_symmetry_space_group_name_H-M "C 2/M"
_symmetry_group_IT_number 12
_symmetry_cell_setting 'monoclinic'
loop_
_space_group_symop_operation_xyz
x,y,z
-x,y,-z
-x,-y,-z
x,-y,z
1/2+x,1/2+y,z
1/2-x,1/2+y,-z
1/2-x,1/2-y,-z
1/2+x,1/2-y,z
loop_
_atom_site_type_symbol
_atom_site_label
_atom_site_fract_x
_atom_site_fract_y
_atom_site_fract_z
Si Si1 0.613038 0.679241 0.273331
Si Si2 0.998087 0.824704 0.437845
Si Si3 0.034412 0.678276 0.720584
Si Si4 0.796824 0.174588 0.158743
Si Si5 0.957073 0.825140 0.162884
Si Si6 0.926468 0.820978 0.998332
Si Si7 0.342004 0.324263 0.436986
O O1 0.599018 0.500000 0.276127
O O2 0.571973 0.743085 0.355316
O O3 0.559914 0.753701 0.248396
O O4 0.715386 0.719128 0.217363
O O5 0.901953 0.800274 0.461723
O O6 0.000000 0.743941 0.500000
O O7 0.021067 0.000000 0.434066
O O8 0.032704 0.500000 0.712610
O O9 0.052592 0.716538 0.777541
O O10 0.114615 0.746167 0.641387
O O11 0.873942 0.199761 0.164628
O O12 0.765664 0.000000 0.175284
O O13 0.831061 0.224039 0.075797
O O14 0.049013 0.777978 0.080911
O O15 0.961595 0.000000 0.180747
O O16 0.935732 0.000000 0.999865
O O17 0.000000 0.743141 0.000000
O O18 0.329363 0.500000 0.428871
O O19 0.250000 0.250000 0.500000
#
# Coordination Sequence:
#
# PCOD8097006 Si02
#       7
#     8   8   8   8   8   8   8
#     4  10  20  34  52  74 103 137 170 208 258 310
#     4   8  16  32  52  72  95 126 163 202 245 294
#     4  11  22  36  53  73 102 139 177 215 256 301
#     4   9  17  31  53  79 104 132 168 209 256 312
#     4   9  17  32  54  78 104 133 169 213 258 306
#     4   7  12  26  49  74 100 132 166 203 253 309
#     4  10  20  35  55  78 104 134 167 206 255 307
#
# _framework density 18.130106999999999
#
# number of rings (size 3 to 8) (size 9 to 14) (size 15 to 20)
#    0.000    2.857    0.000    4.714    0.000    1.714 
#    0.000    2.857    0.000   17.143    0.000    0.000 
#    0.000    0.000    0.000    0.000    0.000    0.000 
#
# Total GULP energy -346958.465755 kJ/mol
# GULP energy per Si atom -12391.373777 kJ/mol
# Density = 1.808884 g / cm^3
# Si number density = 18.130107 Si / 1000 Ang^3
#
#
#
# Elastic Constant Matrix: (Units=GPa)
#
#
# Indices 1 2 3 4 5 6 
#
# 1 62.7400 33.8911 61.0623 0.0000 -5.1716 -0.0002
# 2 33.8911 83.8894 48.3938 0.0002 -0.8950 -0.0002
# 3 61.0623 48.3938 131.6536 0.0000 -4.0823 -0.0002
# 4 0.0000 0.0002 0.0000 25.7034 0.0000 -4.8223
# 5 -5.1716 -0.8950 -4.0823 0.0000 25.9198 0.0000
# 6 -0.0002 -0.0002 -0.0002 -4.8223 0.0000 25.1993
#
#
#
# Elastic Compliance Matrix: (Units=1/GPa)
#
#
# Indices 1 2 3 4 5 6 
#
# 1 0.031257 -0.005450 -0.012367 0.000000 0.004100 0.000000
# 2 -0.005450 0.016082 -0.003417 0.000000 -0.001070 0.000000
# 3 -0.012367 -0.003417 0.014579 0.000000 -0.000289 0.000000
# 4 0.000000 0.000000 0.000000 0.040354 0.000000 0.007722
# 5 0.004100 -0.001070 -0.000289 0.000000 0.039316 0.000000
# 6 0.000000 0.000000 0.000000 0.007722 0.000000 0.041161
#
#
# Mechanical properties :
#
#
# Convention : Reuss Voigt Hill
#
# Bulk Modulus (GPa) = 51.41350 62.77526 57.09438
# Shear Modulus (GPa) = 21.57967 24.36024 22.96995
#
# Velocity S-wave (km/s) = 3.45377 3.66954 3.56329
# Velocity P-wave (km/s) = 6.65765 7.25631 6.96342
#
# Compressibility (1/GPa) = 0.01945014
#
# Stress axis : x y z
#
# Youngs Moduli (GPa) = 31.99308 62.18170 68.59374
#
# Poissons Ratio (x) = 0.33888 0.84829
# Poissons Ratio (y) = 0.17436 0.23438
# Poissons Ratio (z) = 0.39565 0.21247
#
# Static dielectric constant tensor:
#      x y z
#    x 3.116740 0.000000 0.037030 
#    y 0.000000 3.097140 0.000000 
#    z 0.037030 0.000000 3.774660 
# 
# 
# High freq. dielectric constant tensor:
#      x y z
#    x 1.679700 0.000000 -0.002230 
#    y 0.000000 1.678290 0.000000 
#    z -0.002230 0.000000 1.720650 
# 
# From -- ./inp_files/319679.got.cif
#   From: 2010.06.25/outbox.cif.g09.slc.cpg/sg12_160_cif.got.tgz:319679.got - 2010.06.28 00:19:55.
