data_PCOD8097404
_publ_section_title
;
Structure prediction by ZEFSAII (Michael W. Deem and Ramdas Pophale) SiO2 
 PCOD8097404
Probable space group: C 2/M
;
_chemical_formula_sum "Si O2"
_cell_formula_units_Z 56
_cell_length_a 29.409608
_cell_length_b 8.878355
_cell_length_c 21.708752
_cell_angle_alpha 90.000000
_cell_angle_beta 31.064894
_cell_angle_gamma 90.000000
_cell_volume 2924.916859
_symmetry_space_group_name_H-M "C 2/M"
_symmetry_group_IT_number 12
_symmetry_cell_setting 'monoclinic'
loop_
_space_group_symop_operation_xyz
x,y,z
-x,y,-z
-x,-y,-z
x,-y,z
1/2+x,1/2+y,z
1/2-x,1/2+y,-z
1/2-x,1/2-y,-z
1/2+x,1/2-y,z
loop_
_atom_site_type_symbol
_atom_site_label
_atom_site_fract_x
_atom_site_fract_y
_atom_site_fract_z
Si Si1 0.164707 0.178790 0.369142
Si Si2 0.627989 0.176152 0.287698
Si Si3 0.966855 0.321957 0.387931
Si Si4 0.515329 0.322056 0.204824
Si Si5 0.636926 0.177916 0.854212
Si Si6 0.784753 0.175899 0.020787
Si Si7 0.981450 0.678354 0.120010
O O1 0.114010 0.232229 0.366677
O O2 0.118826 0.250391 0.481608
O O3 0.264769 0.242158 0.251547
O O4 0.160994 0.000000 0.378446
O O5 0.553409 0.225223 0.325829
O O6 0.621079 0.000000 0.311161
O O7 0.722783 0.221640 0.149810
O O8 0.956394 0.500000 0.396614
O O9 0.972539 0.256503 0.313153
O O10 0.505804 0.500000 0.222899
O O11 0.616638 0.269720 0.079954
O O12 0.464651 0.265104 0.203148
O O13 0.598462 0.225174 0.832344
O O14 0.638094 0.000000 0.856607
O O15 0.573041 0.236027 0.982890
O O16 0.779863 0.000000 0.014771
O O17 0.750000 0.250000 0.000000
O O18 0.983481 0.500000 0.129548
#
# Coordination Sequence:
#
# PCOD8097404 Si02
#       7
#     8   8   8   8   8   8   8
#     4  11  22  36  56  82 110 140 181 231 277 315
#     4  10  21  37  55  78 108 145 186 223 265 324
#     4  11  23  39  56  74 106 152 193 223 263 325
#     4  11  22  35  54  84 116 142 178 228 278 319
#     4   8  17  35  59  86 111 139 178 224 268 324
#     4  10  20  34  53  78 110 143 176 219 266 316
#     4   9  17  35  62  85 109 143 180 215 268 335
#
# _framework density 19.145842999999999
#
# number of rings (size 3 to 8) (size 9 to 14) (size 15 to 20)
#    0.000    2.000    1.429    3.429    0.000    4.000 
#    0.000    4.286    0.000    0.000    0.000    0.000 
#    0.000    0.000    0.000    0.000    0.000    0.000 
#
# Total GULP energy -347267.489872 kJ/mol
# GULP energy per Si atom -12402.410353 kJ/mol
# Density = 1.910227 g / cm^3
# Si number density = 19.145843 Si / 1000 Ang^3
#
#
#
# Elastic Constant Matrix: (Units=GPa)
#
#
# Indices 1 2 3 4 5 6 
#
# 1 115.6718 36.0482 46.8072 -0.0047 22.6468 0.0036
# 2 36.0482 54.6327 33.2754 0.0090 8.5820 0.0026
# 3 46.8072 33.2754 100.0600 -0.0025 19.0066 0.0017
# 4 -0.0047 0.0090 -0.0025 29.8538 0.0018 7.3525
# 5 22.6468 8.5820 19.0066 0.0018 29.5727 -0.0012
# 6 0.0036 0.0026 0.0017 7.3525 -0.0012 28.9540
#
#
#
# Elastic Compliance Matrix: (Units=1/GPa)
#
#
# Indices 1 2 3 4 5 6 
#
# 1 0.012835 -0.005707 -0.002909 0.000004 -0.006303 -0.000002
# 2 -0.005707 0.025595 -0.005993 -0.000010 0.000794 0.000001
# 3 -0.002909 -0.005993 0.014346 0.000003 -0.005253 -0.000001
# 4 0.000004 -0.000010 0.000003 0.035731 -0.000005 -0.009073
# 5 -0.006303 0.000794 -0.005253 -0.000005 0.041788 0.000004
# 6 -0.000002 0.000001 -0.000001 -0.009073 0.000004 0.036842
#
#
# Mechanical properties :
#
#
# Convention : Reuss Voigt Hill
#
# Bulk Modulus (GPa) = 42.44854 55.84734 49.14794
# Shear Modulus (GPa) = 24.48503 27.95834 26.22169
#
# Velocity S-wave (km/s) = 3.58001 3.82551 3.70479
# Velocity P-wave (km/s) = 6.26960 6.98179 6.63526
#
# Compressibility (1/GPa) = 0.02355793
#
# Stress axis : x y z
#
# Youngs Moduli (GPa) = 77.91300 39.07001 69.70769
#
# Poissons Ratio (x) = 0.22297 0.20277
# Poissons Ratio (y) = 0.44464 0.41776
# Poissons Ratio (z) = 0.22664 0.23415
#
# Static dielectric constant tensor:
#      x y z
#    x 3.631180 0.000040 -0.098670 
#    y 0.000040 3.314450 0.000030 
#    z -0.098670 0.000030 3.749490 
# 
# 
# High freq. dielectric constant tensor:
#      x y z
#    x 1.745600 0.000000 0.007470 
#    y 0.000000 1.731040 0.000000 
#    z 0.007470 0.000000 1.745940 
# 
# From -- ./inp_files/248909.got.cif
#   From: 2010.06.25/outbox.cif.g09.slc.cpg/sg12_125_cif.got.tgz:248909.got - 2010.06.28 00:19:55.
