data_PCOD8097445
_publ_section_title
;
Structure prediction by ZEFSAII (Michael W. Deem and Ramdas Pophale) SiO2 
 PCOD8097445
Probable space group: C 2/M
;
_chemical_formula_sum "Si O2"
_cell_formula_units_Z 56
_cell_length_a 17.794131
_cell_length_b 8.981614
_cell_length_c 24.637410
_cell_angle_alpha 90.000000
_cell_angle_beta 45.822599
_cell_angle_gamma 90.000000
_cell_volume 2823.954800
_symmetry_space_group_name_H-M "C 2/M"
_symmetry_group_IT_number 12
_symmetry_cell_setting 'monoclinic'
loop_
_space_group_symop_operation_xyz
x,y,z
-x,y,-z
-x,-y,-z
x,-y,z
1/2+x,1/2+y,z
1/2-x,1/2+y,-z
1/2-x,1/2-y,-z
1/2+x,1/2-y,z
loop_
_atom_site_type_symbol
_atom_site_label
_atom_site_fract_x
_atom_site_fract_y
_atom_site_fract_z
Si Si1 0.408131 0.165308 0.436758
Si Si2 0.433073 0.823233 0.256154
Si Si3 0.253866 0.334834 0.580106
Si Si4 0.788003 0.328718 0.142331
Si Si5 0.555760 0.669872 0.288142
Si Si6 0.542774 0.329018 0.870168
Si Si7 0.694096 0.672257 0.978235
O O1 0.354518 0.231635 0.518111
O O2 0.323016 0.163300 0.432357
O O3 0.507348 0.262049 0.367602
O O4 0.447792 0.000000 0.430488
O O5 0.315051 0.776881 0.334207
O O6 0.519154 0.755637 0.252901
O O7 0.453737 0.766213 0.185931
O O8 0.445301 0.000000 0.252176
O O9 0.296952 0.500000 0.569788
O O10 0.824540 0.500000 0.118283
O O11 0.680735 0.318961 0.230356
O O12 0.875104 0.233374 0.128489
O O13 0.767620 0.259188 0.093876
O O14 0.517884 0.500000 0.301993
O O15 0.569141 0.500000 0.843416
O O16 0.430242 0.313561 0.954212
O O17 0.728864 0.500000 0.957439
O O18 0.750000 0.750000 0.000000
#
# Coordination Sequence:
#
# PCOD8097445 Si02
#       7
#     8   8   8   8   8   8   8
#     4   9  16  26  45  74 105 140 181 223 272 326
#     4  10  20  34  55  82 110 144 186 228 273 326
#     4   8  15  27  44  71 106 140 176 222 273 322
#     4  11  24  40  59  83 111 147 187 225 271 325
#     4  10  20  34  53  79 111 144 182 229 277 324
#     4  11  24  40  58  82 113 147 182 223 273 326
#     4  11  24  41  62  88 115 144 180 223 272 323
#
# _framework density 19.830345999999999
#
# number of rings (size 3 to 8) (size 9 to 14) (size 15 to 20)
#    0.000    2.000    0.000    4.714    0.000   13.714 
#    0.000    0.000    0.000    0.857    0.000    6.000 
#    0.000    0.000    0.000    0.000    0.000    0.000 
#
# Total GULP energy -347235.615250 kJ/mol
# GULP energy per Si atom -12401.271973 kJ/mol
# Density = 1.978521 g / cm^3
# Si number density = 19.830346 Si / 1000 Ang^3
#
#
#
# Elastic Constant Matrix: (Units=GPa)
#
#
# Indices 1 2 3 4 5 6 
#
# 1 46.8686 24.1863 4.6884 0.0000 -17.1425 0.0002
# 2 24.1863 121.6532 48.0290 0.0000 -11.3863 0.0003
# 3 4.6884 48.0290 90.2318 0.0000 -11.6295 0.0000
# 4 0.0000 0.0000 0.0000 39.0405 0.0000 2.5947
# 5 -17.1425 -11.3863 -11.6295 0.0000 15.3702 0.0000
# 6 0.0002 0.0003 0.0000 2.5947 0.0000 24.5946
#
#
#
# Elastic Compliance Matrix: (Units=1/GPa)
#
#
# Indices 1 2 3 4 5 6 
#
# 1 0.041057 -0.006758 0.007447 0.000000 0.046419 0.000000
# 2 -0.006758 0.011735 -0.006367 0.000000 -0.003662 0.000000
# 3 0.007447 -0.006367 0.016119 0.000000 0.015785 0.000000
# 4 0.000000 0.000000 0.000000 0.025795 0.000000 -0.002721
# 5 0.046419 -0.003662 0.015785 0.000000 0.126064 0.000000
# 6 0.000000 0.000000 0.000000 -0.002721 0.000000 0.040946
#
#
# Mechanical properties :
#
#
# Convention : Reuss Voigt Hill
#
# Bulk Modulus (GPa) = 17.37494 45.84010 31.60752
# Shear Modulus (GPa) = 17.10820 27.92438 22.51629
#
# Velocity S-wave (km/s) = 2.94041 3.75662 3.37329
# Velocity P-wave (km/s) = 4.50653 6.47940 5.58083
#
# Compressibility (1/GPa) = 0.05755415
#
# Stress axis : x y z
#
# Youngs Moduli (GPa) = 24.35638 85.21780 62.03821
#
# Poissons Ratio (x) = 0.57590 -0.46197
# Poissons Ratio (y) = 0.16460 0.39499
# Poissons Ratio (z) = -0.18137 0.54258
#
# Static dielectric constant tensor:
#      x y z
#    x 3.453250 0.000000 0.051000 
#    y 0.000000 3.887650 0.000000 
#    z 0.051000 0.000000 3.926520 
# 
# 
# High freq. dielectric constant tensor:
#      x y z
#    x 1.733080 0.000000 -0.001190 
#    y 0.000000 1.789880 0.000000 
#    z -0.001190 0.000000 1.790860 
# 
# From -- ./inp_files/362888.got.cif
#   From: 2010.06.25/outbox.cif.g09.slc.cpg/sg12_182_cif.got.tgz:362888.got - 2010.06.28 00:19:55.
