data_PCOD8097647
_publ_section_title
;
Structure prediction by ZEFSAII (Michael W. Deem and Ramdas Pophale) SiO2 
 PCOD8097647
Probable space group: C 2/M
;
_chemical_formula_sum "Si O2"
_cell_formula_units_Z 48
_cell_length_a 14.966668
_cell_length_b 9.302659
_cell_length_c 17.145712
_cell_angle_alpha 90.000000
_cell_angle_beta 88.366808
_cell_angle_gamma 90.000000
_cell_volume 2386.224458
_symmetry_space_group_name_H-M "C 2/M"
_symmetry_group_IT_number 12
_symmetry_cell_setting 'monoclinic'
loop_
_space_group_symop_operation_xyz
x,y,z
-x,y,-z
-x,-y,-z
x,-y,z
1/2+x,1/2+y,z
1/2-x,1/2+y,-z
1/2-x,1/2-y,-z
1/2+x,1/2-y,z
loop_
_atom_site_type_symbol
_atom_site_label
_atom_site_fract_x
_atom_site_fract_y
_atom_site_fract_z
Si Si1 0.833694 0.168792 0.683497
Si Si2 0.126935 0.333222 0.706616
Si Si3 0.858744 0.158077 0.147399
Si Si4 0.653305 0.841266 0.169769
Si Si5 0.475284 0.167395 0.588388
Si Si6 0.604562 0.160332 0.002471
O O1 0.728306 0.204684 0.678012
O O2 0.877579 0.233714 0.761518
O O3 0.886876 0.241841 0.611203
O O4 0.851362 0.000000 0.682650
O O5 0.120595 0.500000 0.728063
O O6 0.094192 0.250139 0.785535
O O7 0.060380 0.289358 0.639028
O O8 0.757992 0.139420 0.175740
O O9 0.903985 0.000000 0.138999
O O10 0.858204 0.236291 0.064482
O O11 0.628764 0.774063 0.086375
O O12 0.607922 0.000000 0.180875
O O13 0.500000 0.206929 0.500000
O O14 0.451721 0.000000 0.598570
O O15 0.646930 0.000000 0.992617
O O16 0.500000 0.150181 0.000000
#
# Coordination Sequence:
#
# PCOD8097647 Si02
#       6
#     8   8   8   8   8   8
#     4  10  21  37  59  87 116 148 186 232 283 331
#     4   9  20  39  60  82 114 153 188 225 279 342
#     4  10  20  34  54  79 107 141 185 234 276 318
#     4   9  19  36  55  76 106 147 188 225 272 330
#     4  10  22  40  62  86 113 149 188 226 276 341
#     4  10  21  34  50  75 107 146 187 225 272 327
#
# _framework density 20.115456999999999
#
# number of rings (size 3 to 8) (size 9 to 14) (size 15 to 20)
#    0.000    2.333    0.000    1.500    2.333    4.000 
#    0.000    0.000    0.000    0.000    0.000    0.000 
#    0.000    0.000    0.000    0.000    0.000    0.000 
#
# Total GULP energy -297567.512229 kJ/mol
# GULP energy per Si atom -12398.646343 kJ/mol
# Density = 2.006967 g / cm^3
# Si number density = 20.115457 Si / 1000 Ang^3
#
#
#
# Elastic Constant Matrix: (Units=GPa)
#
#
# Indices 1 2 3 4 5 6 
#
# 1 40.7698 18.4729 12.9413 0.0000 1.0864 0.0000
# 2 18.4729 82.7817 37.4934 0.0000 -11.0095 0.0000
# 3 12.9413 37.4934 108.6227 0.0000 1.5690 0.0000
# 4 0.0000 0.0000 0.0000 41.0632 0.0000 -1.5983
# 5 1.0864 -11.0095 1.5690 0.0000 34.4760 0.0000
# 6 0.0000 0.0000 0.0000 -1.5983 0.0000 17.5330
#
#
#
# Elastic Compliance Matrix: (Units=1/GPa)
#
#
# Indices 1 2 3 4 5 6 
#
# 1 0.027700 -0.006008 -0.001187 0.000000 -0.002737 0.000000
# 2 -0.006008 0.016462 -0.005048 0.000000 0.005676 0.000000
# 3 -0.001187 -0.005048 0.011120 0.000000 -0.002081 0.000000
# 4 0.000000 0.000000 0.000000 0.024439 0.000000 0.002228
# 5 -0.002737 0.005676 -0.002081 0.000000 0.030999 0.000000
# 6 0.000000 0.000000 0.000000 0.002228 0.000000 0.057238
#
#
# Mechanical properties :
#
#
# Convention : Reuss Voigt Hill
#
# Bulk Modulus (GPa) = 32.47192 41.10991 36.79092
# Shear Modulus (GPa) = 24.66573 29.49888 27.08231
#
# Velocity S-wave (km/s) = 3.50552 3.83362 3.67324
# Velocity P-wave (km/s) = 5.70638 6.33063 6.02659
#
# Compressibility (1/GPa) = 0.03079584
#
# Stress axis : x y z
#
# Youngs Moduli (GPa) = 36.10142 60.74589 89.92630
#
# Poissons Ratio (x) = 0.36494 0.10673
# Poissons Ratio (y) = 0.21689 0.45399
# Poissons Ratio (z) = 0.04285 0.30667
#
# Static dielectric constant tensor:
#      x y z
#    x 3.488950 0.000000 0.438770 
#    y 0.000000 3.934030 0.000000 
#    z 0.438770 0.000000 1.024310 
# 
# 
# High freq. dielectric constant tensor:
#      x y z
#    x 1.778340 0.000000 0.003330 
#    y 0.000000 1.782380 0.000000 
#    z 0.003330 0.000000 1.784340 
# 
# From -- ./inp_files/221606.got.cif
#   From: 2010.06.25/outbox.cif.g09.slc.cpg/sg12_111_cif.got.tgz:221606.got - 2010.06.28 00:19:55.
