data_PCOD8097199
_publ_section_title
;
Structure prediction by ZEFSAII (Michael W. Deem and Ramdas Pophale) SiO2 
 PCOD8097199
Probable space group: C 2/M
;
_chemical_formula_sum "Si O2"
_cell_formula_units_Z 48
_cell_length_a 17.907101
_cell_length_b 18.780064
_cell_length_c 15.255608
_cell_angle_alpha 90.000000
_cell_angle_beta 155.269592
_cell_angle_gamma 90.000000
_cell_volume 2146.301811
_symmetry_space_group_name_H-M "C 2/M"
_symmetry_group_IT_number 12
_symmetry_cell_setting 'monoclinic'
loop_
_space_group_symop_operation_xyz
x,y,z
-x,y,-z
-x,-y,-z
x,-y,z
1/2+x,1/2+y,z
1/2-x,1/2+y,-z
1/2-x,1/2-y,-z
1/2+x,1/2-y,z
loop_
_atom_site_type_symbol
_atom_site_label
_atom_site_fract_x
_atom_site_fract_y
_atom_site_fract_z
Si Si1 0.367525 0.419543 0.481139
Si Si2 0.936759 0.920075 0.836460
Si Si3 0.995096 0.181944 0.241286
Si Si4 0.102269 0.331994 0.870009
Si Si5 0.525148 0.081083 0.427563
Si Si6 0.727202 0.920909 0.150123
O O1 0.313706 0.500000 0.454611
O O2 0.350382 0.360448 0.539906
O O3 0.243796 0.393370 0.268368
O O4 0.575405 0.421429 0.679014
O O5 0.725726 0.914026 0.608436
O O6 0.029925 0.861470 0.875072
O O7 0.998321 0.000000 0.874540
O O8 0.000000 0.901585 0.000000
O O9 0.038575 0.265923 0.272369
O O10 0.810128 0.189606 0.096874
O O11 0.084072 0.373798 0.759277
O O12 0.080488 0.378648 0.935561
O O13 0.500000 0.111456 0.500000
O O14 0.453612 0.000000 0.350169
O O15 0.649498 0.000000 0.069520
#
# Coordination Sequence:
#
# PCOD8097199 Si02
#       6
#     8   8   8   8   8   8
#     4   8  14  27  48  75 103 141 188 230 268 317
#     4  10  21  38  60  83 111 150 195 241 286 340
#     4  10  20  34  52  84 116 149 187 228 284 347
#     4  10  20  34  52  84 118 150 184 229 291 342
#     4  10  21  38  60  85 111 146 193 243 294 341
#     4   8  14  27  49  74 104 142 186 229 267 321
#
# _framework density 22.364049000000001
#
# number of rings (size 3 to 8) (size 9 to 14) (size 15 to 20)
#    0.000    2.667    0.000    3.000    0.000    4.000 
#   12.000    0.000    0.000    0.000    0.000    4.667 
#    0.000    0.000    0.000    0.000    0.000    0.167 
#
# Total GULP energy -297372.359660 kJ/mol
# GULP energy per Si atom -12390.514986 kJ/mol
# Density = 2.231315 g / cm^3
# Si number density = 22.364049 Si / 1000 Ang^3
#
#
#
# Elastic Constant Matrix: (Units=GPa)
#
#
# Indices 1 2 3 4 5 6 
#
# 1 70.0263 61.2449 26.7211 0.0000 -36.3871 0.0000
# 2 61.2449 153.4699 59.6590 0.0000 -48.7397 0.0000
# 3 26.7211 59.6590 85.6007 0.0000 -49.1270 0.0000
# 4 0.0000 0.0000 0.0000 25.1159 0.0000 -12.7410
# 5 -36.3871 -48.7397 -49.1270 0.0000 45.7348 0.0000
# 6 0.0000 0.0000 0.0000 -12.7410 0.0000 36.6376
#
#
#
# Elastic Compliance Matrix: (Units=1/GPa)
#
#
# Indices 1 2 3 4 5 6 
#
# 1 0.033274 -0.008399 0.014401 0.000000 0.032991 0.000000
# 2 -0.008399 0.012130 -0.005862 0.000000 -0.000053 0.000000
# 3 0.014401 -0.005862 0.037188 0.000000 0.045157 0.000000
# 4 0.000000 0.000000 0.000000 0.048344 0.000000 0.016812
# 5 0.032991 -0.000053 0.045157 0.000000 0.096563 0.000000
# 6 0.000000 0.000000 0.000000 0.016812 0.000000 0.033141
#
#
# Mechanical properties :
#
#
# Convention : Reuss Voigt Hill
#
# Bulk Modulus (GPa) = 12.06694 67.14966 39.60830
# Shear Modulus (GPa) = 17.36203 32.26245 24.81224
#
# Velocity S-wave (km/s) = 2.78930 3.80228 3.33448
# Velocity P-wave (km/s) = 3.97253 7.02619 5.70738
#
# Compressibility (1/GPa) = 0.08287104
#
# Stress axis : x y z
#
# Youngs Moduli (GPa) = 30.05356 82.44094 26.89023
#
# Poissons Ratio (x) = 0.69244 -0.38724
# Poissons Ratio (y) = 0.25243 0.15764
# Poissons Ratio (z) = -0.43280 0.48328
#
# Static dielectric constant tensor:
#      x y z
#    x 3.934240 0.000000 -0.163880 
#    y 0.000000 4.360160 0.000000 
#    z -0.163880 0.000000 4.219660 
# 
# 
# High freq. dielectric constant tensor:
#      x y z
#    x 1.866910 0.000000 -0.016680 
#    y 0.000000 1.869780 0.000000 
#    z -0.016680 0.000000 1.877830 
# 
# From -- ./inp_files/226939.got.cif
#   From: 2010.06.25/outbox.cif.g09.slc.cpg/sg12_114_cif.got.tgz:226939.got - 2010.06.28 00:19:55.
