data_PCOD8097764
_publ_section_title
;
Structure prediction by ZEFSAII (Michael W. Deem and Ramdas Pophale) SiO2 
 PCOD8097764
Probable space group: C 2/M
;
_chemical_formula_sum "Si O2"
_cell_formula_units_Z 52
_cell_length_a 12.421085
_cell_length_b 11.749220
_cell_length_c 19.889296
_cell_angle_alpha 90.000000
_cell_angle_beta 116.562895
_cell_angle_gamma 90.000000
_cell_volume 2596.217935
_symmetry_space_group_name_H-M "C 2/M"
_symmetry_group_IT_number 12
_symmetry_cell_setting 'monoclinic'
loop_
_space_group_symop_operation_xyz
x,y,z
-x,y,-z
-x,-y,-z
x,-y,z
1/2+x,1/2+y,z
1/2-x,1/2+y,-z
1/2-x,1/2-y,-z
1/2+x,1/2-y,z
loop_
_atom_site_type_symbol
_atom_site_label
_atom_site_fract_x
_atom_site_fract_y
_atom_site_fract_z
Si Si1 0.053553 0.370136 0.759166
Si Si2 0.668301 0.222514 0.377863
Si Si3 0.608395 0.369325 0.485508
Si Si4 0.515917 0.693807 0.860283
Si Si5 0.744390 0.124669 0.034068
Si Si6 0.229307 0.128713 0.270692
Si Si7 0.500000 0.204626 0.000000
O O1 0.075139 0.500000 0.783344
O O2 0.170874 0.321752 0.752896
O O3 0.935700 0.356913 0.680477
O O4 0.035032 0.310613 0.825425
O O5 0.608041 0.305596 0.414839
O O6 0.766327 0.142746 0.440192
O O7 0.732618 0.295658 0.338139
O O8 0.500000 0.318795 0.500000
O O9 0.584091 0.500000 0.462061
O O10 0.638236 0.620121 0.884905
O O11 0.401856 0.626837 0.799983
O O12 0.498381 0.715072 0.934376
O O13 0.618203 0.125205 0.038308
O O14 0.746483 0.000000 0.994885
O O15 0.750000 0.250000 0.000000
O O16 0.263593 0.000000 0.300562
#
# Coordination Sequence:
#
# PCOD8097764 Si02
#       7
#     8   8   8   8   8   8   4
#     4  10  21  36  55  79 108 143 183 227 273 324
#     4  10  20  35  55  79 109 143 180 220 265 319
#     4  10  20  34  54  81 111 142 177 219 266 316
#     4  10  21  37  56  81 109 142 183 230 281 334
#     4  10  21  37  56  80 109 141 179 225 277 334
#     4  10  20  36  56  78 107 143 182 223 270 324
#     4  10  21  38  59  82 111 146 185 232 287 344
#
# _framework density 20.029133999999999
#
# number of rings (size 3 to 8) (size 9 to 14) (size 15 to 20)
#    0.000    2.000    0.000    3.462    0.000    3.077 
#    0.000   12.692    0.000   17.538    0.000    0.000 
#    0.000    0.000    0.000    0.000    0.000    0.000 
#
# Total GULP energy -322185.996404 kJ/mol
# GULP energy per Si atom -12391.769092 kJ/mol
# Density = 1.998355 g / cm^3
# Si number density = 20.029134 Si / 1000 Ang^3
#
#
#
# Elastic Constant Matrix: (Units=GPa)
#
#
# Indices 1 2 3 4 5 6 
#
# 1 114.9133 27.2676 24.5278 0.0000 -1.3704 0.0000
# 2 27.2676 91.3162 13.2559 0.0000 -8.1820 0.0000
# 3 24.5278 13.2559 65.4284 0.0000 -10.4409 0.0000
# 4 0.0000 0.0000 0.0000 8.4153 0.0000 -0.3643
# 5 -1.3704 -8.1820 -10.4409 0.0000 37.5575 0.0000
# 6 0.0000 0.0000 0.0000 -0.3643 0.0000 4.2787
#
#
#
# Elastic Compliance Matrix: (Units=1/GPa)
#
#
# Indices 1 2 3 4 5 6 
#
# 1 0.010036 -0.002604 -0.003419 0.000000 -0.001151 0.000000
# 2 -0.002604 0.012090 -0.001118 0.000000 0.002228 0.000000
# 3 -0.003419 -0.001118 0.017510 0.000000 0.004499 0.000000
# 4 0.000000 0.000000 0.000000 0.119270 0.000000 0.010155
# 5 -0.001151 0.002228 0.004499 0.000000 0.028320 0.000000
# 6 0.000000 0.000000 0.000000 0.010155 0.000000 0.234578
#
#
# Mechanical properties :
#
#
# Convention : Reuss Voigt Hill
#
# Bulk Modulus (GPa) = 39.43834 44.64005 42.03920
# Shear Modulus (GPa) = 11.24766 23.82409 17.53587
#
# Velocity S-wave (km/s) = 2.37231 3.45261 2.96213
# Velocity P-wave (km/s) = 5.21891 6.18304 5.72132
#
# Compressibility (1/GPa) = 0.02535604
#
# Stress axis : x y z
#
# Youngs Moduli (GPa) = 99.64142 82.71040 57.11048
#
# Poissons Ratio (x) = 0.21536 0.19523
# Poissons Ratio (y) = 0.25944 0.06384
# Poissons Ratio (z) = 0.34063 0.09246
#
# Static dielectric constant tensor:
#      x y z
#    x 4.068650 0.000000 0.276150 
#    y 0.000000 3.495750 0.000000 
#    z 0.276150 0.000000 3.595260 
# 
# 
# High freq. dielectric constant tensor:
#      x y z
#    x 1.799060 0.000000 0.017620 
#    y 0.000000 1.777740 0.000000 
#    z 0.017620 0.000000 1.773880 
# 
# From -- ./inp_files/304828.got.cif
#   From: 2010.06.25/outbox.cif.g09.slc.cpg/sg12_153_cif.got.tgz:304828.got - 2010.06.28 00:19:55.
