data_PCOD8097981
_publ_section_title
;
Structure prediction by ZEFSAII (Michael W. Deem and Ramdas Pophale) SiO2 
 PCOD8097981
Probable space group: C 2/M
;
_chemical_formula_sum "Si O2"
_cell_formula_units_Z 64
_cell_length_a 15.549691
_cell_length_b 8.718536
_cell_length_c 25.017204
_cell_angle_alpha 90.000000
_cell_angle_beta 107.377987
_cell_angle_gamma 90.000000
_cell_volume 3236.786988
_symmetry_space_group_name_H-M "C 2/M"
_symmetry_group_IT_number 12
_symmetry_cell_setting 'monoclinic'
loop_
_space_group_symop_operation_xyz
x,y,z
-x,y,-z
-x,-y,-z
x,-y,z
1/2+x,1/2+y,z
1/2-x,1/2+y,-z
1/2-x,1/2-y,-z
1/2+x,1/2-y,z
loop_
_atom_site_type_symbol
_atom_site_label
_atom_site_fract_x
_atom_site_fract_y
_atom_site_fract_z
Si Si1 0.949693 0.826145 0.750806
Si Si2 0.276960 0.822620 0.755750
Si Si3 0.046425 0.181340 0.063521
Si Si4 0.577993 0.677459 0.866286
Si Si5 0.102448 0.822318 0.375439
Si Si6 0.470597 0.176430 0.434172
Si Si7 0.284244 0.682062 0.367641
Si Si8 0.732245 0.183237 0.128116
O O1 0.043488 0.797702 0.798937
O O2 0.881401 0.704969 0.762952
O O3 0.958907 0.799451 0.689091
O O4 0.914903 0.000000 0.755076
O O5 0.219719 0.756975 0.694808
O O6 0.256338 0.748078 0.809558
O O7 0.255954 0.000000 0.756178
O O8 0.987397 0.252864 0.101420
O O9 0.145421 0.252248 0.082493
O O10 0.056537 0.000000 0.070241
O O11 0.000000 0.231402 0.000000
O O12 0.581322 0.500000 0.881450
O O13 0.679807 0.741823 0.888119
O O14 0.203513 0.758583 0.386438
O O15 0.053075 0.732394 0.413222
O O16 0.109651 0.000000 0.392577
O O17 0.500000 0.201102 0.500000
O O18 0.380521 0.274072 0.408897
O O19 0.449763 0.000000 0.417311
O O20 0.270777 0.500000 0.367898
O O21 0.726230 0.000000 0.128822
#
# Coordination Sequence:
#
# PCOD8097981 Si02
#       8
#     8   8   8   8   8   8   8   8
#     4   9  17  32  57  82 111 148 185 222 276 345
#     4   9  18  32  54  83 115 143 178 228 282 337
#     4  10  21  38  57  77 108 150 193 235 278 330
#     4   9  18  33  54  79 110 147 182 223 280 336
#     4  10  21  37  61  90 118 152 194 239 293 354
#     4  11  25  43  61  84 117 157 201 244 288 345
#     4  10  21  38  61  88 120 154 191 241 294 348
#     4  10  20  34  55  81 110 145 184 227 280 338
#
# _framework density 19.772693
#
# number of rings (size 3 to 8) (size 9 to 14) (size 15 to 20)
#    0.000    2.250    1.250    1.125    1.750    3.250 
#    0.000    1.250    0.000    0.000    0.000    0.000 
#    0.000    0.000    0.000    0.000    0.000    0.000 
#
# Total GULP energy -396658.494911 kJ/mol
# GULP energy per Si atom -12395.577966 kJ/mol
# Density = 1.972769 g / cm^3
# Si number density = 19.772693 Si / 1000 Ang^3
#
#
#
# Elastic Constant Matrix: (Units=GPa)
#
#
# Indices 1 2 3 4 5 6 
#
# 1 104.7428 14.6539 45.0743 0.0000 15.0812 0.0000
# 2 14.6539 29.0631 30.6214 0.0000 2.6454 0.0000
# 3 45.0743 30.6214 90.2374 0.0000 6.7341 0.0000
# 4 0.0000 0.0000 0.0000 21.6840 0.0000 3.2167
# 5 15.0812 2.6454 6.7341 0.0000 29.6666 0.0000
# 6 0.0000 0.0000 0.0000 3.2167 0.0000 28.9699
#
#
#
# Elastic Compliance Matrix: (Units=1/GPa)
#
#
# Indices 1 2 3 4 5 6 
#
# 1 0.012905 0.000544 -0.006243 0.000000 -0.005192 0.000000
# 2 0.000544 0.053592 -0.018392 0.000000 -0.000880 0.000000
# 3 -0.006243 -0.018392 0.020428 0.000000 0.000177 0.000000
# 4 0.000000 0.000000 0.000000 0.046889 0.000000 -0.005206
# 5 -0.005192 -0.000880 0.000177 0.000000 0.036386 0.000000
# 6 0.000000 0.000000 0.000000 -0.005206 0.000000 0.035097
#
#
# Mechanical properties :
#
#
# Convention : Reuss Voigt Hill
#
# Bulk Modulus (GPa) = 25.81142 44.97140 35.39141
# Shear Modulus (GPa) = 18.76913 24.97701 21.87307
#
# Velocity S-wave (km/s) = 3.08432 3.55802 3.32961
# Velocity P-wave (km/s) = 5.07607 6.29864 5.72011
#
# Compressibility (1/GPa) = 0.03874254
#
# Stress axis : x y z
#
# Youngs Moduli (GPa) = 77.48694 18.65953 48.95126
#
# Poissons Ratio (x) = -0.01015 0.30562
# Poissons Ratio (y) = -0.04213 0.90031
# Poissons Ratio (z) = 0.48378 0.34318
#
# Static dielectric constant tensor:
#      x y z
#    x 3.609490 0.000000 -0.097500 
#    y 0.000000 3.421320 0.000000 
#    z -0.097500 0.000000 3.756460 
# 
# 
# High freq. dielectric constant tensor:
#      x y z
#    x 1.771580 0.000000 0.000130 
#    y 0.000000 1.749300 0.000000 
#    z 0.000130 0.000000 1.775010 
# 
# From -- ./inp_files/359966.got.cif
#   From: 2010.06.25/outbox.cif.g09.slc.cpg/sg12_180_cif.got.tgz:359966.got - 2010.06.28 00:19:55.
