data_PCOD8097880
_publ_section_title
;
Structure prediction by ZEFSAII (Michael W. Deem and Ramdas Pophale) SiO2 
 PCOD8097880
Probable space group: C 2/M
;
_chemical_formula_sum "Si O2"
_cell_formula_units_Z 56
_cell_length_a 21.844929
_cell_length_b 9.723705
_cell_length_c 14.876371
_cell_angle_alpha 90.000000
_cell_angle_beta 58.687815
_cell_angle_gamma 90.000000
_cell_volume 2699.693031
_symmetry_space_group_name_H-M "C 2/M"
_symmetry_group_IT_number 12
_symmetry_cell_setting 'monoclinic'
loop_
_space_group_symop_operation_xyz
x,y,z
-x,y,-z
-x,-y,-z
x,-y,z
1/2+x,1/2+y,z
1/2-x,1/2+y,-z
1/2-x,1/2-y,-z
1/2+x,1/2-y,z
loop_
_atom_site_type_symbol
_atom_site_label
_atom_site_fract_x
_atom_site_fract_y
_atom_site_fract_z
Si Si1 0.635463 0.849210 0.030877
Si Si2 0.295123 0.160637 0.701950
Si Si3 0.148268 0.841000 0.181756
Si Si4 0.516607 0.351987 0.698579
Si Si5 0.937390 0.657674 0.481883
Si Si6 0.671708 0.847194 0.803190
Si Si7 0.983549 0.750228 0.110239
O O1 0.662714 0.726457 0.073536
O O2 0.549742 0.849962 0.081122
O O3 0.653648 0.000000 0.057866
O O4 0.677262 0.827588 0.906255
O O5 0.310923 0.249192 0.777728
O O6 0.359140 0.177663 0.582828
O O7 0.222279 0.230649 0.718206
O O8 0.282270 0.000000 0.734295
O O9 0.065007 0.830863 0.268676
O O10 0.174894 0.000000 0.161315
O O11 0.544033 0.500000 0.643689
O O12 0.562949 0.236617 0.612942
O O13 0.523409 0.355493 0.801747
O O14 0.954084 0.500000 0.447027
O O15 0.000000 0.714623 0.500000
O O16 0.589755 0.834486 0.835380
O O17 0.698173 0.000000 0.755383
O O18 0.000000 0.822550 0.000000
#
# Coordination Sequence:
#
# PCOD8097880 Si02
#       7
#     8   8   8   8   8   8   8
#     4   9  18  34  58  85 113 148 193 238 282 340
#     4  11  23  38  57  81 112 152 193 235 291 349
#     4  10  20  34  54  84 117 148 187 236 291 346
#     4  10  21  35  59  93 119 147 189 242 296 338
#     4  10  21  39  61  85 113 150 195 241 291 347
#     4  10  21  37  57  83 115 153 193 237 288 337
#     4   9  19  37  61  89 119 153 194 236 281 340
#
# _framework density 20.743099999999998
#
# number of rings (size 3 to 8) (size 9 to 14) (size 15 to 20)
#    0.000    2.143    1.429    1.286    0.000    8.000 
#    0.000    3.571    0.000    0.000    0.000    0.000 
#    0.000    0.000    0.000    0.000    0.000    0.000 
#
# Total GULP energy -347015.314954 kJ/mol
# GULP energy per Si atom -12393.404105 kJ/mol
# Density = 2.069589 g / cm^3
# Si number density = 20.743100 Si / 1000 Ang^3
#
#
#
# Elastic Constant Matrix: (Units=GPa)
#
#
# Indices 1 2 3 4 5 6 
#
# 1 55.7271 40.3835 39.6262 0.0000 -4.5008 0.0000
# 2 40.3835 143.1365 56.6072 0.0000 -10.1662 0.0000
# 3 39.6262 56.6072 87.1396 0.0000 -4.6364 0.0000
# 4 0.0000 0.0000 0.0000 28.3379 0.0000 -2.6400
# 5 -4.5008 -10.1662 -4.6364 0.0000 26.4825 0.0000
# 6 0.0000 0.0000 0.0000 -2.6400 0.0000 15.2401
#
#
#
# Elastic Compliance Matrix: (Units=1/GPa)
#
#
# Indices 1 2 3 4 5 6 
#
# 1 0.028078 -0.003762 -0.010243 0.000000 0.001535 0.000000
# 2 -0.003762 0.010081 -0.004710 0.000000 0.002406 0.000000
# 3 -0.010243 -0.004710 0.019183 0.000000 -0.000190 0.000000
# 4 0.000000 0.000000 0.000000 0.035867 0.000000 0.006213
# 5 0.001535 0.002406 -0.000190 0.000000 0.038912 0.000000
# 6 0.000000 0.000000 0.000000 0.006213 0.000000 0.066693
#
#
# Mechanical properties :
#
#
# Convention : Reuss Voigt Hill
#
# Bulk Modulus (GPa) = 50.21908 62.13744 56.17826
# Shear Modulus (GPa) = 20.58608 23.97120 22.27864
#
# Velocity S-wave (km/s) = 3.15370 3.40313 3.28079
# Velocity P-wave (km/s) = 6.12566 6.74259 6.44151
#
# Compressibility (1/GPa) = 0.01991275
#
# Stress axis : x y z
#
# Youngs Moduli (GPa) = 35.61489 99.19251 52.12817
#
# Poissons Ratio (x) = 0.37316 0.53394
# Poissons Ratio (y) = 0.13398 0.24554
# Poissons Ratio (z) = 0.36480 0.46723
#
# Static dielectric constant tensor:
#      x y z
#    x 3.762580 0.000000 -0.092370 
#    y 0.000000 3.747090 0.000000 
#    z -0.092370 0.000000 3.614800 
# 
# 
# High freq. dielectric constant tensor:
#      x y z
#    x 1.806560 0.000000 -0.012390 
#    y 0.000000 1.809310 0.000000 
#    z -0.012390 0.000000 1.797040 
# 
# From -- ./inp_files/238437.got.cif
#   From: 2010.06.25/outbox.cif.g09.slc.cpg/sg12_120_cif.got.tgz:238437.got - 2010.06.28 00:19:55.
