data_PCOD8097032
_publ_section_title
;
Structure prediction by ZEFSAII (Michael W. Deem and Ramdas Pophale) SiO2 
 PCOD8097032
Probable space group: C 2/M
;
_chemical_formula_sum "Si O2"
_cell_formula_units_Z 64
_cell_length_a 8.967883
_cell_length_b 10.481241
_cell_length_c 34.528869
_cell_angle_alpha 90.000000
_cell_angle_beta 97.644606
_cell_angle_gamma 90.000000
_cell_volume 3216.679927
_symmetry_space_group_name_H-M "C 2/M"
_symmetry_group_IT_number 12
_symmetry_cell_setting 'monoclinic'
loop_
_space_group_symop_operation_xyz
x,y,z
-x,y,-z
-x,-y,-z
x,-y,z
1/2+x,1/2+y,z
1/2-x,1/2+y,-z
1/2-x,1/2-y,-z
1/2+x,1/2-y,z
loop_
_atom_site_type_symbol
_atom_site_label
_atom_site_fract_x
_atom_site_fract_y
_atom_site_fract_z
Si Si1 0.056862 0.141350 0.541456
Si Si2 0.058575 0.857366 0.147222
Si Si3 0.303715 0.147146 0.271033
Si Si4 0.684642 0.712938 0.407309
Si Si5 0.731459 0.855892 0.110126
Si Si6 0.522805 0.356774 0.766960
Si Si7 0.667196 0.858255 0.020704
Si Si8 0.426214 0.859471 0.356530
O O1 0.209687 0.200592 0.562493
O O2 0.000000 0.212151 0.500000
O O3 0.922872 0.132730 0.568276
O O4 0.105094 0.000000 0.531440
O O5 0.173558 0.747886 0.138667
O O6 0.018410 0.833309 0.190170
O O7 0.911308 0.846917 0.115459
O O8 0.129568 0.000000 0.144818
O O9 0.362761 0.245189 0.240778
O O10 0.123927 0.154393 0.264984
O O11 0.360094 0.198970 0.314628
O O12 0.354289 0.000000 0.264138
O O13 0.575283 0.788646 0.375006
O O14 0.795885 0.630755 0.384568
O O15 0.668797 0.820948 0.065801
O O16 0.681490 0.000000 0.120645
O O17 0.592924 0.500000 0.764385
O O18 0.740653 0.000000 0.017552
O O19 0.500000 0.862557 0.000000
O O20 0.750000 0.750000 0.000000
O O21 0.482291 0.000000 0.349230
#
# Coordination Sequence:
#
# PCOD8097032 Si02
#       8
#     8   8   8   8   8   8   8   8
#     4  10  20  34  52  75 102 132 168 208 250 300
#     4  10  21  36  55  79 107 139 176 217 262 314
#     4  10  21  36  55  79 106 138 176 216 260 312
#     4  10  20  34  53  75 101 134 168 206 255 301
#     4  10  21  36  54  79 108 138 177 221 264 314
#     4  10  21  37  55  79 109 139 175 218 262 312
#     4  10  21  36  54  78 107 139 177 220 265 316
#     4  10  20  35  53  75 103 133 169 211 253 302
#
# _framework density 19.896291000000002
#
# number of rings (size 3 to 8) (size 9 to 14) (size 15 to 20)
#    0.000    2.000    0.000    3.375    0.000    2.250 
#    0.000    3.125    0.000    6.000    0.000    0.000 
#    0.000    0.000    0.000    0.000    0.000    0.000 
#
# Total GULP energy -396644.675601 kJ/mol
# GULP energy per Si atom -12395.146113 kJ/mol
# Density = 1.985101 g / cm^3
# Si number density = 19.896291 Si / 1000 Ang^3
#
#
#
# Elastic Constant Matrix: (Units=GPa)
#
#
# Indices 1 2 3 4 5 6 
#
# 1 52.0835 16.2959 4.4394 0.0000 8.6452 0.0000
# 2 16.2959 95.1166 20.0473 0.0000 -15.0147 0.0000
# 3 4.4394 20.0473 75.4461 0.0000 14.3101 0.0000
# 4 0.0000 0.0000 0.0000 30.0312 0.0000 -6.5235
# 5 8.6452 -15.0147 14.3101 0.0000 35.3267 0.0000
# 6 0.0000 0.0000 0.0000 -6.5235 0.0000 22.4177
#
#
#
# Elastic Compliance Matrix: (Units=1/GPa)
#
#
# Indices 1 2 3 4 5 6 
#
# 1 0.022183 -0.005514 0.001770 0.000000 -0.008489 0.000000
# 2 -0.005514 0.014040 -0.005193 0.000000 0.009420 0.000000
# 3 0.001770 -0.005193 0.016282 0.000000 -0.009236 0.000000
# 4 0.000000 0.000000 0.000000 0.035546 0.000000 0.010344
# 5 -0.008489 0.009420 -0.009236 0.000000 0.038130 0.000000
# 6 0.000000 0.000000 0.000000 0.010344 0.000000 0.047618
#
#
# Mechanical properties :
#
#
# Convention : Reuss Voigt Hill
#
# Bulk Modulus (GPa) = 28.87536 33.80128 31.33832
# Shear Modulus (GPa) = 24.60456 29.67936 27.14196
#
# Velocity S-wave (km/s) = 3.52041 3.86645 3.69748
# Velocity P-wave (km/s) = 5.57394 6.07932 5.83211
#
# Compressibility (1/GPa) = 0.03463160
#
# Stress axis : x y z
#
# Youngs Moduli (GPa) = 45.07898 71.22760 61.41784
#
# Poissons Ratio (x) = 0.39272 -0.10870
# Poissons Ratio (y) = 0.24855 0.31893
# Poissons Ratio (z) = -0.07979 0.36987
#
# Static dielectric constant tensor:
#      x y z
#    x 3.469350 0.000000 0.284900 
#    y 0.000000 3.779210 0.000000 
#    z 0.284900 0.000000 3.735160 
# 
# 
# High freq. dielectric constant tensor:
#      x y z
#    x 1.765690 0.000000 0.022370 
#    y 0.000000 1.776970 0.000000 
#    z 0.022370 0.000000 1.789490 
# 
# From -- ./inp_files/372172.got.cif
#   From: 2010.06.25/outbox.cif.g09.slc.cpg/sg12_187_cif.got.tgz:372172.got - 2010.06.28 00:19:55.
