data_PCOD8097117
_publ_section_title
;
Structure prediction by ZEFSAII (Michael W. Deem and Ramdas Pophale) SiO2 
 PCOD8097117
Probable space group: C 2/M
;
_chemical_formula_sum "Si O2"
_cell_formula_units_Z 64
_cell_length_a 24.302486
_cell_length_b 13.531923
_cell_length_c 16.515750
_cell_angle_alpha 90.000000
_cell_angle_beta 39.887209
_cell_angle_gamma 90.000000
_cell_volume 3483.013018
_symmetry_space_group_name_H-M "C 2/M"
_symmetry_group_IT_number 12
_symmetry_cell_setting 'monoclinic'
loop_
_space_group_symop_operation_xyz
x,y,z
-x,y,-z
-x,-y,-z
x,-y,z
1/2+x,1/2+y,z
1/2-x,1/2+y,-z
1/2-x,1/2-y,-z
1/2+x,1/2-y,z
loop_
_atom_site_type_symbol
_atom_site_label
_atom_site_fract_x
_atom_site_fract_y
_atom_site_fract_z
Si Si1 0.923492 0.886941 0.751286
Si Si2 0.297825 0.889773 0.470753
Si Si3 0.348704 0.109501 0.598291
Si Si4 0.632709 0.281061 0.704588
Si Si5 0.817329 0.214120 0.166825
Si Si6 0.791709 0.885154 0.761953
Si Si7 0.437207 0.304223 0.503089
Si Si8 0.951072 0.885018 0.899934
O O1 0.844715 0.851724 0.782807
O O2 0.900779 0.872382 0.871280
O O3 0.013529 0.827875 0.635979
O O4 0.942940 0.000000 0.708304
O O5 0.332765 0.888046 0.521496
O O6 0.361757 0.826711 0.342450
O O7 0.200758 0.849628 0.580609
O O8 0.296755 0.000000 0.436302
O O9 0.263869 0.140654 0.743307
O O10 0.424607 0.186909 0.529366
O O11 0.376282 0.000000 0.596041
O O12 0.653049 0.266253 0.775633
O O13 0.540449 0.328328 0.796460
O O14 0.793369 0.317686 0.149224
O O15 0.894247 0.161715 0.033968
O O16 0.847197 0.862009 0.617439
O O17 0.765090 0.000000 0.795372
O O18 0.500000 0.347160 0.500000
O O19 0.968040 0.000000 0.900201
#
# Coordination Sequence:
#
# PCOD8097117 Si02
#       8
#     8   8   8   8   8   8   8   8
#     4   9  18  32  52  78 102 127 165 210 254 299
#     4   9  18  33  52  73  99 129 160 202 253 299
#     4   9  17  30  47  68  98 133 166 201 245 297
#     4  10  20  34  52  77 103 128 167 207 247 303
#     4  10  21  34  50  72  99 135 172 207 246 291
#     4   9  18  34  54  75 101 132 166 207 254 300
#     4   9  16  28  49  76 103 128 158 204 256 299
#     4  11  22  35  53  75 101 134 170 209 249 290
#
# _framework density 18.374894999999999
#
# number of rings (size 3 to 8) (size 9 to 14) (size 15 to 20)
#    0.000    2.500    0.000    2.250    0.000    5.750 
#    0.000    0.625    0.000    2.250    0.000    0.000 
#    0.000    0.000    0.000    0.000    0.000    0.000 
#
# Total GULP energy -396686.774960 kJ/mol
# GULP energy per Si atom -12396.461717 kJ/mol
# Density = 1.833307 g / cm^3
# Si number density = 18.374895 Si / 1000 Ang^3
#
#
#
# Elastic Constant Matrix: (Units=GPa)
#
#
# Indices 1 2 3 4 5 6 
#
# 1 57.6509 40.4916 24.5452 0.0000 -3.7606 0.0000
# 2 40.4916 132.8043 56.2131 0.0000 -3.5965 0.0000
# 3 24.5452 56.2131 94.4623 0.0000 -3.3123 0.0000
# 4 0.0000 0.0000 0.0000 24.7751 0.0000 -1.4286
# 5 -3.7606 -3.5965 -3.3123 0.0000 15.9888 0.0000
# 6 0.0000 0.0000 0.0000 -1.4286 0.0000 26.4207
#
#
#
# Elastic Compliance Matrix: (Units=1/GPa)
#
#
# Indices 1 2 3 4 5 6 
#
# 1 0.022654 -0.005844 -0.002284 0.000000 0.003540 0.000000
# 2 -0.005844 0.011590 -0.005374 0.000000 0.000119 0.000000
# 3 -0.002284 -0.005374 0.014421 0.000000 0.001241 0.000000
# 4 0.000000 0.000000 0.000000 0.040489 0.000000 0.002189
# 5 0.003540 0.000119 0.001241 0.000000 0.063660 0.000000
# 6 0.000000 0.000000 0.000000 0.002189 0.000000 0.037968
#
#
# Mechanical properties :
#
#
# Convention : Reuss Voigt Hill
#
# Bulk Modulus (GPa) = 46.16907 58.60191 52.38549
# Shear Modulus (GPa) = 22.22139 24.34809 23.28474
#
# Velocity S-wave (km/s) = 3.48132 3.64411 3.56364
# Velocity P-wave (km/s) = 6.42963 7.04753 6.74566
#
# Compressibility (1/GPa) = 0.02165952
#
# Stress axis : x y z
#
# Youngs Moduli (GPa) = 44.14194 86.28300 69.34126
#
# Poissons Ratio (x) = 0.50427 0.15841
# Poissons Ratio (y) = 0.25798 0.37265
# Poissons Ratio (z) = 0.10084 0.46370
#
# Static dielectric constant tensor:
#      x y z
#    x 3.294590 0.000000 0.077680 
#    y 0.000000 3.534490 0.000000 
#    z 0.077680 0.000000 3.286080 
# 
# 
# High freq. dielectric constant tensor:
#      x y z
#    x 1.704370 0.000000 0.007860 
#    y 0.000000 1.714360 0.000000 
#    z 0.007860 0.000000 1.696780 
# 
# From -- ./inp_files/240673.got.cif
#   From: 2010.06.25/outbox.cif.g09.slc.cpg/sg12_121_cif.got.tgz:240673.got - 2010.06.28 00:19:55.
