data_PCOD8097323
_publ_section_title
;
Structure prediction by ZEFSAII (Michael W. Deem and Ramdas Pophale) SiO2 
 PCOD8097323
Probable space group: C 2/M
;
_chemical_formula_sum "Si O2"
_cell_formula_units_Z 48
_cell_length_a 30.870069
_cell_length_b 9.141993
_cell_length_c 17.968402
_cell_angle_alpha 90.000000
_cell_angle_beta 30.421816
_cell_angle_gamma 90.000000
_cell_volume 2567.728880
_symmetry_space_group_name_H-M "C 2/M"
_symmetry_group_IT_number 12
_symmetry_cell_setting 'monoclinic'
loop_
_space_group_symop_operation_xyz
x,y,z
-x,y,-z
-x,-y,-z
x,-y,z
1/2+x,1/2+y,z
1/2-x,1/2+y,-z
1/2-x,1/2-y,-z
1/2+x,1/2-y,z
loop_
_atom_site_type_symbol
_atom_site_label
_atom_site_fract_x
_atom_site_fract_y
_atom_site_fract_z
Si Si1 0.257225 0.173385 0.910581
Si Si2 0.592838 0.669217 0.395043
Si Si3 0.415298 0.670151 0.420487
Si Si4 0.673213 0.168991 0.574259
Si Si5 0.085213 0.170419 0.084119
Si Si6 0.501207 0.831649 0.081288
O O1 0.341332 0.226734 0.744073
O O2 0.260728 0.000000 0.916923
O O3 0.250000 0.250000 0.000000
O O4 0.174983 0.221510 0.984779
O O5 0.500000 0.701954 0.500000
O O6 0.618002 0.500000 0.344955
O O7 0.593207 0.711085 0.480971
O O8 0.397709 0.500000 0.431957
O O9 0.344422 0.761549 0.480482
O O10 0.510579 0.713743 0.252757
O O11 0.750000 0.250000 0.500000
O O12 0.591572 0.192384 0.746937
O O13 0.696589 0.000000 0.528789
O O14 0.072562 0.249915 0.024121
O O15 0.084300 0.000000 0.068826
O O16 0.528585 0.000000 0.038736
O O17 0.500000 0.765678 0.000000
#
# Coordination Sequence:
#
# PCOD8097323 Si02
#       6
#     8   8   8   8   8   8
#     4  11  23  38  57  83 113 144 182 225 270 323
#     4  10  21  38  59  82 110 145 183 223 271 326
#     4   9  18  35  57  77 103 141 180 219 267 320
#     4  10  20  34  53  77 106 139 177 221 267 318
#     4   9  19  36  56  78 105 139 179 221 266 318
#     4   9  19  35  54  77 105 138 177 219 263 314
#
# _framework density 18.693563000000001
#
# number of rings (size 3 to 8) (size 9 to 14) (size 15 to 20)
#    0.000    2.333    0.000    2.000    0.000    7.333 
#    0.000    8.333    0.000    0.000    0.000    0.000 
#    0.000    0.000    0.000    0.000    0.000    0.000 
#
# Total GULP energy -297683.714672 kJ/mol
# GULP energy per Si atom -12403.488111 kJ/mol
# Density = 1.865102 g / cm^3
# Si number density = 18.693563 Si / 1000 Ang^3
#
#
#
# Elastic Constant Matrix: (Units=GPa)
#
#
# Indices 1 2 3 4 5 6 
#
# 1 192.7768 81.5102 76.5511 -0.0037 1.2639 0.0013
# 2 81.5102 81.1093 48.2045 -0.0051 -3.8695 0.0023
# 3 76.5511 48.2045 81.9474 -0.0068 1.8608 0.0040
# 4 -0.0037 -0.0051 -0.0068 29.6190 0.0044 -0.4090
# 5 1.2639 -3.8695 1.8608 0.0044 37.4545 -0.0020
# 6 0.0013 0.0023 0.0040 -0.4090 -0.0020 38.0498
#
#
#
# Elastic Compliance Matrix: (Units=1/GPa)
#
#
# Indices 1 2 3 4 5 6 
#
# 1 0.010438 -0.007297 -0.005440 -0.000001 -0.000836 0.000001
# 2 -0.007297 0.024297 -0.007547 0.000001 0.003131 0.000000
# 3 -0.005440 -0.007547 0.021762 0.000003 -0.001677 -0.000002
# 4 -0.000001 0.000001 0.000003 0.033767 -0.000004 0.000363
# 5 -0.000836 0.003131 -0.001677 -0.000004 0.027134 0.000001
# 6 0.000001 0.000000 -0.000002 0.000363 0.000001 0.026285
#
#
# Mechanical properties :
#
#
# Convention : Reuss Voigt Hill
#
# Bulk Modulus (GPa) = 62.77505 85.37389 74.07447
# Shear Modulus (GPa) = 26.37698 30.99583 28.68640
#
# Velocity S-wave (km/s) = 3.76043 4.07640 3.92160
# Velocity P-wave (km/s) = 7.24627 8.24169 7.75996
#
# Compressibility (1/GPa) = 0.01592989
#
# Stress axis : x y z
#
# Youngs Moduli (GPa) = 95.80325 41.15818 45.95216
#
# Poissons Ratio (x) = 0.30032 0.24996
# Poissons Ratio (y) = 0.69905 0.34680
# Poissons Ratio (z) = 0.52112 0.31062
#
# Static dielectric constant tensor:
#      x y z
#    x 3.651880 0.000000 0.005320 
#    y 0.000000 3.434110 0.000000 
#    z 0.005320 0.000000 3.328810 
# 
# 
# High freq. dielectric constant tensor:
#      x y z
#    x 1.742290 0.000000 0.000160 
#    y 0.000000 1.724210 0.000000 
#    z 0.000160 0.000000 1.721090 
# 
# From -- ./inp_files/274044.got.cif
#   From: 2010.06.25/outbox.cif.g09.slc.cpg/sg12_138_cif.got.tgz:274044.got - 2010.06.28 00:19:55.
