data_PCOD8097854
_publ_section_title
;
Structure prediction by ZEFSAII (Michael W. Deem and Ramdas Pophale) SiO2 
 PCOD8097854
Probable space group: C 2/M
;
_chemical_formula_sum "Si O2"
_cell_formula_units_Z 56
_cell_length_a 29.567874
_cell_length_b 8.991434
_cell_length_c 17.477874
_cell_angle_alpha 90.000000
_cell_angle_beta 143.780181
_cell_angle_gamma 90.000000
_cell_volume 2745.620170
_symmetry_space_group_name_H-M "C 2/M"
_symmetry_group_IT_number 12
_symmetry_cell_setting 'monoclinic'
loop_
_space_group_symop_operation_xyz
x,y,z
-x,y,-z
-x,-y,-z
x,-y,z
1/2+x,1/2+y,z
1/2-x,1/2+y,-z
1/2-x,1/2-y,-z
1/2+x,1/2-y,z
loop_
_atom_site_type_symbol
_atom_site_label
_atom_site_fract_x
_atom_site_fract_y
_atom_site_fract_z
Si Si1 0.818622 0.832145 0.689375
Si Si2 0.313815 0.675127 0.236710
Si Si3 0.833762 0.168073 0.540576
Si Si4 0.572570 0.824649 0.055105
Si Si5 0.086972 0.323571 0.754461
Si Si6 0.639350 0.176497 0.991133
Si Si7 0.070276 0.828906 0.472083
O O1 0.861749 0.816835 0.666402
O O2 0.730065 0.791731 0.560358
O O3 0.852705 0.716857 0.795481
O O4 0.825638 0.000000 0.729982
O O5 0.318052 0.500000 0.226412
O O6 0.348011 0.760719 0.211453
O O7 0.226285 0.730475 0.125509
O O8 0.360754 0.717923 0.377267
O O9 0.904080 0.201102 0.580104
O O10 0.802100 0.000000 0.482643
O O11 0.584282 0.764326 0.984513
O O12 0.563389 0.000000 0.040839
O O13 0.500000 0.751228 0.000000
O O14 0.088249 0.500000 0.753026
O O15 0.004373 0.268342 0.613087
O O16 0.106017 0.262919 0.865637
O O17 0.639035 0.000000 0.990195
O O18 0.047834 0.000000 0.454990
#
# Coordination Sequence:
#
# PCOD8097854 Si02
#       7
#     8   8   8   8   8   8   8
#     4  10  20  34  54  83 115 145 185 237 286 327
#     4  10  20  38  62  81 108 150 196 235 273 337
#     4   9  19  36  57  80 110 151 191 227 273 339
#     4  10  21  37  59  82 110 151 195 230 273 339
#     4  11  23  37  57  86 120 146 181 239 293 338
#     4   9  20  39  60  84 111 149 195 235 279 335
#     4  10  21  37  59  84 112 151 193 230 277 338
#
# _framework density 20.396121000000001
#
# number of rings (size 3 to 8) (size 9 to 14) (size 15 to 20)
#    0.000    2.143    0.000    2.571    2.000    6.000 
#    0.000    4.286    0.000    0.000    0.000    0.000 
#    0.000    0.000    0.000    0.000    0.000    0.000 
#
# Total GULP energy -347189.254826 kJ/mol
# GULP energy per Si atom -12399.616244 kJ/mol
# Density = 2.034970 g / cm^3
# Si number density = 20.396121 Si / 1000 Ang^3
#
#
#
# Elastic Constant Matrix: (Units=GPa)
#
#
# Indices 1 2 3 4 5 6 
#
# 1 137.1527 37.5105 31.1631 0.0000 -3.9868 0.0000
# 2 37.5105 31.9589 20.9331 0.0000 0.0206 0.0000
# 3 31.1631 20.9331 86.7309 0.0000 -2.8973 0.0000
# 4 0.0000 0.0000 0.0000 23.7620 0.0000 -1.5671
# 5 -3.9868 0.0206 -2.8973 0.0000 31.5430 0.0000
# 6 0.0000 0.0000 0.0000 -1.5671 0.0000 26.1937
#
#
#
# Elastic Compliance Matrix: (Units=1/GPa)
#
#
# Indices 1 2 3 4 5 6 
#
# 1 0.010860 -0.012138 -0.000929 0.000000 0.001295 0.000000
# 2 -0.012138 0.050756 -0.007966 0.000000 -0.002299 0.000000
# 3 -0.000929 -0.007966 0.013825 0.000000 0.001158 0.000000
# 4 0.000000 0.000000 0.000000 0.042251 0.000000 0.002528
# 5 0.001295 -0.002299 0.001158 0.000000 0.031974 0.000000
# 6 0.000000 0.000000 0.000000 0.002528 0.000000 0.038328
#
#
# Mechanical properties :
#
#
# Convention : Reuss Voigt Hill
#
# Bulk Modulus (GPa) = 29.96299 48.33956 39.15127
# Shear Modulus (GPa) = 20.73094 27.38212 24.05653
#
# Velocity S-wave (km/s) = 3.19159 3.66801 3.43806
# Velocity P-wave (km/s) = 5.32016 6.45685 5.91587
#
# Compressibility (1/GPa) = 0.03337450
#
# Stress axis : x y z
#
# Youngs Moduli (GPa) = 92.08390 19.70203 72.33291
#
# Poissons Ratio (x) = 0.23915 0.06720
# Poissons Ratio (y) = 1.11775 0.57618
# Poissons Ratio (z) = 0.08555 0.15694
#
# Static dielectric constant tensor:
#      x y z
#    x 4.079320 0.000000 -0.150090 
#    y 0.000000 3.406570 0.000000 
#    z -0.150090 0.000000 3.625490 
# 
# 
# High freq. dielectric constant tensor:
#      x y z
#    x 1.813640 0.000000 -0.006950 
#    y 0.000000 1.772070 0.000000 
#    z -0.006950 0.000000 1.791260 
# 
# From -- ./inp_files/292503.got.cif
#   From: 2010.06.25/outbox.cif.g09.slc.cpg/sg12_147_cif.got.tgz:292503.got - 2010.06.28 00:19:55.
