data_PCOD8097222
_publ_section_title
;
Structure prediction by ZEFSAII (Michael W. Deem and Ramdas Pophale) SiO2 
 PCOD8097222
Probable space group: C 2/M
;
_chemical_formula_sum "Si O2"
_cell_formula_units_Z 56
_cell_length_a 10.966097
_cell_length_b 17.859025
_cell_length_c 16.340133
_cell_angle_alpha 90.000000
_cell_angle_beta 58.739593
_cell_angle_gamma 90.000000
_cell_volume 2735.513644
_symmetry_space_group_name_H-M "C 2/M"
_symmetry_group_IT_number 12
_symmetry_cell_setting 'monoclinic'
loop_
_space_group_symop_operation_xyz
x,y,z
-x,y,-z
-x,-y,-z
x,-y,z
1/2+x,1/2+y,z
1/2-x,1/2+y,-z
1/2-x,1/2-y,-z
1/2+x,1/2-y,z
loop_
_atom_site_type_symbol
_atom_site_label
_atom_site_fract_x
_atom_site_fract_y
_atom_site_fract_z
Si Si1 0.319664 0.645664 0.397430
Si Si2 0.184666 0.665792 0.782873
Si Si3 0.563302 0.792657 0.563292
Si Si4 0.722746 0.168273 0.257724
Si Si5 0.669140 0.918034 0.947009
Si Si6 0.383222 0.911138 0.857669
Si Si7 0.571899 0.415986 0.392319
O O1 0.366274 0.730147 0.403629
O O2 0.171729 0.639112 0.500898
O O3 0.299345 0.630805 0.308334
O O4 0.440129 0.585199 0.375278
O O5 0.192183 0.754878 0.788331
O O6 0.231607 0.636753 0.856497
O O7 0.301198 0.639614 0.675838
O O8 0.031128 0.635670 0.807468
O O9 0.500000 0.758926 0.500000
O O10 0.442445 0.824551 0.663257
O O11 0.722869 0.115558 0.177522
O O12 0.733615 0.000000 0.905884
O O13 0.500000 0.920866 0.000000
O O14 0.704429 0.893710 0.027941
O O15 0.417552 0.000000 0.838717
O O16 0.500000 0.386261 0.500000
O O17 0.632618 0.500000 0.378383
#
# Coordination Sequence:
#
# PCOD8097222 Si02
#       7
#     8   8   8   8   8   8   8
#     4  10  20  34  53  75 115 156 186 225 281 348
#     4  11  21  36  62  88 116 146 197 245 289 335
#     4   9  18  33  53  78 106 153 196 233 272 334
#     4  11  22  33  57  90 115 148 195 236 289 346
#     4   8  16  35  60  84 111 151 193 235 292 346
#     4  10  22  40  62  86 116 154 195 241 293 350
#     4  11  24  37  55  86 117 150 192 243 289 335
#
# _framework density 20.471475000000002
#
# number of rings (size 3 to 8) (size 9 to 14) (size 15 to 20)
#    0.000    2.000    1.429    3.429    6.000    1.143 
#    0.000    0.000    0.000    2.571    0.000    3.000 
#    0.000    0.000    0.000    0.000    0.000    0.000 
#
# Total GULP energy -346954.164283 kJ/mol
# GULP energy per Si atom -12391.220153 kJ/mol
# Density = 2.042488 g / cm^3
# Si number density = 20.471475 Si / 1000 Ang^3
#
#
#
# Elastic Constant Matrix: (Units=GPa)
#
#
# Indices 1 2 3 4 5 6 
#
# 1 65.1026 9.1185 18.0853 0.0000 18.7361 0.0000
# 2 9.1185 58.7870 17.9847 0.0000 2.3676 0.0000
# 3 18.0853 17.9847 92.4946 0.0000 24.6623 0.0000
# 4 0.0000 0.0000 0.0000 16.7940 0.0000 6.8666
# 5 18.7361 2.3676 24.6623 0.0000 36.8199 0.0000
# 6 0.0000 0.0000 0.0000 6.8666 0.0000 23.0628
#
#
#
# Elastic Compliance Matrix: (Units=1/GPa)
#
#
# Indices 1 2 3 4 5 6 
#
# 1 0.018401 -0.002244 -0.000856 0.000000 -0.008645 0.000000
# 2 -0.002244 0.018424 -0.003813 0.000000 0.002511 0.000000
# 3 -0.000856 -0.003813 0.014048 0.000000 -0.008728 0.000000
# 4 0.000000 0.000000 0.000000 0.067799 0.000000 -0.020186
# 5 -0.008645 0.002511 -0.008728 0.000000 0.037243 0.000000
# 6 0.000000 0.000000 0.000000 -0.020186 0.000000 0.049370
#
#
# Mechanical properties :
#
#
# Convention : Reuss Voigt Hill
#
# Bulk Modulus (GPa) = 26.99404 34.08457 30.53930
# Shear Modulus (GPa) = 21.60201 26.74837 24.17519
#
# Velocity S-wave (km/s) = 3.25195 3.61864 3.44018
# Velocity P-wave (km/s) = 5.22638 5.84340 5.54348
#
# Compressibility (1/GPa) = 0.03704521
#
# Stress axis : x y z
#
# Youngs Moduli (GPa) = 54.34588 54.27680 71.18659
#
# Poissons Ratio (x) = 0.12180 0.06096
# Poissons Ratio (y) = 0.12195 0.27145
# Poissons Ratio (z) = 0.04654 0.20697
#
# Static dielectric constant tensor:
#      x y z
#    x 3.739870 0.000000 0.247130 
#    y 0.000000 3.355130 0.000000 
#    z 0.247130 0.000000 4.022380 
# 
# 
# High freq. dielectric constant tensor:
#      x y z
#    x 1.789130 0.000000 0.018280 
#    y 0.000000 1.772230 0.000000 
#    z 0.018280 0.000000 1.806580 
# 
# From -- ./inp_files/206580.got.cif
#   From: 2010.06.25/outbox.cif.g09.slc.cpg/sg12_104_cif.got.tgz:206580.got - 2010.06.28 00:19:55.
