data_PCOD8097204
_publ_section_title
;
Structure prediction by ZEFSAII (Michael W. Deem and Ramdas Pophale) SiO2 
 PCOD8097204
Probable space group: C 2/M
;
_chemical_formula_sum "Si O2"
_cell_formula_units_Z 64
_cell_length_a 10.620313
_cell_length_b 17.360969
_cell_length_c 22.276285
_cell_angle_alpha 90.000000
_cell_angle_beta 61.740776
_cell_angle_gamma 90.000000
_cell_volume 3617.749669
_symmetry_space_group_name_H-M "C 2/M"
_symmetry_group_IT_number 12
_symmetry_cell_setting 'monoclinic'
loop_
_space_group_symop_operation_xyz
x,y,z
-x,y,-z
-x,-y,-z
x,-y,z
1/2+x,1/2+y,z
1/2-x,1/2+y,-z
1/2-x,1/2-y,-z
1/2+x,1/2-y,z
loop_
_atom_site_type_symbol
_atom_site_label
_atom_site_fract_x
_atom_site_fract_y
_atom_site_fract_z
Si Si1 0.919693 0.090436 0.079378
Si Si2 0.574190 0.585029 0.419355
Si Si3 0.179812 0.312036 0.175767
Si Si4 0.827207 0.342575 0.421800
Si Si5 0.464129 0.689230 0.176434
Si Si6 0.153061 0.084684 0.703388
Si Si7 0.180638 0.837913 0.576953
Si Si8 0.059563 0.414750 0.297387
O O1 0.760670 0.128345 0.112708
O O2 0.009698 0.128335 0.114177
O O3 0.904780 0.000000 0.094291
O O4 0.000000 0.109506 0.000000
O O5 0.500000 0.582483 0.500000
O O6 0.580458 0.500000 0.389157
O O7 0.731890 0.618032 0.391709
O O8 0.485125 0.641503 0.396874
O O9 0.306324 0.276150 0.191369
O O10 0.057149 0.358244 0.240576
O O11 0.091427 0.250922 0.155799
O O12 0.807688 0.252435 0.417328
O O13 0.782879 0.366424 0.499487
O O14 0.984082 0.373737 0.371645
O O15 0.457879 0.644838 0.242184
O O16 0.225644 0.118130 0.626723
O O17 0.275518 0.074047 0.724653
O O18 0.084303 0.000000 0.706402
O O19 0.993532 0.500000 0.299109
#
# Coordination Sequence:
#
# PCOD8097204 Si02
#       8
#     8   8   8   8   8   8   8   8
#     4   9  18  34  61  90 118 158 195 217 259 334
#     4   9  18  34  51  66  93 129 165 210 266 326
#     4   9  19  35  57  84 114 147 184 230 276 320
#     4  10  21  34  51  73  98 131 175 227 279 328
#     4   9  19  35  57  84 114 147 184 230 276 320
#     4  10  20  34  53  74 103 141 177 220 273 333
#     4  10  21  34  51  73  98 131 175 227 279 328
#     4  10  20  34  53  74 103 141 177 220 273 333
#
# _framework density 17.690553999999999
#
# number of rings (size 3 to 8) (size 9 to 14) (size 15 to 20)
#    0.750    1.750    0.000    2.250    1.750    2.500 
#    2.250    1.250    0.000    2.250    0.000    1.750 
#    0.000    0.000    0.000    0.000    0.000    0.000 
#
# Total GULP energy -396466.483650 kJ/mol
# GULP energy per Si atom -12389.577614 kJ/mol
# Density = 1.765029 g / cm^3
# Si number density = 17.690554 Si / 1000 Ang^3
#
#
#
# Elastic Constant Matrix: (Units=GPa)
#
#
# Indices 1 2 3 4 5 6 
#
# 1 53.8443 35.0574 24.9958 0.0002 -0.6692 0.0002
# 2 35.0574 100.5129 54.4297 0.0000 0.4120 0.0000
# 3 24.9958 54.4297 109.9261 0.0003 3.6434 0.0002
# 4 0.0002 0.0000 0.0003 -230.4867 -0.0002 -215.2945
# 5 -0.6692 0.4120 3.6434 -0.0002 15.8768 -0.0002
# 6 0.0002 0.0000 0.0002 -215.2945 -0.0002 -144.5638
#
#
#
# Elastic Compliance Matrix: (Units=1/GPa)
#
#
# Indices 1 2 3 4 5 6 
#
# 1 0.024334 -0.007471 -0.001889 0.000000 0.001653 0.000000
# 2 -0.007471 0.015911 -0.006202 0.000000 0.000696 0.000000
# 3 -0.001889 -0.006202 0.012691 0.000000 -0.002831 0.000000
# 4 0.000000 0.000000 0.000000 0.011093 0.000000 -0.016521
# 5 0.001653 0.000696 -0.002831 0.000000 0.063686 0.000000
# 6 0.000000 0.000000 0.000000 -0.016521 0.000000 0.017687
#
#
# Mechanical properties :
#
#
# Convention : Reuss Voigt Hill
#
# Bulk Modulus (GPa) = 45.84753 54.80545 50.32649
# Shear Modulus (GPa) = 27.20391 -61.84805 -17.32207
#
# Velocity S-wave (km/s) = 3.92569 -5.91920 -3.13256
# Velocity P-wave (km/s) = 6.82061 3.95836 3.92760
#
# Compressibility (1/GPa) = 0.02181143
#
# Stress axis : x y z
#
# Youngs Moduli (GPa) = 41.09501 62.85090 78.79382
#
# Poissons Ratio (x) = 0.46958 0.14881
# Poissons Ratio (y) = 0.30704 0.48870
# Poissons Ratio (z) = 0.07761 0.38982
#
# Static dielectric constant tensor:
#      x y z
#    x 3.084990 0.000000 0.021300 
#    y 0.000000 3.378500 0.000000 
#    z 0.021300 0.000000 3.165330 
# 
# 
# High freq. dielectric constant tensor:
#      x y z
#    x 1.655530 0.000000 0.000700 
#    y 0.000000 1.691070 0.000000 
#    z 0.000700 0.000000 1.670860 
# 
# From -- ./inp_files/336283.got.cif
#   From: 2010.06.25/outbox.cif.g09.slc.cpg/sg12_169_cif.got.tgz:336283.got - 2010.06.28 00:19:55.
