data_PCOD8097038
_publ_section_title
;
Structure prediction by ZEFSAII (Michael W. Deem and Ramdas Pophale) SiO2 
 PCOD8097038
Probable space group: C 2/M
;
_chemical_formula_sum "Si O2"
_cell_formula_units_Z 56
_cell_length_a 14.484641
_cell_length_b 9.215156
_cell_length_c 28.397100
_cell_angle_alpha 90.000000
_cell_angle_beta 50.712749
_cell_angle_gamma 90.000000
_cell_volume 2933.693835
_symmetry_space_group_name_H-M "C 2/M"
_symmetry_group_IT_number 12
_symmetry_cell_setting 'monoclinic'
loop_
_space_group_symop_operation_xyz
x,y,z
-x,y,-z
-x,-y,-z
x,-y,z
1/2+x,1/2+y,z
1/2-x,1/2+y,-z
1/2-x,1/2-y,-z
1/2+x,1/2-y,z
loop_
_atom_site_type_symbol
_atom_site_label
_atom_site_fract_x
_atom_site_fract_y
_atom_site_fract_z
Si Si1 0.151732 0.671990 0.500307
Si Si2 0.293491 0.330106 0.269435
Si Si3 0.964355 0.328925 0.820808
Si Si4 0.687104 0.662117 0.061481
Si Si5 0.884264 0.671529 0.593400
Si Si6 0.250067 0.334747 0.177972
Si Si7 0.102504 0.340207 0.935017
O O1 0.166550 0.500000 0.501648
O O2 0.250000 0.750000 0.500000
O O3 0.167379 0.719806 0.440671
O O4 0.019642 0.725818 0.558561
O O5 0.323362 0.500000 0.267070
O O6 0.412241 0.236917 0.236712
O O7 0.201559 0.269204 0.337935
O O8 0.232482 0.302087 0.238628
O O9 0.975987 0.500000 0.826225
O O10 0.926108 0.251827 0.882288
O O11 0.871118 0.292397 0.809446
O O12 0.648413 0.500000 0.057029
O O13 0.777537 0.646897 0.074733
O O14 0.750000 0.750000 0.000000
O O15 0.888892 0.500000 0.593181
O O16 0.282075 0.500000 0.157719
O O17 0.366945 0.249166 0.121672
O O18 0.056065 0.500000 0.934832
O O19 0.000000 0.263460 0.000000
#
# Coordination Sequence:
#
# PCOD8097038 Si02
#       7
#     8   8   8   8   8   8   8
#     4   9  17  33  57  83 111 149 185 221 265 311
#     4  10  20  36  57  79 105 144 185 222 265 322
#     4  10  21  37  53  75 107 139 174 222 274 326
#     4  10  20  34  52  75 102 133 170 217 272 329
#     4   8  17  34  54  78 112 148 184 217 262 327
#     4   9  20  36  52  73 101 134 173 217 266 319
#     4   9  19  34  51  72  97 127 163 210 268 322
#
# _framework density 19.088564000000002
#
# number of rings (size 3 to 8) (size 9 to 14) (size 15 to 20)
#    0.000    2.714    0.000    1.714    2.000    3.143 
#    0.000    4.286    0.000    0.000    0.000    0.000 
#    0.000    0.000    0.000    0.000    0.000    0.000 
#
# Total GULP energy -347098.221283 kJ/mol
# GULP energy per Si atom -12396.365046 kJ/mol
# Density = 1.904512 g / cm^3
# Si number density = 19.088564 Si / 1000 Ang^3
#
#
#
# Elastic Constant Matrix: (Units=GPa)
#
#
# Indices 1 2 3 4 5 6 
#
# 1 100.4725 47.3759 66.0696 0.0000 -2.7612 0.0000
# 2 47.3759 85.0489 65.6642 0.0001 -1.6956 0.0001
# 3 66.0696 65.6642 194.8697 0.0000 -3.6005 0.0000
# 4 0.0000 0.0001 0.0000 25.6052 0.0000 -4.1313
# 5 -2.7612 -1.6956 -3.6005 0.0000 25.0183 0.0000
# 6 0.0000 0.0001 0.0000 -4.1313 0.0000 25.2773
#
#
#
# Elastic Compliance Matrix: (Units=1/GPa)
#
#
# Indices 1 2 3 4 5 6 
#
# 1 0.014711 -0.005865 -0.002997 0.000000 0.000795 0.000000
# 2 -0.005865 0.018233 -0.004156 0.000000 -0.000010 0.000000
# 3 -0.002997 -0.004156 0.007557 0.000000 0.000475 0.000000
# 4 0.000000 0.000000 0.000000 0.040112 0.000000 0.006556
# 5 0.000795 -0.000010 0.000475 0.000000 0.040126 0.000000
# 6 0.000000 0.000000 0.000000 0.006556 0.000000 0.040633
#
#
# Mechanical properties :
#
#
# Convention : Reuss Voigt Hill
#
# Bulk Modulus (GPa) = 69.12674 82.06784 75.59729
# Shear Modulus (GPa) = 26.01060 28.59891 27.30475
#
# Velocity S-wave (km/s) = 3.69538 3.87489 3.78620
# Velocity P-wave (km/s) = 7.38242 7.94394 7.66832
#
# Compressibility (1/GPa) = 0.01446618
#
# Stress axis : x y z
#
# Youngs Moduli (GPa) = 67.97642 54.84457 132.33273
#
# Poissons Ratio (x) = 0.32167 0.39655
# Poissons Ratio (y) = 0.39869 0.54992
# Poissons Ratio (z) = 0.20370 0.22791
#
# Static dielectric constant tensor:
#      x y z
#    x 3.475370 0.000000 0.004830 
#    y 0.000000 3.528360 0.000000 
#    z 0.004830 0.000000 3.825510 
# 
# 
# High freq. dielectric constant tensor:
#      x y z
#    x 1.740640 0.000000 -0.000920 
#    y 0.000000 1.725890 0.000000 
#    z -0.000920 0.000000 1.743460 
# 
# From -- ./inp_files/374933.got.cif
#   From: 2010.06.25/outbox.cif.g09.slc.cpg/sg12_188_cif.got.tgz:374933.got - 2010.06.28 00:19:55.
