data_PCOD8097329
_publ_section_title
;
Structure prediction by ZEFSAII (Michael W. Deem and Ramdas Pophale) SiO2 
 PCOD8097329
Probable space group: C 2/M
;
_chemical_formula_sum "Si O2"
_cell_formula_units_Z 64
_cell_length_a 19.104440
_cell_length_b 8.896039
_cell_length_c 25.130266
_cell_angle_alpha 90.000000
_cell_angle_beta 125.266963
_cell_angle_gamma 90.000000
_cell_volume 3487.134135
_symmetry_space_group_name_H-M "C 2/M"
_symmetry_group_IT_number 12
_symmetry_cell_setting 'monoclinic'
loop_
_space_group_symop_operation_xyz
x,y,z
-x,y,-z
-x,-y,-z
x,-y,z
1/2+x,1/2+y,z
1/2-x,1/2+y,-z
1/2-x,1/2-y,-z
1/2+x,1/2-y,z
loop_
_atom_site_type_symbol
_atom_site_label
_atom_site_fract_x
_atom_site_fract_y
_atom_site_fract_z
Si Si1 0.176931 0.821796 0.799156
Si Si2 0.470283 0.822186 0.198743
Si Si3 0.191199 0.327899 0.693727
Si Si4 0.707584 0.834160 0.057786
Si Si5 0.879835 0.833897 0.066494
Si Si6 0.247922 0.675152 0.442051
Si Si7 0.854936 0.173721 0.692801
Si Si8 0.408024 0.673628 0.438914
O O1 0.090955 0.745147 0.782897
O O2 0.194568 0.774231 0.747104
O O3 0.259244 0.770880 0.870807
O O4 0.164299 0.000000 0.798277
O O5 0.443603 0.771250 0.127795
O O6 0.565458 0.766250 0.250790
O O7 0.466151 0.000000 0.200080
O O8 0.173968 0.500000 0.701945
O O9 0.280804 0.307127 0.703519
O O10 0.114337 0.272249 0.622383
O O11 0.789103 0.842722 0.055309
O O12 0.667753 0.000000 0.047250
O O13 0.634379 0.729998 0.999491
O O14 0.920555 0.000000 0.079720
O O15 0.225225 0.500000 0.436809
O O16 0.250000 0.750000 0.500000
O O17 0.174157 0.756491 0.375911
O O18 0.340200 0.700978 0.455960
O O19 0.879335 0.000000 0.694694
O O20 0.500000 0.727974 0.500000
O O21 0.409822 0.500000 0.422094
#
# Coordination Sequence:
#
# PCOD8097329 Si02
#       8
#     8   8   8   8   8   8   8   8
#     4  10  20  34  53  77 107 139 173 215 260 307
#     4  11  21  33  52  78 106 135 174 220 261 307
#     4  10  21  36  55  78 105 138 174 213 257 308
#     4   8  15  27  44  69  99 133 170 208 253 304
#     4   9  16  27  45  70 101 135 168 208 260 310
#     4  10  20  35  55  78 104 135 172 213 258 307
#     4  10  21  38  56  75 104 140 176 214 261 313
#     4   9  19  36  56  76 100 134 173 210 252 303
#
# _framework density 18.353179999999998
#
# number of rings (size 3 to 8) (size 9 to 14) (size 15 to 20)
#    0.000    2.375    0.000    3.750    0.000    6.750 
#    0.000    3.750    0.000    0.750    0.000    5.250 
#    0.000    0.000    0.000    0.000    0.000    0.000 
#
# Total GULP energy -396814.613425 kJ/mol
# GULP energy per Si atom -12400.456670 kJ/mol
# Density = 1.831141 g / cm^3
# Si number density = 18.353180 Si / 1000 Ang^3
#
#
#
# Elastic Constant Matrix: (Units=GPa)
#
#
# Indices 1 2 3 4 5 6 
#
# 1 36.8170 35.1865 51.7539 0.0000 -0.8522 0.0000
# 2 35.1865 125.8893 69.4068 0.0000 0.0853 0.0000
# 3 51.7539 69.4068 152.1681 0.0000 -3.1657 0.0000
# 4 0.0000 0.0000 0.0000 38.8792 0.0000 -0.7241
# 5 -0.8522 0.0853 -3.1657 0.0000 22.2943 0.0000
# 6 0.0000 0.0000 0.0000 -0.7241 0.0000 25.0996
#
#
#
# Elastic Compliance Matrix: (Units=1/GPa)
#
#
# Indices 1 2 3 4 5 6 
#
# 1 0.056206 -0.006906 -0.015968 0.000000 -0.000092 0.000000
# 2 -0.006906 0.011473 -0.002899 0.000000 -0.000720 0.000000
# 3 -0.015968 -0.002899 0.013352 0.000000 0.001297 0.000000
# 4 0.000000 0.000000 0.000000 0.025735 0.000000 0.000742
# 5 -0.000092 -0.000720 0.001297 0.000000 0.045038 0.000000
# 6 0.000000 0.000000 0.000000 0.000742 0.000000 0.039863
#
#
# Mechanical properties :
#
#
# Convention : Reuss Voigt Hill
#
# Bulk Modulus (GPa) = 33.91660 69.72987 51.82324
# Shear Modulus (GPa) = 19.75974 27.82311 23.79142
#
# Velocity S-wave (km/s) = 3.28478 3.89779 3.60434
# Velocity P-wave (km/s) = 5.73641 7.63759 6.75423
#
# Compressibility (1/GPa) = 0.02948409
#
# Stress axis : x y z
#
# Youngs Moduli (GPa) = 17.79170 87.16473 74.89559
#
# Poissons Ratio (x) = 0.60195 1.19595
# Poissons Ratio (y) = 0.12287 0.21713
# Poissons Ratio (z) = 0.28410 0.25269
#
# Static dielectric constant tensor:
#      x y z
#    x 3.014820 0.000000 -0.015690 
#    y 0.000000 3.596530 0.000000 
#    z -0.015690 0.000000 3.605260 
# 
# 
# High freq. dielectric constant tensor:
#      x y z
#    x 1.672880 0.000000 -0.000490 
#    y 0.000000 1.725330 0.000000 
#    z -0.000490 0.000000 1.727140 
# 
# From -- ./inp_files/346257.got.cif
#   From: 2010.06.25/outbox.cif.g09.slc.cpg/sg12_174_cif.got.tgz:346257.got - 2010.06.28 00:19:55.
