data_PCOD8097731
_publ_section_title
;
Structure prediction by ZEFSAII (Michael W. Deem and Ramdas Pophale) SiO2 
 PCOD8097731
Probable space group: C 2/M
;
_chemical_formula_sum "Si O2"
_cell_formula_units_Z 40
_cell_length_a 10.828726
_cell_length_b 13.147614
_cell_length_c 15.025845
_cell_angle_alpha 90.000000
_cell_angle_beta 79.848355
_cell_angle_gamma 90.000000
_cell_volume 2105.767535
_symmetry_space_group_name_H-M "C 2/M"
_symmetry_group_IT_number 12
_symmetry_cell_setting 'monoclinic'
loop_
_space_group_symop_operation_xyz
x,y,z
-x,y,-z
-x,-y,-z
x,-y,z
1/2+x,1/2+y,z
1/2-x,1/2+y,-z
1/2-x,1/2-y,-z
1/2+x,1/2-y,z
loop_
_atom_site_type_symbol
_atom_site_label
_atom_site_fract_x
_atom_site_fract_y
_atom_site_fract_z
Si Si1 0.862623 0.262555 0.055566
Si Si2 0.213267 0.753413 0.651252
Si Si3 0.789503 0.884909 0.794660
Si Si4 0.931746 0.116017 0.193829
Si Si5 0.641829 0.888383 0.504609
O O1 0.825428 0.353909 0.126726
O O2 0.871918 0.157903 0.110233
O O3 0.750000 0.250000 0.000000
O O4 0.000000 0.290496 0.000000
O O5 0.298340 0.689419 0.708832
O O6 0.109709 0.819361 0.715510
O O7 0.297669 0.829763 0.585032
O O8 0.146605 0.673881 0.595084
O O9 0.918307 0.875609 0.833333
O O10 0.767161 0.000000 0.764589
O O11 0.887008 0.000000 0.211187
O O12 0.500000 0.905947 0.500000
O O13 0.706117 0.000000 0.508021
#
# Coordination Sequence:
#
# PCOD8097731 Si02
#       5
#     8   8   8   8   8
#     4  11  22  39  61  86 116 149 189 236 282 340
#     4  10  20  35  56  81 111 148 191 235 278 336
#     4  10  21  37  58  83 114 149 189 238 287 336
#     4  10  21  37  59  83 112 151 191 232 285 345
#     4  10  20  34  54  80 113 149 186 231 284 337
#
# _framework density 18.995450000000002
#
# number of rings (size 3 to 8) (size 9 to 14) (size 15 to 20)
#    0.000    1.800    2.000    2.400    0.000    1.600 
#    0.000    0.000    0.000    9.600    0.000    0.000 
#    0.000    0.000    0.000    0.000    0.000    0.000 
#
# Total GULP energy -247971.336296 kJ/mol
# GULP energy per Si atom -12398.566815 kJ/mol
# Density = 1.895222 g / cm^3
# Si number density = 18.995450 Si / 1000 Ang^3
#
#
#
# Elastic Constant Matrix: (Units=GPa)
#
#
# Indices 1 2 3 4 5 6 
#
# 1 98.3424 53.1077 50.6542 0.0000 1.6494 0.0000
# 2 53.1077 165.1390 68.4436 0.0000 1.8155 0.0000
# 3 50.6542 68.4436 121.1141 0.0000 2.6298 0.0000
# 4 0.0000 0.0000 0.0000 15.4741 0.0000 1.6233
# 5 1.6494 1.8155 2.6298 0.0000 23.8226 0.0000
# 6 0.0000 0.0000 0.0000 1.6233 0.0000 28.9532
#
#
#
# Elastic Compliance Matrix: (Units=1/GPa)
#
#
# Indices 1 2 3 4 5 6 
#
# 1 0.013811 -0.002673 -0.004259 0.000000 -0.000282 0.000000
# 2 -0.002673 0.008425 -0.003642 0.000000 -0.000055 0.000000
# 3 -0.004259 -0.003642 0.012113 0.000000 -0.000765 0.000000
# 4 0.000000 0.000000 0.000000 0.065007 0.000000 -0.003645
# 5 -0.000282 -0.000055 -0.000765 0.000000 0.042085 0.000000
# 6 0.000000 0.000000 0.000000 -0.003645 0.000000 0.034743
#
#
# Mechanical properties :
#
#
# Convention : Reuss Voigt Hill
#
# Bulk Modulus (GPa) = 75.75856 81.00071 78.37964
# Shear Modulus (GPa) = 24.78532 27.80933 26.29732
#
# Velocity S-wave (km/s) = 3.61612 3.83038 3.72479
# Velocity P-wave (km/s) = 7.57656 7.89285 7.73632
#
# Compressibility (1/GPa) = 0.01319983
#
# Stress axis : x y z
#
# Youngs Moduli (GPa) = 72.40748 118.69111 82.55611
#
# Poissons Ratio (x) = 0.31726 0.35165
# Poissons Ratio (y) = 0.19354 0.30068
# Poissons Ratio (z) = 0.30842 0.43229
#
# Static dielectric constant tensor:
#      x y z
#    x 3.375210 0.000000 -0.010360 
#    y 0.000000 3.745780 0.000000 
#    z -0.010360 0.000000 3.636220 
# 
# 
# High freq. dielectric constant tensor:
#      x y z
#    x 1.730960 0.000000 0.001490 
#    y 0.000000 1.749720 0.000000 
#    z 0.001490 0.000000 1.747660 
# 
# From -- ./inp_files/194427.got.cif
#   From: 2010.06.25/outbox.cif.g09.slc.cpg/sg12_98_cif.got.tgz:194427.got - 2010.06.28 00:19:55.
