data_PCOD8097545
_publ_section_title
;
Structure prediction by ZEFSAII (Michael W. Deem and Ramdas Pophale) SiO2 
 PCOD8097545
Probable space group: C 2/M
;
_chemical_formula_sum "Si O2"
_cell_formula_units_Z 48
_cell_length_a 25.840441
_cell_length_b 9.298473
_cell_length_c 22.255413
_cell_angle_alpha 90.000000
_cell_angle_beta 150.126046
_cell_angle_gamma 90.000000
_cell_volume 2663.533609
_symmetry_space_group_name_H-M "C 2/M"
_symmetry_group_IT_number 12
_symmetry_cell_setting 'monoclinic'
loop_
_space_group_symop_operation_xyz
x,y,z
-x,y,-z
-x,-y,-z
x,-y,z
1/2+x,1/2+y,z
1/2-x,1/2+y,-z
1/2-x,1/2-y,-z
1/2+x,1/2-y,z
loop_
_atom_site_type_symbol
_atom_site_label
_atom_site_fract_x
_atom_site_fract_y
_atom_site_fract_z
Si Si1 0.773488 0.838211 0.746869
Si Si2 0.351578 0.837312 0.488912
Si Si3 0.570912 0.170474 0.753163
Si Si4 0.840914 0.333038 0.710819
Si Si5 0.437170 0.166832 0.118635
Si Si6 0.266111 0.670767 0.875290
O O1 0.663776 0.837389 0.599438
O O2 0.854572 0.737825 0.791359
O O3 0.754638 0.779510 0.794725
O O4 0.819375 0.000000 0.795592
O O5 0.462592 0.768287 0.617606
O O6 0.257323 0.742004 0.421994
O O7 0.342784 0.000000 0.505783
O O8 0.585327 0.219136 0.836374
O O9 0.666729 0.232544 0.811207
O O10 0.567973 0.000000 0.744649
O O11 0.817359 0.500000 0.695430
O O12 0.942223 0.305059 0.773235
O O13 0.408549 0.000000 0.081110
O O14 0.370091 0.260884 0.005953
O O15 0.273420 0.500000 0.889001
#
# Coordination Sequence:
#
# PCOD8097545 Si02
#       6
#     8   8   8   8   8   8
#     4   8  17  33  52  77 101 127 165 208 251 295
#     4   8  16  33  54  76 101 128 163 208 253 293
#     4   9  18  34  55  76 100 132 168 205 248 299
#     4   9  18  33  51  74 103 133 166 203 249 299
#     4  10  21  35  51  74 104 136 168 203 246 298
#     4  10  20  34  54  77 100 131 170 208 246 294
#
# _framework density 18.021173000000001
#
# number of rings (size 3 to 8) (size 9 to 14) (size 15 to 20)
#    1.000    2.000    0.000    0.500    0.000    4.000 
#    0.000    8.333    0.000    1.000    0.000    0.000 
#    0.000    0.000    0.000    0.000    0.000    0.000 
#
# Total GULP energy -297395.460878 kJ/mol
# GULP energy per Si atom -12391.477537 kJ/mol
# Density = 1.798016 g / cm^3
# Si number density = 18.021173 Si / 1000 Ang^3
#
#
#
# Elastic Constant Matrix: (Units=GPa)
#
#
# Indices 1 2 3 4 5 6 
#
# 1 72.4099 21.7420 -1.5294 0.0000 -0.0697 0.0000
# 2 21.7420 45.6352 17.1247 0.0000 7.0572 0.0000
# 3 -1.5294 17.1247 63.5318 0.0000 4.4367 0.0000
# 4 0.0000 0.0000 0.0000 16.1259 0.0000 2.6766
# 5 -0.0697 7.0572 4.4367 0.0000 30.0567 0.0000
# 6 0.0000 0.0000 0.0000 2.6766 0.0000 22.8245
#
#
#
# Elastic Compliance Matrix: (Units=1/GPa)
#
#
# Indices 1 2 3 4 5 6 
#
# 1 0.016647 -0.009249 0.002768 0.000000 0.001802 0.000000
# 2 -0.009249 0.030223 -0.007954 0.000000 -0.005944 0.000000
# 3 0.002768 -0.007954 0.018006 0.000000 -0.000784 0.000000
# 4 0.000000 0.000000 0.000000 0.063243 0.000000 -0.007416
# 5 0.001802 -0.005944 -0.000784 0.000000 0.034786 0.000000
# 6 0.000000 0.000000 0.000000 -0.007416 0.000000 0.044682
#
#
# Mechanical properties :
#
#
# Convention : Reuss Voigt Hill
#
# Bulk Modulus (GPa) = 27.77280 28.47240 28.12260
# Shear Modulus (GPa) = 20.12403 23.41740 21.77072
#
# Velocity S-wave (km/s) = 3.34531 3.60868 3.47949
# Velocity P-wave (km/s) = 5.51055 5.76170 5.63752
#
# Compressibility (1/GPa) = 0.03600645
#
# Stress axis : x y z
#
# Youngs Moduli (GPa) = 60.06919 33.08721 55.53854
#
# Poissons Ratio (x) = 0.30601 -0.15372
# Poissons Ratio (y) = 0.55556 0.44176
# Poissons Ratio (z) = -0.16626 0.26318
#
# Static dielectric constant tensor:
#      x y z
#    x 3.332810 0.000000 -0.010500 
#    y 0.000000 3.104450 0.000000 
#    z -0.010500 0.000000 3.245700 
# 
# 
# High freq. dielectric constant tensor:
#      x y z
#    x 1.692530 0.000000 -0.002960 
#    y 0.000000 1.675240 0.000000 
#    z -0.002960 0.000000 1.693370 
# 
# From -- ./inp_files/323860.got.cif
#   From: 2010.06.25/outbox.cif.g09.slc.cpg/sg12_162_cif.got.tgz:323860.got - 2010.06.28 00:19:55.
