data_PCOD8097400
_publ_section_title
;
Structure prediction by ZEFSAII (Michael W. Deem and Ramdas Pophale) SiO2 
 PCOD8097400
Probable space group: C 2/M
;
_chemical_formula_sum "Si O2"
_cell_formula_units_Z 56
_cell_length_a 15.286716
_cell_length_b 8.893525
_cell_length_c 26.255784
_cell_angle_alpha 90.000000
_cell_angle_beta 125.570653
_cell_angle_gamma 90.000000
_cell_volume 2903.465405
_symmetry_space_group_name_H-M "C 2/M"
_symmetry_group_IT_number 12
_symmetry_cell_setting 'monoclinic'
loop_
_space_group_symop_operation_xyz
x,y,z
-x,y,-z
-x,-y,-z
x,-y,z
1/2+x,1/2+y,z
1/2-x,1/2+y,-z
1/2-x,1/2-y,-z
1/2+x,1/2-y,z
loop_
_atom_site_type_symbol
_atom_site_label
_atom_site_fract_x
_atom_site_fract_y
_atom_site_fract_z
Si Si1 0.333086 0.322077 0.423173
Si Si2 0.458470 0.678307 0.563571
Si Si3 0.347418 0.677557 0.002933
Si Si4 0.963634 0.823608 0.206950
Si Si5 0.717309 0.828023 0.119085
Si Si6 0.469916 0.827332 0.872312
Si Si7 0.391111 0.322566 0.650224
O O1 0.318177 0.500000 0.416170
O O2 0.422590 0.267521 0.412744
O O3 0.370625 0.269103 0.492201
O O4 0.222044 0.244782 0.370772
O O5 0.459752 0.500000 0.565924
O O6 0.427741 0.746086 0.608170
O O7 0.341693 0.500000 0.006301
O O8 0.341111 0.724008 0.942018
O O9 0.250000 0.750000 0.000000
O O10 0.457837 0.734233 0.064184
O O11 0.839407 0.774278 0.168745
O O12 0.022900 0.736668 0.181860
O O13 0.019563 0.776039 0.278442
O O14 0.974816 0.000000 0.200209
O O15 0.653403 0.812469 0.150631
O O16 0.714636 0.000000 0.098582
O O17 0.508238 0.000000 0.885379
O O18 0.378566 0.500000 0.642200
#
# Coordination Sequence:
#
# PCOD8097400 Si02
#       7
#     8   8   8   8   8   8   8
#     4   9  17  32  55  81 107 140 182 228 274 327
#     4   8  16  32  54  79 109 143 181 222 273 337
#     4  12  23  37  61  89 117 147 181 227 282 333
#     4  10  22  39  56  76 109 152 188 225 275 332
#     4  10  22  40  60  83 112 147 187 229 277 336
#     4  11  23  39  61  87 112 143 187 235 280 331
#     4  10  20  34  53  78 109 146 185 224 276 329
#
# _framework density 19.287296999999999
#
# number of rings (size 3 to 8) (size 9 to 14) (size 15 to 20)
#    0.000    2.000    1.429    3.429    0.000    4.571 
#    0.000    5.000    0.000    0.000    0.000    0.000 
#    0.000    0.000    0.000    0.000    0.000    0.000 
#
# Total GULP energy -347245.176458 kJ/mol
# GULP energy per Si atom -12401.613445 kJ/mol
# Density = 1.924340 g / cm^3
# Si number density = 19.287297 Si / 1000 Ang^3
#
#
#
# Elastic Constant Matrix: (Units=GPa)
#
#
# Indices 1 2 3 4 5 6 
#
# 1 112.3239 32.0320 45.1667 0.0000 -7.6975 0.0000
# 2 32.0320 64.7755 39.1647 0.0000 -3.3362 0.0000
# 3 45.1667 39.1647 99.5866 0.0000 0.2404 0.0000
# 4 0.0000 0.0000 0.0000 25.1608 0.0000 0.6391
# 5 -7.6975 -3.3362 0.2404 0.0000 19.9892 0.0000
# 6 0.0000 0.0000 0.0000 0.6391 0.0000 30.4398
#
#
#
# Elastic Compliance Matrix: (Units=1/GPa)
#
#
# Indices 1 2 3 4 5 6 
#
# 1 0.011715 -0.003105 -0.004102 0.000000 0.004042 0.000000
# 2 -0.003105 0.021321 -0.006983 0.000000 0.002447 0.000000
# 3 -0.004102 -0.006983 0.014655 0.000000 -0.002921 0.000000
# 4 0.000000 0.000000 0.000000 0.039766 0.000000 -0.000835
# 5 0.004042 0.002447 -0.002921 0.000000 0.052027 0.000000
# 6 0.000000 0.000000 0.000000 -0.000835 0.000000 0.032869
#
#
# Mechanical properties :
#
#
# Convention : Reuss Voigt Hill
#
# Bulk Modulus (GPa) = 51.78091 56.60144 54.19117
# Shear Modulus (GPa) = 24.13489 25.80615 24.97052
#
# Velocity S-wave (km/s) = 3.54126 3.66182 3.60204
# Velocity P-wave (km/s) = 6.60501 6.87668 6.74221
#
# Compressibility (1/GPa) = 0.01931214
#
# Stress axis : x y z
#
# Youngs Moduli (GPa) = 85.36345 46.90159 68.23578
#
# Poissons Ratio (x) = 0.14562 0.27989
# Poissons Ratio (y) = 0.26503 0.47648
# Poissons Ratio (z) = 0.35015 0.32751
#
# Static dielectric constant tensor:
#      x y z
#    x 3.755740 0.000000 -0.105460 
#    y 0.000000 3.352090 0.000000 
#    z -0.105460 0.000000 3.611880 
# 
# 
# High freq. dielectric constant tensor:
#      x y z
#    x 1.765040 0.000000 -0.001580 
#    y 0.000000 1.731410 0.000000 
#    z -0.001580 0.000000 1.745200 
# 
# From -- ./inp_files/339098.got.cif
#   From: 2010.06.25/outbox.cif.g09.slc.cpg/sg12_170_cif.got.tgz:339098.got - 2010.06.28 00:19:55.
