data_PCOD8097925
_publ_section_title
;
Structure prediction by ZEFSAII (Michael W. Deem and Ramdas Pophale) SiO2 
 PCOD8097925
Probable space group: C 2/M
;
_chemical_formula_sum "Si O2"
_cell_formula_units_Z 64
_cell_length_a 18.004831
_cell_length_b 9.256099
_cell_length_c 21.854251
_cell_angle_alpha 90.000000
_cell_angle_beta 113.129355
_cell_angle_gamma 90.000000
_cell_volume 3349.357827
_symmetry_space_group_name_H-M "C 2/M"
_symmetry_group_IT_number 12
_symmetry_cell_setting 'monoclinic'
loop_
_space_group_symop_operation_xyz
x,y,z
-x,y,-z
-x,-y,-z
x,-y,z
1/2+x,1/2+y,z
1/2-x,1/2+y,-z
1/2-x,1/2-y,-z
1/2+x,1/2-y,z
loop_
_atom_site_type_symbol
_atom_site_label
_atom_site_fract_x
_atom_site_fract_y
_atom_site_fract_z
Si Si1 0.406470 0.334298 0.482504
Si Si2 0.807478 0.667951 0.763284
Si Si3 0.099997 0.832991 0.858492
Si Si4 0.283712 0.831120 0.894318
Si Si5 0.079829 0.831882 0.991786
Si Si6 0.722131 0.168292 0.633024
Si Si7 0.883269 0.167584 0.613356
Si Si8 0.468434 0.831252 0.743737
O O1 0.500000 0.313621 0.500000
O O2 0.379361 0.500000 0.464805
O O3 0.359414 0.235816 0.419366
O O4 0.386761 0.281620 0.544556
O O5 0.785488 0.500000 0.748802
O O6 0.802398 0.719140 0.831452
O O7 0.742073 0.758504 0.704208
O O8 0.897321 0.701933 0.768870
O O9 0.193091 0.788675 0.882828
O O10 0.050546 0.736249 0.795314
O O11 0.087232 0.000000 0.836775
O O12 0.069043 0.800901 0.916654
O O13 0.341819 0.749919 0.959433
O O14 0.299536 0.000000 0.907334
O O15 0.093109 0.000000 0.009613
O O16 0.000000 0.773395 0.000000
O O17 0.793478 0.199339 0.608100
O O18 0.708600 0.000000 0.640093
O O19 0.948108 0.259904 0.672103
O O20 0.906767 0.000000 0.628040
O O21 0.481318 0.000000 0.737525
#
# Coordination Sequence:
#
# PCOD8097925 Si02
#       8
#     8   8   8   8   8   8   8   8
#     4  10  21  36  54  76 104 139 174 209 255 310
#     4   9  19  36  55  76 103 135 174 215 254 303
#     4  10  21  36  53  76 108 141 171 208 258 312
#     4  10  21  36  55  78 104 138 176 213 255 304
#     4  10  21  36  55  79 106 137 172 213 261 308
#     4  10  20  34  55  80 104 134 172 215 260 303
#     4   9  19  36  56  77 103 137 174 211 256 308
#     4  10  20  34  55  80 103 133 174 217 257 299
#
# _framework density 19.108141
#
# number of rings (size 3 to 8) (size 9 to 14) (size 15 to 20)
#    0.000    2.250    0.000    2.250    0.000    4.500 
#    0.000    5.000    0.000    0.000    0.000    0.000 
#    0.000    0.000    0.000    0.000    0.000    0.000 
#
# Total GULP energy -396980.962612 kJ/mol
# GULP energy per Si atom -12405.655082 kJ/mol
# Density = 1.906465 g / cm^3
# Si number density = 19.108141 Si / 1000 Ang^3
#
#
#
# Elastic Constant Matrix: (Units=GPa)
#
#
# Indices 1 2 3 4 5 6 
#
# 1 52.3312 22.6731 16.3741 0.0000 14.7941 0.0000
# 2 22.6731 70.1697 43.9642 0.0000 21.6329 0.0000
# 3 16.3741 43.9642 74.6692 0.0000 27.6455 0.0000
# 4 0.0000 0.0000 0.0000 34.4804 0.0000 7.5619
# 5 14.7941 21.6329 27.6455 0.0000 30.3876 0.0000
# 6 0.0000 0.0000 0.0000 7.5619 0.0000 25.5095
#
#
#
# Elastic Compliance Matrix: (Units=1/GPa)
#
#
# Indices 1 2 3 4 5 6 
#
# 1 0.023652 -0.005911 0.001506 0.000000 -0.008677 0.000000
# 2 -0.005911 0.024809 -0.011818 0.000000 -0.004032 0.000000
# 3 0.001506 -0.011818 0.025901 0.000000 -0.015884 0.000000
# 4 0.000000 0.000000 0.000000 0.031019 0.000000 -0.009195
# 5 -0.008677 -0.004032 -0.015884 0.000000 0.054454 0.000000
# 6 0.000000 0.000000 0.000000 -0.009195 0.000000 0.041927
#
#
# Mechanical properties :
#
#
# Convention : Reuss Voigt Hill
#
# Bulk Modulus (GPa) = 23.85698 40.35478 32.10588
# Shear Modulus (GPa) = 20.14683 25.68608 22.91646
#
# Velocity S-wave (km/s) = 3.25061 3.67038 3.46685
# Velocity P-wave (km/s) = 5.15761 6.25518 5.73272
#
# Compressibility (1/GPa) = 0.04191645
#
# Stress axis : x y z
#
# Youngs Moduli (GPa) = 42.28012 40.30868 38.60816
#
# Poissons Ratio (x) = 0.23826 -0.05816
# Poissons Ratio (y) = 0.24992 0.45627
# Poissons Ratio (z) = -0.06369 0.47637
#
# Static dielectric constant tensor:
#      x y z
#    x 3.480560 0.000000 -0.102850 
#    y 0.000000 3.426980 0.000000 
#    z -0.102850 0.000000 3.459150 
# 
# 
# High freq. dielectric constant tensor:
#      x y z
#    x 1.743220 0.000000 -0.000960 
#    y 0.000000 1.739020 0.000000 
#    z -0.000960 0.000000 1.750580 
# 
# From -- ./inp_files/320070.got.cif
#   From: 2010.06.25/outbox.cif.g09.slc.cpg/sg12_161_cif.got.tgz:320070.got - 2010.06.28 00:19:55.
