data_PCOD8097705
_publ_section_title
;
Structure prediction by ZEFSAII (Michael W. Deem and Ramdas Pophale) SiO2 
 PCOD8097705
Probable space group: C 2/M
;
_chemical_formula_sum "Si O2"
_cell_formula_units_Z 56
_cell_length_a 18.373157
_cell_length_b 15.977644
_cell_length_c 9.127250
_cell_angle_alpha 90.000000
_cell_angle_beta 105.536733
_cell_angle_gamma 90.000000
_cell_volume 2581.485424
_symmetry_space_group_name_H-M "C 2/M"
_symmetry_group_IT_number 12
_symmetry_cell_setting 'monoclinic'
loop_
_space_group_symop_operation_xyz
x,y,z
-x,y,-z
-x,-y,-z
x,-y,z
1/2+x,1/2+y,z
1/2-x,1/2+y,-z
1/2-x,1/2-y,-z
1/2+x,1/2-y,z
loop_
_atom_site_type_symbol
_atom_site_label
_atom_site_fract_x
_atom_site_fract_y
_atom_site_fract_z
Si Si1 0.227978 0.322954 0.758590
Si Si2 0.847472 0.096631 0.615270
Si Si3 0.491329 0.595645 0.155182
Si Si4 0.368641 0.408593 0.306470
Si Si5 0.265180 0.854395 0.915645
Si Si6 0.925394 0.596255 0.373294
Si Si7 0.573158 0.095717 0.967399
O O1 0.292167 0.342736 0.675221
O O2 0.228609 0.229369 0.825331
O O3 0.148313 0.346019 0.636518
O O4 0.242722 0.375206 0.915128
O O5 0.855579 0.135932 0.456359
O O6 0.929139 0.102183 0.726604
O O7 0.817554 0.000000 0.599148
O O8 0.464804 0.500000 0.115666
O O9 0.427272 0.638680 0.226315
O O10 0.500000 0.639714 0.000000
O O11 0.403734 0.500000 0.361121
O O12 0.286890 0.423839 0.187580
O O13 0.353924 0.856870 0.927958
O O14 0.907888 0.500000 0.409523
O O15 0.941367 0.603766 0.211260
O O16 0.000000 0.628731 0.500000
O O17 0.582303 0.000000 0.021794
O O18 0.500000 0.137944 0.000000
#
# Coordination Sequence:
#
# PCOD8097705 Si02
#       7
#     8   8   8   8   8   8   8
#     4  10  21  37  55  79 111 147 186 230 282 343
#     4  10  20  34  54  80 109 143 185 233 283 335
#     4   9  17  31  53  79 106 139 179 220 264 320
#     4  10  20  34  54  80 110 144 184 232 282 335
#     4  10  21  37  55  79 112 147 186 229 281 346
#     4   9  18  34  57  82 108 141 184 235 285 334
#     4   9  18  34  57  82 107 140 185 235 283 332
#
# _framework density 21.692938000000002
#
# number of rings (size 3 to 8) (size 9 to 14) (size 15 to 20)
#    0.000    2.429    0.000    2.143    0.000    6.286 
#    0.000    9.286    0.000    0.000    0.000    0.000 
#    0.000    0.000    0.000    0.000    0.000    0.000 
#
# Total GULP energy -346887.839634 kJ/mol
# GULP energy per Si atom -12388.851416 kJ/mol
# Density = 2.164356 g / cm^3
# Si number density = 21.692938 Si / 1000 Ang^3
#
#
#
# Elastic Constant Matrix: (Units=GPa)
#
#
# Indices 1 2 3 4 5 6 
#
# 1 178.7029 25.7626 80.1965 0.0000 -6.2680 0.0000
# 2 25.7626 31.7179 21.8680 0.0000 6.5243 0.0000
# 3 80.1965 21.8680 136.8423 0.0000 7.7302 0.0000
# 4 0.0000 0.0000 0.0000 24.4852 0.0000 3.5485
# 5 -6.2680 6.5243 7.7302 0.0000 49.5790 0.0000
# 6 0.0000 0.0000 0.0000 3.5485 0.0000 19.6426
#
#
#
# Elastic Compliance Matrix: (Units=1/GPa)
#
#
# Indices 1 2 3 4 5 6 
#
# 1 0.008188 -0.004177 -0.004258 0.000000 0.002249 0.000000
# 2 -0.004177 0.038292 -0.003386 0.000000 -0.005039 0.000000
# 3 -0.004258 -0.003386 0.010441 0.000000 -0.001721 0.000000
# 4 0.000000 0.000000 0.000000 0.041939 0.000000 -0.007576
# 5 0.002249 -0.005039 -0.001721 0.000000 0.021386 0.000000
# 6 0.000000 0.000000 0.000000 -0.007576 0.000000 0.052278
#
#
# Mechanical properties :
#
#
# Convention : Reuss Voigt Hill
#
# Bulk Modulus (GPa) = 30.04989 66.99082 48.52036
# Shear Modulus (GPa) = 24.12419 33.37042 28.74731
#
# Velocity S-wave (km/s) = 3.33840 3.92638 3.64427
# Velocity P-wave (km/s) = 5.36119 7.17661 6.33427
#
# Compressibility (1/GPa) = 0.03327799
#
# Stress axis : x y z
#
# Youngs Moduli (GPa) = 122.13257 26.11486 95.77233
#
# Poissons Ratio (x) = 0.10909 0.40779
# Poissons Ratio (y) = 0.51020 0.32433
# Poissons Ratio (z) = 0.52003 0.08844
#
# Static dielectric constant tensor:
#      x y z
#    x 4.029470 0.000000 -0.078190 
#    y 0.000000 3.568310 0.000000 
#    z -0.078190 0.000000 4.041540 
# 
# 
# High freq. dielectric constant tensor:
#      x y z
#    x 1.858340 0.000000 0.003390 
#    y 0.000000 1.811830 0.000000 
#    z 0.003390 0.000000 1.861310 
# 
# From -- ./inp_files/77649.got.cif
#   From: 2010.06.25/outbox.cif.g09.slc.cpg/sg12_39_cif.got.tgz:77649.got - 2010.06.28 00:19:55.
