data_PCOD8097233
_publ_section_title
;
Structure prediction by ZEFSAII (Michael W. Deem and Ramdas Pophale) SiO2 
 PCOD8097233
Probable space group: C 2/M
;
_chemical_formula_sum "Si O2"
_cell_formula_units_Z 56
_cell_length_a 19.136182
_cell_length_b 9.141495
_cell_length_c 20.228609
_cell_angle_alpha 90.000000
_cell_angle_beta 123.132708
_cell_angle_gamma 90.000000
_cell_volume 2963.296023
_symmetry_space_group_name_H-M "C 2/M"
_symmetry_group_IT_number 12
_symmetry_cell_setting 'monoclinic'
loop_
_space_group_symop_operation_xyz
x,y,z
-x,y,-z
-x,-y,-z
x,-y,z
1/2+x,1/2+y,z
1/2-x,1/2+y,-z
1/2-x,1/2-y,-z
1/2+x,1/2-y,z
loop_
_atom_site_type_symbol
_atom_site_label
_atom_site_fract_x
_atom_site_fract_y
_atom_site_fract_z
Si Si1 0.994942 0.336562 0.687063
Si Si2 0.478514 0.835313 0.833265
Si Si3 0.706078 0.826039 0.276364
Si Si4 0.263554 0.827364 0.936991
Si Si5 0.158803 0.171621 0.756930
Si Si6 0.192156 0.326333 0.417291
Si Si7 0.073560 0.831148 0.987047
O O1 0.008767 0.500000 0.666961
O O2 0.067878 0.236602 0.695133
O O3 0.000722 0.336506 0.768438
O O4 0.903694 0.278479 0.618230
O O5 0.384809 0.773519 0.795972
O O6 0.543660 0.725833 0.900500
O O7 0.487816 0.000000 0.867073
O O8 0.776939 0.762842 0.264277
O O9 0.720848 0.772354 0.359254
O O10 0.704527 0.000000 0.275082
O O11 0.189877 0.790393 0.847161
O O12 0.272251 0.000000 0.952648
O O13 0.250000 0.750000 0.000000
O O14 0.347825 0.763546 0.948252
O O15 0.152564 0.000000 0.743671
O O16 0.200438 0.500000 0.427231
O O17 0.250000 0.250000 0.500000
O O18 0.099553 0.000000 0.993866
O O19 0.000000 0.804755 0.000000
#
# Coordination Sequence:
#
# PCOD8097233 Si02
#       7
#     8   8   8   8   8   8   8
#     4   9  19  34  53  77 103 132 164 203 254 305
#     4   9  17  33  55  72  92 131 179 219 257 306
#     4   8  16  33  55  77 101 132 172 214 254 299
#     4  11  23  37  54  76 104 140 181 224 269 316
#     4  10  20  34  53  76 101 133 175 216 252 301
#     4   9  18  35  58  81 105 132 164 203 246 298
#     4  11  23  35  48  72 105 137 174 223 271 312
#
# _framework density 18.897876
#
# number of rings (size 3 to 8) (size 9 to 14) (size 15 to 20)
#    0.000    2.429    0.000    4.286    0.000    6.857 
#    0.000    4.286    0.000    4.286    0.000    0.000 
#    0.000    0.000    0.000    0.000    0.000    0.000 
#
# Total GULP energy -347146.933353 kJ/mol
# GULP energy per Si atom -12398.104763 kJ/mol
# Density = 1.885486 g / cm^3
# Si number density = 18.897876 Si / 1000 Ang^3
#
#
#
# Elastic Constant Matrix: (Units=GPa)
#
#
# Indices 1 2 3 4 5 6 
#
# 1 113.0321 36.6656 31.2130 0.0000 13.4083 0.0000
# 2 36.6656 57.3818 32.9794 0.0000 8.0088 0.0000
# 3 31.2130 32.9794 82.8283 0.0000 14.7524 0.0000
# 4 0.0000 0.0000 0.0000 29.8717 0.0000 4.5634
# 5 13.4083 8.0088 14.7524 0.0000 25.6297 0.0000
# 6 0.0000 0.0000 0.0000 4.5634 0.0000 32.6151
#
#
#
# Elastic Compliance Matrix: (Units=1/GPa)
#
#
# Indices 1 2 3 4 5 6 
#
# 1 0.011622 -0.006202 -0.001306 0.000000 -0.003390 0.000000
# 2 -0.006202 0.026010 -0.007966 0.000000 -0.000298 0.000000
# 3 -0.001306 -0.007966 0.016905 0.000000 -0.006558 0.000000
# 4 0.000000 0.000000 0.000000 0.034208 0.000000 -0.004786
# 5 -0.003390 -0.000298 -0.006558 0.000000 0.044659 0.000000
# 6 0.000000 0.000000 0.000000 -0.004786 0.000000 0.031330
#
#
# Mechanical properties :
#
#
# Convention : Reuss Voigt Hill
#
# Bulk Modulus (GPa) = 42.39412 50.55091 46.47251
# Shear Modulus (GPa) = 24.56455 27.78225 26.17340
#
# Velocity S-wave (km/s) = 3.60926 3.83838 3.72558
# Velocity P-wave (km/s) = 6.31277 6.81556 6.56897
#
# Compressibility (1/GPa) = 0.02358818
#
# Stress axis : x y z
#
# Youngs Moduli (GPa) = 86.04551 38.44658 59.15306
#
# Poissons Ratio (x) = 0.23845 0.07727
# Poissons Ratio (y) = 0.53366 0.47122
# Poissons Ratio (z) = 0.11240 0.30627
#
# Static dielectric constant tensor:
#      x y z
#    x 3.744200 0.000000 0.098000 
#    y 0.000000 3.300730 0.000000 
#    z 0.098000 0.000000 3.397620 
# 
# 
# High freq. dielectric constant tensor:
#      x y z
#    x 1.743890 0.000000 0.007930 
#    y 0.000000 1.715250 0.000000 
#    z 0.007930 0.000000 1.720680 
# 
# From -- ./inp_files/313746.got.cif
#   From: 2010.06.25/outbox.cif.g09.slc.cpg/sg12_157_cif.got.tgz:313746.got - 2010.06.28 00:19:55.
