data_PCOD8097946
_publ_section_title
;
Structure prediction by ZEFSAII (Michael W. Deem and Ramdas Pophale) SiO2 
 PCOD8097946
Probable space group: C 2/M
;
_chemical_formula_sum "Si O2"
_cell_formula_units_Z 56
_cell_length_a 25.259434
_cell_length_b 8.982272
_cell_length_c 16.259153
_cell_angle_alpha 90.000000
_cell_angle_beta 125.474771
_cell_angle_gamma 90.000000
_cell_volume 3004.208768
_symmetry_space_group_name_H-M "C 2/M"
_symmetry_group_IT_number 12
_symmetry_cell_setting 'monoclinic'
loop_
_space_group_symop_operation_xyz
x,y,z
-x,y,-z
-x,-y,-z
x,-y,z
1/2+x,1/2+y,z
1/2-x,1/2+y,-z
1/2-x,1/2-y,-z
1/2+x,1/2-y,z
loop_
_atom_site_type_symbol
_atom_site_label
_atom_site_fract_x
_atom_site_fract_y
_atom_site_fract_z
Si Si1 0.648197 0.326532 0.898846
Si Si2 0.514329 0.176295 0.763511
Si Si3 0.755635 0.674002 0.130367
Si Si4 0.889388 0.825368 0.708701
Si Si5 0.725392 0.674695 0.284092
Si Si6 0.331165 0.331729 0.484449
Si Si7 0.973677 0.829280 0.562827
O O1 0.634848 0.500000 0.872821
O O2 0.581356 0.242847 0.857550
O O3 0.682013 0.261889 0.847381
O O4 0.693250 0.295697 0.017889
O O5 0.456483 0.234577 0.770236
O O6 0.504022 0.227500 0.660727
O O7 0.516865 0.000000 0.770056
O O8 0.773306 0.500000 0.148337
O O9 0.738919 0.739688 0.205571
O O10 0.847734 0.784234 0.752230
O O11 0.846302 0.779301 0.590835
O O12 0.906697 0.000000 0.718606
O O13 0.732721 0.500000 0.287051
O O14 0.776410 0.729317 0.396953
O O15 0.305194 0.500000 0.460076
O O16 0.396168 0.315509 0.489193
O O17 0.000000 0.770067 0.500000
O O18 0.994887 0.000000 0.598648
#
# Coordination Sequence:
#
# PCOD8097946 Si02
#       7
#     8   8   8   8   8   8   8
#     4  10  20  37  59  78 106 144 177 214 272 332
#     4  11  22  35  55  80 106 138 179 224 268 311
#     4   9  20  37  56  83 109 134 176 227 270 316
#     4   9  19  37  55  75 106 146 183 214 260 321
#     4  10  20  34  55  80 108 138 176 226 269 310
#     4   9  18  31  49  76 108 143 179 211 254 316
#     4   9  19  35  52  75 109 143 179 216 258 320
#
# _framework density 18.640516999999999
#
# number of rings (size 3 to 8) (size 9 to 14) (size 15 to 20)
#    0.000    2.429    0.000    3.000    2.000    4.286 
#    0.000    0.714    0.000    4.286    0.000    0.000 
#    0.000    0.000    0.000    0.000    0.000    0.000 
#
# Total GULP energy -347235.688844 kJ/mol
# GULP energy per Si atom -12401.274602 kJ/mol
# Density = 1.859809 g / cm^3
# Si number density = 18.640517 Si / 1000 Ang^3
#
#
#
# Elastic Constant Matrix: (Units=GPa)
#
#
# Indices 1 2 3 4 5 6 
#
# 1 120.4657 47.0479 48.0160 0.0000 0.7835 0.0000
# 2 47.0479 73.8751 36.1500 0.0000 10.1312 0.0000
# 3 48.0160 36.1500 60.2147 0.0000 13.3155 0.0000
# 4 0.0000 0.0000 0.0000 28.4324 0.0000 5.6309
# 5 0.7835 10.1312 13.3155 0.0000 26.8021 0.0000
# 6 0.0000 0.0000 0.0000 5.6309 0.0000 28.7983
#
#
#
# Elastic Compliance Matrix: (Units=1/GPa)
#
#
# Indices 1 2 3 4 5 6 
#
# 1 0.014064 -0.005168 -0.009496 0.000000 0.006260 0.000000
# 2 -0.005168 0.021137 -0.007679 0.000000 -0.004024 0.000000
# 3 -0.009496 -0.007679 0.031553 0.000000 -0.012496 0.000000
# 4 0.000000 0.000000 0.000000 0.036588 0.000000 -0.007154
# 5 0.006260 -0.004024 -0.012496 0.000000 0.044856 0.000000
# 6 0.000000 0.000000 0.000000 -0.007154 0.000000 0.036123
#
#
# Mechanical properties :
#
#
# Convention : Reuss Voigt Hill
#
# Bulk Modulus (GPa) = 45.31581 57.44260 51.37921
# Shear Modulus (GPa) = 21.15381 25.02933 23.09157
#
# Velocity S-wave (km/s) = 3.37238 3.66831 3.52345
# Velocity P-wave (km/s) = 6.28706 6.98748 6.64650
#
# Compressibility (1/GPa) = 0.02206735
#
# Stress axis : x y z
#
# Youngs Moduli (GPa) = 71.10328 47.31001 31.69288
#
# Poissons Ratio (x) = 0.24452 0.30097
# Poissons Ratio (y) = 0.36749 0.24336
# Poissons Ratio (z) = 0.67522 0.36327
#
# Static dielectric constant tensor:
#      x y z
#    x 3.695010 0.000000 -0.049720 
#    y 0.000000 3.316770 0.000000 
#    z -0.049720 0.000000 3.256240 
# 
# 
# High freq. dielectric constant tensor:
#      x y z
#    x 1.735860 0.000000 0.005400 
#    y 0.000000 1.716250 0.000000 
#    z 0.005400 0.000000 1.705800 
# 
# From -- ./inp_files/288385.got.cif
#   From: 2010.06.25/outbox.cif.g09.slc.cpg/sg12_145_cif.got.tgz:288385.got - 2010.06.28 00:19:55.
