data_PCOD8097557
_publ_section_title
;
Structure prediction by ZEFSAII (Michael W. Deem and Ramdas Pophale) SiO2 
 PCOD8097557
Probable space group: C 2/M
;
_chemical_formula_sum "Si O2"
_cell_formula_units_Z 56
_cell_length_a 20.327621
_cell_length_b 9.156879
_cell_length_c 19.579135
_cell_angle_alpha 90.000000
_cell_angle_beta 121.823723
_cell_angle_gamma 90.000000
_cell_volume 3096.564165
_symmetry_space_group_name_H-M "C 2/M"
_symmetry_group_IT_number 12
_symmetry_cell_setting 'monoclinic'
loop_
_space_group_symop_operation_xyz
x,y,z
-x,y,-z
-x,-y,-z
x,-y,z
1/2+x,1/2+y,z
1/2-x,1/2+y,-z
1/2-x,1/2-y,-z
1/2+x,1/2-y,z
loop_
_atom_site_type_symbol
_atom_site_label
_atom_site_fract_x
_atom_site_fract_y
_atom_site_fract_z
Si Si1 0.487697 0.171089 0.334915
Si Si2 0.978859 0.329636 0.175824
Si Si3 0.230335 0.829915 0.185949
Si Si4 0.052059 0.828910 0.090965
Si Si5 0.082901 0.338980 0.510016
Si Si6 0.650698 0.326820 0.664585
Si Si7 0.802152 0.670190 0.082393
O O1 0.506867 0.211661 0.267437
O O2 0.565238 0.206428 0.421622
O O3 0.414874 0.263221 0.321476
O O4 0.464480 0.000000 0.328620
O O5 0.989475 0.500000 0.167422
O O6 0.030049 0.242933 0.150335
O O7 0.890087 0.281719 0.118803
O O8 0.140950 0.790038 0.124778
O O9 0.265666 0.734134 0.266766
O O10 0.276975 0.784353 0.144175
O O11 0.240677 0.000000 0.209426
O O12 0.037905 0.000000 0.090710
O O13 0.000000 0.766862 0.000000
O O14 0.121635 0.500000 0.534544
O O15 0.137193 0.223255 0.578543
O O16 0.000000 0.344590 0.500000
O O17 0.649698 0.500000 0.667215
O O18 0.789973 0.500000 0.064842
O O19 0.750000 0.750000 0.000000
#
# Coordination Sequence:
#
# PCOD8097557 Si02
#       7
#     8   8   8   8   8   8   8
#     4   9  17  33  53  75 106 144 180 210 259 324
#     4  10  20  35  56  79 106 138 174 221 267 313
#     4  10  20  37  56  73 104 145 180 213 257 325
#     4  10  22  39  58  78 103 140 181 221 266 319
#     4   8  15  28  49  73 103 143 177 208 254 322
#     4  11  20  29  48  80 112 138 172 223 267 303
#     4  10  20  34  54  77 102 134 172 218 267 313
#
# _framework density 18.084558999999999
#
# number of rings (size 3 to 8) (size 9 to 14) (size 15 to 20)
#    0.000    2.286    1.429    3.000    0.000    6.286 
#    0.000    0.000    0.000    0.857    0.000    0.000 
#    0.000    0.000    0.000    0.000    0.000    0.000 
#
# Total GULP energy -347172.114062 kJ/mol
# GULP energy per Si atom -12399.004074 kJ/mol
# Density = 1.804340 g / cm^3
# Si number density = 18.084559 Si / 1000 Ang^3
#
#
#
# Elastic Constant Matrix: (Units=GPa)
#
#
# Indices 1 2 3 4 5 6 
#
# 1 46.3081 27.5171 16.4501 0.0000 -2.4021 0.0000
# 2 27.5171 73.5026 56.4041 0.0000 2.0721 0.0000
# 3 16.4501 56.4041 132.7674 0.0000 -5.7506 0.0000
# 4 0.0000 0.0000 0.0000 28.5337 0.0000 -3.2714
# 5 -2.4021 2.0721 -5.7506 0.0000 24.8448 0.0000
# 6 0.0000 0.0000 0.0000 -3.2714 0.0000 24.1143
#
#
#
# Elastic Compliance Matrix: (Units=1/GPa)
#
#
# Indices 1 2 3 4 5 6 
#
# 1 0.028378 -0.012140 0.001822 0.000000 0.004178 0.000000
# 2 -0.012140 0.025723 -0.009664 0.000000 -0.005556 0.000000
# 3 0.001822 -0.009664 0.011570 0.000000 0.003660 0.000000
# 4 0.000000 0.000000 0.000000 0.035600 0.000000 0.004830
# 5 0.004178 -0.005556 0.003660 0.000000 0.041965 0.000000
# 6 0.000000 0.000000 0.000000 0.004830 0.000000 0.042124
#
#
# Mechanical properties :
#
#
# Convention : Reuss Voigt Hill
#
# Bulk Modulus (GPa) = 38.90007 50.36896 44.63451
# Shear Modulus (GPa) = 21.37739 25.64568 23.51153
#
# Velocity S-wave (km/s) = 3.44187 3.76985 3.60959
# Velocity P-wave (km/s) = 6.11163 6.84554 6.48897
#
# Compressibility (1/GPa) = 0.02570690
#
# Stress axis : x y z
#
# Youngs Moduli (GPa) = 35.23909 38.87643 86.42719
#
# Poissons Ratio (x) = 0.47196 -0.15750
# Poissons Ratio (y) = 0.42780 0.83526
# Poissons Ratio (z) = -0.06422 0.37571
#
# Static dielectric constant tensor:
#      x y z
#    x 3.059720 0.000000 -0.115920 
#    y 0.000000 3.220020 0.000000 
#    z -0.115920 0.000000 3.841000 
# 
# 
# High freq. dielectric constant tensor:
#      x y z
#    x 1.663530 0.000000 -0.005630 
#    y 0.000000 1.688850 0.000000 
#    z -0.005630 0.000000 1.722020 
# 
# From -- ./inp_files/320247.got.cif
#   From: 2010.06.25/outbox.cif.g09.slc.cpg/sg12_161_cif.got.tgz:320247.got - 2010.06.28 00:19:55.
