data_PCOD8097886
_publ_section_title
;
Structure prediction by ZEFSAII (Michael W. Deem and Ramdas Pophale) SiO2 
 PCOD8097886
Probable space group: C 2/M
;
_chemical_formula_sum "Si O2"
_cell_formula_units_Z 64
_cell_length_a 30.443200
_cell_length_b 8.890896
_cell_length_c 24.514992
_cell_angle_alpha 90.000000
_cell_angle_beta 151.820529
_cell_angle_gamma 90.000000
_cell_volume 3133.471337
_symmetry_space_group_name_H-M "C 2/M"
_symmetry_group_IT_number 12
_symmetry_cell_setting 'monoclinic'
loop_
_space_group_symop_operation_xyz
x,y,z
-x,y,-z
-x,-y,-z
x,-y,z
1/2+x,1/2+y,z
1/2-x,1/2+y,-z
1/2-x,1/2-y,-z
1/2+x,1/2-y,z
loop_
_atom_site_type_symbol
_atom_site_label
_atom_site_fract_x
_atom_site_fract_y
_atom_site_fract_z
Si Si1 0.832080 0.675800 0.730125
Si Si2 0.804183 0.325530 0.825350
Si Si3 0.812726 0.824229 0.114222
Si Si4 0.801183 0.336647 0.207448
Si Si5 0.029383 0.823179 0.363512
Si Si6 0.489864 0.165332 0.549373
Si Si7 0.984934 0.830287 0.047804
Si Si8 0.797727 0.320893 0.499277
O O1 0.825666 0.500000 0.708008
O O2 0.804548 0.708521 0.762118
O O3 0.936921 0.733725 0.835380
O O4 0.762822 0.773840 0.618837
O O5 0.808618 0.500000 0.842308
O O6 0.712115 0.250777 0.749698
O O7 0.886629 0.248544 0.950538
O O8 0.766843 0.765516 0.119996
O O9 0.923039 0.785270 0.230117
O O10 0.798055 0.000000 0.095268
O O11 0.750000 0.750000 0.000000
O O12 0.750615 0.500000 0.152416
O O13 0.908883 0.363082 0.316309
O O14 0.097373 0.740707 0.394735
O O15 0.057325 0.770944 0.456205
O O16 0.049026 0.000000 0.382781
O O17 0.500000 0.240019 0.500000
O O18 0.439602 0.000000 0.489875
O O19 0.985782 0.000000 0.071623
O O20 0.000000 0.827746 0.000000
O O21 0.800920 0.500000 0.508809
O O22 0.750000 0.250000 0.500000
#
# Coordination Sequence:
#
# PCOD8097886 Si02
#       8
#     8   8   8   8   8   8   8   8
#     4  10  21  38  60  86 118 157 199 246 305 365
#     4  10  20  34  55  85 122 158 196 244 299 360
#     4  10  21  40  65  90 121 158 200 248 302 363
#     4  10  20  34  54  84 122 156 196 244 291 353
#     4  10  22  41  64  92 124 160 201 251 309 368
#     4   9  19  35  56  87 123 161 200 242 293 356
#     4   9  17  32  54  81 113 151 194 239 290 349
#     4  12  26  45  67  90 121 159 207 262 311 369
#
# _framework density 20.424633
#
# number of rings (size 3 to 8) (size 9 to 14) (size 15 to 20)
#    0.000    2.000    0.000    3.375    1.750    5.250 
#    2.250    0.000    0.000    0.000    0.000    0.000 
#    0.000    0.000    0.000    0.000    0.000    0.000 
#
# Total GULP energy -396633.437339 kJ/mol
# GULP energy per Si atom -12394.794917 kJ/mol
# Density = 2.037815 g / cm^3
# Si number density = 20.424633 Si / 1000 Ang^3
#
#
#
# Elastic Constant Matrix: (Units=GPa)
#
#
# Indices 1 2 3 4 5 6 
#
# 1 113.3135 73.7411 32.3216 0.0000 -0.4495 0.0000
# 2 73.7411 143.5124 50.8583 0.0000 -5.5763 0.0000
# 3 32.3216 50.8583 74.6844 0.0000 -6.5875 0.0000
# 4 0.0000 0.0000 0.0000 35.1664 0.0000 -0.3168
# 5 -0.4495 -5.5763 -6.5875 0.0000 21.3218 0.0000
# 6 0.0000 0.0000 0.0000 -0.3168 0.0000 35.2681
#
#
#
# Elastic Compliance Matrix: (Units=1/GPa)
#
#
# Indices 1 2 3 4 5 6 
#
# 1 0.013452 -0.006411 -0.001624 0.000000 -0.001895 0.000000
# 2 -0.006411 0.012244 -0.005441 0.000000 0.001386 0.000000
# 3 -0.001624 -0.005441 0.018164 0.000000 0.004155 0.000000
# 4 0.000000 0.000000 0.000000 0.028439 0.000000 0.000255
# 5 -0.001895 0.001386 0.004155 0.000000 0.048507 0.000000
# 6 0.000000 0.000000 0.000000 0.000255 0.000000 0.028357
#
#
# Mechanical properties :
#
#
# Convention : Reuss Voigt Hill
#
# Bulk Modulus (GPa) = 59.13729 71.70583 65.42156
# Shear Modulus (GPa) = 27.51029 29.99054 28.75041
#
# Velocity S-wave (km/s) = 3.67402 3.83606 3.75592
# Velocity P-wave (km/s) = 6.85672 7.40299 7.13509
#
# Compressibility (1/GPa) = 0.01690980
#
# Stress axis : x y z
#
# Youngs Moduli (GPa) = 74.33586 81.67154 55.05318
#
# Poissons Ratio (x) = 0.52356 0.08938
# Poissons Ratio (y) = 0.47653 0.29957
# Poissons Ratio (z) = 0.12069 0.44441
#
# Static dielectric constant tensor:
#      x y z
#    x 3.700880 0.000000 0.112150 
#    y 0.000000 4.025370 0.000000 
#    z 0.112150 0.000000 3.670030 
# 
# 
# High freq. dielectric constant tensor:
#      x y z
#    x 1.787470 0.000000 0.006560 
#    y 0.000000 1.811910 0.000000 
#    z 0.006560 0.000000 1.789320 
# 
# From -- ./inp_files/353572.got.cif
#   From: 2010.06.25/outbox.cif.g09.slc.cpg/sg12_177_cif.got.tgz:353572.got - 2010.06.28 00:19:55.
