data_PCOD8097258
_publ_section_title
;
Structure prediction by ZEFSAII (Michael W. Deem and Ramdas Pophale) SiO2 
 PCOD8097258
Probable space group: C 2/M
;
_chemical_formula_sum "Si O2"
_cell_formula_units_Z 64
_cell_length_a 18.085310
_cell_length_b 9.011587
_cell_length_c 30.618871
_cell_angle_alpha 90.000000
_cell_angle_beta 137.529875
_cell_angle_gamma 90.000000
_cell_volume 3369.399458
_symmetry_space_group_name_H-M "C 2/M"
_symmetry_group_IT_number 12
_symmetry_cell_setting 'monoclinic'
loop_
_space_group_symop_operation_xyz
x,y,z
-x,y,-z
-x,-y,-z
x,-y,z
1/2+x,1/2+y,z
1/2-x,1/2+y,-z
1/2-x,1/2-y,-z
1/2+x,1/2-y,z
loop_
_atom_site_type_symbol
_atom_site_label
_atom_site_fract_x
_atom_site_fract_y
_atom_site_fract_z
Si Si1 0.584500 0.325072 0.436689
Si Si2 0.276903 0.323618 0.187539
Si Si3 0.135349 0.676140 0.939330
Si Si4 0.314562 0.328364 0.690715
Si Si5 0.250804 0.325499 0.566736
Si Si6 0.842733 0.823725 0.310851
Si Si7 0.565743 0.327597 0.821059
Si Si8 0.535924 0.823596 0.062608
O O1 0.587361 0.500000 0.444434
O O2 0.650450 0.276858 0.422083
O O3 0.638010 0.251152 0.502687
O O4 0.460861 0.265738 0.378251
O O5 0.275147 0.500000 0.188139
O O6 0.320810 0.261406 0.252715
O O7 0.356217 0.269565 0.183581
O O8 0.155494 0.259487 0.126324
O O9 0.148898 0.500000 0.945413
O O10 0.089976 0.728348 0.873357
O O11 0.049875 0.730726 0.938637
O O12 0.250000 0.750000 0.000000
O O13 0.284177 0.500000 0.683609
O O14 0.280132 0.271139 0.627912
O O15 0.251518 0.233623 0.698834
O O16 0.442790 0.301309 0.751966
O O17 0.233137 0.500000 0.557388
O O18 0.839649 0.000000 0.309419
O O19 0.588497 0.500000 0.841957
O O20 0.540252 0.000000 0.062935
O O21 0.500000 0.759596 0.000000
#
# Coordination Sequence:
#
# PCOD8097258 Si02
#       8
#     8   8   8   8   8   8   8   8
#     4   9  18  33  53  76 100 131 177 226 264 304
#     4   9  17  32  55  78 100 133 176 217 257 304
#     4  11  22  36  56  82 111 141 175 215 259 307
#     4  10  21  35  52  77 108 139 170 209 263 322
#     4   9  18  34  54  75 102 137 175 215 264 320
#     4  10  20  34  53  76 103 137 178 220 259 307
#     4  10  20  36  58  80 104 136 174 216 261 309
#     4   9  17  30  51  78 103 130 170 213 248 292
#
# _framework density 18.994482000000001
#
# number of rings (size 3 to 8) (size 9 to 14) (size 15 to 20)
#    0.000    2.375    0.000    2.625    0.000    8.000 
#    0.000    3.125    0.000   11.250    0.000    0.000 
#    0.000    0.000    0.000    0.000    0.000    0.000 
#
# Total GULP energy -396869.648096 kJ/mol
# GULP energy per Si atom -12402.176503 kJ/mol
# Density = 1.895125 g / cm^3
# Si number density = 18.994482 Si / 1000 Ang^3
#
#
#
# Elastic Constant Matrix: (Units=GPa)
#
#
# Indices 1 2 3 4 5 6 
#
# 1 153.9231 31.7887 83.1643 0.0000 -0.9092 0.0000
# 2 31.7887 28.5370 34.0589 0.0000 -1.3455 0.0001
# 3 83.1643 34.0589 162.9286 0.0000 -3.9508 0.0000
# 4 0.0000 0.0000 0.0000 27.4254 0.0000 0.7088
# 5 -0.9092 -1.3455 -3.9508 0.0000 41.8966 0.0000
# 6 0.0000 0.0001 0.0000 0.7088 0.0000 28.2714
#
#
#
# Elastic Compliance Matrix: (Units=1/GPa)
#
#
# Indices 1 2 3 4 5 6 
#
# 1 0.009829 -0.006619 -0.003642 0.000000 -0.000343 0.000000
# 2 -0.006619 0.051162 -0.007297 0.000000 0.000811 0.000000
# 3 -0.003642 -0.007297 0.009536 0.000000 0.000586 0.000000
# 4 0.000000 0.000000 0.000000 0.036486 0.000000 -0.000915
# 5 -0.000343 0.000811 0.000586 0.000000 0.023942 0.000000
# 6 0.000000 0.000000 0.000000 -0.000915 0.000000 0.035394
#
#
# Mechanical properties :
#
#
# Convention : Reuss Voigt Hill
#
# Bulk Modulus (GPa) = 28.23865 71.49028 49.86446
# Shear Modulus (GPa) = 23.44442 32.61048 28.02745
#
# Velocity S-wave (km/s) = 3.51704 4.14797 3.84547
# Velocity P-wave (km/s) = 5.60284 7.78845 6.78424
#
# Compressibility (1/GPa) = 0.03541246
#
# Stress axis : x y z
#
# Youngs Moduli (GPa) = 101.73523 19.54561 104.86372
#
# Poissons Ratio (x) = 0.12937 0.38191
# Poissons Ratio (y) = 0.67338 0.76518
# Poissons Ratio (z) = 0.37051 0.14262
#
# Static dielectric constant tensor:
#      x y z
#    x 3.601340 0.000000 -0.009260 
#    y 0.000000 3.275990 0.000000 
#    z -0.009260 0.000000 3.803590 
# 
# 
# High freq. dielectric constant tensor:
#      x y z
#    x 1.748110 0.000000 0.000720 
#    y 0.000000 1.701410 0.000000 
#    z 0.000720 0.000000 1.758440 
# 
# From -- ./inp_files/378317.got.cif
#   From: 2010.06.25/outbox.cif.g09.slc.cpg/sg12_190_cif.got.tgz:378317.got - 2010.06.28 00:19:55.
