data_PCOD8097094
_publ_section_title
;
Structure prediction by ZEFSAII (Michael W. Deem and Ramdas Pophale) SiO2 
 PCOD8097094
Probable space group: C 2/M
;
_chemical_formula_sum "Si O2"
_cell_formula_units_Z 64
_cell_length_a 26.085116
_cell_length_b 9.455371
_cell_length_c 31.124081
_cell_angle_alpha 90.000000
_cell_angle_beta 154.766984
_cell_angle_gamma 90.000000
_cell_volume 3272.531562
_symmetry_space_group_name_H-M "C 2/M"
_symmetry_group_IT_number 12
_symmetry_cell_setting 'monoclinic'
loop_
_space_group_symop_operation_xyz
x,y,z
-x,y,-z
-x,-y,-z
x,-y,z
1/2+x,1/2+y,z
1/2-x,1/2+y,-z
1/2-x,1/2-y,-z
1/2+x,1/2-y,z
loop_
_atom_site_type_symbol
_atom_site_label
_atom_site_fract_x
_atom_site_fract_y
_atom_site_fract_z
Si Si1 0.567576 0.835387 0.742521
Si Si2 0.451452 0.167341 0.369546
Si Si3 0.987221 0.845330 0.039853
Si Si4 0.407570 0.163804 0.699238
Si Si5 0.262776 0.331797 0.733435
Si Si6 0.793940 0.658819 0.929695
Si Si7 0.863346 0.657243 0.075787
Si Si8 0.711007 0.167525 0.597551
O O1 0.550452 0.777424 0.681115
O O2 0.446061 0.814165 0.678496
O O3 0.670857 0.744178 0.843978
O O4 0.605533 0.000000 0.771493
O O5 0.340894 0.230599 0.313626
O O6 0.574692 0.215171 0.485344
O O7 0.442953 0.000000 0.362383
O O8 0.107656 0.778163 0.151943
O O9 0.960808 0.000000 0.041390
O O10 0.874923 0.740342 0.956956
O O11 0.000000 0.872703 0.000000
O O12 0.515523 0.218827 0.811703
O O13 0.292635 0.257973 0.623367
O O14 0.377452 0.000000 0.685607
O O15 0.255782 0.500000 0.730040
O O16 0.243376 0.279185 0.669959
O O17 0.764217 0.500000 0.891289
O O18 0.876120 0.654356 0.034367
O O19 0.841659 0.500000 0.078227
O O20 0.750000 0.750000 0.000000
O O21 0.728062 0.000000 0.605636
#
# Coordination Sequence:
#
# PCOD8097094 Si02
#       8
#     8   8   8   8   8   8   8   8
#     4  10  20  36  57  77 104 146 186 220 263 322
#     4   9  18  34  57  82 104 132 179 231 273 316
#     4  10  20  34  54  79 108 146 186 218 257 320
#     4  10  21  36  53  77 110 145 178 214 263 320
#     4   9  17  32  55  82 108 135 175 227 273 314
#     4  11  22  34  52  80 112 142 175 222 274 317
#     4  10  20  34  52  76 105 139 177 214 257 310
#     4  10  20  34  56  83 107 136 176 226 276 317
#
# _framework density 19.556726000000001
#
# number of rings (size 3 to 8) (size 9 to 14) (size 15 to 20)
#    0.000    2.125    1.250    2.250    0.000    5.750 
#    0.000    0.625    0.000    3.000    0.000    0.000 
#    0.000    0.000    0.000    0.000    0.000    0.000 
#
# Total GULP energy -396732.430443 kJ/mol
# GULP energy per Si atom -12397.888451 kJ/mol
# Density = 1.951221 g / cm^3
# Si number density = 19.556726 Si / 1000 Ang^3
#
#
#
# Elastic Constant Matrix: (Units=GPa)
#
#
# Indices 1 2 3 4 5 6 
#
# 1 109.3713 29.5023 27.7175 -0.0005 7.1686 -0.0003
# 2 29.5023 58.7652 20.9164 -0.0004 13.6712 -0.0012
# 3 27.7175 20.9164 79.1564 -0.0021 3.9014 -0.0010
# 4 -0.0005 -0.0004 -0.0021 20.1220 -0.0005 7.0048
# 5 7.1686 13.6712 3.9014 -0.0005 37.8911 -0.0001
# 6 -0.0003 -0.0012 -0.0010 7.0048 -0.0001 22.7694
#
#
#
# Elastic Compliance Matrix: (Units=1/GPa)
#
#
# Indices 1 2 3 4 5 6 
#
# 1 0.011060 -0.004567 -0.002658 0.000000 -0.000171 0.000000
# 2 -0.004567 0.022294 -0.003958 -0.000001 -0.006772 0.000001
# 3 -0.002658 -0.003958 0.014589 0.000001 0.000429 0.000000
# 4 0.000000 -0.000001 0.000001 0.055658 0.000001 -0.017123
# 5 -0.000171 -0.006772 0.000429 0.000001 0.028823 0.000000
# 6 0.000000 0.000001 0.000000 -0.017123 0.000000 0.049186
#
#
# Mechanical properties :
#
#
# Convention : Reuss Voigt Hill
#
# Bulk Modulus (GPa) = 39.09697 44.84060 41.96879
# Shear Modulus (GPa) = 23.52950 27.43362 25.48156
#
# Velocity S-wave (km/s) = 3.47240 3.74942 3.61356
# Velocity P-wave (km/s) = 6.00930 6.45929 6.23836
#
# Compressibility (1/GPa) = 0.02557743
#
# Stress axis : x y z
#
# Youngs Moduli (GPa) = 90.41827 44.85554 68.54695
#
# Poissons Ratio (x) = 0.20484 0.18217
# Poissons Ratio (y) = 0.41291 0.27131
# Poissons Ratio (z) = 0.24029 0.17754
#
# Static dielectric constant tensor:
#      x y z
#    x 3.660940 0.000010 -0.112550 
#    y 0.000010 3.578600 0.000000 
#    z -0.112550 0.000000 3.653480 
# 
# 
# High freq. dielectric constant tensor:
#      x y z
#    x 1.769310 0.000000 -0.003330 
#    y 0.000000 1.724840 0.000000 
#    z -0.003330 0.000000 1.761340 
# 
# From -- ./inp_files/382424.got.cif
#   From: 2010.06.25/outbox.cif.g09.slc.cpg/sg12_192_cif.got.tgz:382424.got - 2010.06.28 00:19:55.
