data_PCOD8097680
_publ_section_title
;
Structure prediction by ZEFSAII (Michael W. Deem and Ramdas Pophale) SiO2 
 PCOD8097680
Probable space group: C 2/M
;
_chemical_formula_sum "Si O2"
_cell_formula_units_Z 56
_cell_length_a 30.369827
_cell_length_b 9.671726
_cell_length_c 31.575175
_cell_angle_alpha 90.000000
_cell_angle_beta 19.367274
_cell_angle_gamma 90.000000
_cell_volume 3075.642380
_symmetry_space_group_name_H-M "C 2/M"
_symmetry_group_IT_number 12
_symmetry_cell_setting 'monoclinic'
loop_
_space_group_symop_operation_xyz
x,y,z
-x,y,-z
-x,-y,-z
x,-y,z
1/2+x,1/2+y,z
1/2-x,1/2+y,-z
1/2-x,1/2-y,-z
1/2+x,1/2-y,z
loop_
_atom_site_type_symbol
_atom_site_label
_atom_site_fract_x
_atom_site_fract_y
_atom_site_fract_z
Si Si1 0.239012 0.658194 0.051746
Si Si2 0.392776 0.660281 0.995255
Si Si3 0.060412 0.655759 0.672293
Si Si4 0.361213 0.161189 0.104081
Si Si5 0.198602 0.159029 0.703570
Si Si6 0.292080 0.660386 0.400364
Si Si7 0.344998 0.341616 0.636207
O O1 0.272538 0.500000 0.008893
O O2 0.090909 0.671271 0.204841
O O3 0.250000 0.750000 0.000000
O O4 0.335906 0.709794 0.001334
O O5 0.354898 0.500000 0.037177
O O6 0.549240 0.683826 0.853857
O O7 0.333122 0.751704 0.087175
O O8 0.091977 0.500000 0.658776
O O9 0.151725 0.695123 0.549488
O O10 0.088848 0.757141 0.685504
O O11 0.237005 0.195331 0.247098
O O12 0.367183 0.000000 0.086473
O O13 0.500000 0.206681 0.000000
O O14 0.217468 0.211158 0.638772
O O15 0.297533 0.248181 0.641162
O O16 0.239878 0.000000 0.670806
O O17 0.331021 0.500000 0.367420
O O18 0.500000 0.310928 0.500000
O O19 0.318145 0.500000 0.648351
#
# Coordination Sequence:
#
# PCOD8097680 Si02
#       7
#     8   8   8   8   8   8   8
#     4  10  21  36  53  78 111 143 179 224 270 317
#     4  10  21  35  55  83 111 142 181 225 271 321
#     4   9  18  33  52  75 104 140 178 217 264 315
#     4  10  20  37  59  81 106 141 183 224 268 325
#     4  10  20  34  54  80 107 137 176 218 266 323
#     4   9  18  33  53  76 105 139 175 217 264 317
#     4  10  22  39  57  79 109 140 173 222 275 320
#
# _framework density 18.207578000000002
#
# number of rings (size 3 to 8) (size 9 to 14) (size 15 to 20)
#    0.000    2.286    1.429    0.857    0.000    5.143 
#    0.000    1.429    0.000    0.000    0.000    0.000 
#    0.000    0.000    0.000    0.000    0.000    0.000 
#
# Total GULP energy -347257.668770 kJ/mol
# GULP energy per Si atom -12402.059599 kJ/mol
# Density = 1.816614 g / cm^3
# Si number density = 18.207578 Si / 1000 Ang^3
#
#
#
# Elastic Constant Matrix: (Units=GPa)
#
#
# Indices 1 2 3 4 5 6 
#
# 1 123.7088 59.2396 33.8985 0.0096 10.6142 -0.0090
# 2 59.2396 59.6599 26.6045 -0.0026 4.5496 -0.0115
# 3 33.8985 26.6045 79.3674 0.0104 4.0320 -0.0105
# 4 0.0096 -0.0026 0.0104 22.2164 -0.0089 -0.4163
# 5 10.6142 4.5496 4.0320 -0.0089 26.1126 0.0059
# 6 -0.0090 -0.0115 -0.0105 -0.4163 0.0059 38.3996
#
#
#
# Elastic Compliance Matrix: (Units=1/GPa)
#
#
# Indices 1 2 3 4 5 6 
#
# 1 0.015945 -0.014815 -0.001659 -0.000009 -0.003644 -0.000001
# 2 -0.014815 0.033627 -0.004992 0.000013 0.000934 0.000005
# 3 -0.001659 -0.004992 0.015021 -0.000007 -0.000775 0.000002
# 4 -0.000009 0.000013 -0.000007 0.045021 0.000018 0.000488
# 5 -0.003644 0.000934 -0.000775 0.000018 0.039734 -0.000007
# 6 -0.000001 0.000005 0.000002 0.000488 -0.000007 0.026047
#
#
# Mechanical properties :
#
#
# Convention : Reuss Voigt Hill
#
# Bulk Modulus (GPa) = 46.16539 55.80237 50.98388
# Shear Modulus (GPa) = 22.16824 26.87862 24.52343
#
# Velocity S-wave (km/s) = 3.49310 3.84635 3.67397
# Velocity P-wave (km/s) = 6.45593 7.10213 6.78673
#
# Compressibility (1/GPa) = 0.02166125
#
# Stress axis : x y z
#
# Youngs Moduli (GPa) = 62.71486 29.73781 66.57376
#
# Poissons Ratio (x) = 0.44057 0.11045
# Poissons Ratio (y) = 0.92913 0.33233
# Poissons Ratio (z) = 0.10405 0.14845
#
# Static dielectric constant tensor:
#      x y z
#    x 3.278420 -0.000010 0.036960 
#    y -0.000010 3.351740 0.000040 
#    z 0.036960 0.000040 3.470310 
# 
# 
# High freq. dielectric constant tensor:
#      x y z
#    x 1.701520 0.000000 0.005160 
#    y 0.000000 1.702640 0.000000 
#    z 0.005160 0.000000 1.713470 
# 
# From -- ./inp_files/383809.got.cif
#   From: 2010.06.25/outbox.cif.g09.slc.cpg/sg12_192_cif.got.tgz:383809.got - 2010.06.28 00:19:55.
