data_PCOD8097532
_publ_section_title
;
Structure prediction by ZEFSAII (Michael W. Deem and Ramdas Pophale) SiO2 
 PCOD8097532
Probable space group: C 2/M
;
_chemical_formula_sum "Si O2"
_cell_formula_units_Z 40
_cell_length_a 18.624595
_cell_length_b 13.299352
_cell_length_c 12.076986
_cell_angle_alpha 90.000000
_cell_angle_beta 130.702874
_cell_angle_gamma 90.000000
_cell_volume 2267.792471
_symmetry_space_group_name_H-M "C 2/M"
_symmetry_group_IT_number 12
_symmetry_cell_setting 'monoclinic'
loop_
_space_group_symop_operation_xyz
x,y,z
-x,y,-z
-x,-y,-z
x,-y,z
1/2+x,1/2+y,z
1/2-x,1/2+y,-z
1/2-x,1/2-y,-z
1/2+x,1/2-y,z
loop_
_atom_site_type_symbol
_atom_site_label
_atom_site_fract_x
_atom_site_fract_y
_atom_site_fract_z
Si Si1 0.321773 0.114123 0.337318
Si Si2 0.389067 0.225540 0.194908
Si Si3 0.737155 0.115056 0.098394
Si Si4 0.226743 0.702519 0.315934
Si Si5 0.895898 0.720444 0.605355
O O1 0.380980 0.151353 0.291235
O O2 0.229259 0.186315 0.259646
O O3 0.387478 0.124720 0.513471
O O4 0.288374 0.000000 0.287339
O O5 0.332688 0.328732 0.157528
O O6 0.497061 0.258926 0.284023
O O7 0.352532 0.166986 0.050151
O O8 0.723046 0.118822 0.216886
O O9 0.745470 0.000000 0.069065
O O10 0.135625 0.689532 0.302455
O O11 0.324241 0.692271 0.487045
#
# Coordination Sequence:
#
# PCOD8097532 Si02
#       5
#     8   8   8   8   8
#     4   9  17  30  52  76 100 132 169 210 254 300
#     4  10  20  34  54  75 106 135 170 221 254 304
#     4  10  21  36  53  77 105 141 174 210 261 309
#     4   8  19  36  50  72 110 136 166 216 254 308
#     4   9  18  35  52  74 108 135 171 212 263 297
#
# _framework density 17.638297999999999
#
# number of rings (size 3 to 8) (size 9 to 14) (size 15 to 20)
#    1.200    1.600    0.000    1.200    0.000    4.000 
#    0.000    4.000    0.000    0.000    0.000    8.400 
#    0.000    0.000    0.000    0.000    0.000    0.000 
#
# Total GULP energy -247812.103703 kJ/mol
# GULP energy per Si atom -12390.605185 kJ/mol
# Density = 1.759815 g / cm^3
# Si number density = 17.638298 Si / 1000 Ang^3
#
#
#
# Elastic Constant Matrix: (Units=GPa)
#
#
# Indices 1 2 3 4 5 6 
#
# 1 108.9168 19.2044 60.9898 0.0000 -4.3757 0.0000
# 2 19.2044 66.9066 22.0540 0.0000 -3.1914 0.0000
# 3 60.9898 22.0540 72.3942 0.0000 -5.3453 0.0000
# 4 0.0000 0.0000 0.0000 12.8908 0.0000 -0.7076
# 5 -4.3757 -3.1914 -5.3453 0.0000 22.8078 0.0000
# 6 0.0000 0.0000 0.0000 -0.7076 0.0000 9.1561
#
#
#
# Elastic Compliance Matrix: (Units=1/GPa)
#
#
# Indices 1 2 3 4 5 6 
#
# 1 0.017383 -0.000183 -0.014597 0.000000 -0.000112 0.000000
# 2 -0.000183 0.016647 -0.004831 0.000000 0.001162 0.000000
# 3 -0.014597 -0.004831 0.027807 0.000000 0.003040 0.000000
# 4 0.000000 0.000000 0.000000 0.077905 0.000000 0.006021
# 5 -0.000112 0.001162 0.003040 0.000000 0.044698 0.000000
# 6 0.000000 0.000000 0.000000 0.006021 0.000000 0.109682
#
#
# Mechanical properties :
#
#
# Convention : Reuss Voigt Hill
#
# Bulk Modulus (GPa) = 44.22035 50.30154 47.26095
# Shear Modulus (GPa) = 14.66781 18.70224 16.68502
#
# Velocity S-wave (km/s) = 2.88686 3.25979 3.07897
# Velocity P-wave (km/s) = 6.01972 6.53824 6.28433
#
# Compressibility (1/GPa) = 0.02261402
#
# Stress axis : x y z
#
# Youngs Moduli (GPa) = 57.52753 60.07220 35.96221
#
# Poissons Ratio (x) = 0.01101 0.52494
# Poissons Ratio (y) = 0.01054 0.17373
# Poissons Ratio (z) = 0.83973 0.29021
#
# Static dielectric constant tensor:
#      x y z
#    x 3.119950 0.000000 -0.232030 
#    y 0.000000 2.898970 0.000000 
#    z -0.232030 0.000000 3.264630 
# 
# 
# High freq. dielectric constant tensor:
#      x y z
#    x 1.677830 0.000000 -0.022620 
#    y 0.000000 1.649350 0.000000 
#    z -0.022620 0.000000 1.676470 
# 
# From -- ./inp_files/155604.got.cif
#   From: 2010.06.25/outbox.cif.g09.slc.cpg/sg12_78_cif.got.tgz:155604.got - 2010.06.28 00:19:55.
