data_PCOD8097350
_publ_section_title
;
Structure prediction by ZEFSAII (Michael W. Deem and Ramdas Pophale) SiO2 
 PCOD8097350
Probable space group: C 2/M
;
_chemical_formula_sum "Si O2"
_cell_formula_units_Z 64
_cell_length_a 23.505439
_cell_length_b 9.248437
_cell_length_c 16.980389
_cell_angle_alpha 90.000000
_cell_angle_beta 85.550477
_cell_angle_gamma 90.000000
_cell_volume 3680.217059
_symmetry_space_group_name_H-M "C 2/M"
_symmetry_group_IT_number 12
_symmetry_cell_setting 'monoclinic'
loop_
_space_group_symop_operation_xyz
x,y,z
-x,y,-z
-x,-y,-z
x,-y,z
1/2+x,1/2+y,z
1/2-x,1/2+y,-z
1/2-x,1/2-y,-z
1/2+x,1/2-y,z
loop_
_atom_site_type_symbol
_atom_site_label
_atom_site_fract_x
_atom_site_fract_y
_atom_site_fract_z
Si Si1 0.110784 0.665707 0.679282
Si Si2 0.176066 0.669552 0.212511
Si Si3 0.433052 0.666377 0.722104
Si Si4 0.491536 0.167756 0.411326
Si Si5 0.462169 0.663024 0.194259
Si Si6 0.200590 0.166484 0.750539
Si Si7 0.873402 0.837036 0.085958
Si Si8 0.307531 0.830027 0.969928
O O1 0.126536 0.500000 0.689833
O O2 0.075807 0.692213 0.601968
O O3 0.068109 0.714568 0.752100
O O4 0.170303 0.752490 0.680290
O O5 0.166713 0.500000 0.225509
O O6 0.126155 0.752784 0.261788
O O7 0.235005 0.722412 0.245671
O O8 0.176626 0.709206 0.120675
O O9 0.420641 0.500000 0.703719
O O10 0.467888 0.733683 0.646122
O O11 0.469868 0.680771 0.799815
O O12 0.500000 0.215504 0.500000
O O13 0.508032 0.000000 0.395871
O O14 0.443648 0.500000 0.224197
O O15 0.439879 0.682196 0.106485
O O16 0.167070 0.195432 0.835160
O O17 0.200627 0.000000 0.728166
O O18 0.859676 0.724903 0.018349
O O19 0.862311 0.000000 0.056353
O O20 0.298414 0.000000 0.982490
O O21 0.250000 0.750000 0.000000
#
# Coordination Sequence:
#
# PCOD8097350 Si02
#       8
#     8   8   8   8   8   8   8   8
#     4   9  16  26  46  77 102 122 161 207 237 277
#     4  10  21  36  50  67  98 139 171 202 251 308
#     4  10  20  34  53  78 102 129 167 209 247 289
#     4   9  18  34  56  80 107 137 161 189 241 302
#     4   8  16  31  48  66  96 131 160 197 251 303
#     4   9  17  31  48  67  97 135 168 201 251 301
#     4   9  16  30  49  69  93 125 165 210 253 298
#     4  11  21  33  48  69  97 129 169 214 256 297
#
# _framework density 17.390279
#
# number of rings (size 3 to 8) (size 9 to 14) (size 15 to 20)
#    0.000    2.625    1.250    1.875    0.000    4.750 
#    0.000    0.625    0.000    4.500    0.000    0.000 
#    0.000    0.000    0.000    0.000    0.000    0.000 
#
# Total GULP energy -396580.401609 kJ/mol
# GULP energy per Si atom -12393.137550 kJ/mol
# Density = 1.735070 g / cm^3
# Si number density = 17.390279 Si / 1000 Ang^3
#
#
#
# Elastic Constant Matrix: (Units=GPa)
#
#
# Indices 1 2 3 4 5 6 
#
# 1 124.8452 51.4075 52.1947 0.0000 19.4957 0.0000
# 2 51.4075 71.3436 43.5977 0.0000 11.1713 0.0000
# 3 52.1947 43.5977 70.0970 0.0000 18.8002 0.0000
# 4 0.0000 0.0000 0.0000 21.3434 0.0000 3.5623
# 5 19.4957 11.1713 18.8002 0.0000 27.8016 0.0000
# 6 0.0000 0.0000 0.0000 3.5623 0.0000 30.6677
#
#
#
# Elastic Compliance Matrix: (Units=1/GPa)
#
#
# Indices 1 2 3 4 5 6 
#
# 1 0.013084 -0.005643 -0.005350 0.000000 -0.003290 0.000000
# 2 -0.005643 0.025050 -0.011898 0.000000 0.001937 0.000000
# 3 -0.005350 -0.011898 0.028537 0.000000 -0.010765 0.000000
# 4 0.000000 0.000000 0.000000 0.047779 0.000000 -0.005550
# 5 -0.003290 0.001937 -0.010765 0.000000 0.044777 0.000000
# 6 0.000000 0.000000 0.000000 -0.005550 0.000000 0.033252
#
#
# Mechanical properties :
#
#
# Convention : Reuss Voigt Hill
#
# Bulk Modulus (GPa) = 47.87341 62.29840 55.08591
# Shear Modulus (GPa) = 20.38932 23.90159 22.14546
#
# Velocity S-wave (km/s) = 3.42783 3.71134 3.57240
# Velocity P-wave (km/s) = 6.57687 7.36661 6.98291
#
# Compressibility (1/GPa) = 0.02088842
#
# Stress axis : x y z
#
# Youngs Moduli (GPa) = 76.42790 39.91944 35.04208
#
# Poissons Ratio (x) = 0.22528 0.18749
# Poissons Ratio (y) = 0.43130 0.41693
# Poissons Ratio (z) = 0.40892 0.47496
#
# Static dielectric constant tensor:
#      x y z
#    x 3.512710 0.000000 0.443720 
#    y 0.000000 3.289010 0.000000 
#    z 0.443720 0.000000 2.998410 
# 
# 
# High freq. dielectric constant tensor:
#      x y z
#    x 1.677810 0.000000 0.032250 
#    y 0.000000 1.677560 0.000000 
#    z 0.032250 0.000000 1.627760 
# 
# From -- ./inp_files/287610.got.cif
#   From: 2010.06.25/outbox.cif.g09.slc.cpg/sg12_144_cif.got.tgz:287610.got - 2010.06.28 00:19:55.
