data_PCOD8097105
_publ_section_title
;
Structure prediction by ZEFSAII (Michael W. Deem and Ramdas Pophale) SiO2 
 PCOD8097105
Probable space group: C 2/M
;
_chemical_formula_sum "Si O2"
_cell_formula_units_Z 48
_cell_length_a 18.890462
_cell_length_b 8.846146
_cell_length_c 15.160993
_cell_angle_alpha 90.000000
_cell_angle_beta 88.667444
_cell_angle_gamma 90.000000
_cell_volume 2532.834783
_symmetry_space_group_name_H-M "C 2/M"
_symmetry_group_IT_number 12
_symmetry_cell_setting 'monoclinic'
loop_
_space_group_symop_operation_xyz
x,y,z
-x,y,-z
-x,-y,-z
x,-y,z
1/2+x,1/2+y,z
1/2-x,1/2+y,-z
1/2-x,1/2-y,-z
1/2+x,1/2-y,z
loop_
_atom_site_type_symbol
_atom_site_label
_atom_site_fract_x
_atom_site_fract_y
_atom_site_fract_z
Si Si1 0.571697 0.823846 0.645203
Si Si2 0.919135 0.322751 0.155010
Si Si3 0.325962 0.821590 0.506488
Si Si4 0.569875 0.677605 0.147699
Si Si5 0.085065 0.678492 0.328013
Si Si6 0.674376 0.677654 0.986866
O O1 0.599505 0.788763 0.742516
O O2 0.623759 0.750278 0.571242
O O3 0.491673 0.762444 0.636556
O O4 0.569747 0.000000 0.625364
O O5 0.919863 0.500000 0.134970
O O6 0.995872 0.257824 0.128164
O O7 0.858129 0.242868 0.101660
O O8 0.250000 0.750000 0.500000
O O9 0.357227 0.778427 0.600840
O O10 0.319182 0.000000 0.495754
O O11 0.556126 0.500000 0.154023
O O12 0.604824 0.736889 0.237167
O O13 0.623773 0.720760 0.069148
O O14 0.082013 0.500000 0.308662
O O15 0.683378 0.500000 0.976437
O O16 0.750000 0.750000 0.000000
#
# Coordination Sequence:
#
# PCOD8097105 Si02
#       6
#     8   8   8   8   8   8
#     4   8  16  33  56  78 101 134 176 217 257 307
#     4  10  20  36  60  85 107 138 180 222 267 319
#     4  10  20  34  52  76 108 141 173 213 263 318
#     4  10  21  37  57  81 109 141 177 221 271 319
#     4   9  18  34  57  80 100 134 183 224 259 306
#     4  11  24  39  55  78 110 146 181 219 268 321
#
# _framework density 18.951098000000002
#
# number of rings (size 3 to 8) (size 9 to 14) (size 15 to 20)
#    0.000    2.333    0.000    3.500    0.000    8.667 
#    0.000    9.167    0.000    5.000    0.000    0.000 
#    0.000    0.000    0.000    0.000    0.000    0.000 
#
# Total GULP energy -297624.404326 kJ/mol
# GULP energy per Si atom -12401.016847 kJ/mol
# Density = 1.890796 g / cm^3
# Si number density = 18.951098 Si / 1000 Ang^3
#
#
#
# Elastic Constant Matrix: (Units=GPa)
#
#
# Indices 1 2 3 4 5 6 
#
# 1 102.5622 34.4807 50.4160 0.0000 25.7538 0.0000
# 2 34.4807 52.0761 36.8079 0.0000 7.4597 0.0000
# 3 50.4160 36.8079 89.5258 0.0000 20.3625 0.0000
# 4 0.0000 0.0000 0.0000 29.0955 0.0000 3.1308
# 5 25.7538 7.4597 20.3625 0.0000 28.2683 0.0000
# 6 0.0000 0.0000 0.0000 3.1308 0.0000 34.9695
#
#
#
# Elastic Compliance Matrix: (Units=1/GPa)
#
#
# Indices 1 2 3 4 5 6 
#
# 1 0.016669 -0.006460 -0.004383 0.000000 -0.010324 0.000000
# 2 -0.006460 0.029598 -0.009679 0.000000 0.005047 0.000000
# 3 -0.004383 -0.009679 0.019289 0.000000 -0.007347 0.000000
# 4 0.000000 0.000000 0.000000 0.034704 0.000000 -0.003107
# 5 -0.010324 0.005047 -0.007347 0.000000 0.048742 0.000000
# 6 0.000000 0.000000 0.000000 -0.003107 0.000000 0.028875
#
#
# Mechanical properties :
#
#
# Convention : Reuss Voigt Hill
#
# Bulk Modulus (GPa) = 40.79626 54.17483 47.48554
# Shear Modulus (GPa) = 22.01763 26.63063 24.32413
#
# Velocity S-wave (km/s) = 3.41224 3.75270 3.58651
# Velocity P-wave (km/s) = 6.09084 6.88664 6.50093
#
# Compressibility (1/GPa) = 0.02451205
#
# Stress axis : x y z
#
# Youngs Moduli (GPa) = 59.99189 33.78564 51.84410
#
# Poissons Ratio (x) = 0.21826 0.22722
# Poissons Ratio (y) = 0.38756 0.50180
# Poissons Ratio (z) = 0.26292 0.32701
#
# Static dielectric constant tensor:
#      x y z
#    x 3.487310 0.000000 -0.061420 
#    y 0.000000 3.342700 0.000000 
#    z -0.061420 0.000000 3.691440 
# 
# 
# High freq. dielectric constant tensor:
#      x y z
#    x 1.735490 0.000000 0.003160 
#    y 0.000000 1.722610 0.000000 
#    z 0.003160 0.000000 1.750490 
# 
# From -- ./inp_files/221644.got.cif
#   From: 2010.06.25/outbox.cif.g09.slc.cpg/sg12_111_cif.got.tgz:221644.got - 2010.06.28 00:19:55.
