data_PCOD8097095
_publ_section_title
;
Structure prediction by ZEFSAII (Michael W. Deem and Ramdas Pophale) SiO2 
 PCOD8097095
Probable space group: C 2/M
;
_chemical_formula_sum "Si O2"
_cell_formula_units_Z 56
_cell_length_a 8.767025
_cell_length_b 19.014486
_cell_length_c 22.290358
_cell_angle_alpha 90.000000
_cell_angle_beta 53.845452
_cell_angle_gamma 90.000000
_cell_volume 3000.253806
_symmetry_space_group_name_H-M "C 2/M"
_symmetry_group_IT_number 12
_symmetry_cell_setting 'monoclinic'
loop_
_space_group_symop_operation_xyz
x,y,z
-x,y,-z
-x,-y,-z
x,-y,z
1/2+x,1/2+y,z
1/2-x,1/2+y,-z
1/2-x,1/2-y,-z
1/2+x,1/2-y,z
loop_
_atom_site_type_symbol
_atom_site_label
_atom_site_fract_x
_atom_site_fract_y
_atom_site_fract_z
Si Si1 0.547902 0.824165 0.421514
Si Si2 0.876739 0.916900 0.299118
Si Si3 0.551674 0.416353 0.851326
Si Si4 0.274094 0.583100 0.700882
Si Si5 0.827989 0.583940 0.000000
Si Si6 0.312445 0.324165 0.578486
Si Si7 0.394346 0.083647 0.851326
O O1 0.500000 0.847982 0.500000
O O2 0.677695 0.882861 0.361453
O O3 0.656365 0.750000 0.395757
O O4 0.355359 0.816746 0.429761
O O5 0.942480 0.890187 0.218533
O O6 0.034759 0.893677 0.310161
O O7 0.846543 0.000000 0.306090
O O8 0.547453 0.500000 0.854473
O O9 0.734699 0.387049 0.843534
O O10 0.365347 0.386165 0.926925
O O11 0.264814 0.500000 0.693910
O O12 0.262054 0.617138 0.638547
O O13 0.098080 0.609813 0.781467
O O14 0.825133 0.500000 0.000000
O O15 0.853877 0.613835 0.926925
O O16 0.000000 0.612238 0.000000
O O17 0.500000 0.347982 0.500000
O O18 0.389128 0.000000 0.854473
#
# Coordination Sequence:
#
# PCOD8097095 Si02
#       7
#     8   8   8   8   8   8   8
#     4  11  22  38  58  78 102 132 169 210 253 303
#     4  10  20  34  52  76 106 137 170 210 256 304
#     4   9  16  26  41  64  95 130 167 207 251 298
#     4  10  20  34  52  76 106 137 170 210 256 304
#     4   9  15  23  37  59  90 129 168 205 248 297
#     4  11  22  38  58  78 102 132 169 210 253 303
#     4   9  16  26  41  64  95 130 167 207 251 298
#
# _framework density 18.665087
#
# number of rings (size 3 to 8) (size 9 to 14) (size 15 to 20)
#    0.000    2.143    0.000    5.571    0.000    7.429 
#    0.000    0.000    0.000    0.000    0.000    1.000 
#    0.000    0.000    0.000    0.000    0.000    0.000 
#
# Total GULP energy -347251.391309 kJ/mol
# GULP energy per Si atom -12401.835404 kJ/mol
# Density = 1.862260 g / cm^3
# Si number density = 18.665087 Si / 1000 Ang^3
#
#
#
# Elastic Constant Matrix: (Units=GPa)
#
#
# Indices 1 2 3 4 5 6 
#
# 1 162.4254 28.6825 63.4551 -0.0001 -0.8451 -0.0005
# 2 28.6825 24.1627 37.3424 0.0000 0.4540 -0.0001
# 3 63.4551 37.3424 143.7456 0.0001 -0.1335 -0.0001
# 4 -0.0001 0.0000 0.0001 -0.8424 0.0000 -1.1218
# 5 -0.8451 0.4540 -0.1335 0.0000 41.4563 0.0002
# 6 -0.0005 -0.0001 -0.0001 -1.1218 0.0002 20.5571
#
#
#
# Elastic Compliance Matrix: (Units=1/GPa)
#
#
# Indices 1 2 3 4 5 6 
#
# 1 0.008059 -0.006805 -0.001789 -0.000001 0.000233 0.000000
# 2 -0.006805 0.074921 -0.016460 -0.000002 -0.001012 0.000000
# 3 -0.001789 -0.016460 0.012023 0.000002 0.000182 0.000000
# 4 -0.000001 -0.000002 0.000002 -1.106642 0.000000 -0.060387
# 5 0.000233 -0.001012 0.000182 0.000000 0.024138 0.000000
# 6 0.000000 0.000000 0.000000 -0.060387 0.000000 0.045350
#
#
# Mechanical properties :
#
#
# Convention : Reuss Voigt Hill
#
# Bulk Modulus (GPa) = 22.27476 65.47707 43.87591
# Shear Modulus (GPa) = -5.70075 25.62444 9.96184
#
# Velocity S-wave (km/s) = -1.74953 3.70922 2.31273
# Velocity P-wave (km/s) = 2.80690 7.31441 5.53982
#
# Compressibility (1/GPa) = 0.04489386
#
# Stress axis : x y z
#
# Youngs Moduli (GPa) = 124.09046 13.34733 83.17515
#
# Poissons Ratio (x) = 0.09083 0.14883
# Poissons Ratio (y) = 0.84444 1.36907
# Poissons Ratio (z) = 0.22204 0.21970
#
# Static dielectric constant tensor:
#      x y z
#    x 3.654070 0.000000 -0.002480 
#    y 0.000000 2.864970 0.000000 
#    z -0.002480 0.000000 3.606680 
# 
# 
# High freq. dielectric constant tensor:
#      x y z
#    x 1.747140 0.000000 -0.000300 
#    y 0.000000 1.661910 0.000000 
#    z -0.000300 0.000000 1.741360 
# 
# From -- ./inp_files/257690.got.cif
#   From: 2010.06.25/outbox.cif.g09.slc.cpg/sg12_129_cif.got.tgz:257690.got - 2010.06.28 00:19:55.
