data_PCOD8097525
_publ_section_title
;
Structure prediction by ZEFSAII (Michael W. Deem and Ramdas Pophale) SiO2 
 PCOD8097525
Probable space group: C 2/M
;
_chemical_formula_sum "Si O2"
_cell_formula_units_Z 64
_cell_length_a 31.200721
_cell_length_b 8.733306
_cell_length_c 15.150622
_cell_angle_alpha 90.000000
_cell_angle_beta 49.158279
_cell_angle_gamma 90.000000
_cell_volume 3123.155740
_symmetry_space_group_name_H-M "C 2/M"
_symmetry_group_IT_number 12
_symmetry_cell_setting 'monoclinic'
loop_
_space_group_symop_operation_xyz
x,y,z
-x,y,-z
-x,-y,-z
x,-y,z
1/2+x,1/2+y,z
1/2-x,1/2+y,-z
1/2-x,1/2-y,-z
1/2+x,1/2-y,z
loop_
_atom_site_type_symbol
_atom_site_label
_atom_site_fract_x
_atom_site_fract_y
_atom_site_fract_z
Si Si1 0.034152 0.319752 0.871668
Si Si2 0.954707 0.319244 0.486106
Si Si3 0.126348 0.176094 0.020406
Si Si4 0.169029 0.818026 0.356136
Si Si5 0.241323 0.320016 0.414065
Si Si6 0.979010 0.319430 0.771122
Si Si7 0.135378 0.824235 0.810897
Si Si8 0.751514 0.319015 0.900787
O O1 0.027378 0.500000 0.878139
O O2 0.100347 0.276402 0.788222
O O3 0.008555 0.248132 0.817645
O O4 0.000000 0.248579 0.000000
O O5 0.941573 0.500000 0.501566
O O6 0.895691 0.230592 0.574221
O O7 0.000000 0.278048 0.500000
O O8 0.985545 0.255388 0.357739
O O9 0.086630 0.268877 0.141379
O O10 0.117228 0.000000 0.055023
O O11 0.111149 0.216112 0.939994
O O12 0.190891 0.223346 0.943607
O O13 0.191519 0.752603 0.420523
O O14 0.202868 0.756857 0.225484
O O15 0.173825 0.000000 0.353457
O O16 0.228785 0.500000 0.440672
O O17 0.250000 0.250000 0.500000
O O18 0.298516 0.285598 0.283288
O O19 0.980346 0.500000 0.766826
O O20 0.125275 0.000000 0.800481
O O21 0.763230 0.500000 0.888304
O O22 0.750000 0.250000 0.000000
#
# Coordination Sequence:
#
# PCOD8097525 Si02
#       8
#     8   8   8   8   8   8   8   8
#     4  10  20  34  53  84 122 157 196 247 302 366
#     4  10  24  46  68  91 125 173 221 272 331 385
#     4  10  21  39  62  90 125 163 203 258 321 376
#     4  12  26  45  69 100 134 175 223 273 333 398
#     4  11  24  44  66  94 131 172 220 273 330 397
#     4  10  22  39  60  89 123 165 213 258 315 382
#     4  10  21  38  59  85 121 163 204 251 312 376
#     4  11  24  44  68  98 132 168 211 268 332 394
#
# _framework density 20.492094000000002
#
# number of rings (size 3 to 8) (size 9 to 14) (size 15 to 20)
#    0.000    1.500    2.500    1.875    3.500    3.500 
#    0.000    0.000    0.000    0.000    0.000    0.000 
#    0.000    0.000    0.000    0.000    0.000    0.000 
#
# Total GULP energy -396727.280596 kJ/mol
# GULP energy per Si atom -12397.727519 kJ/mol
# Density = 2.044545 g / cm^3
# Si number density = 20.492094 Si / 1000 Ang^3
#
#
#
# Elastic Constant Matrix: (Units=GPa)
#
#
# Indices 1 2 3 4 5 6 
#
# 1 126.5288 54.4151 74.3508 0.0000 2.0133 0.0000
# 2 54.4151 73.8991 50.5954 0.0000 -2.6693 0.0001
# 3 74.3508 50.5954 149.5505 0.0000 -0.8210 0.0000
# 4 0.0000 0.0000 0.0000 32.3712 0.0000 -5.1380
# 5 2.0133 -2.6693 -0.8210 0.0000 37.4401 0.0000
# 6 0.0000 0.0001 0.0000 -5.1380 0.0000 33.8907
#
#
#
# Elastic Compliance Matrix: (Units=1/GPa)
#
#
# Indices 1 2 3 4 5 6 
#
# 1 0.013490 -0.007007 -0.004343 0.000000 -0.001320 0.000000
# 2 -0.007007 0.021299 -0.003712 0.000000 0.001814 0.000000
# 3 -0.004343 -0.003712 0.010103 0.000000 0.000190 0.000000
# 4 0.000000 0.000000 0.000000 0.031653 0.000000 0.004799
# 5 -0.001320 0.001814 0.000190 0.000000 0.026914 0.000000
# 6 0.000000 0.000000 0.000000 0.004799 0.000000 0.030234
#
#
# Mechanical properties :
#
#
# Convention : Reuss Voigt Hill
#
# Bulk Modulus (GPa) = 67.72100 78.74456 73.23278
# Shear Modulus (GPa) = 29.63127 32.11488 30.87308
#
# Velocity S-wave (km/s) = 3.80674 3.96306 3.88569
# Velocity P-wave (km/s) = 7.24160 7.71047 7.47971
#
# Compressibility (1/GPa) = 0.01476647
#
# Stress axis : x y z
#
# Youngs Moduli (GPa) = 74.12794 46.95110 98.98146
#
# Poissons Ratio (x) = 0.32901 0.42991
# Poissons Ratio (y) = 0.51944 0.36741
# Poissons Ratio (z) = 0.32196 0.17428
#
# Static dielectric constant tensor:
#      x y z
#    x 3.652650 0.000000 0.038950 
#    y 0.000000 3.683750 0.000000 
#    z 0.038950 0.000000 3.891740 
# 
# 
# High freq. dielectric constant tensor:
#      x y z
#    x 1.813320 0.000000 -0.001960 
#    y 0.000000 1.790030 0.000000 
#    z -0.001960 0.000000 1.810230 
# 
# From -- ./inp_files/249861.got.cif
#   From: 2010.06.25/outbox.cif.g09.slc.cpg/sg12_125_cif.got.tgz:249861.got - 2010.06.28 00:19:55.
