data_PCOD8097728
_publ_section_title
;
Structure prediction by ZEFSAII (Michael W. Deem and Ramdas Pophale) SiO2 
 PCOD8097728
Probable space group: C 2/M
;
_chemical_formula_sum "Si O2"
_cell_formula_units_Z 64
_cell_length_a 27.055765
_cell_length_b 20.708639
_cell_length_c 17.409372
_cell_angle_alpha 90.000000
_cell_angle_beta 160.257011
_cell_angle_gamma 90.000000
_cell_volume 3295.005295
_symmetry_space_group_name_H-M "C 2/M"
_symmetry_group_IT_number 12
_symmetry_cell_setting 'monoclinic'
loop_
_space_group_symop_operation_xyz
x,y,z
-x,y,-z
-x,-y,-z
x,-y,z
1/2+x,1/2+y,z
1/2-x,1/2+y,-z
1/2-x,1/2-y,-z
1/2+x,1/2-y,z
loop_
_atom_site_type_symbol
_atom_site_label
_atom_site_fract_x
_atom_site_fract_y
_atom_site_fract_z
Si Si1 0.092792 0.301858 0.709656
Si Si2 0.526801 0.144445 0.258020
Si Si3 0.636752 0.276677 0.985157
Si Si4 0.119488 0.424694 0.239483
Si Si5 0.482470 0.426903 0.389449
Si Si6 0.174908 0.278587 0.591513
Si Si7 0.875639 0.852500 0.539294
Si Si8 0.857763 0.427805 0.135737
O O1 0.254666 0.273032 0.930713
O O2 0.094957 0.378715 0.728384
O O3 0.000000 0.287491 0.500000
O O4 0.000723 0.268196 0.644114
O O5 0.581851 0.114053 0.260541
O O6 0.668984 0.165136 0.517921
O O7 0.427053 0.092118 0.155540
O O8 0.430538 0.207125 0.096933
O O9 0.726116 0.299539 0.191985
O O10 0.515009 0.331643 0.794250
O O11 0.125256 0.500000 0.267301
O O12 0.279393 0.402597 0.446212
O O13 0.000000 0.409180 0.000000
O O14 0.500000 0.396838 0.500000
O O15 0.543885 0.500000 0.478185
O O16 0.579199 0.384939 0.474199
O O17 0.315387 0.424981 0.121562
O O18 0.223390 0.210488 0.625887
O O19 0.910870 0.500000 0.234511
#
# Coordination Sequence:
#
# PCOD8097728 Si02
#       8
#     8   8   8   8   8   8   8   8
#     4   9  18  34  54  84 121 153 187 229 285 345
#     4  10  22  38  58  82 115 152 196 236 286 336
#     4  10  20  36  59  88 119 151 189 235 289 345
#     4  11  25  43  63  84 113 152 194 238 282 339
#     4  10  22  34  52  83 115 146 184 233 287 343
#     4   9  21  34  58  89 117 152 187 234 288 344
#     4  11  22  38  61  84 116 151 190 236 289 342
#     4  10  20  34  54  80 112 151 192 235 282 339
#
# _framework density 19.423338000000001
#
# number of rings (size 3 to 8) (size 9 to 14) (size 15 to 20)
#    0.000    2.000    1.250    1.500    5.250    4.250 
#    0.000    1.875    0.000    3.000    0.000    0.000 
#    0.000    0.000    0.000    0.000    0.000    0.000 
#
# Total GULP energy -396733.908468 kJ/mol
# GULP energy per Si atom -12397.934640 kJ/mol
# Density = 1.937913 g / cm^3
# Si number density = 19.423338 Si / 1000 Ang^3
#
#
#
# Elastic Constant Matrix: (Units=GPa)
#
#
# Indices 1 2 3 4 5 6 
#
# 1 112.9766 47.2506 25.5845 0.0000 8.3323 0.0000
# 2 47.2506 91.9896 19.3876 0.0000 10.9113 0.0000
# 3 25.5845 19.3876 65.9784 0.0000 5.3927 0.0000
# 4 0.0000 0.0000 0.0000 36.6994 0.0000 4.0860
# 5 8.3323 10.9113 5.3927 0.0000 21.1352 0.0000
# 6 0.0000 0.0000 0.0000 4.0860 0.0000 34.6273
#
#
#
# Elastic Compliance Matrix: (Units=1/GPa)
#
#
# Indices 1 2 3 4 5 6 
#
# 1 0.011825 -0.005318 -0.002927 0.000000 -0.001169 0.000000
# 2 -0.005318 0.014574 -0.001814 0.000000 -0.004964 0.000000
# 3 -0.002927 -0.001814 0.017008 0.000000 -0.002249 0.000000
# 4 0.000000 0.000000 0.000000 0.027611 0.000000 -0.003258
# 5 -0.001169 -0.004964 -0.002249 0.000000 0.050912 0.000000
# 6 0.000000 0.000000 0.000000 -0.003258 0.000000 0.029263
#
#
# Mechanical properties :
#
#
# Convention : Reuss Voigt Hill
#
# Bulk Modulus (GPa) = 42.94119 50.59889 46.77004
# Shear Modulus (GPa) = 27.92119 30.40717 29.16418
#
# Velocity S-wave (km/s) = 3.79556 3.96093 3.87913
# Velocity P-wave (km/s) = 6.43152 6.85753 6.64794
#
# Compressibility (1/GPa) = 0.02328766
#
# Stress axis : x y z
#
# Youngs Moduli (GPa) = 84.56863 68.61657 58.79426
#
# Poissons Ratio (x) = 0.36492 0.17209
# Poissons Ratio (y) = 0.44975 0.10668
# Poissons Ratio (z) = 0.24753 0.12450
#
# Static dielectric constant tensor:
#      x y z
#    x 3.630900 0.000000 -0.025900 
#    y 0.000000 3.655350 0.000000 
#    z -0.025900 0.000000 3.528250 
# 
# 
# High freq. dielectric constant tensor:
#      x y z
#    x 1.755440 0.000000 -0.008820 
#    y 0.000000 1.755960 0.000000 
#    z -0.008820 0.000000 1.749350 
# 
# From -- ./inp_files/184683.got.cif
#   From: 2010.06.25/outbox.cif.g09.slc.cpg/sg12_93_cif.got.tgz:184683.got - 2010.06.28 00:19:55.
