data_PCOD8097098
_publ_section_title
;
Structure prediction by ZEFSAII (Michael W. Deem and Ramdas Pophale) SiO2 
 PCOD8097098
Probable space group: C 2/M
;
_chemical_formula_sum "Si O2"
_cell_formula_units_Z 48
_cell_length_a 19.893010
_cell_length_b 8.997536
_cell_length_c 14.716018
_cell_angle_alpha 90.000000
_cell_angle_beta 99.461831
_cell_angle_gamma 90.000000
_cell_volume 2598.157134
_symmetry_space_group_name_H-M "C 2/M"
_symmetry_group_IT_number 12
_symmetry_cell_setting 'monoclinic'
loop_
_space_group_symop_operation_xyz
x,y,z
-x,y,-z
-x,-y,-z
x,-y,z
1/2+x,1/2+y,z
1/2-x,1/2+y,-z
1/2-x,1/2-y,-z
1/2+x,1/2-y,z
loop_
_atom_site_type_symbol
_atom_site_label
_atom_site_fract_x
_atom_site_fract_y
_atom_site_fract_z
Si Si1 0.691875 0.174746 0.428806
Si Si2 0.367010 0.175630 0.261621
Si Si3 0.592433 0.324416 0.088823
Si Si4 0.926049 0.325239 0.463769
Si Si5 0.211946 0.175721 0.243615
Si Si6 0.946129 0.823923 0.116149
O O1 0.750000 0.250000 0.500000
O O2 0.620516 0.213019 0.460573
O O3 0.688708 0.241018 0.328410
O O4 0.705862 0.000000 0.428260
O O5 0.393548 0.239833 0.363924
O O6 0.288143 0.222084 0.232441
O O7 0.411279 0.246316 0.192761
O O8 0.375133 0.000000 0.258210
O O9 0.590009 0.500000 0.085570
O O10 0.661115 0.268624 0.153021
O O11 0.525080 0.271397 0.128422
O O12 0.591275 0.268104 0.984455
O O13 0.933035 0.500000 0.451702
O O14 0.000000 0.253548 0.500000
O O15 0.206690 0.000000 0.260039
O O16 0.940022 0.000000 0.126722
#
# Coordination Sequence:
#
# PCOD8097098 Si02
#       6
#     8   8   8   8   8   8
#     4  11  21  36  57  79 105 141 176 214 258 308
#     4  10  20  34  52  76 106 139 171 213 266 310
#     4   8  17  35  57  76 103 140 174 212 264 316
#     4   9  19  35  52  73 105 142 173 204 257 317
#     4  10  20  36  55  77 105 140 177 214 260 310
#     4   9  18  35  56  78 103 137 176 214 260 315
#
# _framework density 18.474634999999999
#
# number of rings (size 3 to 8) (size 9 to 14) (size 15 to 20)
#    0.000    2.500    1.667    1.500    2.333    1.333 
#    0.000    2.500    0.000    2.500    0.000    0.000 
#    0.000    0.000    0.000    0.000    0.000    0.000 
#
# Total GULP energy -297550.271180 kJ/mol
# GULP energy per Si atom -12397.927966 kJ/mol
# Density = 1.843259 g / cm^3
# Si number density = 18.474635 Si / 1000 Ang^3
#
#
#
# Elastic Constant Matrix: (Units=GPa)
#
#
# Indices 1 2 3 4 5 6 
#
# 1 134.5381 24.7651 56.5162 0.0000 10.5393 0.0000
# 2 24.7651 26.9627 22.7023 0.0000 -2.2329 0.0000
# 3 56.5162 22.7023 101.2362 0.0000 -2.0001 0.0000
# 4 0.0000 0.0000 0.0000 28.6542 0.0000 -11.6545
# 5 10.5393 -2.2329 -2.0001 0.0000 40.5101 0.0000
# 6 0.0000 0.0000 0.0000 -11.6545 0.0000 19.0620
#
#
#
# Elastic Compliance Matrix: (Units=1/GPa)
#
#
# Indices 1 2 3 4 5 6 
#
# 1 0.010830 -0.006264 -0.004708 0.000000 -0.003395 0.000000
# 2 -0.006264 0.049509 -0.007527 0.000000 0.003987 0.000000
# 3 -0.004708 -0.007527 0.014224 0.000000 0.001512 0.000000
# 4 0.000000 0.000000 0.000000 0.046450 0.000000 0.028399
# 5 -0.003395 0.003987 0.001512 0.000000 0.025863 0.000000
# 6 0.000000 0.000000 0.000000 0.028399 0.000000 0.069824
#
#
# Mechanical properties :
#
#
# Convention : Reuss Voigt Hill
#
# Bulk Modulus (GPa) = 26.62040 52.30047 39.46043
# Shear Modulus (GPa) = 18.78152 28.22881 23.50516
#
# Velocity S-wave (km/s) = 3.19189 3.91317 3.57079
# Velocity P-wave (km/s) = 5.29383 6.98484 6.19729
#
# Compressibility (1/GPa) = 0.03756518
#
# Stress axis : x y z
#
# Youngs Moduli (GPa) = 92.33950 20.19822 70.30352
#
# Poissons Ratio (x) = 0.12652 0.33100
# Poissons Ratio (y) = 0.57840 0.52917
# Poissons Ratio (z) = 0.43475 0.15203
#
# Static dielectric constant tensor:
#      x y z
#    x 3.776190 0.000000 -0.115020 
#    y 0.000000 3.064130 0.000000 
#    z -0.115020 0.000000 3.200030 
# 
# 
# High freq. dielectric constant tensor:
#      x y z
#    x 1.729650 0.000000 0.002680 
#    y 0.000000 1.679970 0.000000 
#    z 0.002680 0.000000 1.726350 
# 
# From -- ./inp_files/221525.got.cif
#   From: 2010.06.25/outbox.cif.g09.slc.cpg/sg12_111_cif.got.tgz:221525.got - 2010.06.28 00:19:55.
