data_PCOD8097090
_publ_section_title
;
Structure prediction by ZEFSAII (Michael W. Deem and Ramdas Pophale) SiO2 
 PCOD8097090
Probable space group: C 2/M
;
_chemical_formula_sum "Si O2"
_cell_formula_units_Z 64
_cell_length_a 23.069291
_cell_length_b 27.436150
_cell_length_c 16.954270
_cell_angle_alpha 90.000000
_cell_angle_beta 160.649846
_cell_angle_gamma 90.000000
_cell_volume 3555.583935
_symmetry_space_group_name_H-M "C 2/M"
_symmetry_group_IT_number 12
_symmetry_cell_setting 'monoclinic'
loop_
_space_group_symop_operation_xyz
x,y,z
-x,y,-z
-x,-y,-z
x,-y,z
1/2+x,1/2+y,z
1/2-x,1/2+y,-z
1/2-x,1/2-y,-z
1/2+x,1/2-y,z
loop_
_atom_site_type_symbol
_atom_site_label
_atom_site_fract_x
_atom_site_fract_y
_atom_site_fract_z
Si Si1 0.827927 0.829381 0.238416
Si Si2 0.758293 0.272068 0.096366
Si Si3 0.174652 0.443317 0.771108
Si Si4 0.481742 0.443317 0.885286
Si Si5 0.582148 0.727932 0.244075
Si Si6 0.993052 0.670619 0.903541
Si Si7 0.281132 0.863351 0.488512
Si Si8 0.633627 0.863351 0.841006
O O1 0.846399 0.770261 0.262166
O O2 0.000000 0.851723 0.500000
O O3 0.669825 0.846486 0.089649
O O4 0.791699 0.851217 0.104733
O O5 0.869920 0.322065 0.232976
O O6 0.750000 0.250000 0.000000
O O7 0.565346 0.284488 0.880691
O O8 0.178027 0.500000 0.797262
O O9 0.175602 0.414963 0.855155
O O10 0.000000 0.429291 0.500000
O O11 0.340240 0.428443 0.930480
O O12 0.439556 0.500000 0.820320
O O13 0.316495 0.414963 0.636942
O O14 0.500000 0.429292 0.000000
O O15 0.750000 0.750000 0.500000
O O16 0.514867 0.770261 0.099100
O O17 0.643810 0.677935 0.280755
O O18 0.834368 0.648783 0.647402
O O19 0.000000 0.648277 0.000000
O O20 0.447363 0.863904 0.644726
#
# Coordination Sequence:
#
# PCOD8097090 Si02
#       8
#     8   8   8   8   8   8   8   8
#     4   9  19  32  48  72 102 137 174 210 249 294
#     4   9  17  30  46  68  98 132 171 211 251 294
#     4  10  21  37  57  80 103 129 163 205 256 311
#     4  10  21  37  57  80 103 129 163 205 256 311
#     4   9  17  30  46  68  98 132 171 211 251 294
#     4   9  19  32  48  72 102 137 174 210 249 294
#     4  10  20  34  52  76 104 135 172 212 256 305
#     4  10  20  34  52  76 104 135 172 212 256 305
#
# _framework density 17.999856000000001
#
# number of rings (size 3 to 8) (size 9 to 14) (size 15 to 20)
#    0.000    2.500    0.000    3.750    0.000    8.500 
#    0.000    2.500    0.000    0.750    0.000    0.000 
#    0.000    0.000    0.000    0.000    0.000    0.000 
#
# Total GULP energy -396590.466740 kJ/mol
# GULP energy per Si atom -12393.452086 kJ/mol
# Density = 1.795889 g / cm^3
# Si number density = 17.999856 Si / 1000 Ang^3
#
#
#
# Elastic Constant Matrix: (Units=GPa)
#
#
# Indices 1 2 3 4 5 6 
#
# 1 110.9935 48.3447 46.9584 0.0000 6.5795 0.0000
# 2 48.3447 82.1147 47.9104 0.0000 1.1740 0.0000
# 3 46.9584 47.9104 105.4683 -0.0001 8.3452 0.0000
# 4 0.0000 0.0000 -0.0001 26.7781 -0.0001 5.3580
# 5 6.5795 1.1740 8.3452 -0.0001 26.0227 0.0000
# 6 0.0000 0.0000 0.0000 5.3580 0.0000 28.7604
#
#
#
# Elastic Compliance Matrix: (Units=1/GPa)
#
#
# Indices 1 2 3 4 5 6 
#
# 1 0.012928 -0.005876 -0.002923 0.000000 -0.002066 0.000000
# 2 -0.005876 0.019315 -0.006368 0.000000 0.002657 0.000000
# 3 -0.002923 -0.006368 0.013949 0.000000 -0.003447 0.000000
# 4 0.000000 0.000000 0.000000 0.038790 0.000000 -0.007226
# 5 -0.002066 0.002657 -0.003447 0.000000 0.039936 0.000000
# 6 0.000000 0.000000 0.000000 -0.007226 0.000000 0.036116
#
#
# Mechanical properties :
#
#
# Convention : Reuss Voigt Hill
#
# Bulk Modulus (GPa) = 63.06437 65.00039 64.03238
# Shear Modulus (GPa) = 25.42522 26.66977 26.04749
#
# Velocity S-wave (km/s) = 3.76243 3.85342 3.80820
# Velocity P-wave (km/s) = 7.34756 7.48254 7.41536
#
# Compressibility (1/GPa) = 0.01585681
#
# Stress axis : x y z
#
# Youngs Moduli (GPa) = 77.34970 51.77248 71.69191
#
# Poissons Ratio (x) = 0.30423 0.20957
# Poissons Ratio (y) = 0.45453 0.45654
# Poissons Ratio (z) = 0.22611 0.32969
#
# Static dielectric constant tensor:
#      x y z
#    x 3.443410 0.000000 0.262300 
#    y 0.000000 3.400160 0.000000 
#    z 0.262300 0.000000 3.346360 
# 
# 
# High freq. dielectric constant tensor:
#      x y z
#    x 1.697150 0.000000 0.018170 
#    y 0.000000 1.679260 0.000000 
#    z 0.018170 0.000000 1.690420 
# 
# From -- ./inp_files/67872.got.cif
#   From: 2010.06.25/outbox.cif.g09.slc.cpg/sg12_34_cif.got.tgz:67872.got - 2010.06.28 00:19:55.
