data_PCOD8097341
_publ_section_title
;
Structure prediction by ZEFSAII (Michael W. Deem and Ramdas Pophale) SiO2 
 PCOD8097341
Probable space group: C 2/M
;
_chemical_formula_sum "Si O2"
_cell_formula_units_Z 56
_cell_length_a 18.619762
_cell_length_b 8.791305
_cell_length_c 29.111548
_cell_angle_alpha 90.000000
_cell_angle_beta 142.483867
_cell_angle_gamma 90.000000
_cell_volume 2902.012108
_symmetry_space_group_name_H-M "C 2/M"
_symmetry_group_IT_number 12
_symmetry_cell_setting 'monoclinic'
loop_
_space_group_symop_operation_xyz
x,y,z
-x,y,-z
-x,-y,-z
x,-y,z
1/2+x,1/2+y,z
1/2-x,1/2+y,-z
1/2-x,1/2-y,-z
1/2+x,1/2-y,z
loop_
_atom_site_type_symbol
_atom_site_label
_atom_site_fract_x
_atom_site_fract_y
_atom_site_fract_z
Si Si1 0.955461 0.679608 0.927430
Si Si2 0.990037 0.677964 0.631509
Si Si3 0.797285 0.680734 0.199910
Si Si4 0.840534 0.677838 0.641480
Si Si5 0.877230 0.176687 0.062647
Si Si6 0.949961 0.175476 0.202163
Si Si7 0.093465 0.676531 0.507752
O O1 0.943775 0.500000 0.917893
O O2 0.829416 0.752461 0.852985
O O3 0.048304 0.737823 0.937829
O O4 0.000000 0.730796 0.000000
O O5 0.005623 0.500000 0.633257
O O6 0.883068 0.717903 0.611556
O O7 0.960277 0.747593 0.566547
O O8 0.112474 0.741003 0.714859
O O9 0.790416 0.500000 0.195600
O O10 0.845051 0.735141 0.174700
O O11 0.852402 0.500000 0.657479
O O12 0.707707 0.730729 0.580492
O O13 0.921461 0.764317 0.719103
O O14 0.940184 0.200734 0.143135
O O15 0.866824 0.000000 0.044455
O O16 0.750000 0.250000 0.000000
O O17 0.937423 0.000000 0.209447
O O18 0.127501 0.500000 0.518690
O O19 0.000000 0.700899 0.500000
#
# Coordination Sequence:
#
# PCOD8097341 Si02
#       7
#     8   8   8   8   8   8   8
#     4  11  24  40  58  83 116 152 189 228 272 328
#     4   8  17  34  54  78 107 140 180 224 271 326
#     4  10  20  36  59  85 113 146 187 234 281 330
#     4  10  20  35  56  80 107 142 184 229 274 325
#     4  11  24  40  60  85 113 147 186 231 281 333
#     4  10  21  38  59  84 113 145 184 229 280 337
#     4  10  20  34  53  77 108 145 181 223 277 332
#
# _framework density 19.296955000000001
#
# number of rings (size 3 to 8) (size 9 to 14) (size 15 to 20)
#    0.000    2.000    0.000    4.286    0.000    8.286 
#    0.000    6.429    0.000    0.000    0.000    0.000 
#    0.000    0.000    0.000    0.000    0.000    0.000 
#
# Total GULP energy -347273.195366 kJ/mol
# GULP energy per Si atom -12402.614120 kJ/mol
# Density = 1.925303 g / cm^3
# Si number density = 19.296955 Si / 1000 Ang^3
#
#
#
# Elastic Constant Matrix: (Units=GPa)
#
#
# Indices 1 2 3 4 5 6 
#
# 1 108.8987 40.5807 59.8357 0.0000 8.5238 0.0000
# 2 40.5807 68.0794 46.8338 0.0000 -2.6520 -0.0001
# 3 59.8357 46.8338 109.4344 0.0000 6.9376 0.0000
# 4 0.0000 0.0000 0.0000 31.7914 0.0000 4.6102
# 5 8.5238 -2.6520 6.9376 0.0000 35.4842 0.0000
# 6 0.0000 -0.0001 0.0000 4.6102 0.0000 32.7427
#
#
#
# Elastic Compliance Matrix: (Units=1/GPa)
#
#
# Indices 1 2 3 4 5 6 
#
# 1 0.014226 -0.004748 -0.005576 0.000000 -0.002682 0.000000
# 2 -0.004748 0.022801 -0.007434 0.000000 0.004298 0.000000
# 3 -0.005576 -0.007434 0.015511 0.000000 -0.002249 0.000000
# 4 0.000000 0.000000 0.000000 0.032111 0.000000 -0.004521
# 5 -0.002682 0.004298 -0.002249 0.000000 0.029587 0.000000
# 6 0.000000 0.000000 0.000000 -0.004521 0.000000 0.031178
#
#
# Mechanical properties :
#
#
# Convention : Reuss Voigt Hill
#
# Bulk Modulus (GPa) = 58.75323 64.54589 61.64956
# Shear Modulus (GPa) = 26.79474 29.28115 28.03795
#
# Velocity S-wave (km/s) = 3.73036 3.89960 3.81592
# Velocity P-wave (km/s) = 7.00479 7.33466 7.17162
#
# Compressibility (1/GPa) = 0.01702034
#
# Stress axis : x y z
#
# Youngs Moduli (GPa) = 70.29276 43.85849 64.47049
#
# Poissons Ratio (x) = 0.20825 0.35951
# Poissons Ratio (y) = 0.33377 0.47928
# Poissons Ratio (z) = 0.39198 0.32605
#
# Static dielectric constant tensor:
#      x y z
#    x 3.481420 0.000000 -0.088260 
#    y 0.000000 3.427360 0.000000 
#    z -0.088260 0.000000 3.830910 
# 
# 
# High freq. dielectric constant tensor:
#      x y z
#    x 1.750890 0.000000 0.001250 
#    y 0.000000 1.748320 0.000000 
#    z 0.001250 0.000000 1.765060 
# 
# From -- ./inp_files/275314.got.cif
#   From: 2010.06.25/outbox.cif.g09.slc.cpg/sg12_138_cif.got.tgz:275314.got - 2010.06.28 00:19:55.
