data_PCOD8097349
_publ_section_title
;
Structure prediction by ZEFSAII (Michael W. Deem and Ramdas Pophale) SiO2 
 PCOD8097349
Probable space group: C 2/M
;
_chemical_formula_sum "Si O2"
_cell_formula_units_Z 56
_cell_length_a 12.114128
_cell_length_b 30.352080
_cell_length_c 10.281379
_cell_angle_alpha 90.000000
_cell_angle_beta 128.142937
_cell_angle_gamma 90.000000
_cell_volume 2973.140762
_symmetry_space_group_name_H-M "C 2/M"
_symmetry_group_IT_number 12
_symmetry_cell_setting 'monoclinic'
loop_
_space_group_symop_operation_xyz
x,y,z
-x,y,-z
-x,-y,-z
x,-y,z
1/2+x,1/2+y,z
1/2-x,1/2+y,-z
1/2-x,1/2-y,-z
1/2+x,1/2-y,z
loop_
_atom_site_type_symbol
_atom_site_label
_atom_site_fract_x
_atom_site_fract_y
_atom_site_fract_z
Si Si1 0.744222 0.794126 0.409797
Si Si2 0.926331 0.550947 0.581984
Si Si3 0.177096 0.891287 0.490952
Si Si4 0.327243 0.700593 0.184558
Si Si5 0.398166 0.948527 0.038711
Si Si6 0.638659 0.601660 0.761741
Si Si7 0.537386 0.232684 0.885951
O O1 0.750000 0.750000 0.500000
O O2 0.802925 0.838487 0.522027
O O3 0.828952 0.786106 0.337602
O O4 0.581252 0.801563 0.249694
O O5 0.879726 0.500000 0.559013
O O6 0.789322 0.581286 0.490902
O O7 0.000000 0.561262 0.500000
O O8 0.035724 0.563175 0.774435
O O9 0.197033 0.900162 0.657867
O O10 0.024838 0.911162 0.342105
O O11 0.358752 0.650431 0.182550
O O12 0.453401 0.727841 0.211126
O O13 0.183750 0.707667 0.001679
O O14 0.378943 0.000000 0.002908
O O15 0.500000 0.929168 0.000000
O O16 0.241546 0.928534 0.921394
O O17 0.500000 0.252735 0.000000
#
# Coordination Sequence:
#
# PCOD8097349 Si02
#       7
#     8   8   8   8   8   8   8
#     4  10  20  34  53  77 115 150 190 241 286 340
#     4  10  22  42  62  85 122 156 190 245 301 356
#     4  10  21  36  56  88 115 155 196 236 305 349
#     4   9  19  34  52  78 108 147 189 235 296 329
#     4  10  20  36  61  90 114 147 194 236 282 350
#     4  10  20  34  59  85 120 144 185 253 290 341
#     4   9  18  33  52  73 102 149 196 234 277 340
#
# _framework density 18.8353
#
# number of rings (size 3 to 8) (size 9 to 14) (size 15 to 20)
#    0.000    2.286    1.429    0.857    2.000    2.857 
#    2.571    5.000    0.000    2.571    0.000    0.000 
#    0.000    0.000    0.000    0.000    0.000    0.000 
#
# Total GULP energy -347098.260355 kJ/mol
# GULP energy per Si atom -12396.366441 kJ/mol
# Density = 1.879243 g / cm^3
# Si number density = 18.835300 Si / 1000 Ang^3
#
#
#
# Elastic Constant Matrix: (Units=GPa)
#
#
# Indices 1 2 3 4 5 6 
#
# 1 107.8201 49.1107 49.4867 0.0000 7.4574 0.0000
# 2 49.1107 67.2301 39.7489 0.0000 2.7750 0.0000
# 3 49.4867 39.7489 86.3555 0.0000 2.4847 0.0000
# 4 0.0000 0.0000 0.0000 27.6849 0.0000 3.5915
# 5 7.4574 2.7750 2.4847 0.0000 28.6470 0.0000
# 6 0.0000 0.0000 0.0000 3.5915 0.0000 27.9099
#
#
#
# Elastic Compliance Matrix: (Units=1/GPa)
#
#
# Indices 1 2 3 4 5 6 
#
# 1 0.015538 -0.008268 -0.005018 0.000000 -0.002809 0.000000
# 2 -0.008268 0.024874 -0.006721 0.000000 0.000326 0.000000
# 3 -0.005018 -0.006721 0.017536 0.000000 0.000436 0.000000
# 4 0.000000 0.000000 0.000000 0.036734 0.000000 -0.004727
# 5 -0.002809 0.000326 0.000436 0.000000 0.035569 0.000000
# 6 0.000000 0.000000 0.000000 -0.004727 0.000000 0.036438
#
#
# Mechanical properties :
#
#
# Convention : Reuss Voigt Hill
#
# Bulk Modulus (GPa) = 55.75430 59.78870 57.77150
# Shear Modulus (GPa) = 23.50947 25.05230 24.28088
#
# Velocity S-wave (km/s) = 3.53676 3.65097 3.59432
# Velocity P-wave (km/s) = 6.80760 7.04163 6.92561
#
# Compressibility (1/GPa) = 0.01793584
#
# Stress axis : x y z
#
# Youngs Moduli (GPa) = 64.35939 40.20297 57.02395
#
# Poissons Ratio (x) = 0.33238 0.28613
# Poissons Ratio (y) = 0.53209 0.38325
# Poissons Ratio (z) = 0.32294 0.27020
#
# Static dielectric constant tensor:
#      x y z
#    x 3.543680 0.000000 0.132090 
#    y 0.000000 3.330500 0.000000 
#    z 0.132090 0.000000 3.515070 
# 
# 
# High freq. dielectric constant tensor:
#      x y z
#    x 1.732620 0.000000 0.016780 
#    y 0.000000 1.717610 0.000000 
#    z 0.016780 0.000000 1.731220 
# 
# From -- ./inp_files/54807.got.cif
#   From: 2010.06.25/outbox.cif.g09.slc.cpg/sg12_28_cif.got.tgz:54807.got - 2010.06.28 00:19:55.
