data_PCOD8097815
_publ_section_title
;
Structure prediction by ZEFSAII (Michael W. Deem and Ramdas Pophale) SiO2 
 PCOD8097815
Probable space group: C 2/M
;
_chemical_formula_sum "Si O2"
_cell_formula_units_Z 48
_cell_length_a 22.196147
_cell_length_b 13.720388
_cell_length_c 9.164036
_cell_angle_alpha 90.000000
_cell_angle_beta 118.829392
_cell_angle_gamma 90.000000
_cell_volume 2444.918245
_symmetry_space_group_name_H-M "C 2/M"
_symmetry_group_IT_number 12
_symmetry_cell_setting 'monoclinic'
loop_
_space_group_symop_operation_xyz
x,y,z
-x,y,-z
-x,-y,-z
x,-y,z
1/2+x,1/2+y,z
1/2-x,1/2+y,-z
1/2-x,1/2-y,-z
1/2+x,1/2-y,z
loop_
_atom_site_type_symbol
_atom_site_label
_atom_site_fract_x
_atom_site_fract_y
_atom_site_fract_z
Si Si1 0.924255 0.388412 0.357861
Si Si2 0.090786 0.218916 0.873823
Si Si3 0.456482 0.607499 0.714677
Si Si4 0.361035 0.610972 0.343356
Si Si5 0.186182 0.701953 0.569185
Si Si6 0.338426 0.303236 0.744538
O O1 0.918442 0.500000 0.303363
O O2 0.907402 0.324252 0.197898
O O3 0.870193 0.366587 0.422842
O O4 0.000000 0.361481 0.500000
O O5 0.122364 0.136190 0.804807
O O6 0.013108 0.187604 0.823169
O O7 0.136402 0.233012 0.069682
O O8 0.488134 0.500000 0.773180
O O9 0.431772 0.621410 0.518551
O O10 0.390792 0.615776 0.744964
O O11 0.331973 0.500000 0.319469
O O12 0.308226 0.690319 0.348104
O O13 0.261375 0.652680 0.670273
O O14 0.164670 0.713599 0.374455
#
# Coordination Sequence:
#
# PCOD8097815 Si02
#       6
#     8   8   8   8   8   8
#     4  10  21  38  59  79 101 138 184 224 265 313
#     4  11  20  33  55  83 110 136 174 226 267 307
#     4  10  20  34  54  82 115 146 173 207 261 325
#     4   9  18  33  55  80 107 141 177 213 261 318
#     4   9  20  40  56  73 107 146 178 217 265 317
#     4  10  21  35  54  78 110 144 175 212 267 319
#
# _framework density 19.632559000000001
#
# number of rings (size 3 to 8) (size 9 to 14) (size 15 to 20)
#    0.000    2.167    0.000    4.500    0.000    6.667 
#    0.000    5.833    0.000    5.000    0.000    0.000 
#    0.000    0.000    0.000    0.000    0.000    0.000 
#
# Total GULP energy -297551.145007 kJ/mol
# GULP energy per Si atom -12397.964375 kJ/mol
# Density = 1.958787 g / cm^3
# Si number density = 19.632559 Si / 1000 Ang^3
#
#
#
# Elastic Constant Matrix: (Units=GPa)
#
#
# Indices 1 2 3 4 5 6 
#
# 1 116.4786 15.7807 46.8569 0.0000 -2.3912 0.0000
# 2 15.7807 71.8177 33.9211 0.0000 -5.8246 0.0000
# 3 46.8569 33.9211 148.5309 0.0000 -7.0402 0.0000
# 4 0.0000 0.0000 0.0000 9.0432 0.0000 0.0809
# 5 -2.3912 -5.8246 -7.0402 0.0000 19.8259 0.0000
# 6 0.0000 0.0000 0.0000 0.0809 0.0000 21.0169
#
#
#
# Elastic Compliance Matrix: (Units=1/GPa)
#
#
# Indices 1 2 3 4 5 6 
#
# 1 0.009872 -0.000788 -0.002938 0.000000 -0.000084 0.000000
# 2 -0.000788 0.015896 -0.003219 0.000000 0.003432 0.000000
# 3 -0.002938 -0.003219 0.008476 0.000000 0.001710 0.000000
# 4 0.000000 0.000000 0.000000 0.110584 0.000000 -0.000426
# 5 -0.000084 0.003432 0.001710 0.000000 0.052044 0.000000
# 6 0.000000 0.000000 0.000000 -0.000426 0.000000 0.047582
#
#
# Mechanical properties :
#
#
# Convention : Reuss Voigt Hill
#
# Bulk Modulus (GPa) = 49.13287 58.88274 54.00780
# Shear Modulus (GPa) = 18.85863 25.99511 22.42687
#
# Velocity S-wave (km/s) = 3.10268 3.64274 3.38350
# Velocity P-wave (km/s) = 6.15760 6.91016 6.54471
#
# Compressibility (1/GPa) = 0.02035297
#
# Stress axis : x y z
#
# Youngs Moduli (GPa) = 101.29262 62.90863 117.98353
#
# Poissons Ratio (x) = 0.04959 0.34668
# Poissons Ratio (y) = 0.07984 0.37979
# Poissons Ratio (z) = 0.29764 0.20250
#
# Static dielectric constant tensor:
#      x y z
#    x 3.669060 0.000000 -0.092550 
#    y 0.000000 3.384970 0.000000 
#    z -0.092550 0.000000 3.500320 
# 
# 
# High freq. dielectric constant tensor:
#      x y z
#    x 1.770480 0.000000 -0.009980 
#    y 0.000000 1.743250 0.000000 
#    z -0.009980 0.000000 1.757980 
# 
# From -- ./inp_files/85699.got.cif
#   From: 2010.06.25/outbox.cif.g09.slc.cpg/sg12_43_cif.got.tgz:85699.got - 2010.06.28 00:19:55.
