data_PCOD8097759
_publ_section_title
;
Structure prediction by ZEFSAII (Michael W. Deem and Ramdas Pophale) SiO2 
 PCOD8097759
Probable space group: C 2/M
;
_chemical_formula_sum "Si O2"
_cell_formula_units_Z 64
_cell_length_a 20.401619
_cell_length_b 9.179273
_cell_length_c 20.274624
_cell_angle_alpha 90.000000
_cell_angle_beta 60.139479
_cell_angle_gamma 90.000000
_cell_volume 3292.797619
_symmetry_space_group_name_H-M "C 2/M"
_symmetry_group_IT_number 12
_symmetry_cell_setting 'monoclinic'
loop_
_space_group_symop_operation_xyz
x,y,z
-x,y,-z
-x,-y,-z
x,-y,z
1/2+x,1/2+y,z
1/2-x,1/2+y,-z
1/2-x,1/2-y,-z
1/2+x,1/2-y,z
loop_
_atom_site_type_symbol
_atom_site_label
_atom_site_fract_x
_atom_site_fract_y
_atom_site_fract_z
Si Si1 0.663279 0.672041 0.405865
Si Si2 0.164364 0.329984 0.658783
Si Si3 0.331042 0.169434 0.846957
Si Si4 0.162557 0.827511 0.904613
Si Si5 0.919662 0.172846 0.183632
Si Si6 0.586940 0.831714 0.327096
Si Si7 0.586138 0.169006 0.562670
Si Si8 0.409162 0.672280 0.924588
O O1 0.653874 0.500000 0.410572
O O2 0.749269 0.719434 0.376205
O O3 0.638604 0.733727 0.347905
O O4 0.609607 0.736467 0.488665
O O5 0.153055 0.500000 0.679053
O O6 0.111685 0.241608 0.734257
O O7 0.139420 0.290772 0.597275
O O8 0.248847 0.225046 0.865468
O O9 0.390389 0.201320 0.759275
O O10 0.353307 0.258116 0.899966
O O11 0.328791 0.000000 0.866795
O O12 0.126776 0.764215 0.855435
O O13 0.157179 0.000000 0.904375
O O14 0.115095 0.770693 0.991082
O O15 0.005806 0.223047 0.131740
O O16 0.912615 0.000000 0.192652
O O17 0.499617 0.789752 0.377402
O O18 0.601887 0.000000 0.337670
O O19 0.593651 0.000000 0.539956
O O20 0.400513 0.500000 0.924010
#
# Coordination Sequence:
#
# PCOD8097759 Si02
#       8
#     8   8   8   8   8   8   8   8
#     4  11  23  37  56  83 111 138 173 222 273 316
#     4  10  22  39  57  80 110 141 175 220 271 317
#     4  10  20  35  56  79 106 144 184 218 258 316
#     4   9  18  34  55  79 108 143 182 220 261 314
#     4  10  20  35  57  81 105 140 183 222 263 315
#     4  10  21  37  57  80 107 143 183 219 260 315
#     4  10  21  38  58  78 106 145 182 216 260 318
#     4  10  20  34  54  81 111 140 175 224 273 312
#
# _framework density 19.436358999999999
#
# number of rings (size 3 to 8) (size 9 to 14) (size 15 to 20)
#    0.000    2.000    0.000    3.375    0.000    8.000 
#    0.000    1.250    0.000    1.500    0.000    0.000 
#    0.000    0.000    0.000    0.000    0.000    0.000 
#
# Total GULP energy -396953.808821 kJ/mol
# GULP energy per Si atom -12404.806526 kJ/mol
# Density = 1.939212 g / cm^3
# Si number density = 19.436359 Si / 1000 Ang^3
#
#
#
# Elastic Constant Matrix: (Units=GPa)
#
#
# Indices 1 2 3 4 5 6 
#
# 1 85.3963 17.1893 -4.4022 0.0000 -0.0116 0.0006
# 2 17.1893 31.6373 16.9538 -0.0002 -1.2803 0.0016
# 3 -4.4022 16.9538 72.2397 -0.0001 -8.8284 0.0001
# 4 0.0000 -0.0002 -0.0001 28.9858 0.0000 6.6145
# 5 -0.0116 -1.2803 -8.8284 0.0000 38.4276 -0.0001
# 6 0.0006 0.0016 0.0001 6.6145 -0.0001 30.3215
#
#
#
# Elastic Compliance Matrix: (Units=1/GPa)
#
#
# Indices 1 2 3 4 5 6 
#
# 1 0.013681 -0.009025 0.003000 0.000000 0.000393 0.000000
# 2 -0.009025 0.042131 -0.010563 0.000001 -0.001026 -0.000002
# 3 0.003000 -0.010563 0.016937 0.000000 0.003540 0.000000
# 4 0.000000 0.000001 0.000000 0.036307 0.000000 -0.007920
# 5 0.000393 -0.001026 0.003540 0.000000 0.026802 0.000000
# 6 0.000000 -0.000002 0.000000 -0.007920 0.000000 0.034708
#
#
# Mechanical properties :
#
#
# Convention : Reuss Voigt Hill
#
# Bulk Modulus (GPa) = 25.26977 27.63945 26.45461
# Shear Modulus (GPa) = 23.04852 30.18248 26.61550
#
# Velocity S-wave (km/s) = 3.44735 3.94494 3.70451
# Velocity P-wave (km/s) = 5.37356 5.91620 5.65140
#
# Compressibility (1/GPa) = 0.03957298
#
# Stress axis : x y z
#
# Youngs Moduli (GPa) = 73.09172 23.73566 59.04150
#
# Poissons Ratio (x) = 0.21422 -0.17711
# Poissons Ratio (y) = 0.65966 0.62365
# Poissons Ratio (z) = -0.21926 0.25072
#
# Static dielectric constant tensor:
#      x y z
#    x 3.766220 0.000000 -0.050690 
#    y 0.000000 3.301010 0.000000 
#    z -0.050690 0.000000 3.631060 
# 
# 
# High freq. dielectric constant tensor:
#      x y z
#    x 1.774290 0.000000 -0.001990 
#    y 0.000000 1.732220 0.000000 
#    z -0.001990 0.000000 1.771740 
# 
# From -- ./inp_files/319781.got.cif
#   From: 2010.06.25/outbox.cif.g09.slc.cpg/sg12_160_cif.got.tgz:319781.got - 2010.06.28 00:19:55.
