data_PCOD8097330
_publ_section_title
;
Structure prediction by ZEFSAII (Michael W. Deem and Ramdas Pophale) SiO2 
 PCOD8097330
Probable space group: C 2/M
;
_chemical_formula_sum "Si O2"
_cell_formula_units_Z 56
_cell_length_a 28.341098
_cell_length_b 8.723873
_cell_length_c 19.100006
_cell_angle_alpha 90.000000
_cell_angle_beta 137.684316
_cell_angle_gamma 90.000000
_cell_volume 3179.166429
_symmetry_space_group_name_H-M "C 2/M"
_symmetry_group_IT_number 12
_symmetry_cell_setting 'monoclinic'
loop_
_space_group_symop_operation_xyz
x,y,z
-x,y,-z
-x,-y,-z
x,-y,z
1/2+x,1/2+y,z
1/2-x,1/2+y,-z
1/2-x,1/2-y,-z
1/2+x,1/2-y,z
loop_
_atom_site_type_symbol
_atom_site_label
_atom_site_fract_x
_atom_site_fract_y
_atom_site_fract_z
Si Si1 0.201177 0.820468 0.689958
Si Si2 0.445740 0.177448 0.502048
Si Si3 0.642712 0.822075 0.379286
Si Si4 0.485914 0.680805 0.690913
Si Si5 0.259408 0.677608 0.620934
Si Si6 0.746553 0.179852 0.101633
Si Si7 0.142155 0.819021 0.888887
O O1 0.130619 0.723135 0.608287
O O2 0.253329 0.777438 0.684324
O O3 0.240085 0.773174 0.803902
O O4 0.182882 0.000000 0.668272
O O5 0.500000 0.210130 0.500000
O O6 0.467358 0.280199 0.591080
O O7 0.445007 0.000000 0.524126
O O8 0.565026 0.765027 0.310613
O O9 0.671257 0.729019 0.344099
O O10 0.690630 0.788616 0.499348
O O11 0.642654 0.000000 0.359792
O O12 0.478668 0.500000 0.693518
O O13 0.563508 0.742897 0.793015
O O14 0.265655 0.500000 0.647365
O O15 0.811345 0.240320 0.125480
O O16 0.737872 0.000000 0.083283
O O17 0.674458 0.257252 0.996852
O O18 0.141050 0.000000 0.889882
#
# Coordination Sequence:
#
# PCOD8097330 Si02
#       7
#     8   8   8   8   8   8   8
#     4  11  21  34  54  78 107 140 175 216 265 316
#     4  11  23  35  48  73 108 143 177 213 259 313
#     4  10  20  34  53  77 107 139 176 216 260 314
#     4  11  21  34  54  78 107 140 175 216 265 316
#     4  10  20  34  53  77 107 139 176 216 260 314
#     4   9  19  35  54  77 104 138 180 220 259 307
#     4   9  19  35  54  77 104 138 180 220 259 307
#
# _framework density 17.614681000000001
#
# number of rings (size 3 to 8) (size 9 to 14) (size 15 to 20)
#    0.000    1.857    1.429    3.000    0.000    5.714 
#    0.000    2.857    0.000    0.857    0.000    6.000 
#    0.000    0.000    0.000    0.000    0.000    0.000 
#
# Total GULP energy -347327.053608 kJ/mol
# GULP energy per Si atom -12404.537629 kJ/mol
# Density = 1.757459 g / cm^3
# Si number density = 17.614681 Si / 1000 Ang^3
#
#
#
# Elastic Constant Matrix: (Units=GPa)
#
#
# Indices 1 2 3 4 5 6 
#
# 1 102.5708 23.2012 48.9791 0.0000 -0.5344 0.0000
# 2 23.2012 30.9314 17.1301 0.0000 0.2879 0.0000
# 3 48.9791 17.1301 90.6618 0.0000 -2.2593 0.0000
# 4 0.0000 0.0000 0.0000 28.0017 0.0000 -0.3481
# 5 -0.5344 0.2879 -2.2593 0.0000 23.5298 0.0000
# 6 0.0000 0.0000 0.0000 -0.3481 0.0000 31.5392
#
#
#
# Elastic Compliance Matrix: (Units=1/GPa)
#
#
# Indices 1 2 3 4 5 6 
#
# 1 0.014476 -0.007285 -0.006449 0.000000 -0.000201 0.000000
# 2 -0.007285 0.039802 -0.003610 0.000000 -0.000999 0.000000
# 3 -0.006449 -0.003610 0.015230 0.000000 0.001360 0.000000
# 4 0.000000 0.000000 0.000000 0.035717 0.000000 0.000394
# 5 -0.000201 -0.000999 0.001360 0.000000 0.042637 0.000000
# 6 0.000000 0.000000 0.000000 0.000394 0.000000 0.031711
#
#
# Mechanical properties :
#
#
# Convention : Reuss Voigt Hill
#
# Bulk Modulus (GPa) = 28.71841 44.75388 36.73615
# Shear Modulus (GPa) = 22.13695 25.60438 23.87067
#
# Velocity S-wave (km/s) = 3.54889 3.81672 3.68524
# Velocity P-wave (km/s) = 5.75603 6.69966 6.24569
#
# Compressibility (1/GPa) = 0.03482087
#
# Stress axis : x y z
#
# Youngs Moduli (GPa) = 69.08224 25.12426 65.66024
#
# Poissons Ratio (x) = 0.18302 0.42343
# Poissons Ratio (y) = 0.50323 0.23703
# Poissons Ratio (z) = 0.44550 0.09070
#
# Static dielectric constant tensor:
#      x y z
#    x 3.360810 0.000000 0.041140 
#    y 0.000000 3.277430 0.000000 
#    z 0.041140 0.000000 3.220170 
# 
# 
# High freq. dielectric constant tensor:
#      x y z
#    x 1.683420 0.000000 0.001130 
#    y 0.000000 1.689780 0.000000 
#    z 0.001130 0.000000 1.662610 
# 
# From -- ./inp_files/288251.got.cif
#   From: 2010.06.25/outbox.cif.g09.slc.cpg/sg12_145_cif.got.tgz:288251.got - 2010.06.28 00:19:55.
