data_PCOD8097468
_publ_section_title
;
Structure prediction by ZEFSAII (Michael W. Deem and Ramdas Pophale) SiO2 
 PCOD8097468
Probable space group: C 2/M
;
_chemical_formula_sum "Si O2"
_cell_formula_units_Z 48
_cell_length_a 24.192739
_cell_length_b 8.844951
_cell_length_c 11.953450
_cell_angle_alpha 90.000000
_cell_angle_beta 101.933053
_cell_angle_gamma 90.000000
_cell_volume 2502.566845
_symmetry_space_group_name_H-M "C 2/M"
_symmetry_group_IT_number 12
_symmetry_cell_setting 'monoclinic'
loop_
_space_group_symop_operation_xyz
x,y,z
-x,y,-z
-x,-y,-z
x,-y,z
1/2+x,1/2+y,z
1/2-x,1/2+y,-z
1/2-x,1/2-y,-z
1/2+x,1/2-y,z
loop_
_atom_site_type_symbol
_atom_site_label
_atom_site_fract_x
_atom_site_fract_y
_atom_site_fract_z
Si Si1 0.546209 0.178527 0.714869
Si Si2 0.717891 0.177456 0.740601
Si Si3 0.357159 0.822902 0.085755
Si Si4 0.333191 0.175778 0.831503
Si Si5 0.879803 0.821928 0.435911
Si Si6 0.417290 0.825623 0.671374
O O1 0.584808 0.237962 0.834137
O O2 0.566845 0.255834 0.609301
O O3 0.482164 0.224771 0.712771
O O4 0.554167 0.000000 0.702152
O O5 0.695016 0.218266 0.854977
O O6 0.781151 0.236731 0.754380
O O7 0.679357 0.255890 0.631443
O O8 0.715662 0.000000 0.717370
O O9 0.363338 0.000000 0.071471
O O10 0.346873 0.751594 0.959073
O O11 0.387998 0.200645 0.778285
O O12 0.316686 0.000000 0.833596
O O13 0.886445 0.777629 0.567754
O O14 0.878692 0.000000 0.421966
O O15 0.413213 0.000000 0.631723
#
# Coordination Sequence:
#
# PCOD8097468 Si02
#       6
#     8   8   8   8   8   8
#     4   9  18  35  57  80 107 139 175 214 259 310
#     4  10  20  36  57  79 105 138 176 218 265 313
#     4   8  16  32  55  81 106 135 174 217 257 304
#     4  10  20  34  53  80 111 141 175 213 257 310
#     4  11  22  36  56  79 103 135 178 225 266 308
#     4  10  21  35  53  78 110 145 175 210 259 313
#
# _framework density 19.180306999999999
#
# number of rings (size 3 to 8) (size 9 to 14) (size 15 to 20)
#    0.000    2.333    0.000    4.000    0.000    4.667 
#    0.000    6.667    0.000    0.000    0.000    7.000 
#    0.000    0.000    0.000    0.000    0.000    0.000 
#
# Total GULP energy -297646.049403 kJ/mol
# GULP energy per Si atom -12401.918725 kJ/mol
# Density = 1.913665 g / cm^3
# Si number density = 19.180307 Si / 1000 Ang^3
#
#
#
# Elastic Constant Matrix: (Units=GPa)
#
#
# Indices 1 2 3 4 5 6 
#
# 1 79.9696 20.2169 34.0099 0.0000 7.4908 0.0000
# 2 20.2169 62.2858 28.2318 0.0000 2.7343 0.0000
# 3 34.0099 28.2318 76.9762 0.0000 6.3766 0.0000
# 4 0.0000 0.0000 0.0000 18.6704 0.0000 3.9824
# 5 7.4908 2.7343 6.3766 0.0000 21.3071 0.0000
# 6 0.0000 0.0000 0.0000 3.9824 0.0000 23.2251
#
#
#
# Elastic Compliance Matrix: (Units=1/GPa)
#
#
# Indices 1 2 3 4 5 6 
#
# 1 0.015933 -0.002349 -0.005885 0.000000 -0.003539 0.000000
# 2 -0.002349 0.019605 -0.006166 0.000000 0.000155 0.000000
# 3 -0.005885 -0.006166 0.018063 0.000000 -0.002546 0.000000
# 4 0.000000 0.000000 0.000000 0.055594 0.000000 -0.009533
# 5 -0.003539 0.000155 -0.002546 0.000000 0.048919 0.000000
# 6 0.000000 0.000000 0.000000 -0.009533 0.000000 0.044691
#
#
# Mechanical properties :
#
#
# Convention : Reuss Voigt Hill
#
# Bulk Modulus (GPa) = 40.31789 42.68321 41.50055
# Shear Modulus (GPa) = 20.84449 21.75870 21.30160
#
# Velocity S-wave (km/s) = 3.30019 3.37178 3.33618
# Velocity P-wave (km/s) = 5.96555 6.12050 6.04352
#
# Compressibility (1/GPa) = 0.02480288
#
# Stress axis : x y z
#
# Youngs Moduli (GPa) = 62.76367 51.00693 55.36096
#
# Poissons Ratio (x) = 0.11980 0.32579
# Poissons Ratio (y) = 0.14742 0.34133
# Poissons Ratio (z) = 0.36936 0.31448
#
# Static dielectric constant tensor:
#      x y z
#    x 3.510710 0.000000 0.115990 
#    y 0.000000 3.267620 0.000000 
#    z 0.115990 0.000000 3.677810 
# 
# 
# High freq. dielectric constant tensor:
#      x y z
#    x 1.747250 0.000000 0.007880 
#    y 0.000000 1.722840 0.000000 
#    z 0.007880 0.000000 1.750770 
# 
# From -- ./inp_files/172181.got.cif
#   From: 2010.06.25/outbox.cif.g09.slc.cpg/sg12_87_cif.got.tgz:172181.got - 2010.06.28 00:19:55.
