data_PCOD8097407
_publ_section_title
;
Structure prediction by ZEFSAII (Michael W. Deem and Ramdas Pophale) SiO2 
 PCOD8097407
Probable space group: C 2/M
;
_chemical_formula_sum "Si O2"
_cell_formula_units_Z 56
_cell_length_a 29.027145
_cell_length_b 9.170606
_cell_length_c 11.081182
_cell_angle_alpha 90.000000
_cell_angle_beta 78.320048
_cell_angle_gamma 90.000000
_cell_volume 2888.693132
_symmetry_space_group_name_H-M "C 2/M"
_symmetry_group_IT_number 12
_symmetry_cell_setting 'monoclinic'
loop_
_space_group_symop_operation_xyz
x,y,z
-x,y,-z
-x,-y,-z
x,-y,z
1/2+x,1/2+y,z
1/2-x,1/2+y,-z
1/2-x,1/2-y,-z
1/2+x,1/2-y,z
loop_
_atom_site_type_symbol
_atom_site_label
_atom_site_fract_x
_atom_site_fract_y
_atom_site_fract_z
Si Si1 0.268225 0.828934 0.871802
Si Si2 0.561190 0.829069 0.217538
Si Si3 0.871168 0.168907 0.432266
Si Si4 0.676274 0.331793 0.784952
Si Si5 0.454171 0.170447 0.281647
Si Si6 0.645075 0.329038 0.289834
Si Si7 0.094115 0.330282 0.936357
O O1 0.230875 0.801752 0.783994
O O2 0.317319 0.759699 0.807222
O O3 0.275467 0.000000 0.894253
O O4 0.250000 0.750000 0.000000
O O5 0.507882 0.786829 0.278692
O O6 0.593639 0.729806 0.284075
O O7 0.571165 0.000000 0.235278
O O8 0.569537 0.787523 0.073893
O O9 0.835380 0.220515 0.345407
O O10 0.920803 0.251831 0.396434
O O11 0.846622 0.202267 0.572899
O O12 0.883200 0.000000 0.413597
O O13 0.663891 0.500000 0.808006
O O14 0.644464 0.247793 0.899151
O O15 0.440228 0.219838 0.153570
O O16 0.446499 0.000000 0.301465
O O17 0.649037 0.500000 0.257511
O O18 0.104678 0.500000 0.923954
#
# Coordination Sequence:
#
# PCOD8097407 Si02
#       7
#     8   8   8   8   8   8   8
#     4  11  23  39  60  85 112 140 173 215 265 321
#     4  10  20  34  53  78 110 145 180 222 271 319
#     4   9  20  39  57  76 106 142 180 222 267 314
#     4   9  19  36  57  79 105 139 177 219 265 314
#     4   9  18  33  55  81 107 139 180 224 268 318
#     4  11  24  39  55  77 108 144 182 223 265 314
#     4   9  17  31  53  81 110 139 174 218 268 320
#
# _framework density 19.385929999999998
#
# number of rings (size 3 to 8) (size 9 to 14) (size 15 to 20)
#    0.000    2.286    0.000    2.143    0.000    8.571 
#    0.000    2.857    0.000    4.286    0.000    0.000 
#    0.000    0.000    0.000    0.000    0.000    0.000 
#
# Total GULP energy -347256.070126 kJ/mol
# GULP energy per Si atom -12402.002505 kJ/mol
# Density = 1.934181 g / cm^3
# Si number density = 19.385930 Si / 1000 Ang^3
#
#
#
# Elastic Constant Matrix: (Units=GPa)
#
#
# Indices 1 2 3 4 5 6 
#
# 1 99.3993 39.6142 31.6944 0.0000 1.2526 0.0000
# 2 39.6142 63.2954 39.3725 0.0000 2.4253 0.0000
# 3 31.6944 39.3725 89.1417 0.0000 -0.8381 0.0000
# 4 0.0000 0.0000 0.0000 30.8913 0.0000 -3.2857
# 5 1.2526 2.4253 -0.8381 0.0000 19.1539 0.0000
# 6 0.0000 0.0000 0.0000 -3.2857 0.0000 32.8362
#
#
#
# Elastic Compliance Matrix: (Units=1/GPa)
#
#
# Indices 1 2 3 4 5 6 
#
# 1 0.013543 -0.007558 -0.001477 0.000000 0.000007 0.000000
# 2 -0.007558 0.026197 -0.008914 0.000000 -0.003213 0.000000
# 3 -0.001477 -0.008914 0.015698 0.000000 0.001912 0.000000
# 4 0.000000 0.000000 0.000000 0.032720 0.000000 0.003274
# 5 0.000007 -0.003213 0.001912 0.000000 0.052699 0.000000
# 6 0.000000 0.000000 0.000000 0.003274 0.000000 0.030782
#
#
# Mechanical properties :
#
#
# Convention : Reuss Voigt Hill
#
# Bulk Modulus (GPa) = 51.17372 52.57762 51.87567
# Shear Modulus (GPa) = 23.35901 25.98663 24.67282
#
# Velocity S-wave (km/s) = 3.47500 3.66524 3.57139
# Velocity P-wave (km/s) = 6.52346 6.71509 6.61997
#
# Compressibility (1/GPa) = 0.01954128
#
# Stress axis : x y z
#
# Youngs Moduli (GPa) = 73.83694 38.17244 63.70075
#
# Poissons Ratio (x) = 0.28849 0.09410
# Poissons Ratio (y) = 0.55803 0.56782
# Poissons Ratio (z) = 0.10907 0.34026
#
# Static dielectric constant tensor:
#      x y z
#    x 3.703130 0.000000 0.166030 
#    y 0.000000 3.509550 0.000000 
#    z 0.166030 0.000000 3.587110 
# 
# 
# High freq. dielectric constant tensor:
#      x y z
#    x 1.758520 0.000000 0.004880 
#    y 0.000000 1.750510 0.000000 
#    z 0.004880 0.000000 1.752960 
# 
# From -- ./inp_files/180713.got.cif
#   From: 2010.06.25/outbox.cif.g09.slc.cpg/sg12_91_cif.got.tgz:180713.got - 2010.06.28 00:19:55.
