data_PCOD8097068
_publ_section_title
;
Structure prediction by ZEFSAII (Michael W. Deem and Ramdas Pophale) SiO2 
 PCOD8097068
Probable space group: C 2/M
;
_chemical_formula_sum "Si O2"
_cell_formula_units_Z 48
_cell_length_a 23.594113
_cell_length_b 8.491136
_cell_length_c 23.204522
_cell_angle_alpha 90.000000
_cell_angle_beta 145.686802
_cell_angle_gamma 90.000000
_cell_volume 2620.611788
_symmetry_space_group_name_H-M "C 2/M"
_symmetry_group_IT_number 12
_symmetry_cell_setting 'monoclinic'
loop_
_space_group_symop_operation_xyz
x,y,z
-x,y,-z
-x,-y,-z
x,-y,z
1/2+x,1/2+y,z
1/2-x,1/2+y,-z
1/2-x,1/2-y,-z
1/2+x,1/2-y,z
loop_
_atom_site_type_symbol
_atom_site_label
_atom_site_fract_x
_atom_site_fract_y
_atom_site_fract_z
Si Si1 0.000128 0.183443 0.625417
Si Si2 0.096053 0.816678 0.115725
Si Si3 0.339017 0.184265 0.711473
Si Si4 0.358466 0.686268 0.609614
Si Si5 0.360242 0.181381 0.418251
Si Si6 0.704253 0.679353 0.751386
O O1 0.960822 0.283825 0.538123
O O2 0.121098 0.214947 0.731373
O O3 0.944356 0.238452 0.636437
O O4 0.978953 0.000000 0.595423
O O5 0.098814 0.725508 0.178764
O O6 0.196211 0.787044 0.161400
O O7 0.086700 0.000000 0.121599
O O8 0.000000 0.754510 0.000000
O O9 0.396140 0.237726 0.701479
O O10 0.234689 0.279845 0.620963
O O11 0.316704 0.000000 0.691402
O O12 0.352689 0.500000 0.610392
O O13 0.250000 0.750000 0.500000
O O14 0.352956 0.292894 0.356788
O O15 0.358194 0.000000 0.397103
O O16 0.741366 0.500000 0.785610
#
# Coordination Sequence:
#
# PCOD8097068 Si02
#       6
#     8   8   8   8   8   8
#     4  10  21  34  49  71 105 145 178 212 257 309
#     4  10  21  38  60  83 105 131 168 220 275 321
#     4  11  21  34  53  78 108 140 178 221 262 310
#     4  11  21  34  52  75 107 147 186 218 255 305
#     4  11  20  30  48  73 104 141 178 217 257 307
#     4  10  20  34  52  75 104 137 173 214 263 318
#
# _framework density 18.316334999999999
#
# number of rings (size 3 to 8) (size 9 to 14) (size 15 to 20)
#    0.000    1.500    1.667    7.000    0.000    5.333 
#    0.000    0.000    0.000    1.000    0.000    0.000 
#    0.000    0.000    0.000    0.000    0.000    0.000 
#
# Total GULP energy -297566.763067 kJ/mol
# GULP energy per Si atom -12398.615128 kJ/mol
# Density = 1.827465 g / cm^3
# Si number density = 18.316335 Si / 1000 Ang^3
#
#
#
# Elastic Constant Matrix: (Units=GPa)
#
#
# Indices 1 2 3 4 5 6 
#
# 1 110.3740 9.8233 46.2843 0.0000 14.4937 0.0000
# 2 9.8233 53.7892 17.7744 0.0000 3.4376 0.0000
# 3 46.2843 17.7744 97.5894 0.0000 9.6146 0.0000
# 4 0.0000 0.0000 0.0000 24.7459 0.0000 0.4747
# 5 14.4937 3.4376 9.6146 0.0000 15.4243 0.0000
# 6 0.0000 0.0000 0.0000 0.4747 0.0000 24.7987
#
#
#
# Elastic Compliance Matrix: (Units=1/GPa)
#
#
# Indices 1 2 3 4 5 6 
#
# 1 0.012254 -0.000057 -0.004974 0.000000 -0.008402 0.000000
# 2 -0.000057 0.019859 -0.003366 0.000000 -0.002274 0.000000
# 3 -0.004974 -0.003366 0.013515 0.000000 -0.003001 0.000000
# 4 0.000000 0.000000 0.000000 0.040426 0.000000 -0.000774
# 5 -0.008402 -0.002274 -0.003001 0.000000 0.075104 0.000000
# 6 0.000000 0.000000 0.000000 -0.000774 0.000000 0.040340
#
#
# Mechanical properties :
#
#
# Convention : Reuss Voigt Hill
#
# Bulk Modulus (GPa) = 34.68118 45.50185 40.09152
# Shear Modulus (GPa) = 21.93921 25.51848 23.72885
#
# Velocity S-wave (km/s) = 3.46467 3.73662 3.60321
# Velocity P-wave (km/s) = 5.91447 6.59641 6.26472
#
# Compressibility (1/GPa) = 0.02883408
#
# Stress axis : x y z
#
# Youngs Moduli (GPa) = 81.60521 50.35471 73.99448
#
# Poissons Ratio (x) = 0.00289 0.36802
# Poissons Ratio (y) = 0.00469 0.24905
# Poissons Ratio (z) = 0.40587 0.16948
#
# Static dielectric constant tensor:
#      x y z
#    x 3.691300 0.000000 0.090430 
#    y 0.000000 3.421870 0.000000 
#    z 0.090430 0.000000 3.181680 
# 
# 
# High freq. dielectric constant tensor:
#      x y z
#    x 1.714740 0.000000 0.007370 
#    y 0.000000 1.720910 0.000000 
#    z 0.007370 0.000000 1.669310 
# 
# From -- ./inp_files/314502.got.cif
#   From: 2010.06.25/outbox.cif.g09.slc.cpg/sg12_158_cif.got.tgz:314502.got - 2010.06.28 00:19:55.
