data_PCOD8097260
_publ_section_title
;
Structure prediction by ZEFSAII (Michael W. Deem and Ramdas Pophale) SiO2 
 PCOD8097260
Probable space group: C 2/M
;
_chemical_formula_sum "Si O2"
_cell_formula_units_Z 56
_cell_length_a 18.805529
_cell_length_b 9.052809
_cell_length_c 24.222182
_cell_angle_alpha 90.000000
_cell_angle_beta 136.805994
_cell_angle_gamma 90.000000
_cell_volume 2822.520643
_symmetry_space_group_name_H-M "C 2/M"
_symmetry_group_IT_number 12
_symmetry_cell_setting 'monoclinic'
loop_
_space_group_symop_operation_xyz
x,y,z
-x,y,-z
-x,-y,-z
x,-y,z
1/2+x,1/2+y,z
1/2-x,1/2+y,-z
1/2-x,1/2-y,-z
1/2+x,1/2-y,z
loop_
_atom_site_type_symbol
_atom_site_label
_atom_site_fract_x
_atom_site_fract_y
_atom_site_fract_z
Si Si1 0.034284 0.825938 0.685523
Si Si2 0.558272 0.172701 0.587548
Si Si3 0.463866 0.171740 0.749758
Si Si4 0.578139 0.331305 0.999220
Si Si5 0.741723 0.165940 0.818072
Si Si6 0.299117 0.332040 0.731098
Si Si7 0.859358 0.670441 0.067146
O O1 0.008135 0.758761 0.610884
O O2 0.957350 0.758707 0.688249
O O3 0.151923 0.786520 0.768688
O O4 0.019046 0.000000 0.675233
O O5 0.500000 0.228834 0.500000
O O6 0.679935 0.208746 0.649875
O O7 0.539674 0.000000 0.587159
O O8 0.374202 0.225117 0.740111
O O9 0.578886 0.198015 0.840952
O O10 0.445230 0.000000 0.727938
O O11 0.549507 0.500000 0.967940
O O12 0.694456 0.320830 0.089353
O O13 0.500000 0.266411 0.000000
O O14 0.566060 0.232376 0.938463
O O15 0.815980 0.190334 0.806621
O O16 0.692727 0.000000 0.785698
O O17 0.324170 0.500000 0.727932
O O18 0.837270 0.500000 0.044876
O O19 0.750000 0.750000 0.000000
#
# Coordination Sequence:
#
# PCOD8097260 Si02
#       7
#     8   8   8   8   8   8   8
#     4  11  22  35  56  83 109 140 180 223 264 314
#     4   9  19  39  65  89 115 145 174 210 262 323
#     4  11  23  38  54  76 110 148 186 227 274 326
#     4  10  20  34  53  76 103 138 180 227 278 328
#     4   9  18  34  54  76 105 141 181 224 272 328
#     4   9  18  34  58  85 110 140 180 222 266 319
#     4  11  24  38  53  75 105 144 188 235 282 326
#
# _framework density 19.840422
#
# number of rings (size 3 to 8) (size 9 to 14) (size 15 to 20)
#    0.000    2.000    0.000    4.714    0.000   10.286 
#    0.000    0.714    0.000    0.000    0.000    0.000 
#    0.000    0.000    0.000    0.000    0.000    0.000 
#
# Total GULP energy -347235.922908 kJ/mol
# GULP energy per Si atom -12401.282961 kJ/mol
# Density = 1.979526 g / cm^3
# Si number density = 19.840422 Si / 1000 Ang^3
#
#
#
# Elastic Constant Matrix: (Units=GPa)
#
#
# Indices 1 2 3 4 5 6 
#
# 1 82.7327 50.7191 10.9816 0.0000 -17.0173 0.0000
# 2 50.7191 113.8461 37.0628 0.0000 -17.3524 0.0000
# 3 10.9816 37.0628 62.9002 0.0000 -19.3733 0.0000
# 4 0.0000 0.0000 0.0000 23.5696 0.0000 -2.7806
# 5 -17.0173 -17.3524 -19.3733 0.0000 27.9272 0.0000
# 6 0.0000 0.0000 0.0000 -2.7806 0.0000 36.5479
#
#
#
# Elastic Compliance Matrix: (Units=1/GPa)
#
#
# Indices 1 2 3 4 5 6 
#
# 1 0.018467 -0.008286 0.004500 0.000000 0.009226 0.000000
# 2 -0.008286 0.014779 -0.007616 0.000000 -0.001149 0.000000
# 3 0.004500 -0.007616 0.024146 0.000000 0.014760 0.000000
# 4 0.000000 0.000000 0.000000 0.042812 0.000000 0.003257
# 5 0.009226 -0.001149 0.014760 0.000000 0.050955 0.000000
# 6 0.000000 0.000000 0.000000 0.003257 0.000000 0.027609
#
#
# Mechanical properties :
#
#
# Convention : Reuss Voigt Hill
#
# Bulk Modulus (GPa) = 28.91082 50.77846 39.84464
# Shear Modulus (GPa) = 23.46293 28.32330 25.89312
#
# Velocity S-wave (km/s) = 3.44260 3.78240 3.61649
# Velocity P-wave (km/s) = 5.51410 6.68763 6.12902
#
# Compressibility (1/GPa) = 0.03458912
#
# Stress axis : x y z
#
# Youngs Moduli (GPa) = 54.14991 67.66154 41.41429
#
# Poissons Ratio (x) = 0.56064 -0.18636
# Poissons Ratio (y) = 0.44868 0.31540
# Poissons Ratio (z) = -0.24367 0.51530
#
# Static dielectric constant tensor:
#      x y z
#    x 3.629970 0.000000 -0.211690 
#    y 0.000000 3.482330 0.000000 
#    z -0.211690 0.000000 3.624260 
# 
# 
# High freq. dielectric constant tensor:
#      x y z
#    x 1.780430 0.000000 -0.014550 
#    y 0.000000 1.764290 0.000000 
#    z -0.014550 0.000000 1.759870 
# 
# From -- ./inp_files/342302.got.cif
#   From: 2010.06.25/outbox.cif.g09.slc.cpg/sg12_172_cif.got.tgz:342302.got - 2010.06.28 00:19:55.
