data_PCOD8097474
_publ_section_title
;
Structure prediction by ZEFSAII (Michael W. Deem and Ramdas Pophale) SiO2 
 PCOD8097474
Probable space group: C 2/M
;
_chemical_formula_sum "Si O2"
_cell_formula_units_Z 56
_cell_length_a 29.314699
_cell_length_b 8.982080
_cell_length_c 21.588729
_cell_angle_alpha 90.000000
_cell_angle_beta 149.196566
_cell_angle_gamma 90.000000
_cell_volume 2910.981284
_symmetry_space_group_name_H-M "C 2/M"
_symmetry_group_IT_number 12
_symmetry_cell_setting 'monoclinic'
loop_
_space_group_symop_operation_xyz
x,y,z
-x,y,-z
-x,-y,-z
x,-y,z
1/2+x,1/2+y,z
1/2-x,1/2+y,-z
1/2-x,1/2-y,-z
1/2+x,1/2-y,z
loop_
_atom_site_type_symbol
_atom_site_label
_atom_site_fract_x
_atom_site_fract_y
_atom_site_fract_z
Si Si1 0.881296 0.828125 0.646756
Si Si2 0.413577 0.670750 0.125183
Si Si3 0.115099 0.827335 0.770311
Si Si4 0.465013 0.175633 0.524708
Si Si5 0.282305 0.175968 0.884941
Si Si6 0.724313 0.826274 0.373594
Si Si7 0.737975 0.176446 0.706924
O O1 0.819662 0.788468 0.515893
O O2 0.854843 0.726031 0.673853
O O3 0.982240 0.792252 0.746355
O O4 0.867248 0.000000 0.649121
O O5 0.399273 0.500000 0.088166
O O6 0.365683 0.702112 0.134969
O O7 0.371560 0.777517 0.024823
O O8 0.197426 0.766792 0.825637
O O9 0.024509 0.743356 0.648148
O O10 0.098998 0.000000 0.738502
O O11 0.500000 0.236930 0.500000
O O12 0.364184 0.229520 0.415251
O O13 0.473244 0.000000 0.537943
O O14 0.284271 0.253706 0.820857
O O15 0.280721 0.000000 0.874464
O O16 0.713143 0.736970 0.296826
O O17 0.713677 0.000000 0.347360
O O18 0.747178 0.000000 0.721338
#
# Coordination Sequence:
#
# PCOD8097474 Si02
#       7
#     8   8   8   8   8   8   8
#     4   9  19  37  60  86 115 145 181 225 278 334
#     4  10  21  38  58  80 110 149 190 230 275 328
#     4  10  21  36  56  82 112 149 188 230 280 329
#     4  10  20  34  53  80 112 145 183 226 272 323
#     4  11  23  37  54  80 113 150 192 233 274 325
#     4  10  20  36  61  89 116 143 178 227 279 333
#     4  11  22  37  57  81 114 152 187 226 278 333
#
# _framework density 19.237499
#
# number of rings (size 3 to 8) (size 9 to 14) (size 15 to 20)
#    0.000    1.857    1.429    2.571    0.000    4.857 
#    0.000    0.714    0.000    4.286    0.000    0.000 
#    0.000    0.000    0.000    0.000    0.000    0.000 
#
# Total GULP energy -347341.437486 kJ/mol
# GULP energy per Si atom -12405.051339 kJ/mol
# Density = 1.919371 g / cm^3
# Si number density = 19.237499 Si / 1000 Ang^3
#
#
#
# Elastic Constant Matrix: (Units=GPa)
#
#
# Indices 1 2 3 4 5 6 
#
# 1 99.4841 35.2408 29.1022 0.0000 -19.2504 0.0000
# 2 35.2408 60.0246 28.6968 0.0000 -11.1143 0.0000
# 3 29.1022 28.6968 76.1178 0.0000 -15.6498 0.0000
# 4 0.0000 0.0000 0.0000 34.9818 0.0000 -3.7777
# 5 -19.2504 -11.1143 -15.6498 0.0000 27.3495 0.0000
# 6 0.0000 0.0000 0.0000 -3.7777 0.0000 27.9268
#
#
#
# Elastic Compliance Matrix: (Units=1/GPa)
#
#
# Indices 1 2 3 4 5 6 
#
# 1 0.013979 -0.006223 -0.001695 0.000000 0.006341 0.000000
# 2 -0.006223 0.023569 -0.006163 0.000000 0.001672 0.000000
# 3 -0.001695 -0.006163 0.017395 0.000000 0.006256 0.000000
# 4 0.000000 0.000000 0.000000 0.029010 0.000000 0.003924
# 5 0.006341 0.001672 0.006256 0.000000 0.045286 0.000000
# 6 0.000000 0.000000 0.000000 0.003924 0.000000 0.036339
#
#
# Mechanical properties :
#
#
# Convention : Reuss Voigt Hill
#
# Bulk Modulus (GPa) = 37.33813 46.85624 42.09719
# Shear Modulus (GPa) = 24.67106 27.55741 26.11423
#
# Velocity S-wave (km/s) = 3.58501 3.78892 3.68838
# Velocity P-wave (km/s) = 6.04877 6.59931 6.33002
#
# Compressibility (1/GPa) = 0.02678227
#
# Stress axis : x y z
#
# Youngs Moduli (GPa) = 71.53617 42.42844 57.48684
#
# Poissons Ratio (x) = 0.26402 0.09744
# Poissons Ratio (y) = 0.44515 0.35428
# Poissons Ratio (z) = 0.12125 0.26148
#
# Static dielectric constant tensor:
#      x y z
#    x 3.516410 0.000000 -0.023930 
#    y 0.000000 3.424300 0.000000 
#    z -0.023930 0.000000 3.375600 
# 
# 
# High freq. dielectric constant tensor:
#      x y z
#    x 1.749910 0.000000 -0.007420 
#    y 0.000000 1.747560 0.000000 
#    z -0.007420 0.000000 1.740080 
# 
# From -- ./inp_files/238897.got.cif
#   From: 2010.06.25/outbox.cif.g09.slc.cpg/sg12_120_cif.got.tgz:238897.got - 2010.06.28 00:19:55.
