data_PCOD8097736
_publ_section_title
;
Structure prediction by ZEFSAII (Michael W. Deem and Ramdas Pophale) SiO2 
 PCOD8097736
Probable space group: C 2/M
;
_chemical_formula_sum "Si O2"
_cell_formula_units_Z 64
_cell_length_a 18.398439
_cell_length_b 19.681050
_cell_length_c 15.610583
_cell_angle_alpha 90.000000
_cell_angle_beta 144.392516
_cell_angle_gamma 90.000000
_cell_volume 3291.109459
_symmetry_space_group_name_H-M "C 2/M"
_symmetry_group_IT_number 12
_symmetry_cell_setting 'monoclinic'
loop_
_space_group_symop_operation_xyz
x,y,z
-x,y,-z
-x,-y,-z
x,-y,z
1/2+x,1/2+y,z
1/2-x,1/2+y,-z
1/2-x,1/2-y,-z
1/2+x,1/2-y,z
loop_
_atom_site_type_symbol
_atom_site_label
_atom_site_fract_x
_atom_site_fract_y
_atom_site_fract_z
Si Si1 0.219056 0.577909 0.559339
Si Si2 0.132950 0.425082 0.881194
Si Si3 0.027502 0.375020 0.617438
Si Si4 0.634542 0.077600 0.297905
Si Si5 0.646627 0.671992 0.916809
Si Si6 0.560208 0.655431 0.150875
Si Si7 0.368324 0.197400 0.831092
Si Si8 0.314860 0.253206 0.203836
O O1 0.184515 0.500000 0.551024
O O2 0.107473 0.631005 0.468785
O O3 0.236032 0.581560 0.472523
O O4 0.332583 0.601099 0.727664
O O5 0.170396 0.500000 0.944627
O O6 0.115454 0.421388 0.761276
O O7 0.005332 0.402660 0.805049
O O8 0.248667 0.379223 0.017901
O O9 0.000000 0.410151 0.500000
O O10 0.094797 0.302576 0.667548
O O11 0.674186 0.133704 0.266969
O O12 0.635014 0.000000 0.261363
O O13 0.533229 0.639206 0.860262
O O14 0.599505 0.704840 0.781914
O O15 0.702925 0.724667 0.038549
O O16 0.613421 0.732408 0.204626
O O17 0.500000 0.640614 0.000000
O O18 0.253989 0.204536 0.788182
O O19 0.500000 0.178276 0.000000
#
# Coordination Sequence:
#
# PCOD8097736 Si02
#       8
#     8   8   8   8   8   8   8   8
#     4  10  23  41  59  83 118 156 196 240 293 352
#     4   9  19  34  56  83 111 150 193 232 284 347
#     4  10  20  34  54  80 114 144 187 241 280 338
#     4   9  20  39  60  87 119 155 198 244 293 346
#     4  10  20  36  57  80 116 154 187 233 292 344
#     4  11  23  38  57  89 117 153 197 241 292 356
#     4  11  20  35  60  90 125 152 191 250 291 342
#     4  10  20  36  56  83 115 150 189 238 291 338
#
# _framework density 19.446328999999999
#
# number of rings (size 3 to 8) (size 9 to 14) (size 15 to 20)
#    0.000    2.000    2.500    2.625    7.000    2.500 
#    2.250    0.625    0.000    0.000    0.000    1.750 
#    0.000    0.000    0.000    0.000    0.000    0.000 
#
# Total GULP energy -396453.527165 kJ/mol
# GULP energy per Si atom -12389.172724 kJ/mol
# Density = 1.940207 g / cm^3
# Si number density = 19.446329 Si / 1000 Ang^3
#
#
#
# Elastic Constant Matrix: (Units=GPa)
#
#
# Indices 1 2 3 4 5 6 
#
# 1 100.5970 46.0240 25.7914 0.0000 -3.6384 0.0000
# 2 46.0240 86.9821 40.4456 0.0000 -7.4082 0.0000
# 3 25.7914 40.4456 61.1640 0.0000 -0.7135 0.0000
# 4 0.0000 0.0000 0.0000 22.9907 0.0000 -2.2013
# 5 -3.6384 -7.4082 -0.7135 0.0000 20.9025 0.0000
# 6 0.0000 0.0000 0.0000 -2.2013 0.0000 27.4624
#
#
#
# Elastic Compliance Matrix: (Units=1/GPa)
#
#
# Indices 1 2 3 4 5 6 
#
# 1 0.013194 -0.006345 -0.001368 0.000000 0.000001 0.000000
# 2 -0.006345 0.020313 -0.010689 0.000000 0.005730 0.000000
# 3 -0.001368 -0.010689 0.023957 0.000000 -0.003209 0.000000
# 4 0.000000 0.000000 0.000000 0.043832 0.000000 0.003514
# 5 0.000001 0.005730 -0.003209 0.000000 0.049762 0.000000
# 6 0.000000 0.000000 0.000000 0.003514 0.000000 0.036695
#
#
# Mechanical properties :
#
#
# Convention : Reuss Voigt Hill
#
# Bulk Modulus (GPa) = 48.40472 52.58503 50.49487
# Shear Modulus (GPa) = 21.60333 23.36993 22.48663
#
# Velocity S-wave (km/s) = 3.33666 3.47041 3.40419
# Velocity P-wave (km/s) = 6.30792 6.56949 6.44003
#
# Compressibility (1/GPa) = 0.02065914
#
# Stress axis : x y z
#
# Youngs Moduli (GPa) = 75.78957 49.23066 41.74076
#
# Poissons Ratio (x) = 0.31239 0.05709
# Poissons Ratio (y) = 0.48091 0.44619
# Poissons Ratio (z) = 0.10367 0.52625
#
# Static dielectric constant tensor:
#      x y z
#    x 3.609240 0.000000 -0.122120 
#    y 0.000000 3.426530 0.000000 
#    z -0.122120 0.000000 3.429490 
# 
# 
# High freq. dielectric constant tensor:
#      x y z
#    x 1.752770 0.000000 -0.008360 
#    y 0.000000 1.742420 0.000000 
#    z -0.008360 0.000000 1.740730 
# 
# From -- ./inp_files/226906.got.cif
#   From: 2010.06.25/outbox.cif.g09.slc.cpg/sg12_114_cif.got.tgz:226906.got - 2010.06.28 00:19:55.
