data_PCOD8097305
_publ_section_title
;
Structure prediction by ZEFSAII (Michael W. Deem and Ramdas Pophale) SiO2 
 PCOD8097305
Probable space group: C 2/M
;
_chemical_formula_sum "Si O2"
_cell_formula_units_Z 64
_cell_length_a 19.818858
_cell_length_b 9.301174
_cell_length_c 35.108647
_cell_angle_alpha 90.000000
_cell_angle_beta 147.660942
_cell_angle_gamma 90.000000
_cell_volume 3461.992878
_symmetry_space_group_name_H-M "C 2/M"
_symmetry_group_IT_number 12
_symmetry_cell_setting 'monoclinic'
loop_
_space_group_symop_operation_xyz
x,y,z
-x,y,-z
-x,-y,-z
x,-y,z
1/2+x,1/2+y,z
1/2-x,1/2+y,-z
1/2-x,1/2-y,-z
1/2+x,1/2-y,z
loop_
_atom_site_type_symbol
_atom_site_label
_atom_site_fract_x
_atom_site_fract_y
_atom_site_fract_z
Si Si1 0.306517 0.328855 0.205672
Si Si2 0.362625 0.170837 0.942997
Si Si3 0.377719 0.831448 0.816232
Si Si4 0.348206 0.832563 0.021410
Si Si5 0.688097 0.329057 0.290589
Si Si6 0.464352 0.830834 0.442049
Si Si7 0.716639 0.830987 0.522103
Si Si8 0.583222 0.670472 0.321011
O O1 0.305559 0.500000 0.203583
O O2 0.235208 0.266712 0.134515
O O3 0.236165 0.278322 0.210618
O O4 0.449340 0.268553 0.272261
O O5 0.369168 0.000000 0.942816
O O6 0.500000 0.236250 0.000000
O O7 0.321023 0.217239 0.965305
O O8 0.508389 0.794936 0.899424
O O9 0.374444 0.745116 0.775469
O O10 0.365727 0.000000 0.801747
O O11 0.322626 0.000000 0.014494
O O12 0.250000 0.750000 0.000000
O O13 0.682586 0.500000 0.282402
O O14 0.831477 0.271307 0.363336
O O15 0.610357 0.279050 0.290824
O O16 0.500000 0.762049 0.500000
O O17 0.572727 0.792416 0.463598
O O18 0.449932 0.000000 0.441058
O O19 0.750000 0.750000 0.500000
O O20 0.806721 0.773279 0.598769
O O21 0.735182 0.000000 0.524725
O O22 0.582414 0.500000 0.321336
#
# Coordination Sequence:
#
# PCOD8097305 Si02
#       8
#     8   8   8   8   8   8   8   8
#     4   9  17  30  50  75 102 131 170 216 256 298
#     4   9  15  29  52  74  95 128 174 213 244 293
#     4  10  21  36  52  76 111 141 165 207 269 318
#     4  10  21  35  54  80 107 136 172 216 262 307
#     4  10  20  34  55  79 103 136 179 217 254 309
#     4   9  16  32  55  75  99 135 176 217 257 300
#     4  10  20  34  53  77 105 135 172 218 265 308
#     4   9  18  32  51  76 101 132 177 220 252 297
#
# _framework density 18.486463000000001
#
# number of rings (size 3 to 8) (size 9 to 14) (size 15 to 20)
#    0.000    2.500    2.500    0.000    3.500    0.500 
#    0.000    0.625    0.000    2.625    0.000    0.000 
#    0.000    0.000    0.000    0.000    0.000    0.000 
#
# Total GULP energy -396736.071714 kJ/mol
# GULP energy per Si atom -12398.002241 kJ/mol
# Density = 1.844439 g / cm^3
# Si number density = 18.486463 Si / 1000 Ang^3
#
#
#
# Elastic Constant Matrix: (Units=GPa)
#
#
# Indices 1 2 3 4 5 6 
#
# 1 148.9836 33.1618 49.2123 0.0000 -1.8628 -0.0001
# 2 33.1618 21.8325 21.4287 0.0001 -3.4840 -0.0003
# 3 49.2123 21.4287 79.7631 0.0000 -4.1987 0.0000
# 4 0.0000 0.0001 0.0000 18.1624 0.0000 -4.5996
# 5 -1.8628 -3.4840 -4.1987 0.0000 42.1152 0.0000
# 6 -0.0001 -0.0003 0.0000 -4.5996 0.0000 26.8546
#
#
#
# Elastic Compliance Matrix: (Units=1/GPa)
#
#
# Indices 1 2 3 4 5 6 
#
# 1 0.010688 -0.013395 -0.003045 0.000000 -0.000939 0.000000
# 2 -0.013395 0.079511 -0.012849 0.000000 0.004704 0.000001
# 3 -0.003045 -0.012849 0.017899 0.000000 0.000587 0.000000
# 4 0.000000 0.000000 0.000000 0.057555 0.000000 0.009858
# 5 -0.000939 0.004704 0.000587 0.000000 0.024151 0.000000
# 6 0.000000 0.000001 0.000000 0.009858 0.000000 0.038926
#
#
# Mechanical properties :
#
#
# Convention : Reuss Voigt Hill
#
# Bulk Modulus (GPa) = 20.19398 50.90943 35.55170
# Shear Modulus (GPa) = 16.45747 27.21154 21.83450
#
# Velocity S-wave (km/s) = 2.98693 3.84079 3.44045
# Velocity P-wave (km/s) = 4.77944 6.87513 5.92075
#
# Compressibility (1/GPa) = 0.04951972
#
# Stress axis : x y z
#
# Youngs Moduli (GPa) = 93.56473 12.57687 55.87039
#
# Poissons Ratio (x) = 0.16847 0.17012
# Poissons Ratio (y) = 1.25331 0.71787
# Poissons Ratio (z) = 0.28490 0.16160
#
# Static dielectric constant tensor:
#      x y z
#    x 3.810120 0.000000 0.168460 
#    y 0.000000 2.807490 0.000000 
#    z 0.168460 0.000000 3.735480 
# 
# 
# High freq. dielectric constant tensor:
#      x y z
#    x 1.734190 0.000000 0.001700 
#    y 0.000000 1.650390 0.000000 
#    z 0.001700 0.000000 1.730640 
# 
# From -- ./inp_files/361061.got.cif
#   From: 2010.06.25/outbox.cif.g09.slc.cpg/sg12_181_cif.got.tgz:361061.got - 2010.06.28 00:19:55.
