data_PCOD8097129
_publ_section_title
;
Structure prediction by ZEFSAII (Michael W. Deem and Ramdas Pophale) SiO2 
 PCOD8097129
Probable space group: C 2/M
;
_chemical_formula_sum "Si O2"
_cell_formula_units_Z 56
_cell_length_a 14.561422
_cell_length_b 22.954291
_cell_length_c 17.377609
_cell_angle_alpha 90.000000
_cell_angle_beta 151.747846
_cell_angle_gamma 90.000000
_cell_volume 2749.429751
_symmetry_space_group_name_H-M "C 2/M"
_symmetry_group_IT_number 12
_symmetry_cell_setting 'monoclinic'
loop_
_space_group_symop_operation_xyz
x,y,z
-x,y,-z
-x,-y,-z
x,-y,z
1/2+x,1/2+y,z
1/2-x,1/2+y,-z
1/2-x,1/2-y,-z
1/2+x,1/2-y,z
loop_
_atom_site_type_symbol
_atom_site_label
_atom_site_fract_x
_atom_site_fract_y
_atom_site_fract_z
Si Si1 0.715669 0.716876 0.379598
Si Si2 0.226628 0.610997 0.941750
Si Si3 0.550466 0.000000 0.445621
Si Si4 0.666986 0.500000 0.062278
Si Si5 0.204669 0.180816 0.871436
Si Si6 0.974268 0.214861 0.067447
Si Si7 0.044137 0.834702 0.443867
Si Si8 0.660949 0.890251 0.438841
O O1 0.493127 0.712552 0.245054
O O2 0.685637 0.709385 0.265146
O O3 0.816831 0.778780 0.470199
O O4 0.851096 0.667054 0.515962
O O5 0.352612 0.555826 0.007821
O O6 0.013827 0.604105 0.750130
O O7 0.240981 0.619498 0.045308
O O8 0.313043 0.671519 0.978655
O O9 0.500000 0.000000 0.500000
O O10 0.356901 0.000000 0.253557
O O11 0.672066 0.056632 0.508188
O O12 0.500000 0.500000 0.000000
O O13 0.166229 0.171058 0.751994
O O14 0.393367 0.220439 0.020040
O O15 0.000000 0.196450 0.000000
O O16 0.150654 0.888136 0.478097
O O17 0.000000 0.847267 0.500000
#
# Coordination Sequence:
#
# PCOD8097129 Si02
#       8
#     8   8   4   4   8   8   8   8
#     4  10  20  34  53  77 110 148 179 221 273 325
#     4  10  20  36  54  75 107 144 176 219 274 322
#     4  10  24  40  61  84 108 145 185 223 273 326
#     4  10  22  38  58  82 107 137 178 223 267 322
#     4  10  20  34  52  77 108 144 180 220 273 324
#     4  11  20  31  50  80 109 140 179 223 269 324
#     4  11  21  35  56  83 110 145 184 224 273 327
#     4  10  21  39  56  78 112 146 182 229 274 323
#
# _framework density 20.367861000000001
#
# number of rings (size 3 to 8) (size 9 to 14) (size 15 to 20)
#    0.000    1.714    0.000    7.286    0.000    6.286 
#    0.000    0.357    0.000    0.000    0.000    3.500 
#    0.000    0.000    0.000    0.000    0.000    0.000 
#
# Total GULP energy -346899.451783 kJ/mol
# GULP energy per Si atom -12389.266135 kJ/mol
# Density = 2.032150 g / cm^3
# Si number density = 20.367861 Si / 1000 Ang^3
#
#
#
# Elastic Constant Matrix: (Units=GPa)
#
#
# Indices 1 2 3 4 5 6 
#
# 1 100.2134 52.9910 36.8094 -0.0003 -30.4355 -0.0001
# 2 52.9910 83.9972 27.2778 -0.0001 -8.1531 0.0001
# 3 36.8094 27.2778 87.7671 0.0020 -31.0854 0.0021
# 4 -0.0003 -0.0001 0.0020 21.7342 0.0009 -16.1477
# 5 -30.4355 -8.1531 -31.0854 0.0009 40.4035 0.0005
# 6 -0.0001 0.0001 0.0021 -16.1477 0.0005 -10.9853
#
#
#
# Elastic Compliance Matrix: (Units=1/GPa)
#
#
# Indices 1 2 3 4 5 6 
#
# 1 0.019763 -0.011119 -0.000488 0.000000 0.012269 0.000000
# 2 -0.011119 0.019511 -0.004086 0.000000 -0.007582 -0.000001
# 3 -0.000488 -0.004086 0.017108 0.000000 0.011971 0.000003
# 4 0.000000 0.000000 0.000000 0.021992 0.000000 -0.032327
# 5 0.012269 -0.007582 0.011971 0.000000 0.041672 0.000004
# 6 0.000000 -0.000001 0.000003 -0.032327 0.000004 -0.043512
#
#
# Mechanical properties :
#
#
# Convention : Reuss Voigt Hill
#
# Bulk Modulus (GPa) = 40.00547 56.23713 48.12130
# Shear Modulus (GPa) = 43.00993 20.55711 31.78352
#
# Velocity S-wave (km/s) = 4.60026 3.18038 3.95457
# Velocity P-wave (km/s) = 6.92103 6.41538 6.67300
#
# Compressibility (1/GPa) = 0.02499658
#
# Stress axis : x y z
#
# Youngs Moduli (GPa) = 50.59884 51.25416 58.45206
#
# Poissons Ratio (x) = 0.56988 0.02851
# Poissons Ratio (y) = 0.56260 0.23884
# Poissons Ratio (z) = 0.02468 0.20943
#
# Static dielectric constant tensor:
#      x y z
#    x 4.958890 -0.000020 0.475210 
#    y -0.000020 3.696370 -0.000030 
#    z 0.475210 -0.000030 5.533520 
# 
# 
# High freq. dielectric constant tensor:
#      x y z
#    x 1.788520 0.000000 -0.025880 
#    y 0.000000 1.767180 0.000000 
#    z -0.025880 0.000000 1.812530 
# 
# From -- ./inp_files/272431.got.cif
#   From: 2010.06.25/outbox.cif.g09.slc.cpg/sg12_137_cif.got.tgz:272431.got - 2010.06.28 00:19:55.
