data_PCOD8097748
_publ_section_title
;
Structure prediction by ZEFSAII (Michael W. Deem and Ramdas Pophale) SiO2 
 PCOD8097748
Probable space group: C 2/M
;
_chemical_formula_sum "Si O2"
_cell_formula_units_Z 64
_cell_length_a 29.915744
_cell_length_b 9.403191
_cell_length_c 15.998556
_cell_angle_alpha 90.000000
_cell_angle_beta 47.041098
_cell_angle_gamma 90.000000
_cell_volume 3293.620836
_symmetry_space_group_name_H-M "C 2/M"
_symmetry_group_IT_number 12
_symmetry_cell_setting 'monoclinic'
loop_
_space_group_symop_operation_xyz
x,y,z
-x,y,-z
-x,-y,-z
x,-y,z
1/2+x,1/2+y,z
1/2-x,1/2+y,-z
1/2-x,1/2-y,-z
1/2+x,1/2-y,z
loop_
_atom_site_type_symbol
_atom_site_label
_atom_site_fract_x
_atom_site_fract_y
_atom_site_fract_z
Si Si1 0.462492 0.836864 0.915134
Si Si2 0.075944 0.661036 0.216146
Si Si3 0.981916 0.835901 0.433118
Si Si4 0.584287 0.662890 0.731976
Si Si5 0.124598 0.837897 0.862819
Si Si6 0.645214 0.663398 0.483261
Si Si7 0.740789 0.167004 0.260055
Si Si8 0.205973 0.667656 0.117643
O O1 0.417857 0.826799 0.891804
O O2 0.526335 0.763777 0.813230
O O3 0.474784 0.000000 0.924485
O O4 0.429818 0.759469 0.033631
O O5 0.062029 0.500000 0.261269
O O6 0.019009 0.756044 0.314687
O O7 0.137474 0.715019 0.181924
O O8 0.000000 0.772325 0.500000
O O9 0.910387 0.812110 0.510046
O O10 0.000386 0.000000 0.403321
O O11 0.561994 0.500000 0.746385
O O12 0.626101 0.675730 0.760830
O O13 0.625354 0.712061 0.601323
O O14 0.189153 0.786278 0.817132
O O15 0.111198 0.000000 0.907367
O O16 0.666130 0.500000 0.456802
O O17 0.701491 0.757202 0.381350
O O18 0.719322 0.214635 0.195447
O O19 0.732623 0.000000 0.283642
O O20 0.215904 0.500000 0.092061
O O21 0.250000 0.750000 0.000000
#
# Coordination Sequence:
#
# PCOD8097748 Si02
#       8
#     8   8   8   8   8   8   8   8
#     4  11  22  36  57  87 117 144 185 237 286 337
#     4  10  21  35  53  80 112 145 180 222 277 333
#     4  10  20  34  54  81 109 141 185 228 269 325
#     4  10  21  39  60  82 112 150 188 230 284 342
#     4  10  22  39  59  82 110 149 192 232 282 340
#     4  10  21  37  57  82 113 148 187 232 280 332
#     4  10  22  39  58  83 114 149 191 234 277 332
#     4  10  21  37  56  81 113 149 188 229 276 330
#
# _framework density 19.431501999999998
#
# number of rings (size 3 to 8) (size 9 to 14) (size 15 to 20)
#    0.000    1.875    1.250    2.250    0.000    5.750 
#    0.000    0.000    0.000    0.000    0.000    0.000 
#    0.000    0.000    0.000    0.000    0.000    0.000 
#
# Total GULP energy -396942.517098 kJ/mol
# GULP energy per Si atom -12404.453659 kJ/mol
# Density = 1.938728 g / cm^3
# Si number density = 19.431502 Si / 1000 Ang^3
#
#
#
# Elastic Constant Matrix: (Units=GPa)
#
#
# Indices 1 2 3 4 5 6 
#
# 1 81.0706 24.0282 24.0075 0.0000 5.0745 0.0000
# 2 24.0282 71.5233 55.0114 -0.0006 -8.8589 0.0009
# 3 24.0075 55.0114 122.5673 0.0002 -0.1753 0.0000
# 4 0.0000 -0.0006 0.0002 40.6867 0.0000 -2.9698
# 5 5.0745 -8.8589 -0.1753 0.0000 31.9978 0.0000
# 6 0.0000 0.0009 0.0000 -2.9698 0.0000 23.4810
#
#
#
# Elastic Compliance Matrix: (Units=1/GPa)
#
#
# Indices 1 2 3 4 5 6 
#
# 1 0.014141 -0.004665 -0.000681 0.000000 -0.003538 0.000000
# 2 -0.004665 0.024050 -0.009870 0.000000 0.007344 -0.000001
# 3 -0.000681 -0.009870 0.012718 0.000000 -0.002555 0.000000
# 4 0.000000 0.000000 0.000000 0.024807 0.000000 0.003137
# 5 -0.003538 0.007344 -0.002555 0.000000 0.033833 0.000000
# 6 0.000000 -0.000001 0.000000 0.003137 0.000000 0.042984
#
#
# Mechanical properties :
#
#
# Convention : Reuss Voigt Hill
#
# Bulk Modulus (GPa) = 48.83539 53.47282 51.15410
# Shear Modulus (GPa) = 26.34493 30.70738 28.52615
#
# Velocity S-wave (km/s) = 3.68609 3.97960 3.83565
# Velocity P-wave (km/s) = 6.58050 6.97815 6.78224
#
# Compressibility (1/GPa) = 0.02047695
#
# Stress axis : x y z
#
# Youngs Moduli (GPa) = 70.71801 41.58084 78.62638
#
# Poissons Ratio (x) = 0.19397 0.05355
# Poissons Ratio (y) = 0.32989 0.77603
# Poissons Ratio (z) = 0.04817 0.41040
#
# Static dielectric constant tensor:
#      x y z
#    x 3.796990 0.000000 0.164630 
#    y 0.000000 3.481090 0.000000 
#    z 0.164630 0.000000 3.438070 
# 
# 
# High freq. dielectric constant tensor:
#      x y z
#    x 1.767780 0.000000 0.010870 
#    y 0.000000 1.750420 0.000000 
#    z 0.010870 0.000000 1.754630 
# 
# From -- ./inp_files/249868.got.cif
#   From: 2010.06.25/outbox.cif.g09.slc.cpg/sg12_125_cif.got.tgz:249868.got - 2010.06.28 00:19:55.
