data_PCOD8097642
_publ_section_title
;
Structure prediction by ZEFSAII (Michael W. Deem and Ramdas Pophale) SiO2 
 PCOD8097642
Probable space group: C 2/M
;
_chemical_formula_sum "Si O2"
_cell_formula_units_Z 56
_cell_length_a 15.725324
_cell_length_b 9.670014
_cell_length_c 19.471351
_cell_angle_alpha 90.000000
_cell_angle_beta 100.060090
_cell_angle_gamma 90.000000
_cell_volume 2915.370071
_symmetry_space_group_name_H-M "C 2/M"
_symmetry_group_IT_number 12
_symmetry_cell_setting 'monoclinic'
loop_
_space_group_symop_operation_xyz
x,y,z
-x,y,-z
-x,-y,-z
x,-y,z
1/2+x,1/2+y,z
1/2-x,1/2+y,-z
1/2-x,1/2-y,-z
1/2+x,1/2-y,z
loop_
_atom_site_type_symbol
_atom_site_label
_atom_site_fract_x
_atom_site_fract_y
_atom_site_fract_z
Si Si1 0.989736 0.161408 0.419155
Si Si2 0.195012 0.160180 0.665714
Si Si3 0.118606 0.659393 0.347690
Si Si4 0.167286 0.343279 0.787596
Si Si5 0.022356 0.654890 0.200647
Si Si6 0.544762 0.342502 0.074780
Si Si7 0.759651 0.843591 0.935581
O O1 0.892872 0.207459 0.384414
O O2 0.000000 0.196984 0.500000
O O3 0.063753 0.243723 0.389640
O O4 0.004470 0.000000 0.406108
O O5 0.278409 0.186448 0.628418
O O6 0.209736 0.246440 0.736844
O O7 0.190050 0.000000 0.685937
O O8 0.095226 0.500000 0.360979
O O9 0.097792 0.693076 0.264828
O O10 0.200708 0.500000 0.780632
O O11 0.194320 0.292631 0.867434
O O12 0.064520 0.334020 0.766890
O O13 0.034645 0.500000 0.172955
O O14 0.015657 0.757856 0.136526
O O15 0.513787 0.500000 0.081323
O O16 0.646355 0.330563 0.082936
O O17 0.500000 0.281296 0.000000
O O18 0.738888 0.000000 0.955328
O O19 0.750000 0.750000 0.000000
#
# Coordination Sequence:
#
# PCOD8097642 Si02
#       7
#     8   8   8   8   8   8   8
#     4  10  22  40  60  86 120 153 189 235 286 343
#     4  10  21  37  59  86 115 150 192 235 282 339
#     4  10  21  38  59  86 117 149 191 237 282 339
#     4  10  20  35  55  80 110 144 186 236 284 334
#     4  10  20  34  54  79 107 140 181 231 281 331
#     4  10  21  35  50  73 105 140 181 228 278 334
#     4  10  21  35  51  74 104 140 183 230 281 337
#
# _framework density 19.208538999999998
#
# number of rings (size 3 to 8) (size 9 to 14) (size 15 to 20)
#    0.000    2.000    1.429    1.714    0.000    4.000 
#    0.000    0.000    0.000    0.000    0.000    0.000 
#    0.000    0.000    0.000    0.000    0.000    0.000 
#
# Total GULP energy -347238.250295 kJ/mol
# GULP energy per Si atom -12401.366082 kJ/mol
# Density = 1.916482 g / cm^3
# Si number density = 19.208539 Si / 1000 Ang^3
#
#
#
# Elastic Constant Matrix: (Units=GPa)
#
#
# Indices 1 2 3 4 5 6 
#
# 1 104.0355 44.3087 49.5816 0.0000 0.2945 0.0000
# 2 44.3087 83.1521 69.5100 0.0000 -10.2853 0.0000
# 3 49.5816 69.5100 114.8854 0.0000 -4.4191 0.0000
# 4 0.0000 0.0000 0.0000 34.4851 0.0000 -3.6510
# 5 0.2945 -10.2853 -4.4191 0.0000 25.4728 0.0000
# 6 0.0000 0.0000 0.0000 -3.6510 0.0000 18.0666
#
#
#
# Elastic Compliance Matrix: (Units=1/GPa)
#
#
# Indices 1 2 3 4 5 6 
#
# 1 0.013043 -0.005032 -0.002686 0.000000 -0.002649 0.000000
# 2 -0.005032 0.027711 -0.014257 0.000000 0.008774 0.000000
# 3 -0.002686 -0.014257 0.018392 0.000000 -0.002535 0.000000
# 4 0.000000 0.000000 0.000000 0.029632 0.000000 0.005988
# 5 -0.002649 0.008774 -0.002535 0.000000 0.042391 0.000000
# 6 0.000000 0.000000 0.000000 0.005988 0.000000 0.056561
#
#
# Mechanical properties :
#
#
# Convention : Reuss Voigt Hill
#
# Bulk Modulus (GPa) = 65.80993 69.87486 67.84240
# Shear Modulus (GPa) = 21.11975 24.84974 22.98475
#
# Velocity S-wave (km/s) = 3.31947 3.60068 3.46293
# Velocity P-wave (km/s) = 7.00192 7.33093 7.16831
#
# Compressibility (1/GPa) = 0.01519527
#
# Stress axis : x y z
#
# Youngs Moduli (GPa) = 76.66909 36.08718 54.37154
#
# Poissons Ratio (x) = 0.18160 0.14605
# Poissons Ratio (y) = 0.38582 0.77516
# Poissons Ratio (z) = 0.20595 0.51448
#
# Static dielectric constant tensor:
#      x y z
#    x 3.904020 0.000000 0.070080 
#    y 0.000000 3.497680 0.000000 
#    z 0.070080 0.000000 3.414000 
# 
# 
# High freq. dielectric constant tensor:
#      x y z
#    x 1.759970 0.000000 0.012360 
#    y 0.000000 1.741830 0.000000 
#    z 0.012360 0.000000 1.738280 
# 
# From -- ./inp_files/308965.got.cif
#   From: 2010.06.25/outbox.cif.g09.slc.cpg/sg12_155_cif.got.tgz:308965.got - 2010.06.28 00:19:55.
