data_PCOD8097552
_publ_section_title
;
Structure prediction by ZEFSAII (Michael W. Deem and Ramdas Pophale) SiO2 
 PCOD8097552
Probable space group: C 2/M
;
_chemical_formula_sum "Si O2"
_cell_formula_units_Z 56
_cell_length_a 17.905761
_cell_length_b 9.329081
_cell_length_c 18.586484
_cell_angle_alpha 90.000000
_cell_angle_beta 104.284988
_cell_angle_gamma 90.000000
_cell_volume 3008.768029
_symmetry_space_group_name_H-M "C 2/M"
_symmetry_group_IT_number 12
_symmetry_cell_setting 'monoclinic'
loop_
_space_group_symop_operation_xyz
x,y,z
-x,y,-z
-x,-y,-z
x,-y,z
1/2+x,1/2+y,z
1/2-x,1/2+y,-z
1/2-x,1/2-y,-z
1/2+x,1/2-y,z
loop_
_atom_site_type_symbol
_atom_site_label
_atom_site_fract_x
_atom_site_fract_y
_atom_site_fract_z
Si Si1 0.979492 0.166896 0.576177
Si Si2 0.875198 0.331828 0.850925
Si Si3 0.954477 0.330041 0.142948
Si Si4 0.827695 0.331689 0.001247
Si Si5 0.089497 0.668749 0.709285
Si Si6 0.694958 0.667587 0.433312
Si Si7 0.236027 0.832219 0.281872
O O1 0.892098 0.212067 0.570410
O O2 0.000000 0.208435 0.500000
O O3 0.033613 0.255856 0.640665
O O4 0.993263 0.000000 0.594753
O O5 0.869938 0.500000 0.833635
O O6 0.854576 0.295614 0.927616
O O7 0.816240 0.252548 0.785674
O O8 0.960733 0.271701 0.855803
O O9 0.954971 0.500000 0.139639
O O10 0.929802 0.274781 0.215577
O O11 0.893438 0.272086 0.070340
O O12 0.813584 0.500000 0.009154
O O13 0.750000 0.250000 0.000000
O O14 0.076310 0.500000 0.699652
O O15 0.176277 0.712225 0.711324
O O16 0.709015 0.500000 0.448295
O O17 0.750000 0.750000 0.500000
O O18 0.714014 0.714580 0.356913
O O19 0.222523 0.000000 0.266009
#
# Coordination Sequence:
#
# PCOD8097552 Si02
#       7
#     8   8   8   8   8   8   8
#     4  10  21  36  53  75 104 136 170 212 260 303
#     4  10  20  34  55  80 102 134 179 215 250 304
#     4   9  18  34  54  76 104 136 171 213 257 301
#     4  10  20  35  55  78 106 138 172 213 258 305
#     4  10  20  34  54  77 101 135 174 209 253 309
#     4  10  21  36  54  77 105 138 174 213 260 310
#     4  10  21  36  53  77 109 139 168 211 267 313
#
# _framework density 18.612269999999999
#
# number of rings (size 3 to 8) (size 9 to 14) (size 15 to 20)
#    0.000    2.143    0.000    3.000    0.000    5.429 
#    0.000    1.429    0.000    1.714    0.000    0.000 
#    0.000    0.000    0.000    0.000    0.000    0.000 
#
# Total GULP energy -347310.571680 kJ/mol
# GULP energy per Si atom -12403.948989 kJ/mol
# Density = 1.856991 g / cm^3
# Si number density = 18.612270 Si / 1000 Ang^3
#
#
#
# Elastic Constant Matrix: (Units=GPa)
#
#
# Indices 1 2 3 4 5 6 
#
# 1 194.6940 56.1603 118.8234 0.0000 -3.1036 0.0000
# 2 56.1603 40.9406 63.8675 0.0000 7.7623 0.0000
# 3 118.8234 63.8675 192.1931 0.0000 10.5632 0.0000
# 4 0.0000 0.0000 0.0000 30.8641 0.0000 8.7123
# 5 -3.1036 7.7623 10.5632 0.0000 41.4249 0.0000
# 6 0.0000 0.0000 0.0000 8.7123 0.0000 21.7223
#
#
#
# Elastic Compliance Matrix: (Units=1/GPa)
#
#
# Indices 1 2 3 4 5 6 
#
# 1 0.009733 -0.008926 -0.003228 0.000000 0.003225 0.000000
# 2 -0.008926 0.060069 -0.013984 0.000000 -0.008359 0.000000
# 3 -0.003228 -0.013984 0.011882 0.000000 -0.000651 0.000000
# 4 0.000000 0.000000 0.000000 0.036537 0.000000 -0.014654
# 5 0.003225 -0.008359 -0.000651 0.000000 0.026114 0.000000
# 6 0.000000 0.000000 0.000000 -0.014654 0.000000 0.051913
#
#
# Mechanical properties :
#
#
# Convention : Reuss Voigt Hill
#
# Bulk Modulus (GPa) = 34.00472 100.61448 67.30960
# Shear Modulus (GPa) = 19.35539 31.40070 25.37805
#
# Velocity S-wave (km/s) = 3.22829 4.11188 3.69658
# Velocity P-wave (km/s) = 5.67499 8.75894 7.37985
#
# Compressibility (1/GPa) = 0.02940768
#
# Stress axis : x y z
#
# Youngs Moduli (GPa) = 102.74644 16.64743 84.16374
#
# Poissons Ratio (x) = 0.14860 0.27170
# Poissons Ratio (y) = 0.91714 1.17691
# Poissons Ratio (z) = 0.33169 0.23279
#
# Static dielectric constant tensor:
#      x y z
#    x 3.702660 0.000000 -0.093910 
#    y 0.000000 3.185660 0.000000 
#    z -0.093910 0.000000 3.524950 
# 
# 
# High freq. dielectric constant tensor:
#      x y z
#    x 1.744580 0.000000 -0.003750 
#    y 0.000000 1.698240 0.000000 
#    z -0.003750 0.000000 1.740190 
# 
# From -- ./inp_files/275487.got.cif
#   From: 2010.06.25/outbox.cif.g09.slc.cpg/sg12_138_cif.got.tgz:275487.got - 2010.06.28 00:19:55.
