data_PCOD8097681
_publ_section_title
;
Structure prediction by ZEFSAII (Michael W. Deem and Ramdas Pophale) SiO2 
 PCOD8097681
Probable space group: C 2/M
;
_chemical_formula_sum "Si O2"
_cell_formula_units_Z 60
_cell_length_a 22.100611
_cell_length_b 9.445926
_cell_length_c 19.819120
_cell_angle_alpha 90.000000
_cell_angle_beta 132.972106
_cell_angle_gamma 90.000000
_cell_volume 3027.315738
_symmetry_space_group_name_H-M "C 2/M"
_symmetry_group_IT_number 12
_symmetry_cell_setting 'monoclinic'
loop_
_space_group_symop_operation_xyz
x,y,z
-x,y,-z
-x,-y,-z
x,-y,z
1/2+x,1/2+y,z
1/2-x,1/2+y,-z
1/2-x,1/2-y,-z
1/2+x,1/2-y,z
loop_
_atom_site_type_symbol
_atom_site_label
_atom_site_fract_x
_atom_site_fract_y
_atom_site_fract_z
Si Si1 0.000000 0.237391 0.000000
Si Si2 0.991416 0.163951 0.416957
Si Si3 0.955242 0.154241 0.821429
Si Si4 0.838218 0.661139 0.942361
Si Si5 0.657575 0.664891 0.788608
Si Si6 0.306874 0.340447 0.624517
Si Si7 0.592703 0.169189 0.867339
Si Si8 0.368694 0.835905 0.548440
O O1 0.974693 0.147241 0.915768
O O2 0.917591 0.326543 0.954057
O O3 0.897735 0.190252 0.319999
O O4 0.000000 0.216855 0.500000
O O5 0.051741 0.255130 0.417237
O O6 0.016774 0.000000 0.429980
O O7 0.856849 0.175930 0.733067
O O8 0.000227 0.278025 0.814048
O O9 0.982353 0.000000 0.813429
O O10 0.823897 0.500000 0.946973
O O11 0.751936 0.717456 0.844667
O O12 0.853104 0.727841 0.028026
O O13 0.653411 0.500000 0.806606
O O14 0.624303 0.760170 0.823771
O O15 0.317979 0.500000 0.603304
O O16 0.343553 0.226349 0.601246
O O17 0.209008 0.313755 0.561843
O O18 0.591764 0.000000 0.858884
O O19 0.392144 0.000000 0.574865
#
# Coordination Sequence:
#
# PCOD8097681 Si02
#       8
#     4   8   8   8   8   8   8   8
#     4  10  20  34  54  80 107 138 177 218 255 300
#     4  10  22  38  54  74 104 142 180 216 258 312
#     4  10  20  35  54  77 108 144 178 212 257 313
#     4   9  19  35  54  78 109 141 172 211 261 314
#     4  10  20  36  57  78 103 139 178 214 259 314
#     4   9  19  35  55  79 107 140 174 212 263 318
#     4  10  20  34  54  82 110 135 171 220 266 306
#     4  10  20  35  56  81 107 134 172 222 268 309
#
# _framework density 19.819537
#
# number of rings (size 3 to 8) (size 9 to 14) (size 15 to 20)
#    0.000    2.267    0.000    2.400    0.000    6.667 
#    0.000    3.333    0.000    0.000    0.000    0.000 
#    0.000    0.000    0.000    0.000    0.000    0.000 
#
# Total GULP energy -371714.992055 kJ/mol
# GULP energy per Si atom -12390.499735 kJ/mol
# Density = 1.977443 g / cm^3
# Si number density = 19.819537 Si / 1000 Ang^3
#
#
#
# Elastic Constant Matrix: (Units=GPa)
#
#
# Indices 1 2 3 4 5 6 
#
# 1 76.7547 22.4187 49.8243 0.0000 6.6105 0.0000
# 2 22.4187 65.6904 35.4173 0.0000 4.2729 0.0000
# 3 49.8243 35.4173 144.3045 0.0000 22.7273 0.0000
# 4 0.0000 0.0000 0.0000 20.9842 0.0000 1.6632
# 5 6.6105 4.2729 22.7273 0.0000 26.0396 0.0000
# 6 0.0000 0.0000 0.0000 1.6632 0.0000 18.8489
#
#
#
# Elastic Compliance Matrix: (Units=1/GPa)
#
#
# Indices 1 2 3 4 5 6 
#
# 1 0.017335 -0.003081 -0.005351 0.000000 0.000775 0.000000
# 2 -0.003081 0.018116 -0.003521 0.000000 0.000883 0.000000
# 3 -0.005351 -0.003521 0.010825 0.000000 -0.007511 0.000000
# 4 0.000000 0.000000 0.000000 0.047990 0.000000 -0.004235
# 5 0.000775 0.000883 -0.007511 0.000000 0.044617 0.000000
# 6 0.000000 0.000000 0.000000 -0.004235 0.000000 0.053427
#
#
# Mechanical properties :
#
#
# Convention : Reuss Voigt Hill
#
# Bulk Modulus (GPa) = 44.70735 55.78557 50.24646
# Shear Modulus (GPa) = 22.35390 25.11384 23.73387
#
# Velocity S-wave (km/s) = 3.36202 3.56353 3.46424
# Velocity P-wave (km/s) = 6.13817 6.71860 6.43493
#
# Compressibility (1/GPa) = 0.02236769
#
# Stress axis : x y z
#
# Youngs Moduli (GPa) = 57.68515 55.20077 92.38120
#
# Poissons Ratio (x) = 0.17010 0.49436
# Poissons Ratio (y) = 0.17776 0.32531
# Poissons Ratio (z) = 0.30869 0.19438
#
# Static dielectric constant tensor:
#      x y z
#    x 3.440490 0.000000 0.318210 
#    y 0.000000 3.536750 0.000000 
#    z 0.318210 0.000000 4.155870 
# 
# 
# High freq. dielectric constant tensor:
#      x y z
#    x 1.745500 0.000000 0.016100 
#    y 0.000000 1.765840 0.000000 
#    z 0.016100 0.000000 1.793930 
# 
# From -- ./inp_files/320519.got.cif
#   From: 2010.06.25/outbox.cif.g09.slc.cpg/sg12_161_cif.got.tgz:320519.got - 2010.06.28 00:19:55.
