data_PCOD8097788
_publ_section_title
;
Structure prediction by ZEFSAII (Michael W. Deem and Ramdas Pophale) SiO2 
 PCOD8097788
Probable space group: C 2/M
;
_chemical_formula_sum "Si O2"
_cell_formula_units_Z 56
_cell_length_a 20.867821
_cell_length_b 9.265906
_cell_length_c 31.009315
_cell_angle_alpha 90.000000
_cell_angle_beta 28.766679
_cell_angle_gamma 90.000000
_cell_volume 2885.509201
_symmetry_space_group_name_H-M "C 2/M"
_symmetry_group_IT_number 12
_symmetry_cell_setting 'monoclinic'
loop_
_space_group_symop_operation_xyz
x,y,z
-x,y,-z
-x,-y,-z
x,-y,z
1/2+x,1/2+y,z
1/2-x,1/2+y,-z
1/2-x,1/2-y,-z
1/2+x,1/2-y,z
loop_
_atom_site_type_symbol
_atom_site_label
_atom_site_fract_x
_atom_site_fract_y
_atom_site_fract_z
Si Si1 0.871355 0.831087 0.050107
Si Si2 0.263730 0.662867 0.802372
Si Si3 0.625147 0.672291 0.051847
Si Si4 0.861076 0.331025 0.212575
Si Si5 0.767114 0.333621 0.558208
Si Si6 0.066492 0.161746 0.604411
Si Si7 0.846492 0.831486 0.591945
O O1 0.748320 0.759322 0.147749
O O2 0.856660 0.000000 0.063633
O O3 0.871516 0.785048 0.000424
O O4 0.000000 0.773059 0.000000
O O5 0.229898 0.500000 0.835582
O O6 0.169094 0.713406 0.818961
O O7 0.410896 0.677850 0.698200
O O8 0.630698 0.500000 0.056048
O O9 0.488236 0.736218 0.152720
O O10 0.750000 0.750000 0.000000
O O11 0.897241 0.500000 0.195315
O O12 0.728871 0.296967 0.318776
O O13 0.793401 0.500000 0.552807
O O14 0.887184 0.275737 0.458172
O O15 0.629128 0.306629 0.614384
O O16 0.759861 0.248461 0.607017
O O17 0.107586 0.000000 0.565222
O O18 0.000000 0.775322 0.500000
O O19 0.845310 0.000000 0.582238
#
# Coordination Sequence:
#
# PCOD8097788 Si02
#       7
#     8   8   8   8   8   8   8
#     4  10  21  39  60  84 116 150 185 233 295 348
#     4  10  20  35  60  88 113 146 193 241 282 341
#     4  11  24  42  63  87 121 160 197 245 300 357
#     4  10  21  37  59  87 116 152 198 242 291 350
#     4  10  20  34  54  81 113 148 191 239 284 336
#     4   9  19  36  55  79 113 150 186 231 289 344
#     4  10  21  38  59  81 114 157 195 236 289 349
#
# _framework density 19.407321
#
# number of rings (size 3 to 8) (size 9 to 14) (size 15 to 20)
#    0.000    2.000    1.429    1.714    0.000    6.857 
#    0.000    4.286    0.000    0.000    0.000    0.000 
#    0.000    0.000    0.000    0.000    0.000    0.000 
#
# Total GULP energy -347195.314300 kJ/mol
# GULP energy per Si atom -12399.832654 kJ/mol
# Density = 1.936315 g / cm^3
# Si number density = 19.407321 Si / 1000 Ang^3
#
#
#
# Elastic Constant Matrix: (Units=GPa)
#
#
# Indices 1 2 3 4 5 6 
#
# 1 99.7193 47.0509 44.3429 0.0002 0.6191 -0.0033
# 2 47.0509 58.2724 39.4473 0.0027 0.8452 -0.0075
# 3 44.3429 39.4473 87.5210 0.0016 -2.5932 -0.0009
# 4 0.0002 0.0027 0.0016 34.3382 -0.0001 3.6202
# 5 0.6191 0.8452 -2.5932 -0.0001 28.0797 0.0042
# 6 -0.0033 -0.0075 -0.0009 3.6202 0.0042 29.9752
#
#
#
# Elastic Compliance Matrix: (Units=1/GPa)
#
#
# Indices 1 2 3 4 5 6 
#
# 1 0.016906 -0.011282 -0.003491 0.000001 -0.000356 -0.000001
# 2 -0.011282 0.032313 -0.008894 -0.000003 -0.001545 0.000007
# 3 -0.003491 -0.008894 0.017261 0.000000 0.001939 -0.000002
# 4 0.000001 -0.000003 0.000000 0.029498 0.000001 -0.003563
# 5 -0.000356 -0.001545 0.001939 0.000001 0.035846 -0.000005
# 6 -0.000001 0.000007 -0.000002 -0.003563 -0.000005 0.033791
#
#
# Mechanical properties :
#
#
# Convention : Reuss Voigt Hill
#
# Bulk Modulus (GPa) = 52.22999 56.35500 54.29250
# Shear Modulus (GPa) = 22.79661 26.12340 24.46001
#
# Velocity S-wave (km/s) = 3.43102 3.67285 3.55399
# Velocity P-wave (km/s) = 6.53198 6.86203 6.69904
#
# Compressibility (1/GPa) = 0.01914609
#
# Stress axis : x y z
#
# Youngs Moduli (GPa) = 59.15079 30.94704 57.93519
#
# Poissons Ratio (x) = 0.34914 0.20225
# Poissons Ratio (y) = 0.66734 0.51527
# Poissons Ratio (z) = 0.20650 0.27524
#
# Static dielectric constant tensor:
#      x y z
#    x 3.616870 0.000000 0.005740 
#    y 0.000000 3.534440 0.000000 
#    z 0.005740 0.000000 3.462500 
# 
# 
# High freq. dielectric constant tensor:
#      x y z
#    x 1.758490 0.000000 -0.000360 
#    y 0.000000 1.752690 0.000000 
#    z -0.000360 0.000000 1.753680 
# 
# From -- ./inp_files/380601.got.cif
#   From: 2010.06.25/outbox.cif.g09.slc.cpg/sg12_191_cif.got.tgz:380601.got - 2010.06.28 00:19:55.
