data_PCOD8097917
_publ_section_title
;
Structure prediction by ZEFSAII (Michael W. Deem and Ramdas Pophale) SiO2 
 PCOD8097917
Probable space group: C 2/M
;
_chemical_formula_sum "Si O2"
_cell_formula_units_Z 64
_cell_length_a 12.506358
_cell_length_b 13.819663
_cell_length_c 31.107700
_cell_angle_alpha 90.000000
_cell_angle_beta 143.880060
_cell_angle_gamma 90.000000
_cell_volume 3169.300774
_symmetry_space_group_name_H-M "C 2/M"
_symmetry_group_IT_number 12
_symmetry_cell_setting 'monoclinic'
loop_
_space_group_symop_operation_xyz
x,y,z
-x,y,-z
-x,-y,-z
x,-y,z
1/2+x,1/2+y,z
1/2-x,1/2+y,-z
1/2-x,1/2-y,-z
1/2+x,1/2-y,z
loop_
_atom_site_type_symbol
_atom_site_label
_atom_site_fract_x
_atom_site_fract_y
_atom_site_fract_z
Si Si1 0.968473 0.779358 0.346561
Si Si2 0.447938 0.386460 0.828939
Si Si3 0.916976 0.389711 0.869167
Si Si4 0.206927 0.609771 0.671638
Si Si5 0.839672 0.387656 0.976197
Si Si6 0.159015 0.274829 0.785827
Si Si7 0.602675 0.886976 0.235698
Si Si8 0.297906 0.110747 0.428486
O O1 0.960413 0.682106 0.372978
O O2 0.960544 0.750722 0.294220
O O3 0.809468 0.852729 0.309395
O O4 0.162462 0.830926 0.415683
O O5 0.455699 0.500000 0.836960
O O6 0.373653 0.357725 0.757094
O O7 0.646076 0.339383 0.901966
O O8 0.317472 0.348088 0.823696
O O9 0.848051 0.500000 0.852435
O O10 0.754452 0.322899 0.834972
O O11 0.955987 0.365215 0.832261
O O12 0.105261 0.373114 0.955952
O O13 0.144697 0.500000 0.661833
O O14 0.268612 0.619128 0.642504
O O15 0.825211 0.500000 0.959152
O O16 0.000000 0.339581 0.000000
O O17 0.032412 0.324992 0.779459
O O18 0.588710 0.000000 0.242945
O O19 0.500000 0.153368 0.500000
O O20 0.295525 0.000000 0.443213
#
# Coordination Sequence:
#
# PCOD8097917 Si02
#       8
#     8   8   8   8   8   8   8   8
#     4  10  20  35  56  82 110 142 179 216 258 312
#     4   9  18  33  53  76 104 139 179 223 268 315
#     4   9  20  36  52  74 105 139 179 225 271 319
#     4   9  19  36  57  81 109 140 176 217 261 311
#     4   9  18  32  50  73 102 138 180 225 271 317
#     4  10  20  34  55  79 106 139 181 221 265 318
#     4  10  20  35  55  79 108 141 177 222 271 316
#     4  10  21  37  58  84 111 139 173 214 260 311
#
# _framework density 20.193729000000001
#
# number of rings (size 3 to 8) (size 9 to 14) (size 15 to 20)
#    0.000    2.500    0.000    1.500    0.000    7.000 
#    0.000    8.750    0.000    4.125    0.000    0.000 
#    0.000    0.000    0.000    0.000    0.000    0.000 
#
# Total GULP energy -396707.339085 kJ/mol
# GULP energy per Si atom -12397.104346 kJ/mol
# Density = 2.014777 g / cm^3
# Si number density = 20.193729 Si / 1000 Ang^3
#
#
#
# Elastic Constant Matrix: (Units=GPa)
#
#
# Indices 1 2 3 4 5 6 
#
# 1 109.3961 48.0367 43.4371 0.0000 26.3785 0.0000
# 2 48.0367 81.3093 22.4699 0.0000 13.9926 0.0000
# 3 43.4371 22.4699 59.2313 0.0000 21.5779 0.0000
# 4 0.0000 0.0000 0.0000 20.8754 0.0000 6.9527
# 5 26.3785 13.9926 21.5779 0.0000 33.0781 0.0000
# 6 0.0000 0.0000 0.0000 6.9527 0.0000 36.2700
#
#
#
# Elastic Compliance Matrix: (Units=1/GPa)
#
#
# Indices 1 2 3 4 5 6 
#
# 1 0.016327 -0.006656 -0.007517 0.000000 -0.005301 0.000000
# 2 -0.006656 0.016710 -0.001071 0.000000 -0.001062 0.000000
# 3 -0.007517 -0.001071 0.026829 0.000000 -0.011054 0.000000
# 4 0.000000 0.000000 0.000000 0.051170 0.000000 -0.009809
# 5 -0.005301 -0.001062 -0.011054 0.000000 0.042118 0.000000
# 6 0.000000 0.000000 0.000000 -0.009809 0.000000 0.029451
#
#
# Mechanical properties :
#
#
# Convention : Reuss Voigt Hill
#
# Bulk Modulus (GPa) = 34.04025 53.09156 43.56590
# Shear Modulus (GPa) = 22.43301 27.11088 24.77195
#
# Velocity S-wave (km/s) = 3.33662 3.66804 3.50625
# Velocity P-wave (km/s) = 5.63360 6.65489 6.16543
#
# Compressibility (1/GPa) = 0.02937699
#
# Stress axis : x y z
#
# Youngs Moduli (GPa) = 61.24916 59.84522 37.27350
#
# Poissons Ratio (x) = 0.39834 0.28019
# Poissons Ratio (y) = 0.40768 0.03992
# Poissons Ratio (z) = 0.46042 0.06409
#
# Static dielectric constant tensor:
#      x y z
#    x 3.528380 0.000000 0.041800 
#    y 0.000000 3.808710 0.000000 
#    z 0.041800 0.000000 3.650250 
# 
# 
# High freq. dielectric constant tensor:
#      x y z
#    x 1.778250 0.000000 0.001260 
#    y 0.000000 1.791790 0.000000 
#    z 0.001260 0.000000 1.774410 
# 
# From -- ./inp_files/305463.got.cif
#   From: 2010.06.25/outbox.cif.g09.slc.cpg/sg12_153_cif.got.tgz:305463.got - 2010.06.28 00:19:55.
