data_PCOD8097123
_publ_section_title
;
Structure prediction by ZEFSAII (Michael W. Deem and Ramdas Pophale) SiO2 
 PCOD8097123
Probable space group: C 2/M
;
_chemical_formula_sum "Si O2"
_cell_formula_units_Z 56
_cell_length_a 25.287223
_cell_length_b 9.095278
_cell_length_c 15.891335
_cell_angle_alpha 90.000000
_cell_angle_beta 124.467944
_cell_angle_gamma 90.000000
_cell_volume 3013.270433
_symmetry_space_group_name_H-M "C 2/M"
_symmetry_group_IT_number 12
_symmetry_cell_setting 'monoclinic'
loop_
_space_group_symop_operation_xyz
x,y,z
-x,y,-z
-x,-y,-z
x,-y,z
1/2+x,1/2+y,z
1/2-x,1/2+y,-z
1/2-x,1/2-y,-z
1/2+x,1/2-y,z
loop_
_atom_site_type_symbol
_atom_site_label
_atom_site_fract_x
_atom_site_fract_y
_atom_site_fract_z
Si Si1 0.955351 0.670066 0.036424
Si Si2 0.747332 0.671332 0.365727
Si Si3 0.509314 0.169619 0.266767
Si Si4 0.272459 0.328150 0.213387
Si Si5 0.664846 0.326562 0.017836
Si Si6 0.346641 0.828846 0.600273
Si Si7 0.610049 0.668832 0.790585
O O1 0.934329 0.500000 0.011478
O O2 0.994448 0.702404 0.156318
O O3 0.892604 0.771552 0.973821
O O4 0.000000 0.716783 0.000000
O O5 0.735856 0.500000 0.338458
O O6 0.761238 0.751258 0.291527
O O7 0.683621 0.737641 0.350327
O O8 0.808064 0.700181 0.480106
O O9 0.581003 0.227628 0.349945
O O10 0.457472 0.247726 0.280310
O O11 0.504536 0.000000 0.284902
O O12 0.256189 0.500000 0.205835
O O13 0.229126 0.256439 0.102154
O O14 0.346278 0.303344 0.252013
O O15 0.674586 0.500000 0.036971
O O16 0.648789 0.277998 0.908131
O O17 0.345534 0.000000 0.625222
O O18 0.592304 0.500000 0.786127
#
# Coordination Sequence:
#
# PCOD8097123 Si02
#       7
#     8   8   8   8   8   8   8
#     4   9  18  31  48  75 108 141 176 210 254 317
#     4  10  21  36  55  82 109 137 178 225 269 313
#     4   9  18  33  55  78 103 141 178 212 261 317
#     4  11  22  36  55  77 106 143 182 221 269 320
#     4  10  20  34  52  77 107 139 178 221 267 311
#     4   9  19  37  58  80 109 142 176 216 268 326
#     4   9  20  37  54  77 108 142 178 220 265 317
#
# _framework density 18.58446
#
# number of rings (size 3 to 8) (size 9 to 14) (size 15 to 20)
#    0.000    2.429    0.000    1.714    2.000    3.143 
#    0.000    0.714    0.000    4.286    0.000    0.000 
#    0.000    0.000    0.000    0.000    0.000    0.000 
#
# Total GULP energy -347257.895528 kJ/mol
# GULP energy per Si atom -12402.067697 kJ/mol
# Density = 1.854216 g / cm^3
# Si number density = 18.584460 Si / 1000 Ang^3
#
#
#
# Elastic Constant Matrix: (Units=GPa)
#
#
# Indices 1 2 3 4 5 6 
#
# 1 122.3508 61.0773 52.1719 0.0000 14.9049 0.0000
# 2 61.0773 86.4689 39.6923 0.0000 6.1720 0.0000
# 3 52.1719 39.6923 62.6369 0.0000 15.1952 0.0000
# 4 0.0000 0.0000 0.0000 26.1572 0.0000 3.4149
# 5 14.9049 6.1720 15.1952 0.0000 30.6806 0.0000
# 6 0.0000 0.0000 0.0000 3.4149 0.0000 34.8127
#
#
#
# Elastic Compliance Matrix: (Units=1/GPa)
#
#
# Indices 1 2 3 4 5 6 
#
# 1 0.015256 -0.007094 -0.007683 0.000000 -0.002179 0.000000
# 2 -0.007094 0.019726 -0.007348 0.000000 0.003117 0.000000
# 3 -0.007683 -0.007348 0.029274 0.000000 -0.009288 0.000000
# 4 0.000000 0.000000 0.000000 0.038726 0.000000 -0.003799
# 5 -0.002179 0.003117 -0.009288 0.000000 0.037625 0.000000
# 6 0.000000 0.000000 0.000000 -0.003799 0.000000 0.029098
#
#
# Mechanical properties :
#
#
# Convention : Reuss Voigt Hill
#
# Bulk Modulus (GPa) = 49.98391 64.14885 57.06638
# Shear Modulus (GPa) = 22.66300 26.23110 24.44705
#
# Velocity S-wave (km/s) = 3.49587 3.76101 3.63086
# Velocity P-wave (km/s) = 6.57637 7.31113 6.95346
#
# Compressibility (1/GPa) = 0.02000644
#
# Stress axis : x y z
#
# Youngs Moduli (GPa) = 65.54741 50.69495 34.16003
#
# Poissons Ratio (x) = 0.35961 0.26247
# Poissons Ratio (y) = 0.46497 0.25100
# Poissons Ratio (z) = 0.50363 0.37249
#
# Static dielectric constant tensor:
#      x y z
#    x 3.501200 0.000000 0.141690 
#    y 0.000000 3.426070 0.000000 
#    z 0.141690 0.000000 3.337850 
# 
# 
# High freq. dielectric constant tensor:
#      x y z
#    x 1.728250 0.000000 0.007880 
#    y 0.000000 1.722940 0.000000 
#    z 0.007880 0.000000 1.705170 
# 
# From -- ./inp_files/291969.got.cif
#   From: 2010.06.25/outbox.cif.g09.slc.cpg/sg12_146_cif.got.tgz:291969.got - 2010.06.28 00:19:55.
