data_PCOD8097080
_publ_section_title
;
Structure prediction by ZEFSAII (Michael W. Deem and Ramdas Pophale) SiO2 
 PCOD8097080
Probable space group: C 2/M
;
_chemical_formula_sum "Si O2"
_cell_formula_units_Z 64
_cell_length_a 19.996495
_cell_length_b 8.860234
_cell_length_c 25.656049
_cell_angle_alpha 90.000000
_cell_angle_beta 129.123882
_cell_angle_gamma 90.000000
_cell_volume 3526.382065
_symmetry_space_group_name_H-M "C 2/M"
_symmetry_group_IT_number 12
_symmetry_cell_setting 'monoclinic'
loop_
_space_group_symop_operation_xyz
x,y,z
-x,y,-z
-x,-y,-z
x,-y,z
1/2+x,1/2+y,z
1/2-x,1/2+y,-z
1/2-x,1/2-y,-z
1/2+x,1/2-y,z
loop_
_atom_site_type_symbol
_atom_site_label
_atom_site_fract_x
_atom_site_fract_y
_atom_site_fract_z
Si Si1 0.491947 0.825869 0.337686
Si Si2 0.189235 0.675937 0.427848
Si Si3 0.753849 0.673324 0.840867
Si Si4 0.424567 0.674677 0.204250
Si Si5 0.052646 0.176756 0.181345
Si Si6 0.712301 0.679307 0.327346
Si Si7 0.429877 0.321239 0.925409
Si Si8 0.836909 0.176791 0.311691
O O1 0.591753 0.797291 0.399232
O O2 0.474998 0.776196 0.270176
O O3 0.434868 0.729947 0.350152
O O4 0.466389 0.000000 0.330943
O O5 0.210036 0.500000 0.432507
O O6 0.250000 0.750000 0.500000
O O7 0.206910 0.754039 0.381821
O O8 0.782500 0.500000 0.856488
O O9 0.677753 0.706714 0.845115
O O10 0.834627 0.774623 0.896866
O O11 0.719909 0.718058 0.766946
O O12 0.441997 0.500000 0.228032
O O13 0.462090 0.712737 0.165526
O O14 0.131643 0.242513 0.254020
O O15 0.051169 0.248260 0.122755
O O16 0.067429 0.000000 0.182771
O O17 0.712067 0.500000 0.331174
O O18 0.799830 0.735031 0.343053
O O19 0.436054 0.500000 0.927902
O O20 0.500000 0.253854 0.000000
O O21 0.836630 0.000000 0.323063
#
# Coordination Sequence:
#
# PCOD8097080 Si02
#       8
#     8   8   8   8   8   8   8   8
#     4  10  20  34  54  82 112 141 179 226 273 323
#     4  11  24  40  58  83 116 150 185 226 275 331
#     4   9  18  31  50  75 104 138 175 221 271 323
#     4   9  17  32  53  77 104 138 180 222 271 327
#     4   9  17  31  53  79 105 139 182 223 267 322
#     4  11  20  34  59  85 111 145 186 230 277 326
#     4  10  20  34  52  75 106 144 184 225 271 327
#     4  10  20  34  55  83 113 144 181 227 276 326
#
# _framework density 18.148911999999999
#
# number of rings (size 3 to 8) (size 9 to 14) (size 15 to 20)
#    0.000    2.125    2.500    2.250    0.000    3.750 
#    0.000    1.875    0.000    3.750    0.000    0.000 
#    0.000    0.000    0.000    0.000    0.000    0.000 
#
# Total GULP energy -396815.836449 kJ/mol
# GULP energy per Si atom -12400.494889 kJ/mol
# Density = 1.810760 g / cm^3
# Si number density = 18.148912 Si / 1000 Ang^3
#
#
#
# Elastic Constant Matrix: (Units=GPa)
#
#
# Indices 1 2 3 4 5 6 
#
# 1 140.1614 44.2408 67.8841 0.0000 -1.1612 0.0000
# 2 44.2408 63.2927 43.6334 0.0000 4.4362 0.0000
# 3 67.8841 43.6334 120.0982 0.0000 -0.7945 0.0000
# 4 0.0000 0.0000 0.0000 22.1369 0.0000 2.6361
# 5 -1.1612 4.4362 -0.7945 0.0000 25.6955 0.0000
# 6 0.0000 0.0000 0.0000 2.6361 0.0000 31.0377
#
#
#
# Elastic Compliance Matrix: (Units=1/GPa)
#
#
# Indices 1 2 3 4 5 6 
#
# 1 0.010703 -0.004529 -0.004397 0.000000 0.001130 0.000000
# 2 -0.004529 0.023389 -0.005967 0.000000 -0.004427 0.000000
# 3 -0.004397 -0.005967 0.012988 0.000000 0.001233 0.000000
# 4 0.000000 0.000000 0.000000 0.045635 0.000000 -0.003876
# 5 0.001130 -0.004427 0.001233 0.000000 0.039771 0.000000
# 6 0.000000 0.000000 0.000000 -0.003876 0.000000 0.032548
#
#
# Mechanical properties :
#
#
# Convention : Reuss Voigt Hill
#
# Bulk Modulus (GPa) = 57.82255 70.56320 64.19287
# Shear Modulus (GPa) = 24.92714 26.96030 25.94372
#
# Velocity S-wave (km/s) = 3.71007 3.85841 3.78496
# Velocity P-wave (km/s) = 7.09098 7.66905 7.38567
#
# Compressibility (1/GPa) = 0.01729429
#
# Stress axis : x y z
#
# Youngs Moduli (GPa) = 93.43050 42.75447 76.99604
#
# Poissons Ratio (x) = 0.19366 0.33853
# Poissons Ratio (y) = 0.42319 0.45942
# Poissons Ratio (z) = 0.41079 0.25510
#
# Static dielectric constant tensor:
#      x y z
#    x 3.537780 0.000000 0.009080 
#    y 0.000000 3.252740 0.000000 
#    z 0.009080 0.000000 3.215780 
# 
# 
# High freq. dielectric constant tensor:
#      x y z
#    x 1.719970 0.000000 0.002620 
#    y 0.000000 1.696230 0.000000 
#    z 0.002620 0.000000 1.672790 
# 
# From -- ./inp_files/346306.got.cif
#   From: 2010.06.25/outbox.cif.g09.slc.cpg/sg12_174_cif.got.tgz:346306.got - 2010.06.28 00:19:55.
