data_PCOD8097994
_publ_section_title
;
Structure prediction by ZEFSAII (Michael W. Deem and Ramdas Pophale) SiO2 
 PCOD8097994
Probable space group: C 2/M
;
_chemical_formula_sum "Si O2"
_cell_formula_units_Z 64
_cell_length_a 19.547292
_cell_length_b 9.457042
_cell_length_c 22.372878
_cell_angle_alpha 90.000000
_cell_angle_beta 123.785068
_cell_angle_gamma 90.000000
_cell_volume 3437.418640
_symmetry_space_group_name_H-M "C 2/M"
_symmetry_group_IT_number 12
_symmetry_cell_setting 'monoclinic'
loop_
_space_group_symop_operation_xyz
x,y,z
-x,y,-z
-x,-y,-z
x,-y,z
1/2+x,1/2+y,z
1/2-x,1/2+y,-z
1/2-x,1/2-y,-z
1/2+x,1/2-y,z
loop_
_atom_site_type_symbol
_atom_site_label
_atom_site_fract_x
_atom_site_fract_y
_atom_site_fract_z
Si Si1 0.147643 0.835563 0.893262
Si Si2 0.100467 0.332662 0.391132
Si Si3 0.737923 0.161480 0.361987
Si Si4 0.998656 0.842628 0.257343
Si Si5 0.861928 0.157013 0.769734
Si Si6 0.565847 0.342069 0.075549
Si Si7 0.301676 0.344829 0.955602
Si Si8 0.582858 0.663350 0.503703
O O1 0.072984 0.773430 0.818117
O O2 0.231576 0.768572 0.911408
O O3 0.151251 0.000000 0.881819
O O4 0.137870 0.802809 0.959501
O O5 0.089332 0.500000 0.392551
O O6 0.184748 0.295222 0.395524
O O7 0.100403 0.263000 0.456057
O O8 0.019772 0.267517 0.319824
O O9 0.713726 0.248940 0.290667
O O10 0.835528 0.183839 0.416642
O O11 0.716548 0.000000 0.337274
O O12 0.077991 0.859907 0.255817
O O13 0.976014 0.000000 0.271715
O O14 0.911586 0.229439 0.849770
O O15 0.830232 0.000000 0.773800
O O16 0.529837 0.500000 0.071347
O O17 0.651111 0.349694 0.082859
O O18 0.500000 0.261380 0.000000
O O19 0.263634 0.500000 0.951456
O O20 0.500000 0.707840 0.500000
O O21 0.574885 0.500000 0.478998
#
# Coordination Sequence:
#
# PCOD8097994 Si02
#       8
#     8   8   8   8   8   8   8   8
#     4   9  17  30  47  67  93 129 169 206 247 298
#     4  10  20  34  55  82 107 131 168 214 261 303
#     4   9  19  36  56  78 105 138 172 212 258 306
#     4   9  17  31  51  73  98 130 170 208 244 297
#     4   9  17  30  51  77 100 128 169 212 252 297
#     4   9  16  28  48  73  99 128 166 211 255 296
#     4   9  17  29  46  68  95 126 164 210 256 300
#     4  10  21  38  58  79 106 140 175 206 249 311
#
# _framework density 18.618621999999998
#
# number of rings (size 3 to 8) (size 9 to 14) (size 15 to 20)
#    0.000    2.750    0.000    1.500    0.000    4.750 
#    2.250    0.625    0.000    3.000    0.000    0.000 
#    0.000    0.000    0.000    0.000    0.000    0.000 
#
# Total GULP energy -396462.351678 kJ/mol
# GULP energy per Si atom -12389.448490 kJ/mol
# Density = 1.857624 g / cm^3
# Si number density = 18.618622 Si / 1000 Ang^3
#
#
#
# Elastic Constant Matrix: (Units=GPa)
#
#
# Indices 1 2 3 4 5 6 
#
# 1 50.0643 23.3467 37.0427 0.0000 3.8422 0.0000
# 2 23.3467 52.1387 52.6457 0.0000 0.2727 0.0000
# 3 37.0427 52.6457 133.8132 0.0000 11.7304 0.0000
# 4 0.0000 0.0000 0.0000 28.6177 0.0000 1.6684
# 5 3.8422 0.2727 11.7304 0.0000 26.5673 0.0000
# 6 0.0000 0.0000 0.0000 1.6684 0.0000 17.5147
#
#
#
# Elastic Compliance Matrix: (Units=1/GPa)
#
#
# Indices 1 2 3 4 5 6 
#
# 1 0.026860 -0.007767 -0.004209 0.000000 -0.001946 0.000000
# 2 -0.007767 0.034832 -0.012089 0.000000 0.006103 0.000000
# 3 -0.004209 -0.012089 0.013867 0.000000 -0.005390 0.000000
# 4 0.000000 0.000000 0.000000 0.035138 0.000000 -0.003347
# 5 -0.001946 0.006103 -0.005390 0.000000 0.040239 0.000000
# 6 0.000000 0.000000 0.000000 -0.003347 0.000000 0.057414
#
#
# Mechanical properties :
#
#
# Convention : Reuss Voigt Hill
#
# Bulk Modulus (GPa) = 36.45800 51.34292 43.90046
# Shear Modulus (GPa) = 18.82369 22.73870 20.78120
#
# Velocity S-wave (km/s) = 3.18309 3.49848 3.34451
# Velocity P-wave (km/s) = 5.75616 6.62987 6.20841
#
# Compressibility (1/GPa) = 0.02742882
#
# Stress axis : x y z
#
# Youngs Moduli (GPa) = 37.22990 28.70933 72.11501
#
# Poissons Ratio (x) = 0.22299 0.30354
# Poissons Ratio (y) = 0.28917 0.87177
# Poissons Ratio (z) = 0.15670 0.34706
#
# Static dielectric constant tensor:
#      x y z
#    x 3.214540 0.000000 0.082420 
#    y 0.000000 3.509920 0.000000 
#    z 0.082420 0.000000 3.587970 
# 
# 
# High freq. dielectric constant tensor:
#      x y z
#    x 1.700200 0.000000 0.003370 
#    y 0.000000 1.698730 0.000000 
#    z 0.003370 0.000000 1.734290 
# 
# From -- ./inp_files/321020.got.cif
#   From: 2010.06.25/outbox.cif.g09.slc.cpg/sg12_161_cif.got.tgz:321020.got - 2010.06.28 00:19:55.
