data_PCOD8097485
_publ_section_title
;
Structure prediction by ZEFSAII (Michael W. Deem and Ramdas Pophale) SiO2 
 PCOD8097485
Probable space group: C 2/M
;
_chemical_formula_sum "Si O2"
_cell_formula_units_Z 56
_cell_length_a 23.442835
_cell_length_b 8.740289
_cell_length_c 15.503730
_cell_angle_alpha 90.000000
_cell_angle_beta 63.930819
_cell_angle_gamma 90.000000
_cell_volume 2853.488696
_symmetry_space_group_name_H-M "C 2/M"
_symmetry_group_IT_number 12
_symmetry_cell_setting 'monoclinic'
loop_
_space_group_symop_operation_xyz
x,y,z
-x,y,-z
-x,-y,-z
x,-y,z
1/2+x,1/2+y,z
1/2-x,1/2+y,-z
1/2-x,1/2-y,-z
1/2+x,1/2-y,z
loop_
_atom_site_type_symbol
_atom_site_label
_atom_site_fract_x
_atom_site_fract_y
_atom_site_fract_z
Si Si1 0.390462 0.818938 0.324980
Si Si2 0.758795 0.323480 0.133003
Si Si3 0.718574 0.679501 0.700610
Si Si4 0.557752 0.323912 0.406475
Si Si5 0.531878 0.176763 0.246990
Si Si6 0.166396 0.822824 0.467766
Si Si7 0.841457 0.324276 0.919337
O O1 0.352418 0.735520 0.273748
O O2 0.462788 0.754549 0.270276
O O3 0.362483 0.776072 0.436337
O O4 0.386392 0.000000 0.313599
O O5 0.755494 0.500000 0.163968
O O6 0.764600 0.219548 0.212868
O O7 0.694951 0.283725 0.123721
O O8 0.819452 0.289848 0.031488
O O9 0.725330 0.500000 0.682432
O O10 0.763850 0.763664 0.601744
O O11 0.500000 0.251647 0.500000
O O12 0.542462 0.500000 0.399011
O O13 0.563142 0.243044 0.311913
O O14 0.623793 0.299688 0.411354
O O15 0.582848 0.207770 0.136796
O O16 0.521261 0.000000 0.271410
O O17 0.169390 0.000000 0.494112
O O18 0.825707 0.500000 0.905692
#
# Coordination Sequence:
#
# PCOD8097485 Si02
#       7
#     8   8   8   8   8   8   8
#     4  11  23  39  57  80 112 150 192 232 277 332
#     4  10  20  37  61  88 116 146 184 230 280 332
#     4  12  25  40  58  80 110 148 192 237 282 330
#     4  10  20  34  53  80 114 148 181 222 273 326
#     4  10  21  36  57  84 114 149 187 228 277 331
#     4  11  22  38  59  83 113 149 189 231 280 332
#     4   9  19  37  61  89 118 147 181 226 280 336
#
# _framework density 19.6251
#
# number of rings (size 3 to 8) (size 9 to 14) (size 15 to 20)
#    0.000    1.571    1.429    3.857    0.000    5.429 
#    0.000    0.714    0.000    4.286    0.000    0.000 
#    0.000    0.000    0.000    0.000    0.000    0.000 
#
# Total GULP energy -347291.412239 kJ/mol
# GULP energy per Si atom -12403.264723 kJ/mol
# Density = 1.958043 g / cm^3
# Si number density = 19.625100 Si / 1000 Ang^3
#
#
#
# Elastic Constant Matrix: (Units=GPa)
#
#
# Indices 1 2 3 4 5 6 
#
# 1 85.0753 26.3937 33.0057 0.0000 -15.7272 0.0000
# 2 26.3937 50.8909 17.2441 0.0000 -1.0072 0.0001
# 3 33.0057 17.2441 86.2991 0.0000 -19.0082 0.0000
# 4 0.0000 0.0000 0.0000 28.0634 0.0000 4.7539
# 5 -15.7272 -1.0072 -19.0082 0.0000 26.9930 0.0000
# 6 0.0000 0.0001 0.0000 4.7539 0.0000 28.3024
#
#
#
# Elastic Compliance Matrix: (Units=1/GPa)
#
#
# Indices 1 2 3 4 5 6 
#
# 1 0.016639 -0.007359 -0.003336 0.000000 0.007071 0.000000
# 2 -0.007359 0.024485 -0.003339 0.000000 -0.005725 0.000000
# 3 -0.003336 -0.003339 0.015475 0.000000 0.008830 0.000000
# 4 0.000000 0.000000 0.000000 0.036677 0.000000 -0.006161
# 5 0.007071 -0.005725 0.008830 0.000000 0.047170 0.000000
# 6 0.000000 0.000000 0.000000 -0.006161 0.000000 0.036367
#
#
# Mechanical properties :
#
#
# Convention : Reuss Voigt Hill
#
# Bulk Modulus (GPa) = 35.04954 41.72802 38.38878
# Shear Modulus (GPa) = 23.32182 26.37989 24.85085
#
# Velocity S-wave (km/s) = 3.45101 3.67030 3.56234
# Velocity P-wave (km/s) = 5.81185 6.26659 6.04350
#
# Compressibility (1/GPa) = 0.02853104
#
# Stress axis : x y z
#
# Youngs Moduli (GPa) = 60.10123 40.84195 64.61898
#
# Poissons Ratio (x) = 0.30056 0.21555
# Poissons Ratio (y) = 0.44229 0.21576
# Poissons Ratio (z) = 0.20048 0.13637
#
# Static dielectric constant tensor:
#      x y z
#    x 3.691480 0.000000 -0.209520 
#    y 0.000000 3.552700 0.000000 
#    z -0.209520 0.000000 3.577850 
# 
# 
# High freq. dielectric constant tensor:
#      x y z
#    x 1.765210 0.000000 -0.012440 
#    y 0.000000 1.765300 0.000000 
#    z -0.012440 0.000000 1.761600 
# 
# From -- ./inp_files/238343.got.cif
#   From: 2010.06.25/outbox.cif.g09.slc.cpg/sg12_120_cif.got.tgz:238343.got - 2010.06.28 00:19:55.
