data_PCOD8097672
_publ_section_title
;
Structure prediction by ZEFSAII (Michael W. Deem and Ramdas Pophale) SiO2 
 PCOD8097672
Probable space group: C 2/M
;
_chemical_formula_sum "Si O2"
_cell_formula_units_Z 40
_cell_length_a 9.289824
_cell_length_b 19.156718
_cell_length_c 20.331197
_cell_angle_alpha 90.000000
_cell_angle_beta 149.676081
_cell_angle_gamma 90.000000
_cell_volume 1826.781499
_symmetry_space_group_name_H-M "C 2/M"
_symmetry_group_IT_number 12
_symmetry_cell_setting 'monoclinic'
loop_
_space_group_symop_operation_xyz
x,y,z
-x,y,-z
-x,-y,-z
x,-y,z
1/2+x,1/2+y,z
1/2-x,1/2+y,-z
1/2-x,1/2-y,-z
1/2+x,1/2-y,z
loop_
_atom_site_type_symbol
_atom_site_label
_atom_site_fract_x
_atom_site_fract_y
_atom_site_fract_z
Si Si1 0.662979 0.211114 0.129616
Si Si2 0.166467 0.000000 0.132886
Si Si3 0.737894 0.143690 0.289212
Si Si4 0.240500 0.356291 0.790070
Si Si5 0.335311 0.788852 0.369934
Si Si6 0.168311 0.000000 0.633346
O O1 0.597709 0.156128 0.162064
O O2 0.562023 0.288958 0.113371
O O3 0.999315 0.212865 0.250069
O O4 0.500000 0.187031 0.000000
O O5 0.083424 0.070625 0.140788
O O6 0.499352 0.000000 0.250213
O O7 0.000000 0.000000 0.000000
O O8 0.498515 0.135695 0.249457
O O9 0.935530 0.210981 0.385829
O O10 0.913821 0.070601 0.358276
O O11 0.100292 0.343829 0.662927
O O12 0.500000 0.812916 0.500000
O O13 0.000000 0.000000 0.500000
#
# Coordination Sequence:
#
# PCOD8097672 Si02
#       6
#     8   4   8   8   8   4
#     4  10  21  36  55  80 109 139 174 219 267 312
#     4  10  20  34  54  80 106 136 177 220 259 306
#     4   9  20  36  57  80 106 140 180 218 260 313
#     4   9  20  36  57  80 106 140 180 218 260 313
#     4  10  21  36  55  80 109 139 174 219 267 312
#     4  10  20  34  54  80 106 136 177 220 259 306
#
# _framework density 21.896433999999999
#
# number of rings (size 3 to 8) (size 9 to 14) (size 15 to 20)
#    0.000    2.400    0.000    1.200    0.000   20.800 
#    0.000    2.000    0.000    0.000    0.000    0.000 
#    0.000    0.000    0.000    0.000    0.000    0.000 
#
# Total GULP energy -247839.886234 kJ/mol
# GULP energy per Si atom -12391.994312 kJ/mol
# Density = 2.184660 g / cm^3
# Si number density = 21.896434 Si / 1000 Ang^3
#
#
#
# Elastic Constant Matrix: (Units=GPa)
#
#
# Indices 1 2 3 4 5 6 
#
# 1 63.3049 42.5467 45.0595 0.0032 -37.6554 0.0028
# 2 42.5467 204.1389 75.4771 0.0005 -42.7675 0.0004
# 3 45.0595 75.4771 187.3465 -0.0090 -50.1575 0.0000
# 4 0.0032 0.0005 -0.0090 26.5404 0.0035 -16.1077
# 5 -37.6554 -42.7675 -50.1575 0.0035 49.2827 0.0032
# 6 0.0028 0.0004 0.0000 -16.1077 0.0032 35.3039
#
#
#
# Elastic Compliance Matrix: (Units=1/GPa)
#
#
# Indices 1 2 3 4 5 6 
#
# 1 0.029612 -0.001539 -0.001103 -0.000013 0.020168 -0.000010
# 2 -0.001539 0.006348 -0.001412 -0.000001 0.002896 -0.000001
# 3 -0.001103 -0.001412 0.007722 0.000002 0.005791 0.000001
# 4 -0.000013 -0.000001 0.000002 0.052108 -0.000013 0.023775
# 5 0.020168 0.002896 0.005791 -0.000013 0.044108 -0.000012
# 6 -0.000010 -0.000001 0.000001 0.023775 -0.000012 0.039173
#
#
# Mechanical properties :
#
#
# Convention : Reuss Voigt Hill
#
# Bulk Modulus (GPa) = 28.10925 86.77298 57.44111
# Shear Modulus (GPa) = 25.12096 41.67253 33.39674
#
# Velocity S-wave (km/s) = 3.39080 4.36726 3.90964
# Velocity P-wave (km/s) = 5.30992 8.07127 6.83157
#
# Compressibility (1/GPa) = 0.03557548
#
# Stress axis : x y z
#
# Youngs Moduli (GPa) = 33.76998 157.52591 129.49471
#
# Poissons Ratio (x) = 0.24240 0.14279
# Poissons Ratio (y) = 0.05197 0.18285
# Poissons Ratio (z) = 0.03724 0.22244
#
# Static dielectric constant tensor:
#      x y z
#    x 3.761760 -0.000030 -0.344950 
#    y -0.000030 5.578950 -0.000070 
#    z -0.344950 -0.000070 3.840080 
# 
# 
# High freq. dielectric constant tensor:
#      x y z
#    x 1.831730 0.000000 -0.021610 
#    y 0.000000 1.865000 0.000000 
#    z -0.021610 0.000000 1.855490 
# 
# From -- ./inp_files/306312.got.cif
#   From: 2010.06.25/outbox.cif.g09.slc.cpg/sg12_154_cif.got.tgz:306312.got - 2010.06.28 00:19:55.
