data_PCOD8097471
_publ_section_title
;
Structure prediction by ZEFSAII (Michael W. Deem and Ramdas Pophale) SiO2 
 PCOD8097471
Probable space group: C 2/M
;
_chemical_formula_sum "Si O2"
_cell_formula_units_Z 64
_cell_length_a 15.302279
_cell_length_b 8.854597
_cell_length_c 25.629361
_cell_angle_alpha 90.000000
_cell_angle_beta 72.480147
_cell_angle_gamma 90.000000
_cell_volume 3311.575951
_symmetry_space_group_name_H-M "C 2/M"
_symmetry_group_IT_number 12
_symmetry_cell_setting 'monoclinic'
loop_
_space_group_symop_operation_xyz
x,y,z
-x,y,-z
-x,-y,-z
x,-y,z
1/2+x,1/2+y,z
1/2-x,1/2+y,-z
1/2-x,1/2-y,-z
1/2+x,1/2-y,z
loop_
_atom_site_type_symbol
_atom_site_label
_atom_site_fract_x
_atom_site_fract_y
_atom_site_fract_z
Si Si1 0.798686 0.321368 0.828785
Si Si2 0.005393 0.679107 0.242188
Si Si3 0.096462 0.820147 0.834845
Si Si4 0.929077 0.328507 0.059398
Si Si5 0.252195 0.177786 0.443331
Si Si6 0.553252 0.177652 0.632345
Si Si7 0.243192 0.827354 0.946438
Si Si8 0.443376 0.678052 0.560139
O O1 0.793529 0.500000 0.829872
O O2 0.888798 0.265533 0.782141
O O3 0.703331 0.264898 0.819879
O O4 0.809067 0.267071 0.887818
O O5 0.996301 0.500000 0.234499
O O6 0.940686 0.767649 0.214079
O O7 0.973050 0.728722 0.305046
O O8 0.036222 0.731883 0.890314
O O9 0.085768 0.000000 0.842734
O O10 0.890732 0.500000 0.071987
O O11 0.857061 0.200567 0.057495
O O12 0.000000 0.326759 0.000000
O O13 0.250000 0.250000 0.500000
O O14 0.343064 0.233584 0.396988
O O15 0.162700 0.227468 0.426713
O O16 0.252225 0.000000 0.451410
O O17 0.481600 0.249956 0.605653
O O18 0.545511 0.000000 0.626993
O O19 0.263128 0.000000 0.954226
O O20 0.250000 0.750000 0.000000
O O21 0.500000 0.738432 0.500000
O O22 0.454503 0.500000 0.562881
#
# Coordination Sequence:
#
# PCOD8097471 Si02
#       8
#     8   8   8   8   8   8   8   8
#     4   8  18  37  57  75 107 148 183 222 278 340
#     4  10  21  39  60  81 110 152 191 227 277 339
#     4  10  21  38  58  83 111 145 188 237 284 333
#     4  10  21  36  55  80 110 146 184 227 288 350
#     4  10  20  35  55  82 115 149 185 230 281 330
#     4  10  22  37  56  85 115 145 190 236 274 326
#     4  10  20  34  53  80 111 143 182 233 285 339
#     4  10  20  35  56  81 113 152 185 223 281 333
#
# _framework density 19.326146000000001
#
# number of rings (size 3 to 8) (size 9 to 14) (size 15 to 20)
#    0.000    2.250    1.250    1.875    1.750    3.250 
#    0.000    3.125    0.000    0.000    0.000    0.000 
#    0.000    0.000    0.000    0.000    0.000    0.000 
#
# Total GULP energy -396577.462183 kJ/mol
# GULP energy per Si atom -12393.045693 kJ/mol
# Density = 1.928216 g / cm^3
# Si number density = 19.326146 Si / 1000 Ang^3
#
#
#
# Elastic Constant Matrix: (Units=GPa)
#
#
# Indices 1 2 3 4 5 6 
#
# 1 133.8684 33.1152 88.2497 0.0000 0.3227 0.0000
# 2 33.1152 40.4249 49.0214 0.0000 0.8994 0.0000
# 3 88.2497 49.0214 179.1036 0.0000 1.1980 0.0000
# 4 0.0000 0.0000 0.0000 29.9036 0.0000 8.0491
# 5 0.3227 0.8994 1.1980 0.0000 35.8363 0.0000
# 6 0.0000 0.0000 0.0000 8.0491 0.0000 27.5700
#
#
#
# Elastic Compliance Matrix: (Units=1/GPa)
#
#
# Indices 1 2 3 4 5 6 
#
# 1 0.011441 -0.003799 -0.004598 0.000000 0.000146 0.000000
# 2 -0.003799 0.038301 -0.008607 0.000000 -0.000639 0.000000
# 3 -0.004598 -0.008607 0.010205 0.000000 -0.000084 0.000000
# 4 0.000000 0.000000 0.000000 0.036293 0.000000 -0.010596
# 5 0.000146 -0.000639 -0.000084 0.000000 0.027922 0.000000
# 6 0.000000 0.000000 0.000000 -0.010596 0.000000 0.039365
#
#
# Mechanical properties :
#
#
# Convention : Reuss Voigt Hill
#
# Bulk Modulus (GPa) = 38.55298 77.12993 57.84146
# Shear Modulus (GPa) = 24.25046 30.86269 27.55658
#
# Velocity S-wave (km/s) = 3.54616 4.00051 3.78017
# Velocity P-wave (km/s) = 6.06291 7.83167 7.00335
#
# Compressibility (1/GPa) = 0.02593833
#
# Stress axis : x y z
#
# Youngs Moduli (GPa) = 87.40616 26.10912 97.98706
#
# Poissons Ratio (x) = 0.09919 0.45058
# Poissons Ratio (y) = 0.33206 0.84336
# Poissons Ratio (z) = 0.40193 0.22472
#
# Static dielectric constant tensor:
#      x y z
#    x 3.670660 0.000000 -0.401150 
#    y 0.000000 3.459410 0.000000 
#    z -0.401150 0.000000 3.275990 
# 
# 
# High freq. dielectric constant tensor:
#      x y z
#    x 1.752810 0.000000 0.000440 
#    y 0.000000 1.738100 0.000000 
#    z 0.000440 0.000000 1.759380 
# 
# From -- ./inp_files/359801.got.cif
#   From: 2010.06.25/outbox.cif.g09.slc.cpg/sg12_180_cif.got.tgz:359801.got - 2010.06.28 00:19:55.
