data_PCOD8097224
_publ_section_title
;
Structure prediction by ZEFSAII (Michael W. Deem and Ramdas Pophale) SiO2 
 PCOD8097224
Probable space group: C 2/M
;
_chemical_formula_sum "Si O2"
_cell_formula_units_Z 64
_cell_length_a 18.029113
_cell_length_b 9.114910
_cell_length_c 21.470905
_cell_angle_alpha 90.000000
_cell_angle_beta 103.367343
_cell_angle_gamma 90.000000
_cell_volume 3432.802246
_symmetry_space_group_name_H-M "C 2/M"
_symmetry_group_IT_number 12
_symmetry_cell_setting 'monoclinic'
loop_
_space_group_symop_operation_xyz
x,y,z
-x,y,-z
-x,-y,-z
x,-y,z
1/2+x,1/2+y,z
1/2-x,1/2+y,-z
1/2-x,1/2-y,-z
1/2+x,1/2-y,z
loop_
_atom_site_type_symbol
_atom_site_label
_atom_site_fract_x
_atom_site_fract_y
_atom_site_fract_z
Si Si1 0.708410 0.171147 0.193534
Si Si2 0.506715 0.173462 0.683028
Si Si3 0.659974 0.174387 0.317776
Si Si4 0.220472 0.825493 0.556089
Si Si5 0.884263 0.833710 0.204460
Si Si6 0.834177 0.832723 0.065346
Si Si7 0.067512 0.330471 0.561730
Si Si8 0.314454 0.667481 0.928735
O O1 0.678557 0.237670 0.252818
O O2 0.797508 0.209308 0.204193
O O3 0.660094 0.240381 0.126837
O O4 0.693268 0.000000 0.187855
O O5 0.421455 0.236553 0.675365
O O6 0.559156 0.227220 0.749211
O O7 0.539085 0.226748 0.623222
O O8 0.504349 0.000000 0.684853
O O9 0.724991 0.228020 0.377569
O O10 0.659273 0.000000 0.315626
O O11 0.250000 0.750000 0.500000
O O12 0.135769 0.772872 0.554118
O O13 0.221739 0.000000 0.548004
O O14 0.897448 0.814267 0.132201
O O15 0.900916 0.000000 0.228951
O O16 0.769429 0.713744 0.065524
O O17 0.800793 0.000000 0.064140
O O18 0.867484 0.809334 0.001333
O O19 0.094239 0.500000 0.569323
O O20 0.000000 0.310576 0.500000
O O21 0.313804 0.500000 0.907238
#
# Coordination Sequence:
#
# PCOD8097224 Si02
#       8
#     8   8   8   8   8   8   8   8
#     4   9  17  31  50  70  96 131 167 202 247 304
#     4  10  20  34  53  75  99 131 172 212 250 296
#     4   9  19  36  55  73  99 138 174 205 251 307
#     4  11  22  38  60  83 108 138 174 213 255 305
#     4   9  17  30  48  71  99 130 164 205 256 306
#     4   8  15  27  42  63  95 132 163 195 245 306
#     4  10  21  38  58  80 110 143 172 208 256 306
#     4   9  15  24  42  69  97 123 159 207 251 292
#
# _framework density 18.643661000000002
#
# number of rings (size 3 to 8) (size 9 to 14) (size 15 to 20)
#    0.000    2.625    0.000    3.000    0.000    6.250 
#    0.000    4.375    0.000    0.750    0.000    5.250 
#    0.000    0.000    0.000    0.000    0.000    0.000 
#
# Total GULP energy -396611.734236 kJ/mol
# GULP energy per Si atom -12394.116695 kJ/mol
# Density = 1.860123 g / cm^3
# Si number density = 18.643661 Si / 1000 Ang^3
#
#
#
# Elastic Constant Matrix: (Units=GPa)
#
#
# Indices 1 2 3 4 5 6 
#
# 1 84.1287 31.3081 59.1756 0.0000 -8.9965 0.0000
# 2 31.3081 45.5860 43.3473 0.0000 -4.4972 0.0000
# 3 59.1756 43.3473 180.6478 0.0000 -12.9720 0.0000
# 4 0.0000 0.0000 0.0000 33.0435 0.0000 1.8356
# 5 -8.9965 -4.4972 -12.9720 0.0000 23.0390 0.0000
# 6 0.0000 0.0000 0.0000 1.8356 0.0000 20.8964
#
#
#
# Elastic Compliance Matrix: (Units=1/GPa)
#
#
# Indices 1 2 3 4 5 6 
#
# 1 0.017962 -0.008604 -0.003581 0.000000 0.003318 0.000000
# 2 -0.008604 0.032613 -0.004993 0.000000 0.000195 0.000000
# 3 -0.003581 -0.004993 0.008062 0.000000 0.002166 0.000000
# 4 0.000000 0.000000 0.000000 0.030411 0.000000 -0.002671
# 5 0.003318 0.000195 0.002166 0.000000 0.045958 0.000000
# 6 0.000000 0.000000 0.000000 -0.002671 0.000000 0.048090
#
#
# Mechanical properties :
#
#
# Convention : Reuss Voigt Hill
#
# Bulk Modulus (GPa) = 41.18406 64.22494 52.70450
# Shear Modulus (GPa) = 22.16835 27.16456 24.66646
#
# Velocity S-wave (km/s) = 3.45201 3.82126 3.64132
# Velocity P-wave (km/s) = 6.16657 7.34798 6.78304
#
# Compressibility (1/GPa) = 0.02428124
#
# Stress axis : x y z
#
# Youngs Moduli (GPa) = 55.67254 30.66289 124.03154
#
# Poissons Ratio (x) = 0.26381 0.44418
# Poissons Ratio (y) = 0.47898 0.61932
# Poissons Ratio (z) = 0.19937 0.15311
#
# Static dielectric constant tensor:
#      x y z
#    x 3.231150 0.000000 -0.131440 
#    y 0.000000 3.279940 0.000000 
#    z -0.131440 0.000000 3.987460 
# 
# 
# High freq. dielectric constant tensor:
#      x y z
#    x 1.684250 0.000000 -0.004410 
#    y 0.000000 1.708400 0.000000 
#    z -0.004410 0.000000 1.753170 
# 
# From -- ./inp_files/319217.got.cif
#   From: 2010.06.25/outbox.cif.g09.slc.cpg/sg12_160_cif.got.tgz:319217.got - 2010.06.28 00:19:55.
