data_PCOD8097050
_publ_section_title
;
Structure prediction by ZEFSAII (Michael W. Deem and Ramdas Pophale) SiO2 
 PCOD8097050
Probable space group: C 2/M
;
_chemical_formula_sum "Si O2"
_cell_formula_units_Z 56
_cell_length_a 8.976545
_cell_length_b 10.583327
_cell_length_c 34.529109
_cell_angle_alpha 90.000000
_cell_angle_beta 60.047202
_cell_angle_gamma 90.000000
_cell_volume 2842.194546
_symmetry_space_group_name_H-M "C 2/M"
_symmetry_group_IT_number 12
_symmetry_cell_setting 'monoclinic'
loop_
_space_group_symop_operation_xyz
x,y,z
-x,y,-z
-x,-y,-z
x,-y,z
1/2+x,1/2+y,z
1/2-x,1/2+y,-z
1/2-x,1/2-y,-z
1/2+x,1/2-y,z
loop_
_atom_site_type_symbol
_atom_site_label
_atom_site_fract_x
_atom_site_fract_y
_atom_site_fract_z
Si Si1 0.527719 0.785785 0.106133
Si Si2 0.516186 0.854994 0.736332
Si Si3 0.976172 0.640226 0.591682
Si Si4 0.214433 0.640052 0.306531
Si Si5 0.133041 0.856913 0.449179
Si Si6 0.125708 0.640415 0.952232
Si Si7 0.817972 0.639720 0.835578
O O1 0.689447 0.703936 0.071951
O O2 0.466320 0.867746 0.077653
O O3 0.365395 0.705179 0.140296
O O4 0.588332 0.866820 0.134963
O O5 0.656784 0.755717 0.703534
O O6 0.361597 0.850040 0.726268
O O7 0.445030 0.802306 0.786756
O O8 0.588944 0.000000 0.729946
O O9 0.915632 0.500000 0.585021
O O10 0.937469 0.653582 0.642338
O O11 0.878897 0.752546 0.582613
O O12 0.177873 0.653371 0.557650
O O13 0.302135 0.500000 0.299788
O O14 0.000000 0.822623 0.500000
O O15 0.100014 0.000000 0.437481
O O16 0.161699 0.500000 0.962369
O O17 0.000000 0.708524 0.000000
O O18 0.776221 0.500000 0.826907
#
# Coordination Sequence:
#
# PCOD8097050 Si02
#       7
#     8   8   8   8   8   8   8
#     4  10  20  34  53  76 103 135 171 212 259 309
#     4  10  21  37  57  80 108 142 179 222 270 320
#     4  10  21  36  55  80 110 143 180 222 267 318
#     4  10  21  37  55  79 110 142 179 222 267 318
#     4  10  21  37  57  82 111 143 181 224 269 318
#     4  10  20  34  52  75 103 135 171 211 256 307
#     4  10  20  35  54  77 104 135 173 215 261 312
#
# _framework density 19.703085000000002
#
# number of rings (size 3 to 8) (size 9 to 14) (size 15 to 20)
#    0.000    2.000    0.000    3.429    0.000    3.143 
#    0.000    3.571    0.000    6.857    0.000    0.000 
#    0.000    0.000    0.000    0.000    0.000    0.000 
#
# Total GULP energy -347053.468072 kJ/mol
# GULP energy per Si atom -12394.766717 kJ/mol
# Density = 1.965824 g / cm^3
# Si number density = 19.703085 Si / 1000 Ang^3
#
#
#
# Elastic Constant Matrix: (Units=GPa)
#
#
# Indices 1 2 3 4 5 6 
#
# 1 63.1115 36.4819 14.7717 0.0000 -12.9761 0.0000
# 2 36.4819 102.8809 34.7410 0.0000 -8.3683 0.0000
# 3 14.7717 34.7410 85.8939 0.0000 -10.6952 0.0000
# 4 0.0000 0.0000 0.0000 29.1528 0.0000 0.7659
# 5 -12.9761 -8.3683 -10.6952 0.0000 29.8436 0.0000
# 6 0.0000 0.0000 0.0000 0.7659 0.0000 24.6563
#
#
#
# Elastic Compliance Matrix: (Units=1/GPa)
#
#
# Indices 1 2 3 4 5 6 
#
# 1 0.021395 -0.007013 0.000074 0.000000 0.007363 0.000000
# 2 -0.007013 0.013629 -0.004407 0.000000 -0.000807 0.000000
# 3 0.000074 -0.004407 0.013882 0.000000 0.003771 0.000000
# 4 0.000000 0.000000 0.000000 0.034330 0.000000 -0.001066
# 5 0.007363 -0.000807 0.003771 0.000000 0.037835 0.000000
# 6 0.000000 0.000000 0.000000 -0.001066 0.000000 0.040591
#
#
# Mechanical properties :
#
#
# Convention : Reuss Voigt Hill
#
# Bulk Modulus (GPa) = 38.14746 47.09730 42.62238
# Shear Modulus (GPa) = 25.89441 27.78999 26.84220
#
# Velocity S-wave (km/s) = 3.62917 3.75965 3.69499
# Velocity P-wave (km/s) = 6.07983 6.54233 6.31531
#
# Compressibility (1/GPa) = 0.02621407
#
# Stress axis : x y z
#
# Youngs Moduli (GPa) = 46.73905 73.37134 72.03764
#
# Poissons Ratio (x) = 0.51455 -0.00531
# Poissons Ratio (y) = 0.32778 0.31747
# Poissons Ratio (z) = -0.00345 0.32335
#
# Static dielectric constant tensor:
#      x y z
#    x 3.339270 0.000000 -0.052440 
#    y 0.000000 3.635160 0.000000 
#    z -0.052440 0.000000 3.749900 
# 
# 
# High freq. dielectric constant tensor:
#      x y z
#    x 1.753240 0.000000 -0.004300 
#    y 0.000000 1.769690 0.000000 
#    z -0.004300 0.000000 1.784750 
# 
# From -- ./inp_files/355770.got.cif
#   From: 2010.06.25/outbox.cif.g09.slc.cpg/sg12_178_cif.got.tgz:355770.got - 2010.06.28 00:19:55.
