data_PCOD8097970
_publ_section_title
;
Structure prediction by ZEFSAII (Michael W. Deem and Ramdas Pophale) SiO2 
 PCOD8097970
Probable space group: C 2/M
;
_chemical_formula_sum "Si O2"
_cell_formula_units_Z 56
_cell_length_a 20.808341
_cell_length_b 9.238688
_cell_length_c 30.969922
_cell_angle_alpha 90.000000
_cell_angle_beta 29.501231
_cell_angle_gamma 90.000000
_cell_volume 2931.859701
_symmetry_space_group_name_H-M "C 2/M"
_symmetry_group_IT_number 12
_symmetry_cell_setting 'monoclinic'
loop_
_space_group_symop_operation_xyz
x,y,z
-x,y,-z
-x,-y,-z
x,-y,z
1/2+x,1/2+y,z
1/2-x,1/2+y,-z
1/2-x,1/2-y,-z
1/2+x,1/2-y,z
loop_
_atom_site_type_symbol
_atom_site_label
_atom_site_fract_x
_atom_site_fract_y
_atom_site_fract_z
Si Si1 0.883052 0.665126 0.036691
Si Si2 0.269001 0.665919 0.792928
Si Si3 0.636226 0.669970 0.040440
Si Si4 0.843267 0.169697 0.217722
Si Si5 0.773433 0.334024 0.549233
Si Si6 0.055359 0.170398 0.612332
Si Si7 0.855164 0.332391 0.594140
O O1 0.902078 0.500000 0.008645
O O2 0.756456 0.679133 0.141121
O O3 0.866176 0.773286 0.007062
O O4 0.000000 0.710462 0.000000
O O5 0.258426 0.500000 0.784122
O O6 0.168998 0.754630 0.821634
O O7 0.411848 0.731863 0.702953
O O8 0.668213 0.500000 0.021251
O O9 0.492995 0.698212 0.145827
O O10 0.750000 0.750000 0.000000
O O11 0.732319 0.234137 0.315550
O O12 0.820880 0.000000 0.224897
O O13 0.803311 0.500000 0.520471
O O14 0.893397 0.241043 0.461447
O O15 0.640553 0.282096 0.604064
O O16 0.763415 0.309542 0.606124
O O17 0.056011 0.000000 0.606057
O O18 0.878479 0.500000 0.590918
O O19 0.000000 0.262676 0.500000
#
# Coordination Sequence:
#
# PCOD8097970 Si02
#       7
#     8   8   8   8   8   8   8
#     4  10  20  37  61  85 112 147 186 230 282 340
#     4  10  20  34  55  81 108 141 181 226 279 336
#     4  11  24  40  60  86 118 154 192 238 288 342
#     4  10  21  36  56  82 109 141 184 232 276 330
#     4   9  17  31  50  70 100 139 176 219 266 319
#     4   9  18  31  49  75 103 135 175 219 270 326
#     4   9  17  30  51  78 105 136 176 219 269 325
#
# _framework density 19.100504999999998
#
# number of rings (size 3 to 8) (size 9 to 14) (size 15 to 20)
#    0.000    2.286    1.429    1.286    0.000    4.286 
#    0.000    5.000    0.000    6.000    0.000    0.000 
#    0.000    0.000    0.000    0.000    0.000    0.000 
#
# Total GULP energy -347042.332734 kJ/mol
# GULP energy per Si atom -12394.369026 kJ/mol
# Density = 1.905703 g / cm^3
# Si number density = 19.100505 Si / 1000 Ang^3
#
#
#
# Elastic Constant Matrix: (Units=GPa)
#
#
# Indices 1 2 3 4 5 6 
#
# 1 93.9800 41.0098 50.0238 0.0001 -2.5437 0.0016
# 2 41.0098 49.7532 37.8009 0.0000 -5.9377 -0.0001
# 3 50.0238 37.8009 114.4120 0.0013 -9.0876 -0.0003
# 4 0.0001 0.0000 0.0013 24.4525 -0.0002 0.5952
# 5 -2.5437 -5.9377 -9.0876 -0.0002 29.4849 0.0008
# 6 0.0016 -0.0001 -0.0003 0.5952 0.0008 29.8382
#
#
#
# Elastic Compliance Matrix: (Units=1/GPa)
#
#
# Indices 1 2 3 4 5 6 
#
# 1 0.017976 -0.011977 -0.004071 0.000000 -0.002116 -0.000001
# 2 -0.011977 0.035033 -0.006007 0.000000 0.004170 0.000001
# 3 -0.004071 -0.006007 0.012691 -0.000001 0.002351 0.000000
# 4 0.000000 0.000000 -0.000001 0.040915 0.000000 -0.000816
# 5 -0.002116 0.004170 0.002351 0.000000 0.035298 -0.000001
# 6 -0.000001 0.000001 0.000000 -0.000816 -0.000001 0.033530
#
#
# Mechanical properties :
#
#
# Convention : Reuss Voigt Hill
#
# Bulk Modulus (GPa) = 46.31369 57.31269 51.81319
# Shear Modulus (GPa) = 22.05069 25.37582 23.71326
#
# Velocity S-wave (km/s) = 3.40141 3.64887 3.52731
# Velocity P-wave (km/s) = 6.30287 6.91544 6.61625
#
# Compressibility (1/GPa) = 0.02159189
#
# Stress axis : x y z
#
# Youngs Moduli (GPa) = 55.62846 28.54463 78.79339
#
# Poissons Ratio (x) = 0.34188 0.32074
# Poissons Ratio (y) = 0.66627 0.47329
# Poissons Ratio (z) = 0.22644 0.17146
#
# Static dielectric constant tensor:
#      x y z
#    x 3.510150 0.000000 -0.083310 
#    y 0.000000 3.262910 0.000000 
#    z -0.083310 0.000000 3.861430 
# 
# 
# High freq. dielectric constant tensor:
#      x y z
#    x 1.740660 0.000000 -0.006090 
#    y 0.000000 1.717490 0.000000 
#    z -0.006090 0.000000 1.753430 
# 
# From -- ./inp_files/380602.got.cif
#   From: 2010.06.25/outbox.cif.g09.slc.cpg/sg12_191_cif.got.tgz:380602.got - 2010.06.28 00:19:55.
