data_PCOD8097781
_publ_section_title
;
Structure prediction by ZEFSAII (Michael W. Deem and Ramdas Pophale) SiO2 
 PCOD8097781
Probable space group: C 2/M
;
_chemical_formula_sum "Si O2"
_cell_formula_units_Z 64
_cell_length_a 26.477256
_cell_length_b 10.998179
_cell_length_c 25.046383
_cell_angle_alpha 90.000000
_cell_angle_beta 27.540680
_cell_angle_gamma 90.000000
_cell_volume 3372.377596
_symmetry_space_group_name_H-M "C 2/M"
_symmetry_group_IT_number 12
_symmetry_cell_setting 'monoclinic'
loop_
_space_group_symop_operation_xyz
x,y,z
-x,y,-z
-x,-y,-z
x,-y,z
1/2+x,1/2+y,z
1/2-x,1/2+y,-z
1/2-x,1/2-y,-z
1/2+x,1/2-y,z
loop_
_atom_site_type_symbol
_atom_site_label
_atom_site_fract_x
_atom_site_fract_y
_atom_site_fract_z
Si Si1 0.063877 0.641862 0.989989
Si Si2 0.209138 0.762256 0.202164
Si Si3 0.304625 0.356814 0.608750
Si Si4 0.738652 0.367710 0.953639
Si Si5 0.563802 0.245717 0.181827
Si Si6 0.129372 0.638689 0.376140
Si Si7 0.496793 0.636236 0.653400
Si Si8 0.065909 0.359005 0.788752
O O1 0.039054 0.500000 0.013571
O O2 0.192280 0.665057 0.862632
O O3 0.000000 0.702036 0.000000
O O4 0.013596 0.697780 0.091378
O O5 0.253294 0.723533 0.103107
O O6 0.171100 0.651675 0.275947
O O7 0.106091 0.850111 0.289847
O O8 0.312735 0.500000 0.621676
O O9 0.317046 0.252923 0.642464
O O10 0.395576 0.328449 0.479696
O O11 0.190279 0.332992 0.687269
O O12 0.738769 0.500000 0.928033
O O13 0.842650 0.355543 0.895812
O O14 0.627414 0.353800 0.091872
O O15 0.510774 0.279945 0.287816
O O16 0.463198 0.200945 0.240412
O O17 0.161207 0.500000 0.365718
O O18 0.000000 0.653728 0.500000
O O19 0.502934 0.500000 0.668708
O O20 0.042751 0.500000 0.804001
#
# Coordination Sequence:
#
# PCOD8097781 Si02
#       8
#     8   8   8   8   8   8   8   8
#     4  10  20  34  56  85 115 150 193 243 292 344
#     4  11  20  36  59  84 114 154 188 243 288 357
#     4  10  22  41  63  87 118 156 202 249 290 348
#     4  10  20  34  54  81 112 148 189 232 286 351
#     4  10  20  35  55  82 114 151 187 241 294 350
#     4  11  23  40  61  88 123 158 195 244 297 354
#     4  10  21  36  57  88 116 148 196 251 297 342
#     4  10  20  37  59  83 116 154 197 243 291 348
#
# _framework density 18.977709000000001
#
# number of rings (size 3 to 8) (size 9 to 14) (size 15 to 20)
#    0.000    1.750    2.500    2.250    0.000    2.750 
#    0.000    1.875    0.000    1.500    0.000    0.000 
#    0.000    0.000    0.000    0.000    0.000    0.000 
#
# Total GULP energy -396611.900922 kJ/mol
# GULP energy per Si atom -12394.121904 kJ/mol
# Density = 1.893451 g / cm^3
# Si number density = 18.977709 Si / 1000 Ang^3
#
#
#
# Elastic Constant Matrix: (Units=GPa)
#
#
# Indices 1 2 3 4 5 6 
#
# 1 115.2848 35.7593 44.2280 0.0001 -10.1829 0.0001
# 2 35.7593 62.3355 19.2352 -0.0001 2.4549 0.0002
# 3 44.2280 19.2352 111.2391 0.0000 -3.8355 0.0002
# 4 0.0001 -0.0001 0.0000 10.7565 -0.0002 3.4032
# 5 -10.1829 2.4549 -3.8355 -0.0002 31.8895 0.0001
# 6 0.0001 0.0002 0.0002 3.4032 0.0001 24.2659
#
#
#
# Elastic Compliance Matrix: (Units=1/GPa)
#
#
# Indices 1 2 3 4 5 6 
#
# 1 0.012338 -0.006087 -0.003716 0.000000 0.003961 0.000000
# 2 -0.006087 0.020038 -0.001170 0.000000 -0.003627 0.000000
# 3 -0.003716 -0.001170 0.010676 0.000000 0.000187 0.000000
# 4 0.000000 0.000000 0.000000 0.097284 0.000001 -0.013644
# 5 0.003961 -0.003627 0.000187 0.000001 0.032925 0.000000
# 6 0.000000 0.000000 0.000000 -0.013644 0.000000 0.043124
#
#
# Mechanical properties :
#
#
# Convention : Reuss Voigt Hill
#
# Bulk Modulus (GPa) = 47.38102 54.14493 50.76298
# Shear Modulus (GPa) = 20.37775 26.02483 23.20129
#
# Velocity S-wave (km/s) = 3.28040 3.70717 3.50030
# Velocity P-wave (km/s) = 6.27447 6.84959 6.56833
#
# Compressibility (1/GPa) = 0.02110550
#
# Stress axis : x y z
#
# Youngs Moduli (GPa) = 81.05123 49.90554 93.66818
#
# Poissons Ratio (x) = 0.30377 0.34810
# Poissons Ratio (y) = 0.49336 0.10957
# Poissons Ratio (z) = 0.30121 0.05838
#
# Static dielectric constant tensor:
#      x y z
#    x 3.478700 0.000000 0.030650 
#    y 0.000000 3.295070 0.000000 
#    z 0.030650 0.000000 3.506830 
# 
# 
# High freq. dielectric constant tensor:
#      x y z
#    x 1.737690 0.000000 0.004790 
#    y 0.000000 1.716500 0.000000 
#    z 0.004790 0.000000 1.748830 
# 
# From -- ./inp_files/349351.got.cif
#   From: 2010.06.25/outbox.cif.g09.slc.cpg/sg12_175_cif.got.tgz:349351.got - 2010.06.28 00:19:55.
