data_PCOD8097447
_publ_section_title
;
Structure prediction by ZEFSAII (Michael W. Deem and Ramdas Pophale) SiO2 
 PCOD8097447
Probable space group: C 2/M
;
_chemical_formula_sum "Si O2"
_cell_formula_units_Z 64
_cell_length_a 25.737459
_cell_length_b 13.364124
_cell_length_c 9.983377
_cell_angle_alpha 90.000000
_cell_angle_beta 97.795688
_cell_angle_gamma 90.000000
_cell_volume 3402.132677
_symmetry_space_group_name_H-M "C 2/M"
_symmetry_group_IT_number 12
_symmetry_cell_setting 'monoclinic'
loop_
_space_group_symop_operation_xyz
x,y,z
-x,y,-z
-x,-y,-z
x,-y,z
1/2+x,1/2+y,z
1/2-x,1/2+y,-z
1/2-x,1/2-y,-z
1/2+x,1/2-y,z
loop_
_atom_site_type_symbol
_atom_site_label
_atom_site_fract_x
_atom_site_fract_y
_atom_site_fract_z
Si Si1 0.025803 0.885286 0.825026
Si Si2 0.079808 0.163186 0.101134
Si Si3 0.117654 0.891138 0.386578
Si Si4 0.183636 0.724518 0.118162
Si Si5 0.144703 0.615368 0.631754
Si Si6 0.803380 0.718999 0.581871
Si Si7 0.272368 0.883303 0.112767
Si Si8 0.445889 0.729828 0.427458
O O1 0.048764 0.843700 0.696122
O O2 0.978657 0.812409 0.860389
O O3 0.005962 0.000000 0.798318
O O4 0.071987 0.887890 0.953493
O O5 0.103855 0.093253 0.225156
O O6 0.120609 0.255522 0.095722
O O7 0.168723 0.825382 0.415231
O O8 0.072049 0.837352 0.453792
O O9 0.129015 0.000000 0.452865
O O10 0.200468 0.679512 0.267719
O O11 0.217136 0.825332 0.101716
O O12 0.197204 0.641068 0.013749
O O13 0.128974 0.500000 0.645238
O O14 0.167641 0.632717 0.491686
O O15 0.188975 0.648699 0.753362
O O16 0.092833 0.681900 0.631256
O O17 0.750000 0.750000 0.500000
O O18 0.258831 0.000000 0.114018
O O19 0.500000 0.778326 0.500000
#
# Coordination Sequence:
#
# PCOD8097447 Si02
#       8
#     8   8   8   8   8   8   8   8
#     4  11  21  33  53  81 114 146 178 219 272 331
#     4  10  20  34  53  79 111 146 180 218 267 323
#     4  10  20  34  54  81 112 145 178 219 271 332
#     4  10  21  37  59  82 116 142 181 234 266 331
#     4  10  22  40  59  79 107 146 190 229 271 324
#     4  10  20  36  57  84 113 143 182 224 276 324
#     4  10  21  38  60  82 107 148 185 222 277 324
#     4  11  22  36  56  79 110 144 181 226 276 324
#
# _framework density 18.811729
#
# number of rings (size 3 to 8) (size 9 to 14) (size 15 to 20)
#    0.000    1.750    2.500    2.625    0.000    4.750 
#    0.000    0.000    0.000    0.000    0.000    3.500 
#    0.000    0.000    0.000    0.000    0.000    0.000 
#
# Total GULP energy -396542.648661 kJ/mol
# GULP energy per Si atom -12391.957771 kJ/mol
# Density = 1.876891 g / cm^3
# Si number density = 18.811729 Si / 1000 Ang^3
#
#
#
# Elastic Constant Matrix: (Units=GPa)
#
#
# Indices 1 2 3 4 5 6 
#
# 1 85.8972 22.7490 47.0119 0.0000 7.2747 0.0000
# 2 22.7490 57.9528 29.6579 0.0000 8.2285 0.0000
# 3 47.0119 29.6579 115.7863 0.0000 -3.0243 0.0000
# 4 0.0000 0.0000 0.0000 16.8230 0.0000 0.3512
# 5 7.2747 8.2285 -3.0243 0.0000 28.2461 0.0000
# 6 0.0000 0.0000 0.0000 0.3512 0.0000 14.7813
#
#
#
# Elastic Compliance Matrix: (Units=1/GPa)
#
#
# Indices 1 2 3 4 5 6 
#
# 1 0.015899 -0.002675 -0.005873 0.000000 -0.003944 0.000000
# 2 -0.002675 0.021512 -0.004582 0.000000 -0.006069 0.000000
# 3 -0.005873 -0.004582 0.012304 0.000000 0.004165 0.000000
# 4 0.000000 0.000000 0.000000 0.059472 0.000000 -0.001413
# 5 -0.003944 -0.006069 0.004165 0.000000 0.038633 0.000000
# 6 0.000000 0.000000 0.000000 -0.001413 0.000000 0.067687
#
#
# Mechanical properties :
#
#
# Convention : Reuss Voigt Hill
#
# Bulk Modulus (GPa) = 42.63821 50.94153 46.78987
# Shear Modulus (GPa) = 20.03323 22.65126 21.34224
#
# Velocity S-wave (km/s) = 3.26687 3.47378 3.37191
# Velocity P-wave (km/s) = 6.07823 6.57480 6.33139
#
# Compressibility (1/GPa) = 0.02345314
#
# Stress axis : x y z
#
# Youngs Moduli (GPa) = 62.89827 46.48479 81.27625
#
# Poissons Ratio (x) = 0.12436 0.47733
# Poissons Ratio (y) = 0.16828 0.37245
# Poissons Ratio (z) = 0.36940 0.21302
#
# Static dielectric constant tensor:
#      x y z
#    x 3.641590 0.000000 0.051620 
#    y 0.000000 2.544040 0.000000 
#    z 0.051620 0.000000 3.854570 
# 
# 
# High freq. dielectric constant tensor:
#      x y z
#    x 1.737870 0.000000 0.001080 
#    y 0.000000 1.695450 0.000000 
#    z 0.001080 0.000000 1.752560 
# 
# From -- ./inp_files/104606.got.cif
#   From: 2010.06.25/outbox.cif.g09.slc.cpg/sg12_53_cif.got.tgz:104606.got - 2010.06.28 00:19:55.
