data_PCOD8097153
_publ_section_title
;
Structure prediction by ZEFSAII (Michael W. Deem and Ramdas Pophale) SiO2 
 PCOD8097153
Probable space group: C 2/M
;
_chemical_formula_sum "Si O2"
_cell_formula_units_Z 56
_cell_length_a 20.149504
_cell_length_b 8.816916
_cell_length_c 20.894134
_cell_angle_alpha 90.000000
_cell_angle_beta 130.782358
_cell_angle_gamma 90.000000
_cell_volume 2810.695985
_symmetry_space_group_name_H-M "C 2/M"
_symmetry_group_IT_number 12
_symmetry_cell_setting 'monoclinic'
loop_
_space_group_symop_operation_xyz
x,y,z
-x,y,-z
-x,-y,-z
x,-y,z
1/2+x,1/2+y,z
1/2-x,1/2+y,-z
1/2-x,1/2-y,-z
1/2+x,1/2-y,z
loop_
_atom_site_type_symbol
_atom_site_label
_atom_site_fract_x
_atom_site_fract_y
_atom_site_fract_z
Si Si1 0.896221 0.680694 0.252492
Si Si2 0.324328 0.174542 0.405466
Si Si3 0.452481 0.180863 0.907468
Si Si4 0.350502 0.330438 0.637810
Si Si5 0.253223 0.180059 0.770151
Si Si6 0.450910 0.675313 0.574821
Si Si7 0.498497 0.177407 0.800684
O O1 0.890290 0.500000 0.250412
O O2 0.801495 0.754742 0.204211
O O3 0.962026 0.734800 0.349868
O O4 0.930045 0.743453 0.204480
O O5 0.252796 0.190951 0.417012
O O6 0.288616 0.255584 0.320380
O O7 0.413375 0.255268 0.485284
O O8 0.344475 0.000000 0.402015
O O9 0.352517 0.238905 0.841127
O O10 0.506339 0.238950 0.878544
O O11 0.452599 0.000000 0.909835
O O12 0.500000 0.249035 0.000000
O O13 0.379819 0.500000 0.676495
O O14 0.374882 0.301585 0.579620
O O15 0.400941 0.213240 0.715009
O O16 0.248131 0.000000 0.766053
O O17 0.475365 0.500000 0.579833
O O18 0.510345 0.000000 0.809006
#
# Coordination Sequence:
#
# PCOD8097153 Si02
#       7
#     8   8   8   8   8   8   8
#     4  10  21  37  56  79 113 151 187 227 274 326
#     4  11  21  33  51  78 113 149 186 230 281 325
#     4   9  18  35  61  90 113 137 178 228 275 328
#     4   9  18  31  50  77 111 146 182 229 276 323
#     4  11  22  37  58  82 110 146 186 229 276 329
#     4  10  20  34  52  78 110 148 193 232 269 319
#     4   9  17  33  58  83 108 145 186 224 269 326
#
# _framework density 19.92389
#
# number of rings (size 3 to 8) (size 9 to 14) (size 15 to 20)
#    0.000    2.143    1.429    2.143    0.000    2.286 
#    0.000    3.571    0.000    3.857    0.000    0.000 
#    0.000    0.000    0.000    0.000    0.000    0.000 
#
# Total GULP energy -347123.947341 kJ/mol
# GULP energy per Si atom -12397.283834 kJ/mol
# Density = 1.987854 g / cm^3
# Si number density = 19.923890 Si / 1000 Ang^3
#
#
#
# Elastic Constant Matrix: (Units=GPa)
#
#
# Indices 1 2 3 4 5 6 
#
# 1 95.8630 30.8550 54.2019 0.0000 2.9176 0.0000
# 2 30.8550 61.4719 27.0604 0.0000 -1.6942 0.0000
# 3 54.2019 27.0604 124.8490 0.0000 -16.2347 0.0000
# 4 0.0000 0.0000 0.0000 17.3655 0.0000 -0.0727
# 5 2.9176 -1.6942 -16.2347 0.0000 16.2997 0.0000
# 6 0.0000 0.0000 0.0000 -0.0727 0.0000 27.4299
#
#
#
# Elastic Compliance Matrix: (Units=1/GPa)
#
#
# Indices 1 2 3 4 5 6 
#
# 1 0.016780 -0.005402 -0.007556 0.000000 -0.011091 0.000000
# 2 -0.005402 0.019799 -0.001784 0.000000 0.001248 0.000000
# 3 -0.007556 -0.001784 0.013589 0.000000 0.014702 0.000000
# 4 0.000000 0.000000 0.000000 0.057586 0.000000 0.000153
# 5 -0.011091 0.001248 0.014702 0.000000 0.078109 0.000000
# 6 0.000000 0.000000 0.000000 0.000153 0.000000 0.036457
#
#
# Mechanical properties :
#
#
# Convention : Reuss Voigt Hill
#
# Bulk Modulus (GPa) = 48.34829 56.26873 52.30851
# Shear Modulus (GPa) = 19.32753 23.55677 21.44215
#
# Velocity S-wave (km/s) = 3.11797 3.44224 3.28411
# Velocity P-wave (km/s) = 6.10586 6.64092 6.37900
#
# Compressibility (1/GPa) = 0.02068325
#
# Stress axis : x y z
#
# Youngs Moduli (GPa) = 59.59371 50.50849 73.59132
#
# Poissons Ratio (x) = 0.27284 0.55609
# Poissons Ratio (y) = 0.32192 0.13127
# Poissons Ratio (z) = 0.45031 0.09010
#
# Static dielectric constant tensor:
#      x y z
#    x 4.056970 0.000000 -0.176910 
#    y 0.000000 3.482220 0.000000 
#    z -0.176910 0.000000 3.516070 
# 
# 
# High freq. dielectric constant tensor:
#      x y z
#    x 1.791190 0.000000 -0.010540 
#    y 0.000000 1.764720 0.000000 
#    z -0.010540 0.000000 1.749300 
# 
# From -- ./inp_files/320230.got.cif
#   From: 2010.06.25/outbox.cif.g09.slc.cpg/sg12_161_cif.got.tgz:320230.got - 2010.06.28 00:19:55.
