data_PCOD8097579
_publ_section_title
;
Structure prediction by ZEFSAII (Michael W. Deem and Ramdas Pophale) SiO2 
 PCOD8097579
Probable space group: C 2/M
;
_chemical_formula_sum "Si O2"
_cell_formula_units_Z 48
_cell_length_a 18.379716
_cell_length_b 9.198451
_cell_length_c 15.335160
_cell_angle_alpha 90.000000
_cell_angle_beta 90.759100
_cell_angle_gamma 90.000000
_cell_volume 2592.410013
_symmetry_space_group_name_H-M "C 2/M"
_symmetry_group_IT_number 12
_symmetry_cell_setting 'monoclinic'
loop_
_space_group_symop_operation_xyz
x,y,z
-x,y,-z
-x,-y,-z
x,-y,z
1/2+x,1/2+y,z
1/2-x,1/2+y,-z
1/2-x,1/2-y,-z
1/2+x,1/2-y,z
loop_
_atom_site_type_symbol
_atom_site_label
_atom_site_fract_x
_atom_site_fract_y
_atom_site_fract_z
Si Si1 0.208289 0.669115 0.248761
Si Si2 0.541372 0.666813 0.415294
Si Si3 0.959106 0.169487 0.087833
Si Si4 0.211680 0.832561 0.421709
Si Si5 0.540271 0.169977 0.242167
Si Si6 0.291320 0.669869 0.076973
O O1 0.218217 0.500000 0.271837
O O2 0.236205 0.761831 0.330990
O O3 0.124674 0.705290 0.225096
O O4 0.257174 0.717670 0.168330
O O5 0.500000 0.724313 0.500000
O O6 0.520928 0.500000 0.395089
O O7 0.626233 0.686102 0.434016
O O8 0.515188 0.762158 0.333415
O O9 0.875395 0.214646 0.076423
O O10 0.992927 0.261314 0.165658
O O11 0.967841 0.000000 0.110346
O O12 0.000000 0.211045 0.000000
O O13 0.250000 0.750000 0.500000
O O14 0.235745 0.000000 0.422173
O O15 0.524823 0.000000 0.245245
O O16 0.280624 0.500000 0.061284
O O17 0.250000 0.750000 0.000000
#
# Coordination Sequence:
#
# PCOD8097579 Si02
#       6
#     8   8   8   8   8   8
#     4   9  19  36  54  74 103 137 173 212 255 303
#     4   9  19  36  56  76 101 137 176 211 252 304
#     4  10  21  36  54  77 105 137 172 210 254 306
#     4  10  20  34  54  78 104 136 172 212 257 304
#     4  10  20  34  54  78 104 135 170 213 260 302
#     4  10  21  36  55  78 104 136 172 212 256 302
#
# _framework density 18.51559
#
# number of rings (size 3 to 8) (size 9 to 14) (size 15 to 20)
#    0.000    2.333    0.000    2.000    0.000    4.667 
#    0.000    6.667    0.000    0.000    0.000    0.000 
#    0.000    0.000    0.000    0.000    0.000    0.000 
#
# Total GULP energy -297707.402195 kJ/mol
# GULP energy per Si atom -12404.475091 kJ/mol
# Density = 1.847345 g / cm^3
# Si number density = 18.515590 Si / 1000 Ang^3
#
#
#
# Elastic Constant Matrix: (Units=GPa)
#
#
# Indices 1 2 3 4 5 6 
#
# 1 99.1261 56.8702 97.4101 0.0000 -6.0586 0.0000
# 2 56.8702 97.2143 95.2195 0.0000 11.9108 0.0000
# 3 97.4101 95.2195 192.9242 0.0000 0.8233 0.0000
# 4 0.0000 0.0000 0.0000 37.8472 0.0000 6.5728
# 5 -6.0586 11.9108 0.8233 0.0000 40.2197 0.0000
# 6 0.0000 0.0000 0.0000 6.5728 0.0000 26.9097
#
#
#
# Elastic Compliance Matrix: (Units=1/GPa)
#
#
# Indices 1 2 3 4 5 6 
#
# 1 0.021512 -0.004880 -0.008474 0.000000 0.004859 0.000000
# 2 -0.004880 0.022417 -0.008569 0.000000 -0.007198 0.000000
# 3 -0.008474 -0.008569 0.013687 0.000000 0.000981 0.000000
# 4 0.000000 0.000000 0.000000 0.027593 0.000000 -0.006740
# 5 0.004859 -0.007198 0.000981 0.000000 0.027707 0.000000
# 6 0.000000 0.000000 0.000000 -0.006740 0.000000 0.038807
#
#
# Mechanical properties :
#
#
# Convention : Reuss Voigt Hill
#
# Bulk Modulus (GPa) = 72.62276 98.69600 85.65938
# Shear Modulus (GPa) = 24.98011 30.31298 27.64655
#
# Velocity S-wave (km/s) = 3.67705 4.05057 3.86832
# Velocity P-wave (km/s) = 7.57200 8.67734 8.14344
#
# Compressibility (1/GPa) = 0.01376979
#
# Stress axis : x y z
#
# Youngs Moduli (GPa) = 46.48556 44.60978 73.06003
#
# Poissons Ratio (x) = 0.21768 0.61912
# Poissons Ratio (y) = 0.22683 0.62608
# Poissons Ratio (z) = 0.39392 0.38228
#
# Static dielectric constant tensor:
#      x y z
#    x 3.440940 0.000000 -0.163320 
#    y 0.000000 3.431580 0.000000 
#    z -0.163320 0.000000 3.515180 
# 
# 
# High freq. dielectric constant tensor:
#      x y z
#    x 1.717120 0.000000 -0.002960 
#    y 0.000000 1.719170 0.000000 
#    z -0.002960 0.000000 1.730790 
# 
# From -- ./inp_files/221532.got.cif
#   From: 2010.06.25/outbox.cif.g09.slc.cpg/sg12_111_cif.got.tgz:221532.got - 2010.06.28 00:19:55.
