data_PCOD8097125
_publ_section_title
;
Structure prediction by ZEFSAII (Michael W. Deem and Ramdas Pophale) SiO2 
 PCOD8097125
Probable space group: C 2/M
;
_chemical_formula_sum "Si O2"
_cell_formula_units_Z 56
_cell_length_a 18.230850
_cell_length_b 9.017829
_cell_length_c 22.184720
_cell_angle_alpha 90.000000
_cell_angle_beta 126.112738
_cell_angle_gamma 90.000000
_cell_volume 2946.445179
_symmetry_space_group_name_H-M "C 2/M"
_symmetry_group_IT_number 12
_symmetry_cell_setting 'monoclinic'
loop_
_space_group_symop_operation_xyz
x,y,z
-x,y,-z
-x,-y,-z
x,-y,z
1/2+x,1/2+y,z
1/2-x,1/2+y,-z
1/2-x,1/2-y,-z
1/2+x,1/2-y,z
loop_
_atom_site_type_symbol
_atom_site_label
_atom_site_fract_x
_atom_site_fract_y
_atom_site_fract_z
Si Si1 0.656636 0.828566 0.939847
Si Si2 0.807081 0.323556 0.803535
Si Si3 0.975143 0.834684 0.352167
Si Si4 0.648241 0.829593 0.794944
Si Si5 0.584668 0.834167 0.495982
Si Si6 0.308223 0.663661 0.361797
Si Si7 0.492547 0.329002 0.925298
O O1 0.634129 0.814464 0.858856
O O2 0.580726 0.744443 0.940280
O O3 0.661128 0.000000 0.962014
O O4 0.750000 0.750000 0.000000
O O5 0.806476 0.500000 0.811968
O O6 0.739837 0.254990 0.820579
O O7 0.774752 0.280073 0.720134
O O8 0.906368 0.259453 0.859531
O O9 0.941427 0.739597 0.278925
O O10 0.896132 0.842271 0.362592
O O11 0.063079 0.759650 0.425433
O O12 0.001371 0.000000 0.343249
O O13 0.657704 0.000000 0.779095
O O14 0.500000 0.830571 0.500000
O O15 0.673895 0.770229 0.572774
O O16 0.607351 0.000000 0.486492
O O17 0.287644 0.500000 0.377442
O O18 0.485400 0.500000 0.901923
O O19 0.500000 0.314192 0.000000
#
# Coordination Sequence:
#
# PCOD8097125 Si02
#       7
#     8   8   8   8   8   8   8
#     4  11  24  40  59  82 108 139 174 215 262 313
#     4  10  20  34  54  79 107 141 178 217 264 315
#     4   9  16  26  42  65  96 135 174 213 259 308
#     4  10  20  34  52  77 108 139 175 219 264 311
#     4   9  15  22  36  61  94 132 171 212 258 304
#     4   8  15  26  40  63  96 132 170 211 255 305
#     4  11  24  40  58  81 108 138 174 217 262 310
#
# _framework density 19.005953999999999
#
# number of rings (size 3 to 8) (size 9 to 14) (size 15 to 20)
#    0.000    2.286    0.000    4.286    0.000   12.571 
#    0.000    0.000    0.000    0.000    0.000    1.000 
#    0.000    0.000    0.000    0.000    0.000    0.000 
#
# Total GULP energy -347187.564107 kJ/mol
# GULP energy per Si atom -12399.555861 kJ/mol
# Density = 1.896270 g / cm^3
# Si number density = 19.005954 Si / 1000 Ang^3
#
#
#
# Elastic Constant Matrix: (Units=GPa)
#
#
# Indices 1 2 3 4 5 6 
#
# 1 63.6317 45.2341 34.1638 0.0000 4.3740 0.0000
# 2 45.2341 159.9708 77.8273 0.0000 1.3443 0.0000
# 3 34.1638 77.8273 128.2194 0.0000 5.9259 0.0000
# 4 0.0000 0.0000 0.0000 38.6142 0.0000 18.6791
# 5 4.3740 1.3443 5.9259 0.0000 16.2506 0.0000
# 6 0.0000 0.0000 0.0000 18.6791 0.0000 -73.8420
#
#
#
# Elastic Compliance Matrix: (Units=1/GPa)
#
#
# Indices 1 2 3 4 5 6 
#
# 1 0.020607 -0.004563 -0.002525 0.000000 -0.004248 0.000000
# 2 -0.004563 0.009906 -0.004899 0.000000 0.002195 0.000000
# 3 -0.002525 -0.004899 0.011590 0.000000 -0.003142 0.000000
# 4 0.000000 0.000000 0.000000 0.023074 0.000000 0.005837
# 5 -0.004248 0.002195 -0.003142 0.000000 0.063644 0.000000
# 6 0.000000 0.000000 0.000000 0.005837 0.000000 -0.012066
#
#
# Mechanical properties :
#
#
# Convention : Reuss Voigt Hill
#
# Bulk Modulus (GPa) = 55.15433 74.03025 64.59229
# Shear Modulus (GPa) = 34.06685 9.17766 21.62225
#
# Velocity S-wave (km/s) = 4.23830 2.19985 3.37658
# Velocity P-wave (km/s) = 7.28241 6.74448 7.01860
#
# Compressibility (1/GPa) = 0.01813094
#
# Stress axis : x y z
#
# Youngs Moduli (GPa) = 48.52829 100.94797 86.27855
#
# Poissons Ratio (x) = 0.46061 0.21782
# Poissons Ratio (y) = 0.22143 0.42264
# Poissons Ratio (z) = 0.12252 0.49450
#
# Static dielectric constant tensor:
#      x y z
#    x 2.909000 0.000000 -0.016880 
#    y 0.000000 3.790410 0.000000 
#    z -0.016880 0.000000 3.789990 
# 
# 
# High freq. dielectric constant tensor:
#      x y z
#    x 1.681270 0.000000 0.000140 
#    y 0.000000 1.757860 0.000000 
#    z 0.000140 0.000000 1.758660 
# 
# From -- ./inp_files/342494.got.cif
#   From: 2010.06.25/outbox.cif.g09.slc.cpg/sg12_172_cif.got.tgz:342494.got - 2010.06.28 00:19:55.
