data_PCOD8097174
_publ_section_title
;
Structure prediction by ZEFSAII (Michael W. Deem and Ramdas Pophale) SiO2 
 PCOD8097174
Probable space group: C 2/M
;
_chemical_formula_sum "Si O2"
_cell_formula_units_Z 60
_cell_length_a 27.647809
_cell_length_b 14.364528
_cell_length_c 14.274469
_cell_angle_alpha 90.000000
_cell_angle_beta 34.450923
_cell_angle_gamma 90.000000
_cell_volume 3206.995224
_symmetry_space_group_name_H-M "C 2/M"
_symmetry_group_IT_number 12
_symmetry_cell_setting 'monoclinic'
loop_
_space_group_symop_operation_xyz
x,y,z
-x,y,-z
-x,-y,-z
x,-y,z
1/2+x,1/2+y,z
1/2-x,1/2+y,-z
1/2-x,1/2-y,-z
1/2+x,1/2-y,z
loop_
_atom_site_type_symbol
_atom_site_label
_atom_site_fract_x
_atom_site_fract_y
_atom_site_fract_z
Si Si1 0.294624 0.609021 0.483829
Si Si2 0.658357 0.103719 0.853186
Si Si3 0.411705 0.106826 0.691244
Si Si4 0.064636 0.748905 0.715496
Si Si5 0.500000 0.163200 0.000000
Si Si6 0.797115 0.607999 0.557598
Si Si7 0.115165 0.265808 0.087065
Si Si8 0.759443 0.894339 0.147038
O O1 0.310417 0.500000 0.459363
O O2 0.225737 0.641281 0.670300
O O3 0.383131 0.655816 0.370759
O O4 0.261616 0.642004 0.434803
O O5 0.565212 0.099399 0.954016
O O6 0.681785 0.000000 0.849332
O O7 0.662287 0.169957 0.936067
O O8 0.500000 0.134093 0.500000
O O9 0.394731 0.176886 0.802573
O O10 0.335921 0.120670 0.738453
O O11 0.415697 0.000000 0.721486
O O12 0.050703 0.727694 0.846766
O O13 0.114572 0.665050 0.584247
O O14 0.976852 0.767233 0.801616
O O15 0.823163 0.500000 0.505509
O O16 0.743211 0.625670 0.737656
O O17 0.173722 0.174758 0.009891
O O18 0.790147 0.000000 0.078263
#
# Coordination Sequence:
#
# PCOD8097174 Si02
#       8
#     8   8   8   8   4   8   8   8
#     4  10  21  36  54  76 111 156 194 231 269 321
#     4  10  20  34  52  79 111 143 182 228 281 331
#     4  10  21  40  64  89 113 139 179 233 286 338
#     4  11  22  33  52  77 112 147 189 227 270 332
#     4  10  21  30  47  74 106 144 177 228 281 316
#     4  10  20  35  57  81 107 149 193 233 280 324
#     4  11  23  36  57  86 114 149 180 227 284 335
#     4  10  22  39  60  83 112 147 187 231 277 330
#
# _framework density 18.709099999999999
#
# number of rings (size 3 to 8) (size 9 to 14) (size 15 to 20)
#    0.000    1.733    1.333    3.000    3.733    4.267 
#    0.000    0.333    0.000    0.400    0.000    0.000 
#    0.000    0.000    0.000    0.000    0.000    0.000 
#
# Total GULP energy -372103.761915 kJ/mol
# GULP energy per Si atom -12403.458730 kJ/mol
# Density = 1.866652 g / cm^3
# Si number density = 18.709100 Si / 1000 Ang^3
#
#
#
# Elastic Constant Matrix: (Units=GPa)
#
#
# Indices 1 2 3 4 5 6 
#
# 1 87.7494 50.8617 49.2838 0.0000 6.5965 0.0000
# 2 50.8617 92.2003 71.6038 0.0000 2.0931 0.0000
# 3 49.2838 71.6038 111.9011 0.0000 2.7169 0.0000
# 4 0.0000 0.0000 0.0000 28.6173 0.0000 -2.1220
# 5 6.5965 2.0931 2.7169 0.0000 33.5373 0.0000
# 6 0.0000 0.0000 0.0000 -2.1220 0.0000 24.6242
#
#
#
# Elastic Compliance Matrix: (Units=1/GPa)
#
#
# Indices 1 2 3 4 5 6 
#
# 1 0.017493 -0.007268 -0.002987 0.000000 -0.002745 0.000000
# 2 -0.007268 0.024581 -0.012550 0.000000 0.000912 0.000000
# 3 -0.002987 -0.012550 0.018286 0.000000 -0.000111 0.000000
# 4 0.000000 0.000000 0.000000 0.035169 0.000000 0.003031
# 5 -0.002745 0.000912 -0.000111 0.000000 0.030310 0.000000
# 6 0.000000 0.000000 0.000000 0.003031 0.000000 0.040872
#
#
# Mechanical properties :
#
#
# Convention : Reuss Voigt Hill
#
# Bulk Modulus (GPa) = 67.80065 70.59439 69.19752
# Shear Modulus (GPa) = 23.01648 25.36252 24.18950
#
# Velocity S-wave (km/s) = 3.51127 3.68588 3.59963
# Velocity P-wave (km/s) = 7.26338 7.47856 7.37175
#
# Compressibility (1/GPa) = 0.01474912
#
# Stress axis : x y z
#
# Youngs Moduli (GPa) = 57.16711 40.68156 54.68785
#
# Poissons Ratio (x) = 0.29565 0.16336
# Poissons Ratio (y) = 0.41546 0.68636
# Poissons Ratio (z) = 0.17076 0.51057
#
# Static dielectric constant tensor:
#      x y z
#    x 3.354830 0.000000 0.053390 
#    y 0.000000 3.356160 0.000000 
#    z 0.053390 0.000000 3.450540 
# 
# 
# High freq. dielectric constant tensor:
#      x y z
#    x 1.718960 0.000000 0.003200 
#    y 0.000000 1.726710 0.000000 
#    z 0.003200 0.000000 1.728840 
# 
# From -- ./inp_files/246716.got.cif
#   From: 2010.06.25/outbox.cif.g09.slc.cpg/sg12_124_cif.got.tgz:246716.got - 2010.06.28 00:19:55.
