data_PCOD8097065
_publ_section_title
;
Structure prediction by ZEFSAII (Michael W. Deem and Ramdas Pophale) SiO2 
 PCOD8097065
Probable space group: C 2/M
;
_chemical_formula_sum "Si O2"
_cell_formula_units_Z 56
_cell_length_a 14.421901
_cell_length_b 9.290342
_cell_length_c 24.406554
_cell_angle_alpha 90.000000
_cell_angle_beta 116.850404
_cell_angle_gamma 90.000000
_cell_volume 2917.544292
_symmetry_space_group_name_H-M "C 2/M"
_symmetry_group_IT_number 12
_symmetry_cell_setting 'monoclinic'
loop_
_space_group_symop_operation_xyz
x,y,z
-x,y,-z
-x,-y,-z
x,-y,z
1/2+x,1/2+y,z
1/2-x,1/2+y,-z
1/2-x,1/2-y,-z
1/2+x,1/2-y,z
loop_
_atom_site_type_symbol
_atom_site_label
_atom_site_fract_x
_atom_site_fract_y
_atom_site_fract_z
Si Si1 0.423641 0.166190 0.730598
Si Si2 0.119834 0.830470 0.820395
Si Si3 0.599142 0.668769 0.491828
Si Si4 0.673465 0.832942 0.410314
Si Si5 0.715477 0.161075 0.938247
Si Si6 0.072041 0.158535 0.065725
Si Si7 0.665603 0.163516 0.178511
O O1 0.522393 0.269234 0.761433
O O2 0.361383 0.209438 0.659764
O O3 0.345076 0.193963 0.759938
O O4 0.460539 0.000000 0.739131
O O5 0.128161 0.749953 0.881514
O O6 0.218560 0.794797 0.808600
O O7 0.107092 0.000000 0.827651
O O8 0.500000 0.724824 0.500000
O O9 0.588577 0.500000 0.477889
O O10 0.602021 0.746237 0.433861
O O11 0.704804 0.707546 0.552518
O O12 0.656139 0.000000 0.418209
O O13 0.812086 0.145422 0.924398
O O14 0.675108 0.000000 0.943326
O O15 0.750000 0.250000 0.000000
O O16 0.075425 0.249096 0.122411
O O17 0.025684 0.000000 0.066483
O O18 0.000000 0.233787 0.000000
O O19 0.642576 0.000000 0.157078
#
# Coordination Sequence:
#
# PCOD8097065 Si02
#       7
#     8   8   8   8   8   8   8
#     4  10  21  37  56  79 110 148 183 221 276 327
#     4  10  21  37  55  77 105 139 182 228 273 326
#     4   9  18  34  58  85 114 149 186 224 266 313
#     4   9  19  35  54  81 116 148 182 225 268 320
#     4  10  20  34  52  75 104 135 170 219 277 334
#     4   9  19  34  51  73 100 130 166 216 272 324
#     4   9  20  37  54  75 103 137 177 222 270 327
#
# _framework density 19.194223000000001
#
# number of rings (size 3 to 8) (size 9 to 14) (size 15 to 20)
#    0.000    2.571    0.000    0.857    2.000    4.000 
#    0.000    2.857    0.000    0.000    0.000    0.000 
#    0.000    0.000    0.000    0.000    0.000    0.000 
#
# Total GULP energy -347173.335373 kJ/mol
# GULP energy per Si atom -12399.047692 kJ/mol
# Density = 1.915054 g / cm^3
# Si number density = 19.194223 Si / 1000 Ang^3
#
#
#
# Elastic Constant Matrix: (Units=GPa)
#
#
# Indices 1 2 3 4 5 6 
#
# 1 91.9970 46.3344 52.6259 0.0000 -7.0575 0.0000
# 2 46.3344 93.1500 67.0440 0.0000 -4.9329 0.0000
# 3 52.6259 67.0440 160.6024 0.0000 -11.0901 0.0000
# 4 0.0000 0.0000 0.0000 32.8434 0.0000 -2.0197
# 5 -7.0575 -4.9329 -11.0901 0.0000 25.9923 0.0000
# 6 0.0000 0.0000 0.0000 -2.0197 0.0000 22.4711
#
#
#
# Elastic Compliance Matrix: (Units=1/GPa)
#
#
# Indices 1 2 3 4 5 6 
#
# 1 0.015336 -0.005725 -0.002496 0.000000 0.002012 0.000000
# 2 -0.005725 0.017484 -0.005462 0.000000 -0.000567 0.000000
# 3 -0.002496 -0.005462 0.009486 0.000000 0.002333 0.000000
# 4 0.000000 0.000000 0.000000 0.030617 0.000000 0.002752
# 5 0.002012 -0.000567 0.002333 0.000000 0.039907 0.000000
# 6 0.000000 0.000000 0.000000 0.002752 0.000000 0.044749
#
#
# Mechanical properties :
#
#
# Convention : Reuss Voigt Hill
#
# Bulk Modulus (GPa) = 66.93835 75.30645 71.12240
# Shear Modulus (GPa) = 26.32617 28.24436 27.28526
#
# Velocity S-wave (km/s) = 3.70749 3.84018 3.77442
# Velocity P-wave (km/s) = 7.29912 7.67996 7.49196
#
# Compressibility (1/GPa) = 0.01493912
#
# Stress axis : x y z
#
# Youngs Moduli (GPa) = 65.20745 57.19402 105.42076
#
# Poissons Ratio (x) = 0.32743 0.26316
# Poissons Ratio (y) = 0.37331 0.57582
# Poissons Ratio (z) = 0.16278 0.31240
#
# Static dielectric constant tensor:
#      x y z
#    x 3.497840 0.000000 -0.008400 
#    y 0.000000 3.698970 0.000000 
#    z -0.008400 0.000000 3.500490 
# 
# 
# High freq. dielectric constant tensor:
#      x y z
#    x 1.743210 0.000000 -0.000360 
#    y 0.000000 1.745790 0.000000 
#    z -0.000360 0.000000 1.743090 
# 
# From -- ./inp_files/339048.got.cif
#   From: 2010.06.25/outbox.cif.g09.slc.cpg/sg12_170_cif.got.tgz:339048.got - 2010.06.28 00:19:55.
