data_PCOD8097777
_publ_section_title
;
Structure prediction by ZEFSAII (Michael W. Deem and Ramdas Pophale) SiO2 
 PCOD8097777
Probable space group: C 2/M
;
_chemical_formula_sum "Si O2"
_cell_formula_units_Z 48
_cell_length_a 26.701517
_cell_length_b 9.613823
_cell_length_c 19.832807
_cell_angle_alpha 90.000000
_cell_angle_beta 150.430000
_cell_angle_gamma 90.000000
_cell_volume 2512.415988
_symmetry_space_group_name_H-M "C 2/M"
_symmetry_group_IT_number 12
_symmetry_cell_setting 'monoclinic'
loop_
_space_group_symop_operation_xyz
x,y,z
-x,y,-z
-x,-y,-z
x,-y,z
1/2+x,1/2+y,z
1/2-x,1/2+y,-z
1/2-x,1/2-y,-z
1/2+x,1/2-y,z
loop_
_atom_site_type_symbol
_atom_site_label
_atom_site_fract_x
_atom_site_fract_y
_atom_site_fract_z
Si Si1 0.280142 0.837633 0.348725
Si Si2 0.031459 0.659828 0.869136
Si Si3 0.618144 0.337511 0.649019
Si Si4 0.665784 0.839697 0.440811
Si Si5 0.436811 0.648041 0.862884
Si Si6 0.249143 0.337522 0.067321
O O1 0.319867 0.748956 0.333050
O O2 0.344186 0.809307 0.491331
O O3 0.168690 0.783284 0.238203
O O4 0.280763 0.000000 0.328488
O O5 0.027993 0.500000 0.885498
O O6 0.947097 0.697793 0.715061
O O7 0.006080 0.745475 0.904952
O O8 0.142718 0.702876 0.976109
O O9 0.500000 0.299133 0.500000
O O10 0.637253 0.500000 0.657687
O O11 0.659716 0.299563 0.773112
O O12 0.750000 0.750000 0.500000
O O13 0.694063 0.000000 0.460028
O O14 0.415103 0.500000 0.798281
O O15 0.500000 0.603973 0.000000
O O16 0.254270 0.500000 0.054232
O O17 0.250000 0.250000 0.000000
#
# Coordination Sequence:
#
# PCOD8097777 Si02
#       6
#     8   8   8   8   8   8
#     4  10  21  36  56  84 116 149 188 234 282 338
#     4  10  21  36  56  82 113 147 188 233 280 339
#     4  10  23  42  61  85 116 150 193 242 291 344
#     4  10  20  35  55  84 117 150 189 230 278 338
#     4  10  20  34  54  81 112 145 183 228 280 339
#     4  10  23  42  62  86 115 150 194 242 289 343
#
# _framework density 19.105117
#
# number of rings (size 3 to 8) (size 9 to 14) (size 15 to 20)
#    0.000    2.000    1.667    1.000    2.333    3.333 
#    0.000    0.000    0.000    0.000    0.000    0.000 
#    0.000    0.000    0.000    0.000    0.000    0.000 
#
# Total GULP energy -297437.493614 kJ/mol
# GULP energy per Si atom -12393.228901 kJ/mol
# Density = 1.906163 g / cm^3
# Si number density = 19.105117 Si / 1000 Ang^3
#
#
#
# Elastic Constant Matrix: (Units=GPa)
#
#
# Indices 1 2 3 4 5 6 
#
# 1 132.4866 74.6021 57.0521 0.0000 -0.9470 0.0000
# 2 74.6021 70.6491 42.3283 0.0000 2.6747 0.0000
# 3 57.0521 42.3283 141.8131 0.0000 0.8720 0.0000
# 4 0.0000 0.0000 0.0000 24.0023 0.0000 -1.9063
# 5 -0.9470 2.6747 0.8720 0.0000 33.9531 0.0000
# 6 0.0000 0.0000 0.0000 -1.9063 0.0000 46.3578
#
#
#
# Elastic Compliance Matrix: (Units=1/GPa)
#
#
# Indices 1 2 3 4 5 6 
#
# 1 0.019232 -0.019173 -0.002027 0.000000 0.002099 0.000000
# 2 -0.019173 0.036402 -0.003131 0.000000 -0.003322 0.000000
# 3 -0.002027 -0.003131 0.008802 0.000000 -0.000036 0.000000
# 4 0.000000 0.000000 0.000000 0.041799 0.000000 0.001719
# 5 0.002099 -0.003322 -0.000036 0.000000 0.029774 0.000000
# 6 0.000000 0.000000 0.000000 0.001719 0.000000 0.021642
#
#
# Mechanical properties :
#
#
# Convention : Reuss Voigt Hill
#
# Bulk Modulus (GPa) = 63.40064 76.99041 70.19553
# Shear Modulus (GPa) = 23.63253 32.26038 27.94646
#
# Velocity S-wave (km/s) = 3.52088 4.11368 3.82877
# Velocity P-wave (km/s) = 7.05592 7.93404 7.50783
#
# Compressibility (1/GPa) = 0.01577271
#
# Stress axis : x y z
#
# Youngs Moduli (GPa) = 51.99618 27.47079 113.60998
#
# Poissons Ratio (x) = 0.52670 0.23033
# Poissons Ratio (y) = 0.99693 0.35577
# Poissons Ratio (z) = 0.10541 0.08602
#
# Static dielectric constant tensor:
#      x y z
#    x 3.473740 0.000000 -0.014510 
#    y 0.000000 3.490140 0.000000 
#    z -0.014510 0.000000 3.894640 
# 
# 
# High freq. dielectric constant tensor:
#      x y z
#    x 1.730160 0.000000 -0.002990 
#    y 0.000000 1.741290 0.000000 
#    z -0.002990 0.000000 1.765900 
# 
# From -- ./inp_files/327302.got.cif
#   From: 2010.06.25/outbox.cif.g09.slc.cpg/sg12_164_cif.got.tgz:327302.got - 2010.06.28 00:19:55.
