data_PCOD8097559
_publ_section_title
;
Structure prediction by ZEFSAII (Michael W. Deem and Ramdas Pophale) SiO2 
 PCOD8097559
Probable space group: C 2/M
;
_chemical_formula_sum "Si O2"
_cell_formula_units_Z 56
_cell_length_a 19.277727
_cell_length_b 8.965192
_cell_length_c 27.033149
_cell_angle_alpha 90.000000
_cell_angle_beta 39.066912
_cell_angle_gamma 90.000000
_cell_volume 2944.485608
_symmetry_space_group_name_H-M "C 2/M"
_symmetry_group_IT_number 12
_symmetry_cell_setting 'monoclinic'
loop_
_space_group_symop_operation_xyz
x,y,z
-x,y,-z
-x,-y,-z
x,-y,z
1/2+x,1/2+y,z
1/2-x,1/2+y,-z
1/2-x,1/2-y,-z
1/2+x,1/2-y,z
loop_
_atom_site_type_symbol
_atom_site_label
_atom_site_fract_x
_atom_site_fract_y
_atom_site_fract_z
Si Si1 0.845089 0.675873 0.305276
Si Si2 0.045157 0.330967 0.027186
Si Si3 0.118604 0.175447 0.818077
Si Si4 0.780313 0.168891 0.932731
Si Si5 0.959825 0.176915 0.756329
Si Si6 0.832690 0.823385 0.728453
Si Si7 0.895081 0.175364 0.585577
O O1 0.863661 0.500000 0.293048
O O2 0.884466 0.747801 0.232960
O O3 0.715652 0.714876 0.384062
O O4 0.920013 0.746498 0.307080
O O5 0.006125 0.500000 0.060698
O O6 0.998421 0.216325 0.093377
O O7 0.000000 0.276774 0.000000
O O8 0.176749 0.321379 0.953270
O O9 0.215668 0.241378 0.798678
O O10 0.131907 0.000000 0.804549
O O11 0.883040 0.234916 0.844426
O O12 0.807717 0.000000 0.932099
O O13 0.750000 0.250000 0.000000
O O14 0.909118 0.225040 0.731752
O O15 0.972855 0.000000 0.751649
O O16 0.887568 0.767926 0.646462
O O17 0.810951 0.000000 0.739962
O O18 0.000000 0.250352 0.500000
O O19 0.912017 0.000000 0.578100
#
# Coordination Sequence:
#
# PCOD8097559 Si02
#       7
#     8   8   8   8   8   8   8
#     4  10  20  34  54  77 102 136 173 208 254 310
#     4  10  20  35  53  71  95 131 176 221 264 310
#     4  11  21  33  51  75 103 134 174 221 263 308
#     4  10  21  34  49  69  95 131 171 213 258 302
#     4  10  20  35  53  75 104 136 173 215 259 308
#     4   9  18  34  56  78 103 139 176 210 257 313
#     4   8  15  31  56  82 104 131 171 212 249 301
#
# _framework density 19.018602000000001
#
# number of rings (size 3 to 8) (size 9 to 14) (size 15 to 20)
#    0.000    2.286    0.000    4.286    0.000    6.571 
#    0.000    2.143    0.000   10.714    0.000    0.000 
#    0.000    0.000    0.000    0.000    0.000    0.000 
#
# Total GULP energy -347131.414729 kJ/mol
# GULP energy per Si atom -12397.550526 kJ/mol
# Density = 1.897531 g / cm^3
# Si number density = 19.018602 Si / 1000 Ang^3
#
#
#
# Elastic Constant Matrix: (Units=GPa)
#
#
# Indices 1 2 3 4 5 6 
#
# 1 106.4521 39.3007 24.8548 0.0000 -12.2190 0.0002
# 2 39.3007 25.8863 27.8953 0.0000 -9.3995 -0.0008
# 3 24.8548 27.8953 91.7385 0.0001 -11.2957 0.0001
# 4 0.0000 0.0000 0.0001 15.0864 0.0000 -5.3574
# 5 -12.2190 -9.3995 -11.2957 0.0000 23.1930 -0.0001
# 6 0.0002 -0.0008 0.0001 -5.3574 -0.0001 29.5751
#
#
#
# Elastic Compliance Matrix: (Units=1/GPa)
#
#
# Indices 1 2 3 4 5 6 
#
# 1 0.023996 -0.044483 0.006767 -0.000001 -0.002089 -0.000001
# 2 -0.044483 0.145862 -0.029688 0.000002 0.021219 0.000005
# 3 0.006767 -0.029688 0.018140 0.000000 0.000368 -0.000001
# 4 -0.000001 0.000002 0.000000 0.070842 0.000000 0.012833
# 5 -0.002089 0.021219 0.000368 0.000000 0.050795 0.000001
# 6 -0.000001 0.000005 -0.000001 0.012833 0.000001 0.036137
#
#
# Mechanical properties :
#
#
# Convention : Reuss Voigt Hill
#
# Bulk Modulus (GPa) = 18.80027 45.35316 32.07672
# Shear Modulus (GPa) = 10.03393 22.37265 16.20329
#
# Velocity S-wave (km/s) = 2.29941 3.43353 2.92202
# Velocity P-wave (km/s) = 4.11782 6.29423 5.31854
#
# Compressibility (1/GPa) = 0.05319072
#
# Stress axis : x y z
#
# Youngs Moduli (GPa) = 41.67286 6.85580 55.12732
#
# Poissons Ratio (x) = 0.30497 -0.37307
# Poissons Ratio (y) = 1.85373 1.63664
# Poissons Ratio (z) = -0.28202 0.20354
#
# Static dielectric constant tensor:
#      x y z
#    x 3.681670 0.000000 -0.150630 
#    y 0.000000 3.271920 0.000000 
#    z -0.150630 0.000000 3.639970 
# 
# 
# High freq. dielectric constant tensor:
#      x y z
#    x 1.748840 0.000000 -0.011510 
#    y 0.000000 1.715510 0.000000 
#    z -0.011510 0.000000 1.725710 
# 
# From -- ./inp_files/342572.got.cif
#   From: 2010.06.25/outbox.cif.g09.slc.cpg/sg12_172_cif.got.tgz:342572.got - 2010.06.28 00:19:55.
