data_PCOD8097386
_publ_section_title
;
Structure prediction by ZEFSAII (Michael W. Deem and Ramdas Pophale) SiO2 
 PCOD8097386
Probable space group: C 2/M
;
_chemical_formula_sum "Si O2"
_cell_formula_units_Z 56
_cell_length_a 20.526106
_cell_length_b 9.886568
_cell_length_c 23.365682
_cell_angle_alpha 90.000000
_cell_angle_beta 140.589029
_cell_angle_gamma 90.000000
_cell_volume 3010.379049
_symmetry_space_group_name_H-M "C 2/M"
_symmetry_group_IT_number 12
_symmetry_cell_setting 'monoclinic'
loop_
_space_group_symop_operation_xyz
x,y,z
-x,y,-z
-x,-y,-z
x,-y,z
1/2+x,1/2+y,z
1/2-x,1/2+y,-z
1/2-x,1/2-y,-z
1/2+x,1/2-y,z
loop_
_atom_site_type_symbol
_atom_site_label
_atom_site_fract_x
_atom_site_fract_y
_atom_site_fract_z
Si Si1 0.565289 0.153494 0.909914
Si Si2 0.225459 0.149854 0.288519
Si Si3 0.556506 0.341628 0.711132
Si Si4 0.082611 0.249135 0.099529
Si Si5 0.583902 0.340060 0.603334
Si Si6 0.951910 0.843604 0.750716
Si Si7 0.229839 0.654765 0.106022
O O1 0.476801 0.149898 0.898262
O O2 0.537306 0.252178 0.839269
O O3 0.578649 0.000000 0.896350
O O4 0.668763 0.214816 0.009750
O O5 0.145257 0.142688 0.181036
O O6 0.311127 0.262964 0.339055
O O7 0.162390 0.187024 0.303856
O O8 0.274612 0.000000 0.327360
O O9 0.576352 0.500000 0.719365
O O10 0.539397 0.289769 0.634668
O O11 0.460328 0.310718 0.688063
O O12 0.659695 0.274413 0.808516
O O13 0.164281 0.335059 0.119409
O O14 0.000000 0.177803 0.000000
O O15 0.500000 0.297732 0.500000
O O16 0.607015 0.500000 0.616970
O O17 0.980500 0.000000 0.781831
O O18 0.246883 0.500000 0.102677
#
# Coordination Sequence:
#
# PCOD8097386 Si02
#       7
#     8   8   8   8   8   8   8
#     4   9  17  27  44  72 104 136 177 222 256 295
#     4  10  20  34  53  78 108 142 174 209 261 315
#     4   9  17  32  54  74 100 135 174 215 257 314
#     4   9  16  27  46  74 107 140 176 217 255 304
#     4  10  21  38  62  86 102 126 173 228 271 308
#     4   9  19  34  50  71 104 146 177 200 250 319
#     4   9  15  25  45  72  99 135 178 218 261 300
#
# _framework density 18.602309999999999
#
# number of rings (size 3 to 8) (size 9 to 14) (size 15 to 20)
#    0.000    2.714    1.429    0.429    0.000    5.143 
#    0.000    3.571    0.000    0.000    0.000    0.000 
#    0.000    0.000    0.000    0.000    0.000    0.000 
#
# Total GULP energy -346865.315094 kJ/mol
# GULP energy per Si atom -12388.046968 kJ/mol
# Density = 1.855997 g / cm^3
# Si number density = 18.602310 Si / 1000 Ang^3
#
#
#
# Elastic Constant Matrix: (Units=GPa)
#
#
# Indices 1 2 3 4 5 6 
#
# 1 124.0496 29.2601 61.6376 0.0000 -16.1955 0.0000
# 2 29.2601 50.7733 34.4112 0.0000 -5.4627 0.0000
# 3 61.6376 34.4112 92.6957 0.0000 -8.0790 0.0000
# 4 0.0000 0.0000 0.0000 15.9553 0.0000 0.6491
# 5 -16.1955 -5.4627 -8.0790 0.0000 19.9860 0.0000
# 6 0.0000 0.0000 0.0000 0.6491 0.0000 18.8771
#
#
#
# Elastic Compliance Matrix: (Units=1/GPa)
#
#
# Indices 1 2 3 4 5 6 
#
# 1 0.013102 -0.001737 -0.007446 0.000000 0.007132 0.000000
# 2 -0.001737 0.026767 -0.008569 0.000000 0.002445 0.000000
# 3 -0.007446 -0.008569 0.018854 0.000000 -0.000754 0.000000
# 4 0.000000 0.000000 0.000000 0.062763 0.000000 -0.002158
# 5 0.007132 0.002445 -0.000754 0.000000 0.056178 0.000000
# 6 0.000000 0.000000 0.000000 -0.002158 0.000000 0.053049
#
#
# Mechanical properties :
#
#
# Convention : Reuss Voigt Hill
#
# Bulk Modulus (GPa) = 43.06527 57.57071 50.31799
# Shear Modulus (GPa) = 18.25124 20.44431 19.34778
#
# Velocity S-wave (km/s) = 3.13569 3.31874 3.22852
# Velocity P-wave (km/s) = 6.02585 6.76023 6.40358
#
# Compressibility (1/GPa) = 0.02322057
#
# Stress axis : x y z
#
# Youngs Moduli (GPa) = 76.32617 37.35999 53.03915
#
# Poissons Ratio (x) = 0.06489 0.39490
# Poissons Ratio (y) = 0.13256 0.45447
# Poissons Ratio (z) = 0.56829 0.32012
#
# Static dielectric constant tensor:
#      x y z
#    x 3.548450 0.000000 -0.116600 
#    y 0.000000 3.004730 0.000000 
#    z -0.116600 0.000000 3.455210 
# 
# 
# High freq. dielectric constant tensor:
#      x y z
#    x 1.727430 0.000000 -0.005850 
#    y 0.000000 1.683210 0.000000 
#    z -0.005850 0.000000 1.701490 
# 
# From -- ./inp_files/346664.got.cif
#   From: 2010.06.25/outbox.cif.g09.slc.cpg/sg12_174_cif.got.tgz:346664.got - 2010.06.28 00:19:55.
