data_PCOD8097543
_publ_section_title
;
Structure prediction by ZEFSAII (Michael W. Deem and Ramdas Pophale) SiO2 
 PCOD8097543
Probable space group: C 2/M
;
_chemical_formula_sum "Si O2"
_cell_formula_units_Z 44
_cell_length_a 9.358874
_cell_length_b 9.803437
_cell_length_c 30.329433
_cell_angle_alpha 90.000000
_cell_angle_beta 51.951210
_cell_angle_gamma 90.000000
_cell_volume 2191.337183
_symmetry_space_group_name_H-M "C 2/M"
_symmetry_group_IT_number 12
_symmetry_cell_setting 'monoclinic'
loop_
_space_group_symop_operation_xyz
x,y,z
-x,y,-z
-x,-y,-z
x,-y,z
1/2+x,1/2+y,z
1/2-x,1/2+y,-z
1/2-x,1/2-y,-z
1/2+x,1/2-y,z
loop_
_atom_site_type_symbol
_atom_site_label
_atom_site_fract_x
_atom_site_fract_y
_atom_site_fract_z
Si Si1 0.000000 0.723292 0.500000
Si Si2 0.717405 0.347415 0.880797
Si Si3 0.376098 0.843408 0.695426
Si Si4 0.893936 0.649136 0.426400
Si Si5 0.620822 0.156073 0.053810
Si Si6 0.455262 0.153774 0.244327
O O1 0.011123 0.639927 0.543438
O O2 0.185438 0.807158 0.466210
O O3 0.635757 0.500000 0.886873
O O4 0.573044 0.227300 0.908399
O O5 0.809670 0.349971 0.910277
O O6 0.861915 0.307890 0.816082
O O7 0.476924 0.773944 0.633443
O O8 0.515074 0.832430 0.709219
O O9 0.199873 0.756949 0.740908
O O10 0.314688 0.000000 0.699054
O O11 0.884933 0.500000 0.407939
O O12 0.607821 0.000000 0.037553
O O13 0.750000 0.250000 0.000000
O O14 0.395284 0.000000 0.243425
#
# Coordination Sequence:
#
# PCOD8097543 Si02
#       6
#     4   8   8   8   8   8
#     4  10  20  34  54  76 104 142 180 218 270 324
#     4  10  22  39  58  82 113 145 182 228 273 323
#     4  10  21  36  56  82 111 142 181 227 273 325
#     4  10  20  35  53  77 107 139 178 223 269 320
#     4  11  23  38  58  84 113 147 186 226 272 325
#     4  10  21  38  58  82 111 144 182 225 274 326
#
# _framework density 20.079065
#
# number of rings (size 3 to 8) (size 9 to 14) (size 15 to 20)
#    0.000    1.818    0.000    3.818    0.000    5.091 
#    0.000    4.545    0.000    0.000    0.000    0.000 
#    0.000    0.000    0.000    0.000    0.000    0.000 
#
# Total GULP energy -272642.093147 kJ/mol
# GULP energy per Si atom -12392.822416 kJ/mol
# Density = 2.003336 g / cm^3
# Si number density = 20.079065 Si / 1000 Ang^3
#
#
#
# Elastic Constant Matrix: (Units=GPa)
#
#
# Indices 1 2 3 4 5 6 
#
# 1 84.1664 40.3455 20.9024 0.0000 -7.3845 0.0000
# 2 40.3455 109.1924 35.1238 0.0000 -17.9871 0.0000
# 3 20.9024 35.1238 111.2219 0.0000 1.8039 0.0000
# 4 0.0000 0.0000 0.0000 30.5534 0.0000 -3.6264
# 5 -7.3845 -17.9871 1.8039 0.0000 31.4548 0.0000
# 6 0.0000 0.0000 0.0000 -3.6264 0.0000 26.8089
#
#
#
# Elastic Compliance Matrix: (Units=1/GPa)
#
#
# Indices 1 2 3 4 5 6 
#
# 1 0.014584 -0.004884 -0.001210 0.000000 0.000700 0.000000
# 2 -0.004884 0.013111 -0.003329 0.000000 0.006542 0.000000
# 3 -0.001210 -0.003329 0.010315 0.000000 -0.002779 0.000000
# 4 0.000000 0.000000 0.000000 0.033264 0.000000 0.004500
# 5 0.000700 0.006542 -0.002779 0.000000 0.035856 0.000000
# 6 0.000000 0.000000 0.000000 0.004500 0.000000 0.037910
#
#
# Mechanical properties :
#
#
# Convention : Reuss Voigt Hill
#
# Bulk Modulus (GPa) = 52.17924 55.25824 53.71874
# Shear Modulus (GPa) = 29.36451 31.64403 30.50427
#
# Velocity S-wave (km/s) = 3.82834 3.97416 3.90193
# Velocity P-wave (km/s) = 6.75166 6.97414 6.86380
#
# Compressibility (1/GPa) = 0.01916471
#
# Stress axis : x y z
#
# Youngs Moduli (GPa) = 68.56629 76.27068 96.94932
#
# Poissons Ratio (x) = 0.37253 0.11729
# Poissons Ratio (y) = 0.33490 0.32271
# Poissons Ratio (z) = 0.08295 0.25388
#
# Static dielectric constant tensor:
#      x y z
#    x 3.527890 0.000000 0.121980 
#    y 0.000000 3.227350 0.000000 
#    z 0.121980 0.000000 3.925380 
# 
# 
# High freq. dielectric constant tensor:
#      x y z
#    x 1.778020 0.000000 0.005410 
#    y 0.000000 1.778900 0.000000 
#    z 0.005410 0.000000 1.806890 
# 
# From -- ./inp_files/371787.got.cif
#   From: 2010.06.25/outbox.cif.g09.slc.cpg/sg12_186_cif.got.tgz:371787.got - 2010.06.28 00:19:55.
