data_PCOD8097228
_publ_section_title
;
Structure prediction by ZEFSAII (Michael W. Deem and Ramdas Pophale) SiO2 
 PCOD8097228
Probable space group: C 2/M
;
_chemical_formula_sum "Si O2"
_cell_formula_units_Z 48
_cell_length_a 29.689805
_cell_length_b 9.379437
_cell_length_c 9.473977
_cell_angle_alpha 90.000000
_cell_angle_beta 89.721389
_cell_angle_gamma 90.000000
_cell_volume 2638.221816
_symmetry_space_group_name_H-M "C 2/M"
_symmetry_group_IT_number 12
_symmetry_cell_setting 'monoclinic'
loop_
_space_group_symop_operation_xyz
x,y,z
-x,y,-z
-x,-y,-z
x,-y,z
1/2+x,1/2+y,z
1/2-x,1/2+y,-z
1/2-x,1/2-y,-z
1/2+x,1/2-y,z
loop_
_atom_site_type_symbol
_atom_site_label
_atom_site_fract_x
_atom_site_fract_y
_atom_site_fract_z
Si Si1 0.673252 0.335035 0.140613
Si Si2 0.248421 0.833434 0.355726
Si Si3 0.007606 0.834914 0.661084
Si Si4 0.426869 0.833312 0.151966
Si Si5 0.823068 0.335284 0.134017
Si Si6 0.929204 0.835877 0.875258
O O1 0.680407 0.500000 0.104796
O O2 0.702582 0.290885 0.275419
O O3 0.621260 0.299046 0.174976
O O4 0.690827 0.250220 0.004901
O O5 0.250000 0.750000 0.500000
O O6 0.291331 0.786608 0.262295
O O7 0.249864 0.000000 0.390073
O O8 0.047719 0.737318 0.717517
O O9 0.000000 0.792120 0.500000
O O10 0.961658 0.801501 0.744831
O O11 0.021575 0.000000 0.676109
O O12 0.374250 0.803182 0.177371
O O13 0.438007 0.000000 0.144097
O O14 0.443684 0.761092 0.006855
O O15 0.815536 0.500000 0.097935
O O16 0.933169 0.000000 0.923776
#
# Coordination Sequence:
#
# PCOD8097228 Si02
#       6
#     8   8   8   8   8   8
#     4   9  18  33  54  77  98 127 170 212 247 292
#     4  10  21  35  51  75 106 136 166 202 247 298
#     4  10  21  35  51  73 102 135 168 205 251 298
#     4  10  20  34  53  76 101 131 168 207 248 297
#     4   9  19  35  53  75 103 132 164 206 252 295
#     4   9  18  34  54  75 100 129 165 211 255 292
#
# _framework density 18.194072999999999
#
# number of rings (size 3 to 8) (size 9 to 14) (size 15 to 20)
#    0.000    2.500    0.000    1.500    0.000    6.333 
#    0.000    1.667    0.000    0.000    0.000    0.000 
#    0.000    0.000    0.000    0.000    0.000    0.000 
#
# Total GULP energy -297687.123536 kJ/mol
# GULP energy per Si atom -12403.630147 kJ/mol
# Density = 1.815266 g / cm^3
# Si number density = 18.194073 Si / 1000 Ang^3
#
#
#
# Elastic Constant Matrix: (Units=GPa)
#
#
# Indices 1 2 3 4 5 6 
#
# 1 87.7993 45.7216 67.5233 0.0000 10.9159 0.0000
# 2 45.7216 72.2361 67.6640 0.0000 11.9272 0.0000
# 3 67.5233 67.6640 150.7066 0.0000 15.4520 0.0000
# 4 0.0000 0.0000 0.0000 32.1617 0.0000 3.2667
# 5 10.9159 11.9272 15.4520 0.0000 25.1989 0.0000
# 6 0.0000 0.0000 0.0000 3.2667 0.0000 26.5728
#
#
#
# Elastic Compliance Matrix: (Units=1/GPa)
#
#
# Indices 1 2 3 4 5 6 
#
# 1 0.019352 -0.006906 -0.005384 0.000000 -0.001813 0.000000
# 2 -0.006906 0.026973 -0.008551 0.000000 -0.004532 0.000000
# 3 -0.005384 -0.008551 0.013054 0.000000 -0.001625 0.000000
# 4 0.000000 0.000000 0.000000 0.031486 0.000000 -0.003871
# 5 -0.001813 -0.004532 -0.001625 0.000000 0.043611 0.000000
# 6 0.000000 0.000000 0.000000 -0.003871 0.000000 0.038108
#
#
# Mechanical properties :
#
#
# Convention : Reuss Voigt Hill
#
# Bulk Modulus (GPa) = 56.51144 74.72886 65.62015
# Shear Modulus (GPa) = 22.71015 25.44222 24.07618
#
# Velocity S-wave (km/s) = 3.53684 3.74355 3.64166
# Velocity P-wave (km/s) = 6.91425 7.73614 7.33671
#
# Compressibility (1/GPa) = 0.01769553
#
# Stress axis : x y z
#
# Youngs Moduli (GPa) = 51.67415 37.07375 76.60696
#
# Poissons Ratio (x) = 0.25604 0.41245
# Poissons Ratio (y) = 0.35688 0.65510
# Poissons Ratio (z) = 0.27821 0.31703
#
# Static dielectric constant tensor:
#      x y z
#    x 3.578750 0.000000 0.010070 
#    y 0.000000 3.353770 0.000000 
#    z 0.010070 0.000000 3.241380 
# 
# 
# High freq. dielectric constant tensor:
#      x y z
#    x 1.718360 0.000000 0.001250 
#    y 0.000000 1.702060 0.000000 
#    z 0.001250 0.000000 1.696600 
# 
# From -- ./inp_files/108602.got.cif
#   From: 2010.06.25/outbox.cif.g09.slc.cpg/sg12_55_cif.got.tgz:108602.got - 2010.06.28 00:19:55.
