data_PCOD8097030
_publ_section_title
;
Structure prediction by ZEFSAII (Michael W. Deem and Ramdas Pophale) SiO2 
 PCOD8097030
Probable space group: C 2/M
;
_chemical_formula_sum "Si O2"
_cell_formula_units_Z 56
_cell_length_a 19.132568
_cell_length_b 9.313713
_cell_length_c 24.316916
_cell_angle_alpha 90.000000
_cell_angle_beta 136.806764
_cell_angle_gamma 90.000000
_cell_volume 2965.878435
_symmetry_space_group_name_H-M "C 2/M"
_symmetry_group_IT_number 12
_symmetry_cell_setting 'monoclinic'
loop_
_space_group_symop_operation_xyz
x,y,z
-x,y,-z
-x,-y,-z
x,-y,z
1/2+x,1/2+y,z
1/2-x,1/2+y,-z
1/2-x,1/2-y,-z
1/2+x,1/2-y,z
loop_
_atom_site_type_symbol
_atom_site_label
_atom_site_fract_x
_atom_site_fract_y
_atom_site_fract_z
Si Si1 0.186835 0.663584 0.419838
Si Si2 0.617129 0.164402 0.063261
Si Si3 0.507436 0.662870 0.812326
Si Si4 0.306830 0.164175 0.699250
Si Si5 0.952614 0.669742 0.269398
Si Si6 0.791854 0.162684 0.246632
Si Si7 0.175607 0.162145 0.994846
O O1 0.197536 0.500000 0.443515
O O2 0.250000 0.750000 0.500000
O O3 0.234462 0.690670 0.386322
O O4 0.068083 0.709402 0.353012
O O5 0.678992 0.183704 0.155599
O O6 0.621275 0.000000 0.044986
O O7 0.500000 0.215035 0.000000
O O8 0.674045 0.265665 0.053181
O O9 0.496009 0.500000 0.784008
O O10 0.398411 0.728503 0.763509
O O11 0.568911 0.754050 0.801471
O O12 0.565216 0.666094 0.903324
O O13 0.218817 0.192301 0.693998
O O14 0.347625 0.000000 0.727183
O O15 0.937489 0.500000 0.254032
O O16 0.874982 0.728168 0.270590
O O17 0.829910 0.000000 0.257695
O O18 0.215623 0.000000 0.024762
O O19 0.250000 0.250000 0.000000
#
# Coordination Sequence:
#
# PCOD8097030 Si02
#       7
#     8   8   8   8   8   8   8
#     4   9  19  36  58  83 108 136 171 210 256 313
#     4  10  21  36  54  76 104 141 182 224 272 319
#     4  10  20  34  52  75 101 134 180 224 263 313
#     4   9  19  36  57  80 106 137 173 212 257 311
#     4  10  21  36  55  80 109 141 176 216 265 316
#     4  10  20  35  55  79 107 140 180 222 264 314
#     4  11  23  35  49  72 102 136 177 225 271 315
#
# _framework density 18.881421
#
# number of rings (size 3 to 8) (size 9 to 14) (size 15 to 20)
#    0.000    2.143    0.000    3.857    0.000   11.143 
#    0.000    0.714    0.000    4.286    0.000    0.000 
#    0.000    0.000    0.000    0.000    0.000    0.000 
#
# Total GULP energy -347205.996725 kJ/mol
# GULP energy per Si atom -12400.214169 kJ/mol
# Density = 1.883845 g / cm^3
# Si number density = 18.881421 Si / 1000 Ang^3
#
#
#
# Elastic Constant Matrix: (Units=GPa)
#
#
# Indices 1 2 3 4 5 6 
#
# 1 109.9724 46.7639 26.9003 0.0000 -15.2108 0.0000
# 2 46.7639 97.7474 27.8136 0.0000 -7.5692 0.0000
# 3 26.9003 27.8136 71.7317 0.0000 -12.0835 0.0000
# 4 0.0000 0.0000 0.0000 30.7445 0.0000 0.9496
# 5 -15.2108 -7.5692 -12.0835 0.0000 22.6637 0.0000
# 6 0.0000 0.0000 0.0000 0.9496 0.0000 36.4237
#
#
#
# Elastic Compliance Matrix: (Units=1/GPa)
#
#
# Indices 1 2 3 4 5 6 
#
# 1 0.012448 -0.005010 -0.001758 0.000000 0.005744 0.000000
# 2 -0.005010 0.013569 -0.003500 0.000000 -0.000697 0.000000
# 3 -0.001758 -0.003500 0.017097 0.000000 0.006767 0.000000
# 4 0.000000 0.000000 0.000000 0.032552 0.000000 -0.000849
# 5 0.005744 -0.000697 0.006767 0.000000 0.051354 0.000000
# 6 0.000000 0.000000 0.000000 -0.000849 0.000000 0.027477
#
#
# Mechanical properties :
#
#
# Convention : Reuss Voigt Hill
#
# Bulk Modulus (GPa) = 44.29030 53.60079 48.94554
# Shear Modulus (GPa) = 27.38825 29.83130 28.60977
#
# Velocity S-wave (km/s) = 3.81273 3.97914 3.89682
# Velocity P-wave (km/s) = 6.54909 7.03997 6.79896
#
# Compressibility (1/GPa) = 0.02257831
#
# Stress axis : x y z
#
# Youngs Moduli (GPa) = 80.33237 73.69498 58.48967
#
# Poissons Ratio (x) = 0.36925 0.10282
# Poissons Ratio (y) = 0.40250 0.20471
# Poissons Ratio (z) = 0.14121 0.25793
#
# Static dielectric constant tensor:
#      x y z
#    x 3.853260 0.000000 -0.372490 
#    y 0.000000 3.567830 0.000000 
#    z -0.372490 0.000000 3.521270 
# 
# 
# High freq. dielectric constant tensor:
#      x y z
#    x 1.731200 0.000000 -0.009690 
#    y 0.000000 1.740760 0.000000 
#    z -0.009690 0.000000 1.717090 
# 
# From -- ./inp_files/342527.got.cif
#   From: 2010.06.25/outbox.cif.g09.slc.cpg/sg12_172_cif.got.tgz:342527.got - 2010.06.28 00:19:55.
