data_PCOD8097453
_publ_section_title
;
Structure prediction by ZEFSAII (Michael W. Deem and Ramdas Pophale) SiO2 
 PCOD8097453
Probable space group: C 2/M
;
_chemical_formula_sum "Si O2"
_cell_formula_units_Z 48
_cell_length_a 15.058211
_cell_length_b 8.547523
_cell_length_c 18.838784
_cell_angle_alpha 90.000000
_cell_angle_beta 91.832306
_cell_angle_gamma 90.000000
_cell_volume 2423.507720
_symmetry_space_group_name_H-M "C 2/M"
_symmetry_group_IT_number 12
_symmetry_cell_setting 'monoclinic'
loop_
_space_group_symop_operation_xyz
x,y,z
-x,y,-z
-x,-y,-z
x,-y,z
1/2+x,1/2+y,z
1/2-x,1/2+y,-z
1/2-x,1/2-y,-z
1/2+x,1/2-y,z
loop_
_atom_site_type_symbol
_atom_site_label
_atom_site_fract_x
_atom_site_fract_y
_atom_site_fract_z
Si Si1 0.643591 0.315668 0.180811
Si Si2 0.492028 0.818895 0.581955
Si Si3 0.986278 0.185790 0.080166
Si Si4 0.335019 0.683746 0.659430
Si Si5 0.659020 0.184684 0.827666
Si Si6 0.353550 0.682059 0.323046
O O1 0.638358 0.500000 0.174662
O O2 0.567107 0.243666 0.129122
O O3 0.630065 0.264037 0.261931
O O4 0.739929 0.258743 0.156365
O O5 0.500000 0.777038 0.500000
O O6 0.392100 0.777158 0.603236
O O7 0.561949 0.713911 0.625898
O O8 0.512071 0.000000 0.597216
O O9 0.895739 0.262176 0.105372
O O10 0.979054 0.000000 0.086163
O O11 0.000000 0.239931 0.000000
O O12 0.346908 0.500000 0.647457
O O13 0.231293 0.724940 0.648810
O O14 0.621109 0.265680 0.755894
O O15 0.654188 0.000000 0.815931
O O16 0.330948 0.500000 0.323129
#
# Coordination Sequence:
#
# PCOD8097453 Si02
#       6
#     8   8   8   8   8   8
#     4   8  17  34  54  77 106 141 178 222 276 328
#     4  11  24  40  58  84 118 153 189 229 277 338
#     4  10  20  34  53  79 112 148 185 227 280 342
#     4  10  20  37  61  85 112 148 192 239 284 334
#     4  10  20  36  57  79 107 143 186 234 281 334
#     4  11  22  38  61  86 113 146 188 237 288 340
#
# _framework density 19.806003
#
# number of rings (size 3 to 8) (size 9 to 14) (size 15 to 20)
#    0.000    2.000    0.000    5.000    0.000    4.333 
#    0.000    4.167    0.000    0.000    0.000    0.000 
#    0.000    0.000    0.000    0.000    0.000    0.000 
#
# Total GULP energy -297682.538540 kJ/mol
# GULP energy per Si atom -12403.439106 kJ/mol
# Density = 1.976092 g / cm^3
# Si number density = 19.806003 Si / 1000 Ang^3
#
#
#
# Elastic Constant Matrix: (Units=GPa)
#
#
# Indices 1 2 3 4 5 6 
#
# 1 90.2847 17.0669 49.4329 0.0000 -21.7934 0.0000
# 2 17.0669 53.0475 31.0445 0.0000 -5.8606 0.0000
# 3 49.4329 31.0445 97.4804 0.0000 -27.9537 0.0000
# 4 0.0000 0.0000 0.0000 22.1985 0.0000 -5.3229
# 5 -21.7934 -5.8606 -27.9537 0.0000 29.4251 0.0000
# 6 0.0000 0.0000 0.0000 -5.3229 0.0000 32.9857
#
#
#
# Elastic Compliance Matrix: (Units=1/GPa)
#
#
# Indices 1 2 3 4 5 6 
#
# 1 0.016033 -0.000903 -0.006170 0.000000 0.005833 0.000000
# 2 -0.000903 0.023454 -0.008059 0.000000 -0.003654 0.000000
# 3 -0.006170 -0.008059 0.019494 0.000000 0.012344 0.000000
# 4 0.000000 0.000000 0.000000 0.046861 0.000000 0.007562
# 5 0.005833 -0.003654 0.012344 0.000000 0.049304 0.000000
# 6 0.000000 0.000000 0.000000 0.007562 0.000000 0.031536
#
#
# Mechanical properties :
#
#
# Convention : Reuss Voigt Hill
#
# Bulk Modulus (GPa) = 34.82325 48.43347 41.62836
# Shear Modulus (GPa) = 22.07307 26.47307 24.27307
#
# Velocity S-wave (km/s) = 3.34198 3.65995 3.50457
# Velocity P-wave (km/s) = 5.70194 6.50902 6.11880
#
# Compressibility (1/GPa) = 0.02871645
#
# Stress axis : x y z
#
# Youngs Moduli (GPa) = 62.37080 42.63604 51.29822
#
# Poissons Ratio (x) = 0.03850 0.31652
# Poissons Ratio (y) = 0.05632 0.41343
# Poissons Ratio (z) = 0.38484 0.34362
#
# Static dielectric constant tensor:
#      x y z
#    x 3.791050 0.000000 0.007720 
#    y 0.000000 3.411460 0.000000 
#    z 0.007720 0.000000 3.647480 
# 
# 
# High freq. dielectric constant tensor:
#      x y z
#    x 1.783750 0.000000 -0.006140 
#    y 0.000000 1.762800 0.000000 
#    z -0.006140 0.000000 1.765840 
# 
# From -- ./inp_files/267636.got.cif
#   From: 2010.06.25/outbox.cif.g09.slc.cpg/sg12_134_cif.got.tgz:267636.got - 2010.06.28 00:19:55.
