data_PCOD8097114
_publ_section_title
;
Structure prediction by ZEFSAII (Michael W. Deem and Ramdas Pophale) SiO2 
 PCOD8097114
Probable space group: C 2/M
;
_chemical_formula_sum "Si O2"
_cell_formula_units_Z 64
_cell_length_a 15.362040
_cell_length_b 9.230137
_cell_length_c 24.125029
_cell_angle_alpha 90.000000
_cell_angle_beta 99.015412
_cell_angle_gamma 90.000000
_cell_volume 3378.518421
_symmetry_space_group_name_H-M "C 2/M"
_symmetry_group_IT_number 12
_symmetry_cell_setting 'monoclinic'
loop_
_space_group_symop_operation_xyz
x,y,z
-x,y,-z
-x,-y,-z
x,-y,z
1/2+x,1/2+y,z
1/2-x,1/2+y,-z
1/2-x,1/2-y,-z
1/2+x,1/2-y,z
loop_
_atom_site_type_symbol
_atom_site_label
_atom_site_fract_x
_atom_site_fract_y
_atom_site_fract_z
Si Si1 0.256303 0.834576 0.443866
Si Si2 0.684356 0.832815 0.336640
Si Si3 0.541598 0.164616 0.558791
Si Si4 0.325419 0.331039 0.260557
Si Si5 0.705509 0.670070 0.868330
Si Si6 0.987645 0.667769 0.323329
Si Si7 0.618452 0.828615 0.056993
Si Si8 0.572697 0.828430 0.930481
O O1 0.250000 0.750000 0.500000
O O2 0.193207 0.760927 0.392863
O O3 0.354183 0.824154 0.430595
O O4 0.226795 0.000000 0.450220
O O5 0.750458 0.776735 0.295727
O O6 0.583912 0.813843 0.305354
O O7 0.703437 0.000000 0.353435
O O8 0.500000 0.243696 0.500000
O O9 0.509717 0.234037 0.613693
O O10 0.506829 0.000000 0.554218
O O11 0.343369 0.500000 0.270028
O O12 0.290165 0.294874 0.196112
O O13 0.417413 0.250630 0.278973
O O14 0.696484 0.500000 0.879092
O O15 0.795047 0.734709 0.904278
O O16 0.620817 0.748633 0.885222
O O17 0.958836 0.500000 0.323051
O O18 0.529367 0.776506 0.079054
O O19 0.619344 0.000000 0.059850
O O20 0.617855 0.779728 0.992819
O O21 0.580008 0.000000 0.922518
#
# Coordination Sequence:
#
# PCOD8097114 Si02
#       8
#     8   8   8   8   8   8   8   8
#     4  11  21  34  55  82 113 144 175 217 270 326
#     4  10  21  38  59  80 106 141 181 223 271 327
#     4   9  17  31  52  78 106 133 166 211 261 314
#     4  10  22  38  54  77 111 146 181 227 274 321
#     4  10  20  34  52  76 110 149 182 220 277 329
#     4  10  20  37  60  81 103 139 182 223 270 323
#     4   8  16  32  54  79 111 145 180 224 277 327
#     4   9  17  32  55  82 108 141 185 231 269 316
#
# _framework density 18.943214999999999
#
# number of rings (size 3 to 8) (size 9 to 14) (size 15 to 20)
#    0.000    2.375    1.250    2.250    0.000    4.000 
#    0.000    4.375    0.000    1.875    0.000    0.000 
#    0.000    0.000    0.000    0.000    0.000    0.000 
#
# Total GULP energy -396767.758701 kJ/mol
# GULP energy per Si atom -12398.992459 kJ/mol
# Density = 1.890010 g / cm^3
# Si number density = 18.943215 Si / 1000 Ang^3
#
#
#
# Elastic Constant Matrix: (Units=GPa)
#
#
# Indices 1 2 3 4 5 6 
#
# 1 101.8423 34.4671 43.8367 0.0000 -3.0654 0.0000
# 2 34.4671 51.3336 39.7595 0.0000 -3.6309 0.0000
# 3 43.8367 39.7595 95.6738 0.0000 -5.8682 0.0000
# 4 0.0000 0.0000 0.0000 27.3037 0.0000 -0.2990
# 5 -3.0654 -3.6309 -5.8682 0.0000 29.1558 0.0000
# 6 0.0000 0.0000 0.0000 -0.2990 0.0000 27.6658
#
#
#
# Elastic Compliance Matrix: (Units=1/GPa)
#
#
# Indices 1 2 3 4 5 6 
#
# 1 0.013482 -0.006297 -0.003566 0.000000 -0.000084 0.000000
# 2 -0.006297 0.031708 -0.010217 0.000000 0.001230 0.000000
# 3 -0.003566 -0.010217 0.016434 0.000000 0.001660 0.000000
# 4 0.000000 0.000000 0.000000 0.036629 0.000000 0.000396
# 5 -0.000084 0.001230 0.001660 0.000000 0.034777 0.000000
# 6 0.000000 0.000000 0.000000 0.000396 0.000000 0.036150
#
#
# Mechanical properties :
#
#
# Convention : Reuss Voigt Hill
#
# Bulk Modulus (GPa) = 46.58519 53.88624 50.23571
# Shear Modulus (GPa) = 23.09523 25.54414 24.31969
#
# Velocity S-wave (km/s) = 3.49547 3.67612 3.58693
# Velocity P-wave (km/s) = 6.39816 6.82103 6.61298
#
# Compressibility (1/GPa) = 0.02146605
#
# Stress axis : x y z
#
# Youngs Moduli (GPa) = 74.17027 31.53746 60.85057
#
# Poissons Ratio (x) = 0.19858 0.21699
# Poissons Ratio (y) = 0.46702 0.62169
# Poissons Ratio (z) = 0.26449 0.32221
#
# Static dielectric constant tensor:
#      x y z
#    x 3.714410 0.000000 0.056710 
#    y 0.000000 2.980810 0.000000 
#    z 0.056710 0.000000 3.525140 
# 
# 
# High freq. dielectric constant tensor:
#      x y z
#    x 1.746990 0.000000 -0.001920 
#    y 0.000000 1.702130 0.000000 
#    z -0.001920 0.000000 1.735970 
# 
# From -- ./inp_files/338792.got.cif
#   From: 2010.06.25/outbox.cif.g09.slc.cpg/sg12_170_cif.got.tgz:338792.got - 2010.06.28 00:19:55.
