data_PCOD8097044
_publ_section_title
;
Structure prediction by ZEFSAII (Michael W. Deem and Ramdas Pophale) SiO2 
 PCOD8097044
Probable space group: C 2/M
;
_chemical_formula_sum "Si O2"
_cell_formula_units_Z 52
_cell_length_a 8.775682
_cell_length_b 11.008156
_cell_length_c 27.430578
_cell_angle_alpha 90.000000
_cell_angle_beta 91.372571
_cell_angle_gamma 90.000000
_cell_volume 2649.145321
_symmetry_space_group_name_H-M "C 2/M"
_symmetry_group_IT_number 12
_symmetry_cell_setting 'monoclinic'
loop_
_space_group_symop_operation_xyz
x,y,z
-x,y,-z
-x,-y,-z
x,-y,z
1/2+x,1/2+y,z
1/2-x,1/2+y,-z
1/2-x,1/2-y,-z
1/2+x,1/2-y,z
loop_
_atom_site_type_symbol
_atom_site_label
_atom_site_fract_x
_atom_site_fract_y
_atom_site_fract_z
Si Si1 0.269677 0.365909 0.438143
Si Si2 0.456659 0.635649 0.175265
Si Si3 0.042688 0.361230 0.948311
Si Si4 0.244897 0.860217 0.671977
Si Si5 0.429277 0.360197 0.717887
Si Si6 0.500000 0.209432 0.500000
Si Si7 0.702992 0.743677 0.114140
O O1 0.338105 0.500000 0.435503
O O2 0.225737 0.322261 0.383709
O O3 0.404736 0.287282 0.460998
O O4 0.118027 0.370094 0.470040
O O5 0.396547 0.500000 0.177474
O O6 0.510603 0.678098 0.228570
O O7 0.593320 0.642571 0.136979
O O8 0.310481 0.712674 0.158578
O O9 0.079117 0.500000 0.957535
O O10 0.198690 0.304721 0.929925
O O11 0.905154 0.348547 0.908578
O O12 0.000000 0.299466 0.000000
O O13 0.315748 0.750100 0.703954
O O14 0.065289 0.859585 0.680260
O O15 0.306854 0.000000 0.683407
O O16 0.358719 0.500000 0.718037
#
# Coordination Sequence:
#
# PCOD8097044 Si02
#       7
#     8   8   8   8   8   4   8
#     4  10  20  35  54  77 106 138 174 217 262 311
#     4  10  20  35  54  76 104 135 171 215 259 307
#     4  10  20  34  52  75 103 134 169 209 253 304
#     4  10  21  37  56  80 110 142 178 220 266 317
#     4  10  21  37  56  80 108 140 179 221 266 317
#     4  10  20  34  54  78 104 136 176 214 262 312
#     4  10  20  34  53  76 102 134 171 209 257 306
#
# _framework density 19.628972999999998
#
# number of rings (size 3 to 8) (size 9 to 14) (size 15 to 20)
#    0.000    2.000    0.000    3.692    0.000    0.615 
#    0.000    7.692    0.000    7.385    0.000    0.000 
#    0.000    0.000    0.000    0.000    0.000    0.000 
#
# Total GULP energy -322220.999037 kJ/mol
# GULP energy per Si atom -12393.115348 kJ/mol
# Density = 1.958430 g / cm^3
# Si number density = 19.628973 Si / 1000 Ang^3
#
#
#
# Elastic Constant Matrix: (Units=GPa)
#
#
# Indices 1 2 3 4 5 6 
#
# 1 67.1200 16.5796 9.2019 0.0000 2.0165 0.0000
# 2 16.5796 81.2523 21.3789 0.0000 16.9098 0.0000
# 3 9.2019 21.3789 84.3012 0.0000 -0.7606 0.0000
# 4 0.0000 0.0000 0.0000 28.4051 0.0000 -1.2974
# 5 2.0165 16.9098 -0.7606 0.0000 32.1680 0.0000
# 6 0.0000 0.0000 0.0000 -1.2974 0.0000 28.2591
#
#
#
# Elastic Compliance Matrix: (Units=1/GPa)
#
#
# Indices 1 2 3 4 5 6 
#
# 1 0.015774 -0.003103 -0.000929 0.000000 0.000621 0.000000
# 2 -0.003103 0.015595 -0.003689 0.000000 -0.008091 0.000000
# 3 -0.000929 -0.003689 0.012920 0.000000 0.002303 0.000000
# 4 0.000000 0.000000 0.000000 0.035279 0.000000 0.001620
# 5 0.000621 -0.008091 0.002303 0.000000 0.035355 0.000000
# 6 0.000000 0.000000 0.000000 0.001620 0.000000 0.035461
#
#
# Mechanical properties :
#
#
# Convention : Reuss Voigt Hill
#
# Bulk Modulus (GPa) = 34.66735 36.33271 35.50003
# Shear Modulus (GPa) = 28.49927 30.13399 29.31663
#
# Velocity S-wave (km/s) = 3.81451 3.92239 3.86883
# Velocity P-wave (km/s) = 6.09100 6.25007 6.17105
#
# Compressibility (1/GPa) = 0.02884559
#
# Stress axis : x y z
#
# Youngs Moduli (GPa) = 63.39538 64.12304 77.39928
#
# Poissons Ratio (x) = 0.19900 0.07192
# Poissons Ratio (y) = 0.19674 0.28554
# Poissons Ratio (z) = 0.05891 0.23656
#
# Static dielectric constant tensor:
#      x y z
#    x 3.491090 0.000000 -0.194260 
#    y 0.000000 3.532570 0.000000 
#    z -0.194260 0.000000 3.783900 
# 
# 
# High freq. dielectric constant tensor:
#      x y z
#    x 1.760920 0.000000 -0.012200 
#    y 0.000000 1.758950 0.000000 
#    z -0.012200 0.000000 1.778770 
# 
# From -- ./inp_files/355525.got.cif
#   From: 2010.06.25/outbox.cif.g09.slc.cpg/sg12_178_cif.got.tgz:355525.got - 2010.06.28 00:19:55.
