data_PCOD8097953
_publ_section_title
;
Structure prediction by ZEFSAII (Michael W. Deem and Ramdas Pophale) SiO2 
 PCOD8097953
Probable space group: C 2/M
;
_chemical_formula_sum "Si O2"
_cell_formula_units_Z 56
_cell_length_a 14.136267
_cell_length_b 13.752485
_cell_length_c 22.213681
_cell_angle_alpha 90.000000
_cell_angle_beta 40.685250
_cell_angle_gamma 90.000000
_cell_volume 2815.266875
_symmetry_space_group_name_H-M "C 2/M"
_symmetry_group_IT_number 12
_symmetry_cell_setting 'monoclinic'
loop_
_space_group_symop_operation_xyz
x,y,z
-x,y,-z
-x,-y,-z
x,-y,z
1/2+x,1/2+y,z
1/2-x,1/2+y,-z
1/2-x,1/2-y,-z
1/2+x,1/2-y,z
loop_
_atom_site_type_symbol
_atom_site_label
_atom_site_fract_x
_atom_site_fract_y
_atom_site_fract_z
Si Si1 0.070283 0.112927 0.364651
Si Si2 0.016940 0.707609 0.116675
Si Si3 0.301443 0.612848 0.942863
Si Si4 0.274486 0.886660 0.157502
Si Si5 0.194326 0.287531 0.674003
Si Si6 0.742368 0.886661 0.533075
Si Si7 0.836418 0.390583 0.559685
O O1 0.137572 0.134995 0.266425
O O2 0.157040 0.164821 0.375512
O O3 0.906812 0.151133 0.446372
O O4 0.078222 0.000000 0.375174
O O5 0.909568 0.681787 0.112807
O O6 0.936177 0.688653 0.218403
O O7 0.071685 0.819965 0.089418
O O8 0.152850 0.634506 0.050047
O O9 0.345171 0.500000 0.929488
O O10 0.275057 0.641001 0.885719
O O11 0.323193 0.000000 0.137722
O O12 0.156882 0.331761 0.627119
O O13 0.225064 0.172485 0.653261
O O14 0.662515 0.858603 0.510224
O O15 0.735788 0.000000 0.550173
O O16 0.778360 0.500000 0.595391
O O17 0.000000 0.377871 0.500000
#
# Coordination Sequence:
#
# PCOD8097953 Si02
#       7
#     8   8   8   8   8   8   8
#     4   9  18  32  54  86 112 135 177 230 281 331
#     4  10  22  36  56  91 115 143 188 242 286 343
#     4  10  21  39  63  85 113 151 191 237 290 343
#     4   9  18  35  62  87 113 148 190 238 287 337
#     4  11  21  34  54  82 112 144 175 229 286 329
#     4  10  20  34  55  80 111 145 182 227 273 326
#     4  10  22  38  53  73 108 155 197 223 256 321
#
# _framework density 19.891542000000001
#
# number of rings (size 3 to 8) (size 9 to 14) (size 15 to 20)
#    0.000    2.143    0.000    3.000    2.000    4.571 
#    2.571    0.000    0.000    7.714    0.000    0.000 
#    0.000    0.000    0.000    0.000    0.000    0.000 
#
# Total GULP energy -347212.841520 kJ/mol
# GULP energy per Si atom -12400.458626 kJ/mol
# Density = 1.984627 g / cm^3
# Si number density = 19.891542 Si / 1000 Ang^3
#
#
#
# Elastic Constant Matrix: (Units=GPa)
#
#
# Indices 1 2 3 4 5 6 
#
# 1 87.9210 35.0412 27.9998 0.0000 10.7163 0.0000
# 2 35.0412 81.2795 24.8257 0.0000 9.1722 0.0000
# 3 27.9998 24.8257 80.0636 -0.0002 12.5825 0.0001
# 4 0.0000 0.0000 -0.0002 23.9677 0.0001 3.2427
# 5 10.7163 9.1722 12.5825 0.0001 19.8481 0.0000
# 6 0.0000 0.0000 0.0001 3.2427 0.0000 14.9140
#
#
#
# Elastic Compliance Matrix: (Units=1/GPa)
#
#
# Indices 1 2 3 4 5 6 
#
# 1 0.014800 -0.005034 -0.003026 0.000000 -0.003746 0.000000
# 2 -0.005034 0.015596 -0.002632 0.000000 -0.002821 0.000000
# 3 -0.003026 -0.002632 0.015457 0.000000 -0.006948 0.000000
# 4 0.000000 0.000000 0.000000 0.042987 0.000000 -0.009347
# 5 -0.003746 -0.002821 -0.006948 0.000000 0.058113 0.000000
# 6 0.000000 0.000000 0.000000 -0.009347 0.000000 0.069083
#
#
# Mechanical properties :
#
#
# Convention : Reuss Voigt Hill
#
# Bulk Modulus (GPa) = 40.86945 47.22193 44.04569
# Shear Modulus (GPa) = 20.36020 22.50579 21.43299
#
# Velocity S-wave (km/s) = 3.20278 3.36732 3.28608
# Velocity P-wave (km/s) = 5.85387 6.23776 6.04886
#
# Compressibility (1/GPa) = 0.02446815
#
# Stress axis : x y z
#
# Youngs Moduli (GPa) = 67.56549 64.12077 64.69731
#
# Poissons Ratio (x) = 0.32276 0.19580
# Poissons Ratio (y) = 0.34010 0.17029
# Poissons Ratio (z) = 0.20449 0.16878
#
# Static dielectric constant tensor:
#      x y z
#    x 3.615260 0.000000 0.080590 
#    y 0.000000 3.725600 0.000000 
#    z 0.080590 0.000000 3.663190 
# 
# 
# High freq. dielectric constant tensor:
#      x y z
#    x 1.768140 0.000000 0.004890 
#    y 0.000000 1.777910 0.000000 
#    z 0.004890 0.000000 1.776350 
# 
# From -- ./inp_files/310790.got.cif
#   From: 2010.06.25/outbox.cif.g09.slc.cpg/sg12_156_cif.got.tgz:310790.got - 2010.06.28 00:19:55.
