data_PCOD8097737
_publ_section_title
;
Structure prediction by ZEFSAII (Michael W. Deem and Ramdas Pophale) SiO2 
 PCOD8097737
Probable space group: C 2/M
;
_chemical_formula_sum "Si O2"
_cell_formula_units_Z 36
_cell_length_a 17.432989
_cell_length_b 17.829731
_cell_length_c 4.880649
_cell_angle_alpha 90.000000
_cell_angle_beta 74.284286
_cell_angle_gamma 90.000000
_cell_volume 1460.319799
_symmetry_space_group_name_H-M "C 2/M"
_symmetry_group_IT_number 12
_symmetry_cell_setting 'monoclinic'
loop_
_space_group_symop_operation_xyz
x,y,z
-x,y,-z
-x,-y,-z
x,-y,z
1/2+x,1/2+y,z
1/2-x,1/2+y,-z
1/2-x,1/2-y,-z
1/2+x,1/2-y,z
loop_
_atom_site_type_symbol
_atom_site_label
_atom_site_fract_x
_atom_site_fract_y
_atom_site_fract_z
Si Si1 0.811204 0.415273 0.328859
Si Si2 0.441188 0.500000 0.302868
Si Si3 0.294712 0.414173 0.084670
Si Si4 0.905858 0.850538 0.554340
Si Si5 0.944214 0.298303 0.302767
O O1 0.829962 0.500000 0.409325
O O2 0.779707 0.414498 0.051145
O O3 0.891900 0.368661 0.263606
O O4 0.742351 0.381478 0.596691
O O5 0.500000 0.500000 0.500000
O O6 0.386360 0.423617 0.375175
O O7 0.500000 0.500000 0.000000
O O8 0.330214 0.500000 0.080685
O O9 0.363138 0.360746 0.889823
O O10 0.884377 0.770992 0.437233
O O11 0.000000 0.847154 0.500000
O O12 0.000000 0.322928 0.500000
O O13 0.000000 0.272238 0.000000
#
# Coordination Sequence:
#
# PCOD8097737 Si02
#       5
#     8   4   8   8   8
#     4  10  23  41  62  88 119 155 201 248 299 354
#     4  10  20  34  54  80 114 154 188 230 280 336
#     4  10  21  39  61  89 121 158 199 243 291 353
#     4  10  22  39  60  90 123 159 199 241 288 354
#     4  11  24  41  62  90 120 153 199 251 298 354
#
# _framework density 24.652135000000001
#
# number of rings (size 3 to 8) (size 9 to 14) (size 15 to 20)
#    0.000    1.778    1.111    2.000    0.000    9.778 
#    0.000    0.000    0.000    0.000    0.000    0.000 
#    0.000    0.000    0.000    0.000    0.000    0.000 
#
# Total GULP energy -223266.785960 kJ/mol
# GULP energy per Si atom -12403.710331 kJ/mol
# Density = 2.459603 g / cm^3
# Si number density = 24.652135 Si / 1000 Ang^3
#
#
#
# Elastic Constant Matrix: (Units=GPa)
#
#
# Indices 1 2 3 4 5 6 
#
# 1 65.6183 26.6716 -8.2623 0.0000 -6.0662 0.0000
# 2 26.6716 104.7505 0.7615 0.0000 -12.8480 0.0000
# 3 -8.2623 0.7615 96.2927 0.0000 -5.7257 0.0000
# 4 0.0000 0.0000 0.0000 28.4785 0.0000 8.7454
# 5 -6.0662 -12.8480 -5.7257 0.0000 32.1911 0.0000
# 6 0.0000 0.0000 0.0000 8.7454 0.0000 15.1879
#
#
#
# Elastic Compliance Matrix: (Units=1/GPa)
#
#
# Indices 1 2 3 4 5 6 
#
# 1 0.017323 -0.004192 0.001631 0.000000 0.001882 0.000000
# 2 -0.004192 0.011055 -0.000234 0.000000 0.003581 0.000000
# 3 0.001631 -0.000234 0.010652 0.000000 0.002109 0.000000
# 4 0.000000 0.000000 0.000000 0.042657 0.000000 -0.024563
# 5 0.001882 0.003581 0.002109 0.000000 0.033223 0.000000
# 6 0.000000 0.000000 0.000000 -0.024563 0.000000 0.079986
#
#
# Mechanical properties :
#
#
# Convention : Reuss Voigt Hill
#
# Bulk Modulus (GPa) = 29.90389 33.88926 31.89657
# Shear Modulus (GPa) = 23.62596 31.67088 27.64842
#
# Velocity S-wave (km/s) = 3.09912 3.58818 3.35258
# Velocity P-wave (km/s) = 4.99627 5.56269 5.28707
#
# Compressibility (1/GPa) = 0.03344046
#
# Stress axis : x y z
#
# Youngs Moduli (GPa) = 57.72726 90.45937 93.87721
#
# Poissons Ratio (x) = 0.37919 -0.15315
# Poissons Ratio (y) = 0.24198 0.02199
# Poissons Ratio (z) = -0.09418 0.02119
#
# Static dielectric constant tensor:
#      x y z
#    x 4.503740 0.000000 0.341460 
#    y 0.000000 3.535120 0.000000 
#    z 0.341460 0.000000 4.649960 
# 
# 
# High freq. dielectric constant tensor:
#      x y z
#    x 1.993730 0.000000 0.020110 
#    y 0.000000 1.965750 0.000000 
#    z 0.020110 0.000000 1.996610 
# 
# From -- ./inp_files/15057.got.cif
#   From: 2010.06.25/outbox.cif.g09.slc.cpg/sg12_8_cif.got.tgz:15057.got - 2010.06.28 00:19:55.
