data_PCOD8097052
_publ_section_title
;
Structure prediction by ZEFSAII (Michael W. Deem and Ramdas Pophale) SiO2 
 PCOD8097052
Probable space group: C 2/M
;
_chemical_formula_sum "Si O2"
_cell_formula_units_Z 40
_cell_length_a 27.277013
_cell_length_b 8.956219
_cell_length_c 25.553503
_cell_angle_alpha 90.000000
_cell_angle_beta 20.598203
_cell_angle_gamma 90.000000
_cell_volume 2196.256025
_symmetry_space_group_name_H-M "C 2/M"
_symmetry_group_IT_number 12
_symmetry_cell_setting 'monoclinic'
loop_
_space_group_symop_operation_xyz
x,y,z
-x,y,-z
-x,-y,-z
x,-y,z
1/2+x,1/2+y,z
1/2-x,1/2+y,-z
1/2-x,1/2-y,-z
1/2+x,1/2-y,z
loop_
_atom_site_type_symbol
_atom_site_label
_atom_site_fract_x
_atom_site_fract_y
_atom_site_fract_z
Si Si1 0.091044 0.327950 0.454611
Si Si2 0.899379 0.674939 0.851542
Si Si3 0.893033 0.678007 0.445727
Si Si4 0.589729 0.327391 0.861999
Si Si5 0.397621 0.175547 0.258530
O O1 0.047719 0.500000 0.499860
O O2 0.061356 0.262228 0.542239
O O3 0.251316 0.305477 0.279860
O O4 0.000000 0.247452 0.500000
O O5 0.876211 0.500000 0.869860
O O6 0.991191 0.732556 0.710844
O O7 0.979167 0.717849 0.824836
O O8 0.750000 0.750000 0.000000
O O9 0.873285 0.500000 0.465237
O O10 0.743613 0.746891 0.580328
O O11 0.555838 0.500000 0.883670
O O12 0.553513 0.232919 0.846877
O O13 0.500000 0.266337 0.000000
O O14 0.370824 0.000000 0.283419
#
# Coordination Sequence:
#
# PCOD8097052 Si02
#       5
#     8   8   8   8   8
#     4   8  14  26  46  71  95 119 155 205 250 286
#     4  10  22  36  51  75 104 135 172 213 259 308
#     4   9  18  34  54  74  98 133 175 212 249 301
#     4   9  18  32  51  74  98 130 172 209 246 298
#     4  10  20  34  52  75 103 135 171 211 258 308
#
# _framework density 18.212812
#
# number of rings (size 3 to 8) (size 9 to 14) (size 15 to 20)
#    0.000    2.800    0.000    2.400    0.000    4.400 
#    0.000    4.000    0.000    9.600    0.000    0.000 
#    0.000    0.000    0.000    0.000    0.000    0.000 
#
# Total GULP energy -247954.567274 kJ/mol
# GULP energy per Si atom -12397.728364 kJ/mol
# Density = 1.817136 g / cm^3
# Si number density = 18.212812 Si / 1000 Ang^3
#
#
#
# Elastic Constant Matrix: (Units=GPa)
#
#
# Indices 1 2 3 4 5 6 
#
# 1 144.5684 42.4003 93.0785 -0.0025 -3.3707 0.0022
# 2 42.4003 40.4985 40.3242 0.0324 -2.6190 -0.0131
# 3 93.0785 40.3242 140.5531 0.0149 13.1485 -0.0071
# 4 -0.0025 0.0324 0.0149 27.1484 -0.0059 -0.7548
# 5 -3.3707 -2.6190 13.1485 -0.0059 35.1691 0.0012
# 6 0.0022 -0.0131 -0.0071 -0.7548 0.0012 24.2695
#
#
#
# Elastic Compliance Matrix: (Units=1/GPa)
#
#
# Indices 1 2 3 4 5 6 
#
# 1 0.013863 -0.006711 -0.007599 0.000014 0.003670 -0.000007
# 2 -0.006711 0.039316 -0.007305 -0.000042 0.005016 0.000018
# 3 -0.007599 -0.007305 0.014882 -0.000002 -0.006836 0.000001
# 4 0.000014 -0.000042 -0.000002 0.036867 0.000005 0.001147
# 5 0.003670 0.005016 -0.006836 0.000005 0.031715 -0.000001
# 6 -0.000007 0.000018 0.000001 0.001147 -0.000001 0.041240
#
#
# Mechanical properties :
#
#
# Convention : Reuss Voigt Hill
#
# Bulk Modulus (GPa) = 40.26942 75.24732 57.75837
# Shear Modulus (GPa) = 21.79711 27.30518 24.55115
#
# Velocity S-wave (km/s) = 3.46323 3.87619 3.67552
# Velocity P-wave (km/s) = 6.17661 7.83827 7.05652
#
# Compressibility (1/GPa) = 0.02483274
#
# Stress axis : x y z
#
# Youngs Moduli (GPa) = 72.13327 25.43501 67.19576
#
# Poissons Ratio (x) = 0.17070 0.51059
# Poissons Ratio (y) = 0.48409 0.49083
# Poissons Ratio (z) = 0.54811 0.18579
#
# Static dielectric constant tensor:
#      x y z
#    x 3.743960 0.000000 0.109570 
#    y 0.000000 3.094900 0.000000 
#    z 0.109570 0.000000 3.365850 
# 
# 
# High freq. dielectric constant tensor:
#      x y z
#    x 1.720980 0.000000 0.005090 
#    y 0.000000 1.676420 0.000000 
#    z 0.005090 0.000000 1.703680 
# 
# From -- ./inp_files/101001.got.cif
#   From: 2010.06.25/outbox.cif.g09.slc.cpg/sg12_51_cif.got.tgz:101001.got - 2010.06.28 00:19:55.
