data_PCOD8097009
_publ_section_title
;
Structure prediction by ZEFSAII (Michael W. Deem and Ramdas Pophale) SiO2 
 PCOD8097009
Probable space group: C 2/M
;
_chemical_formula_sum "Si O2"
_cell_formula_units_Z 64
_cell_length_a 24.379897
_cell_length_b 8.850813
_cell_length_c 16.736793
_cell_angle_alpha 90.000000
_cell_angle_beta 101.740628
_cell_angle_gamma 90.000000
_cell_volume 3535.940185
_symmetry_space_group_name_H-M "C 2/M"
_symmetry_group_IT_number 12
_symmetry_cell_setting 'monoclinic'
loop_
_space_group_symop_operation_xyz
x,y,z
-x,y,-z
-x,-y,-z
x,-y,z
1/2+x,1/2+y,z
1/2-x,1/2+y,-z
1/2-x,1/2-y,-z
1/2+x,1/2-y,z
loop_
_atom_site_type_symbol
_atom_site_label
_atom_site_fract_x
_atom_site_fract_y
_atom_site_fract_z
Si Si1 0.165722 0.173221 0.993243
Si Si2 0.111286 0.676695 0.218890
Si Si3 0.667285 0.821398 0.822964
Si Si4 0.564551 0.178674 0.684235
Si Si5 0.444444 0.322740 0.651816
Si Si6 0.779325 0.678225 0.843821
Si Si7 0.565909 0.165912 0.510302
Si Si8 0.945122 0.172157 0.939688
O O1 0.210518 0.245477 0.066935
O O2 0.104674 0.184432 0.012568
O O3 0.182809 0.000000 0.980613
O O4 0.163975 0.268801 0.912644
O O5 0.106530 0.500000 0.233550
O O6 0.100385 0.763931 0.297518
O O7 0.172752 0.723919 0.205270
O O8 0.065042 0.723433 0.139971
O O9 0.610750 0.768852 0.761670
O O10 0.720088 0.741858 0.794784
O O11 0.674906 0.000000 0.820012
O O12 0.505588 0.255182 0.687949
O O13 0.587562 0.226687 0.602799
O O14 0.554109 0.000000 0.683008
O O15 0.449331 0.500000 0.658962
O O16 0.419782 0.278888 0.557489
O O17 0.777400 0.500000 0.855339
O O18 0.500000 0.150751 0.500000
O O19 0.591420 0.000000 0.498465
O O20 0.953423 0.000000 0.912621
O O21 0.000000 0.234162 0.000000
#
# Coordination Sequence:
#
# PCOD8097009 Si02
#       8
#     8   8   8   8   8   8   8   8
#     4  10  20  34  52  74 103 138 176 216 259 306
#     4  10  21  36  54  75 100 136 178 214 253 309
#     4  11  22  35  54  78 105 135 173 219 261 306
#     4   9  20  36  53  78 109 141 171 206 258 314
#     4  11  21  32  53  82 110 137 170 212 256 306
#     4  10  21  38  56  74  99 135 180 222 262 304
#     4   8  15  32  54  74 104 140 171 204 251 310
#     4   9  19  34  50  72 104 137 169 212 263 304
#
# _framework density 18.099854000000001
#
# number of rings (size 3 to 8) (size 9 to 14) (size 15 to 20)
#    0.000    2.250    0.000    3.750    1.750    5.500 
#    0.000    0.000    0.000    0.750    0.000    0.000 
#    0.000    0.000    0.000    0.000    0.000    0.000 
#
# Total GULP energy -396805.106686 kJ/mol
# GULP energy per Si atom -12400.159584 kJ/mol
# Density = 1.805866 g / cm^3
# Si number density = 18.099854 Si / 1000 Ang^3
#
#
#
# Elastic Constant Matrix: (Units=GPa)
#
#
# Indices 1 2 3 4 5 6 
#
# 1 52.8953 31.7718 45.8839 0.0000 -3.0562 0.0000
# 2 31.7718 71.2097 34.7241 0.0000 -5.4560 0.0000
# 3 45.8839 34.7241 94.6189 0.0000 -15.1096 0.0000
# 4 0.0000 0.0000 0.0000 24.4928 0.0000 -1.6458
# 5 -3.0562 -5.4560 -15.1096 0.0000 21.3940 0.0000
# 6 0.0000 0.0000 0.0000 -1.6458 0.0000 27.0130
#
#
#
# Elastic Compliance Matrix: (Units=1/GPa)
#
#
# Indices 1 2 3 4 5 6 
#
# 1 0.038640 -0.009856 -0.016502 0.000000 -0.008648 0.000000
# 2 -0.009856 0.019618 -0.002081 0.000000 0.002126 0.000000
# 3 -0.016502 -0.002081 0.021273 0.000000 0.012136 0.000000
# 4 0.000000 0.000000 0.000000 0.040996 0.000000 0.002498
# 5 -0.008648 0.002126 0.012136 0.000000 0.054620 0.000000
# 6 0.000000 0.000000 0.000000 0.002498 0.000000 0.037171
#
#
# Mechanical properties :
#
#
# Convention : Reuss Voigt Hill
#
# Bulk Modulus (GPa) = 44.14295 49.27594 46.70945
# Shear Modulus (GPa) = 18.06710 21.66957 19.86833
#
# Velocity S-wave (km/s) = 3.16284 3.46385 3.31676
# Velocity P-wave (km/s) = 6.14651 6.57885 6.36635
#
# Compressibility (1/GPa) = 0.02265367
#
# Stress axis : x y z
#
# Youngs Moduli (GPa) = 25.87983 50.97374 47.00888
#
# Poissons Ratio (x) = 0.50240 0.77574
# Poissons Ratio (y) = 0.25507 0.09781
# Poissons Ratio (z) = 0.42707 0.10606
#
# Static dielectric constant tensor:
#      x y z
#    x 3.343110 0.000000 0.037270 
#    y 0.000000 3.363150 0.000000 
#    z 0.037270 0.000000 3.599500 
# 
# 
# High freq. dielectric constant tensor:
#      x y z
#    x 1.687270 0.000000 -0.007070 
#    y 0.000000 1.705930 0.000000 
#    z -0.007070 0.000000 1.696760 
# 
# From -- ./inp_files/244110.got.cif
#   From: 2010.06.25/outbox.cif.g09.slc.cpg/sg12_123_cif.got.tgz:244110.got - 2010.06.28 00:19:55.
