data_PCOD8097863
_publ_section_title
;
Structure prediction by ZEFSAII (Michael W. Deem and Ramdas Pophale) SiO2 
 PCOD8097863
Probable space group: C 2/M
;
_chemical_formula_sum "Si O2"
_cell_formula_units_Z 64
_cell_length_a 24.925575
_cell_length_b 9.060393
_cell_length_c 29.763180
_cell_angle_alpha 90.000000
_cell_angle_beta 28.606358
_cell_angle_gamma 90.000000
_cell_volume 3218.221806
_symmetry_space_group_name_H-M "C 2/M"
_symmetry_group_IT_number 12
_symmetry_cell_setting 'monoclinic'
loop_
_space_group_symop_operation_xyz
x,y,z
-x,y,-z
-x,-y,-z
x,-y,z
1/2+x,1/2+y,z
1/2-x,1/2+y,-z
1/2-x,1/2-y,-z
1/2+x,1/2-y,z
loop_
_atom_site_type_symbol
_atom_site_label
_atom_site_fract_x
_atom_site_fract_y
_atom_site_fract_z
Si Si1 0.766799 0.325450 0.535064
Si Si2 0.206057 0.332322 0.168812
Si Si3 0.408297 0.331144 0.600065
Si Si4 0.879774 0.674503 0.103895
Si Si5 0.333453 0.174685 0.903636
Si Si6 0.567998 0.325198 0.748801
Si Si7 0.486494 0.168750 0.626138
Si Si8 0.158681 0.669793 0.767201
O O1 0.768607 0.500000 0.526313
O O2 0.750000 0.250000 0.500000
O O3 0.669456 0.278200 0.641227
O O4 0.887123 0.268388 0.464806
O O5 0.243806 0.500000 0.149224
O O6 0.287282 0.230715 0.137639
O O7 0.215297 0.291087 0.109781
O O8 0.076860 0.310430 0.279638
O O9 0.500000 0.258190 0.500000
O O10 0.437944 0.500000 0.588396
O O11 0.409647 0.251017 0.646587
O O12 0.290637 0.315480 0.661360
O O13 0.870180 0.500000 0.110440
O O14 0.863657 0.731383 0.166454
O O15 0.000000 0.732392 0.000000
O O16 0.456121 0.244670 0.815423
O O17 0.341168 0.000000 0.907311
O O18 0.250000 0.250000 0.000000
O O19 0.549070 0.500000 0.762515
O O20 0.594118 0.273200 0.779984
O O21 0.491515 0.000000 0.607598
O O22 0.118495 0.500000 0.791197
#
# Coordination Sequence:
#
# PCOD8097863 Si02
#       8
#     8   8   8   8   8   8   8   8
#     4  10  22  39  60  88 121 160 207 254 306 367
#     4  10  22  40  63  91 120 154 198 249 306 364
#     4  10  20  34  54  83 117 154 197 240 288 350
#     4  10  22  39  61  89 119 156 200 248 304 362
#     4  11  25  45  67  92 123 161 205 255 311 367
#     4  11  24  41  62  92 126 163 208 255 306 367
#     4  10  20  36  58  85 118 153 192 242 299 356
#     4  10  21  38  58  86 124 162 200 246 304 363
#
# _framework density 19.886758
#
# number of rings (size 3 to 8) (size 9 to 14) (size 15 to 20)
#    0.000    1.750    1.250    2.250    1.750    5.000 
#    0.000    0.000    0.000    0.000    0.000    0.000 
#    0.000    0.000    0.000    0.000    0.000    0.000 
#
# Total GULP energy -396857.207912 kJ/mol
# GULP energy per Si atom -12401.787747 kJ/mol
# Density = 1.984149 g / cm^3
# Si number density = 19.886758 Si / 1000 Ang^3
#
#
#
# Elastic Constant Matrix: (Units=GPa)
#
#
# Indices 1 2 3 4 5 6 
#
# 1 115.0940 42.3657 44.7381 0.0289 6.0299 -0.0386
# 2 42.3657 59.5871 35.1546 0.0445 1.1388 -0.0998
# 3 44.7381 35.1546 127.2370 -0.0073 4.0918 -0.0076
# 4 0.0289 0.0445 -0.0073 27.6929 0.0021 -1.4914
# 5 6.0299 1.1388 4.0918 0.0021 35.3289 0.0159
# 6 -0.0386 -0.0998 -0.0076 -1.4914 0.0159 37.4810
#
#
#
# Elastic Compliance Matrix: (Units=1/GPa)
#
#
# Indices 1 2 3 4 5 6 
#
# 1 0.012389 -0.007453 -0.002245 -0.000002 -0.001614 -0.000007
# 2 -0.007453 0.024534 -0.004189 -0.000030 0.000966 0.000055
# 3 -0.002245 -0.004189 0.009826 0.000011 -0.000620 -0.000011
# 4 -0.000002 -0.000030 0.000011 0.036188 -0.000003 0.001440
# 5 -0.001614 0.000966 -0.000620 -0.000003 0.028622 -0.000011
# 6 -0.000007 0.000055 -0.000011 0.001440 -0.000011 0.026738
#
#
# Mechanical properties :
#
#
# Convention : Reuss Voigt Hill
#
# Bulk Modulus (GPa) = 52.70095 60.71499 56.70797
# Shear Modulus (GPa) = 29.00286 32.07788 30.54037
#
# Velocity S-wave (km/s) = 3.82304 4.02061 3.92307
# Velocity P-wave (km/s) = 6.78569 7.22152 7.00700
#
# Compressibility (1/GPa) = 0.01897499
#
# Stress axis : x y z
#
# Youngs Moduli (GPa) = 80.71470 40.75909 101.77007
#
# Poissons Ratio (x) = 0.30379 0.22848
# Poissons Ratio (y) = 0.60159 0.42632
# Poissons Ratio (z) = 0.18121 0.17074
#
# Static dielectric constant tensor:
#      x y z
#    x 3.603210 -0.000010 0.077930 
#    y -0.000010 3.522570 0.000020 
#    z 0.077930 0.000020 3.967980 
# 
# 
# High freq. dielectric constant tensor:
#      x y z
#    x 1.779530 0.000000 0.002910 
#    y 0.000000 1.767210 0.000000 
#    z 0.002910 0.000000 1.792230 
# 
# From -- ./inp_files/382210.got.cif
#   From: 2010.06.25/outbox.cif.g09.slc.cpg/sg12_192_cif.got.tgz:382210.got - 2010.06.28 00:19:55.
