data_PCOD8097739
_publ_section_title
;
Structure prediction by ZEFSAII (Michael W. Deem and Ramdas Pophale) SiO2 
 PCOD8097739
Probable space group: C 2/M
;
_chemical_formula_sum "Si O2"
_cell_formula_units_Z 64
_cell_length_a 32.945299
_cell_length_b 9.509538
_cell_length_c 11.362551
_cell_angle_alpha 90.000000
_cell_angle_beta 84.653552
_cell_angle_gamma 90.000000
_cell_volume 3544.338500
_symmetry_space_group_name_H-M "C 2/M"
_symmetry_group_IT_number 12
_symmetry_cell_setting 'monoclinic'
loop_
_space_group_symop_operation_xyz
x,y,z
-x,y,-z
-x,-y,-z
x,-y,z
1/2+x,1/2+y,z
1/2-x,1/2+y,-z
1/2-x,1/2-y,-z
1/2+x,1/2-y,z
loop_
_atom_site_type_symbol
_atom_site_label
_atom_site_fract_x
_atom_site_fract_y
_atom_site_fract_z
Si Si1 0.281548 0.660299 0.063757
Si Si2 0.971298 0.164363 0.610212
Si Si3 0.433147 0.844180 0.029498
Si Si4 0.810874 0.664815 0.533390
Si Si5 0.999458 0.343642 0.187540
Si Si6 0.223921 0.837206 0.666134
Si Si7 0.878090 0.834035 0.656604
Si Si8 0.868822 0.159863 0.926994
O O1 0.266382 0.500000 0.067203
O O2 0.284725 0.711356 0.197960
O O3 0.250000 0.750000 0.000000
O O4 0.323562 0.678357 0.985004
O O5 0.923921 0.201021 0.601718
O O6 0.000000 0.225289 0.500000
O O7 0.988251 0.228221 0.723771
O O8 0.977055 0.000000 0.622184
O O9 0.466833 0.840578 0.920933
O O10 0.396990 0.738761 0.012128
O O11 0.414193 0.000000 0.043913
O O12 0.455192 0.803502 0.146121
O O13 0.820788 0.500000 0.511927
O O14 0.803209 0.737501 0.409387
O O15 0.771633 0.685239 0.626844
O O16 0.848634 0.742271 0.583761
O O17 0.997667 0.500000 0.244137
O O18 0.211420 0.000000 0.648497
O O19 0.872614 0.782367 0.792903
O O20 0.867793 0.000000 0.646849
O O21 0.883589 0.000000 0.923328
#
# Coordination Sequence:
#
# PCOD8097739 Si02
#       8
#     8   8   8   8   8   8   8   8
#     4  10  21  36  55  81 112 143 175 214 265 318
#     4  10  21  37  55  77 105 140 181 221 265 316
#     4   9  18  33  54  79 106 137 172 215 267 317
#     4  10  20  34  57  83 103 137 185 220 254 309
#     4   9  18  34  55  78 105 137 173 215 267 319
#     4   9  19  37  56  77 110 144 174 214 264 311
#     4  10  20  35  54  77 107 138 173 220 268 311
#     4  10  20  34  54  81 107 137 179 220 261 315
#
# _framework density 18.056965999999999
#
# number of rings (size 3 to 8) (size 9 to 14) (size 15 to 20)
#    0.000    2.375    1.250    1.875    0.000    3.250 
#    2.250    1.250    0.000    0.000    0.000    0.000 
#    0.000    0.000    0.000    0.000    0.000    0.000 
#
# Total GULP energy -396765.324823 kJ/mol
# GULP energy per Si atom -12398.916401 kJ/mol
# Density = 1.801587 g / cm^3
# Si number density = 18.056966 Si / 1000 Ang^3
#
#
#
# Elastic Constant Matrix: (Units=GPa)
#
#
# Indices 1 2 3 4 5 6 
#
# 1 91.2075 60.4825 49.2179 0.0000 20.2328 0.0000
# 2 60.4825 76.2331 46.2159 0.0000 19.6413 0.0000
# 3 49.2179 46.2159 73.1437 0.0000 9.9252 0.0000
# 4 0.0000 0.0000 0.0000 45.6181 0.0000 17.4108
# 5 20.2328 19.6413 9.9252 0.0000 31.1250 0.0000
# 6 0.0000 0.0000 0.0000 17.4108 0.0000 35.3168
#
#
#
# Elastic Compliance Matrix: (Units=1/GPa)
#
#
# Indices 1 2 3 4 5 6 
#
# 1 0.025847 -0.014677 -0.007416 0.000000 -0.005175 0.000000
# 2 -0.014677 0.032708 -0.009704 0.000000 -0.008005 0.000000
# 3 -0.007416 -0.009704 0.024362 0.000000 0.003176 0.000000
# 4 0.000000 0.000000 0.000000 0.027002 0.000000 -0.013312
# 5 -0.005175 -0.008005 0.003176 0.000000 0.039531 0.000000
# 6 0.000000 0.000000 0.000000 -0.013312 0.000000 0.034878
#
#
# Mechanical properties :
#
#
# Convention : Reuss Voigt Hill
#
# Bulk Modulus (GPa) = 51.75355 61.37966 56.56661
# Shear Modulus (GPa) = 19.65694 28.05653 23.85674
#
# Velocity S-wave (km/s) = 3.30298 3.94608 3.63877
# Velocity P-wave (km/s) = 6.57798 7.40460 7.00349
#
# Compressibility (1/GPa) = 0.01932235
#
# Stress axis : x y z
#
# Youngs Moduli (GPa) = 38.68939 30.57367 41.04674
#
# Poissons Ratio (x) = 0.44874 0.30441
# Poissons Ratio (y) = 0.56786 0.39832
# Poissons Ratio (z) = 0.28692 0.29669
#
# Static dielectric constant tensor:
#      x y z
#    x 2.896140 0.000000 0.202580 
#    y 0.000000 3.468970 0.000000 
#    z 0.202580 0.000000 2.830910 
# 
# 
# High freq. dielectric constant tensor:
#      x y z
#    x 1.698660 0.000000 0.006470 
#    y 0.000000 1.698850 0.000000 
#    z 0.006470 0.000000 1.697710 
# 
# From -- ./inp_files/187455.got.cif
#   From: 2010.06.25/outbox.cif.g09.slc.cpg/sg12_94_cif.got.tgz:187455.got - 2010.06.28 00:19:55.
