data_PCOD8097751
_publ_section_title
;
Structure prediction by ZEFSAII (Michael W. Deem and Ramdas Pophale) SiO2 
 PCOD8097751
Probable space group: C 2/M
;
_chemical_formula_sum "Si O2"
_cell_formula_units_Z 56
_cell_length_a 28.783485
_cell_length_b 9.216930
_cell_length_c 19.713129
_cell_angle_alpha 90.000000
_cell_angle_beta 145.806359
_cell_angle_gamma 90.000000
_cell_volume 2939.104568
_symmetry_space_group_name_H-M "C 2/M"
_symmetry_group_IT_number 12
_symmetry_cell_setting 'monoclinic'
loop_
_space_group_symop_operation_xyz
x,y,z
-x,y,-z
-x,-y,-z
x,-y,z
1/2+x,1/2+y,z
1/2-x,1/2+y,-z
1/2-x,1/2-y,-z
1/2+x,1/2-y,z
loop_
_atom_site_type_symbol
_atom_site_label
_atom_site_fract_x
_atom_site_fract_y
_atom_site_fract_z
Si Si1 0.566610 0.664379 0.028872
Si Si2 0.387565 0.170617 0.043934
Si Si3 0.015288 0.671343 0.306739
Si Si4 0.706924 0.671798 0.784502
Si Si5 0.046526 0.671011 0.624540
Si Si6 0.304678 0.828448 0.509640
Si Si7 0.249006 0.335804 0.704243
O O1 0.544344 0.500000 0.981437
O O2 0.653460 0.673068 0.171119
O O3 0.500000 0.729389 0.000000
O O4 0.562364 0.760525 0.957131
O O5 0.433455 0.225409 0.167593
O O6 0.394058 0.000000 0.043274
O O7 0.291404 0.218510 0.925549
O O8 0.019132 0.500000 0.309119
O O9 0.099916 0.727927 0.373870
O O10 0.008589 0.719483 0.377350
O O11 0.695761 0.500000 0.769013
O O12 0.632786 0.744821 0.736020
O O13 0.705505 0.731400 0.706015
O O14 0.064919 0.500000 0.646958
O O15 0.000000 0.719415 0.500000
O O16 0.250000 0.750000 0.500000
O O17 0.271251 0.783549 0.395568
O O18 0.297800 0.000000 0.513644
O O19 0.216006 0.500000 0.676848
#
# Coordination Sequence:
#
# PCOD8097751 Si02
#       7
#     8   8   8   8   8   8   8
#     4   9  18  31  50  75 102 135 176 224 268 307
#     4   9  19  35  52  74 107 144 177 214 262 320
#     4   9  19  36  55  77 107 142 180 219 260 319
#     4  10  20  34  54  81 110 137 173 222 271 312
#     4  10  20  36  60  83 104 140 184 218 259 320
#     4  10  21  36  55  78 105 139 178 221 267 315
#     4   9  18  34  53  74 103 140 180 217 260 319
#
# _framework density 19.053422999999999
#
# number of rings (size 3 to 8) (size 9 to 14) (size 15 to 20)
#    0.000    2.571    0.000    1.286    2.000    4.571 
#    0.000    1.429    0.000    0.000    0.000    0.000 
#    0.000    0.000    0.000    0.000    0.000    0.000 
#
# Total GULP energy -347148.488076 kJ/mol
# GULP energy per Si atom -12398.160288 kJ/mol
# Density = 1.901006 g / cm^3
# Si number density = 19.053423 Si / 1000 Ang^3
#
#
#
# Elastic Constant Matrix: (Units=GPa)
#
#
# Indices 1 2 3 4 5 6 
#
# 1 138.5826 31.6503 68.0529 0.0000 9.7323 0.0000
# 2 31.6503 33.8020 31.3243 0.0000 2.4720 0.0000
# 3 68.0529 31.3243 117.0503 0.0000 -12.7027 0.0000
# 4 0.0000 0.0000 0.0000 20.3979 0.0000 2.4516
# 5 9.7323 2.4720 -12.7027 0.0000 27.5637 0.0000
# 6 0.0000 0.0000 0.0000 2.4516 0.0000 33.6888
#
#
#
# Elastic Compliance Matrix: (Units=1/GPa)
#
#
# Indices 1 2 3 4 5 6 
#
# 1 0.011904 -0.004742 -0.006381 0.000000 -0.006719 0.000000
# 2 -0.004742 0.043378 -0.009571 0.000000 -0.006627 0.000000
# 3 -0.006381 -0.009571 0.015950 0.000000 0.010462 0.000000
# 4 0.000000 0.000000 0.000000 0.049457 0.000000 -0.003599
# 5 -0.006719 -0.006627 0.010462 0.000000 0.044068 0.000000
# 6 0.000000 0.000000 0.000000 -0.003599 0.000000 0.029945
#
#
# Mechanical properties :
#
#
# Convention : Reuss Voigt Hill
#
# Bulk Modulus (GPa) = 33.50699 61.27668 47.39183
# Shear Modulus (GPa) = 20.32201 26.89058 23.60630
#
# Velocity S-wave (km/s) = 3.26940 3.76084 3.52370
# Velocity P-wave (km/s) = 5.64588 7.14764 6.44068
#
# Compressibility (1/GPa) = 0.02984452
#
# Stress axis : x y z
#
# Youngs Moduli (GPa) = 84.00296 23.05325 62.69517
#
# Poissons Ratio (x) = 0.10931 0.40008
# Poissons Ratio (y) = 0.39830 0.60005
# Poissons Ratio (z) = 0.53606 0.22064
#
# Static dielectric constant tensor:
#      x y z
#    x 3.554420 0.000000 0.058000 
#    y 0.000000 3.276310 0.000000 
#    z 0.058000 0.000000 3.786880 
# 
# 
# High freq. dielectric constant tensor:
#      x y z
#    x 1.743420 0.000000 0.006270 
#    y 0.000000 1.714810 0.000000 
#    z 0.006270 0.000000 1.750170 
# 
# From -- ./inp_files/288201.got.cif
#   From: 2010.06.25/outbox.cif.g09.slc.cpg/sg12_145_cif.got.tgz:288201.got - 2010.06.28 00:19:55.
