data_PCOD8097253
_publ_section_title
;
Structure prediction by ZEFSAII (Michael W. Deem and Ramdas Pophale) SiO2 
 PCOD8097253
Probable space group: C 2/M
;
_chemical_formula_sum "Si O2"
_cell_formula_units_Z 48
_cell_length_a 18.327380
_cell_length_b 8.607827
_cell_length_c 16.556421
_cell_angle_alpha 90.000000
_cell_angle_beta 93.440420
_cell_angle_gamma 90.000000
_cell_volume 2607.215675
_symmetry_space_group_name_H-M "C 2/M"
_symmetry_group_IT_number 12
_symmetry_cell_setting 'monoclinic'
loop_
_space_group_symop_operation_xyz
x,y,z
-x,y,-z
-x,-y,-z
x,-y,z
1/2+x,1/2+y,z
1/2-x,1/2+y,-z
1/2-x,1/2-y,-z
1/2+x,1/2-y,z
loop_
_atom_site_type_symbol
_atom_site_label
_atom_site_fract_x
_atom_site_fract_y
_atom_site_fract_z
Si Si1 0.803631 0.817359 0.761860
Si Si2 0.729905 0.321090 0.913694
Si Si3 0.838622 0.678159 0.333452
Si Si4 0.408561 0.677883 0.186807
Si Si5 0.969809 0.818562 0.412605
Si Si6 0.040309 0.318491 0.258340
O O1 0.773178 0.767258 0.846629
O O2 0.746238 0.775621 0.685823
O O3 0.875871 0.724588 0.746107
O O4 0.819247 0.000000 0.765189
O O5 0.753626 0.500000 0.912648
O O6 0.641534 0.304099 0.896346
O O7 0.750000 0.250000 0.000000
O O8 0.845742 0.500000 0.359952
O O9 0.877385 0.703841 0.250514
O O10 0.882355 0.780958 0.402513
O O11 0.404783 0.500000 0.217937
O O12 0.493332 0.730275 0.184246
O O13 0.000000 0.758666 0.500000
O O14 0.013263 0.730289 0.345299
O O15 0.983687 0.000000 0.402930
O O16 0.030553 0.500000 0.245834
#
# Coordination Sequence:
#
# PCOD8097253 Si02
#       6
#     8   8   8   8   8   8
#     4  10  20  35  54  76 104 135 169 210 254 301
#     4  10  20  34  54  79 105 135 170 208 252 300
#     4   9  17  30  51  75  98 130 169 207 248 297
#     4   9  17  31  51  73 100 134 169 204 246 300
#     4  10  20  34  53  76 103 135 169 207 252 301
#     4  11  21  33  53  78 103 133 170 211 253 299
#
# _framework density 18.410443999999998
#
# number of rings (size 3 to 8) (size 9 to 14) (size 15 to 20)
#    0.000    2.167    0.000    6.000    0.000    5.333 
#    0.000    1.667    0.000    5.000    0.000    0.000 
#    0.000    0.000    0.000    0.000    0.000    0.000 
#
# Total GULP energy -297416.220420 kJ/mol
# GULP energy per Si atom -12392.342517 kJ/mol
# Density = 1.836854 g / cm^3
# Si number density = 18.410444 Si / 1000 Ang^3
#
#
#
# Elastic Constant Matrix: (Units=GPa)
#
#
# Indices 1 2 3 4 5 6 
#
# 1 130.3913 40.3088 50.9265 0.0000 23.5126 0.0000
# 2 40.3088 80.9346 34.4293 0.0000 11.2465 0.0000
# 3 50.9265 34.4293 92.6510 0.0000 29.4032 0.0000
# 4 0.0000 0.0000 0.0000 25.7460 0.0000 2.3126
# 5 23.5126 11.2465 29.4032 0.0000 29.5597 0.0000
# 6 0.0000 0.0000 0.0000 2.3126 0.0000 32.8244
#
#
#
# Elastic Compliance Matrix: (Units=1/GPa)
#
#
# Indices 1 2 3 4 5 6 
#
# 1 0.010742 -0.003353 -0.003437 0.000000 -0.003851 0.000000
# 2 -0.003353 0.015723 -0.004307 0.000000 0.000970 0.000000
# 3 -0.003437 -0.004307 0.018844 0.000000 -0.014371 0.000000
# 4 0.000000 0.000000 0.000000 0.039088 0.000000 -0.002754
# 5 -0.003851 0.000970 -0.014371 0.000000 0.050819 0.000000
# 6 0.000000 0.000000 0.000000 -0.002754 0.000000 0.030659
#
#
# Mechanical properties :
#
#
# Convention : Reuss Voigt Hill
#
# Bulk Modulus (GPa) = 43.26200 61.70067 52.48134
# Shear Modulus (GPa) = 25.53948 29.51353 27.52651
#
# Velocity S-wave (km/s) = 3.72859 4.00820 3.87092
# Velocity P-wave (km/s) = 6.48738 7.41671 6.96756
#
# Compressibility (1/GPa) = 0.02311498
#
# Stress axis : x y z
#
# Youngs Moduli (GPa) = 93.08923 63.59991 53.06826
#
# Poissons Ratio (x) = 0.21326 0.18237
# Poissons Ratio (y) = 0.31214 0.22859
# Poissons Ratio (z) = 0.31991 0.27395
#
# Static dielectric constant tensor:
#      x y z
#    x 3.870610 0.000000 0.484280 
#    y 0.000000 3.480940 0.000000 
#    z 0.484280 0.000000 3.173020 
# 
# 
# High freq. dielectric constant tensor:
#      x y z
#    x 1.721130 0.000000 0.036530 
#    y 0.000000 1.731050 0.000000 
#    z 0.036530 0.000000 1.677850 
# 
# From -- ./inp_files/273644.got.cif
#   From: 2010.06.25/outbox.cif.g09.slc.cpg/sg12_137_cif.got.tgz:273644.got - 2010.06.28 00:19:55.
