data_PCOD8097514
_publ_section_title
;
Structure prediction by ZEFSAII (Michael W. Deem and Ramdas Pophale) SiO2 
 PCOD8097514
Probable space group: C 2/M
;
_chemical_formula_sum "Si O2"
_cell_formula_units_Z 64
_cell_length_a 30.469698
_cell_length_b 12.705999
_cell_length_c 9.865628
_cell_angle_alpha 90.000000
_cell_angle_beta 111.432954
_cell_angle_gamma 90.000000
_cell_volume 3555.326142
_symmetry_space_group_name_H-M "C 2/M"
_symmetry_group_IT_number 12
_symmetry_cell_setting 'monoclinic'
loop_
_space_group_symop_operation_xyz
x,y,z
-x,y,-z
-x,-y,-z
x,-y,z
1/2+x,1/2+y,z
1/2-x,1/2+y,-z
1/2-x,1/2-y,-z
1/2+x,1/2-y,z
loop_
_atom_site_type_symbol
_atom_site_label
_atom_site_fract_x
_atom_site_fract_y
_atom_site_fract_z
Si Si1 0.875119 0.376355 0.475623
Si Si2 0.928965 0.212753 0.672784
Si Si3 0.225302 0.715793 0.611609
Si Si4 0.529865 0.375924 0.794749
Si Si5 0.295445 0.622777 0.899378
Si Si6 0.392205 0.377221 0.898340
Si Si7 0.199576 0.117664 0.801471
Si Si8 0.900565 0.814372 0.354639
O O1 0.880282 0.500000 0.454696
O O2 0.914821 0.335951 0.628884
O O3 0.822991 0.346913 0.472906
O O4 0.884685 0.310022 0.346732
O O5 0.896802 0.175789 0.758702
O O6 0.914786 0.146705 0.521908
O O7 0.983570 0.193815 0.766838
O O8 0.250000 0.750000 0.500000
O O9 0.257855 0.641074 0.739284
O O10 0.216656 0.819454 0.690313
O O11 0.517965 0.500000 0.767899
O O12 0.554420 0.331773 0.688289
O O13 0.562321 0.353300 0.960102
O O14 0.303253 0.500000 0.928253
O O15 0.345708 0.673084 0.914177
O O16 0.280716 0.665139 0.032992
O O17 0.385794 0.500000 0.866634
O O18 0.142653 0.116812 0.749202
O O19 0.218197 0.000000 0.799804
#
# Coordination Sequence:
#
# PCOD8097514 Si02
#       8
#     8   8   8   8   8   8   8   8
#     4   9  21  40  57  75 108 148 187 235 280 317
#     4  10  21  34  53  84 107 151 187 227 272 333
#     4  11  22  37  57  87 108 141 185 235 280 330
#     4  11  20  34  55  83 120 150 177 223 289 347
#     4  10  20  35  57  79 108 151 184 216 271 336
#     4  10  20  34  53  83 119 148 175 218 281 346
#     4  10  20  36  54  79 113 145 177 222 280 339
#     4   9  20  35  55  82 106 146 186 231 272 333
#
# _framework density 18.001162000000001
#
# number of rings (size 3 to 8) (size 9 to 14) (size 15 to 20)
#    0.750    1.250    1.250    3.000    0.000    4.500 
#    0.000    1.250    0.000    2.250    0.000    0.000 
#    0.000    0.000    0.000    0.000    0.000    0.000 
#
# Total GULP energy -396520.479483 kJ/mol
# GULP energy per Si atom -12391.264984 kJ/mol
# Density = 1.796019 g / cm^3
# Si number density = 18.001162 Si / 1000 Ang^3
#
#
#
# Elastic Constant Matrix: (Units=GPa)
#
#
# Indices 1 2 3 4 5 6 
#
# 1 93.2864 38.1688 28.7845 0.0000 -1.0098 0.0000
# 2 38.1688 74.5460 35.9951 0.0000 -2.5236 0.0000
# 3 28.7845 35.9951 83.9692 0.0000 -10.7608 0.0000
# 4 0.0000 0.0000 0.0000 25.5704 0.0000 6.8085
# 5 -1.0098 -2.5236 -10.7608 0.0000 35.3233 0.0000
# 6 0.0000 0.0000 0.0000 6.8085 0.0000 16.6749
#
#
#
# Elastic Compliance Matrix: (Units=1/GPa)
#
#
# Indices 1 2 3 4 5 6 
#
# 1 0.013881 -0.006039 -0.002262 0.000000 -0.000724 0.000000
# 2 -0.006039 0.019581 -0.006417 0.000000 -0.000729 0.000000
# 3 -0.002262 -0.006417 0.015993 0.000000 0.004349 0.000000
# 4 0.000000 0.000000 0.000000 0.043878 0.000000 -0.017916
# 5 -0.000724 -0.000729 0.004349 0.000000 0.029562 0.000000
# 6 0.000000 0.000000 0.000000 -0.017916 0.000000 0.067285
#
#
# Mechanical properties :
#
#
# Convention : Reuss Voigt Hill
#
# Bulk Modulus (GPa) = 49.95646 50.85538 50.40592
# Shear Modulus (GPa) = 22.09569 25.43726 23.76648
#
# Velocity S-wave (km/s) = 3.50731 3.76319 3.63750
# Velocity P-wave (km/s) = 6.64934 6.86983 6.76048
#
# Compressibility (1/GPa) = 0.02001743
#
# Stress axis : x y z
#
# Youngs Moduli (GPa) = 72.04116 51.07119 62.52919
#
# Poissons Ratio (x) = 0.30844 0.14145
# Poissons Ratio (y) = 0.43509 0.40123
# Poissons Ratio (z) = 0.16297 0.32771
#
# Static dielectric constant tensor:
#      x y z
#    x 3.373120 0.000000 0.013810 
#    y 0.000000 3.028870 0.000000 
#    z 0.013810 0.000000 3.396730 
# 
# 
# High freq. dielectric constant tensor:
#      x y z
#    x 1.702690 0.000000 0.000400 
#    y 0.000000 1.663910 0.000000 
#    z 0.000400 0.000000 1.705120 
# 
# From -- ./inp_files/188401.got.cif
#   From: 2010.06.25/outbox.cif.g09.slc.cpg/sg12_95_cif.got.tgz:188401.got - 2010.06.28 00:19:55.
