data_PCOD8097510
_publ_section_title
;
Structure prediction by ZEFSAII (Michael W. Deem and Ramdas Pophale) SiO2 
 PCOD8097510
Probable space group: C 2/M
;
_chemical_formula_sum "Si O2"
_cell_formula_units_Z 64
_cell_length_a 8.611817
_cell_length_b 29.384452
_cell_length_c 16.088619
_cell_angle_alpha 90.000000
_cell_angle_beta 129.697665
_cell_angle_gamma 90.000000
_cell_volume 3132.548327
_symmetry_space_group_name_H-M "C 2/M"
_symmetry_group_IT_number 12
_symmetry_cell_setting 'monoclinic'
loop_
_space_group_symop_operation_xyz
x,y,z
-x,y,-z
-x,-y,-z
x,-y,z
1/2+x,1/2+y,z
1/2-x,1/2+y,-z
1/2-x,1/2-y,-z
1/2+x,1/2-y,z
loop_
_atom_site_type_symbol
_atom_site_label
_atom_site_fract_x
_atom_site_fract_y
_atom_site_fract_z
Si Si1 0.437271 0.294977 0.696502
Si Si2 0.949395 0.051725 0.793678
Si Si3 0.199842 0.609841 0.015650
Si Si4 0.507852 0.213461 0.598737
Si Si5 0.658251 0.356733 0.481193
Si Si6 0.767723 0.049947 0.893894
Si Si7 0.274910 0.948578 0.452650
Si Si8 0.771628 0.707967 0.947058
O O1 0.422368 0.253179 0.627177
O O2 0.246401 0.296622 0.695115
O O3 0.437758 0.340580 0.639947
O O4 0.637841 0.288696 0.818453
O O5 0.766257 0.063718 0.795798
O O6 0.873540 0.057217 0.675311
O O7 0.139029 0.083859 0.872894
O O8 0.018956 0.000000 0.836086
O O9 0.281933 0.660673 0.024644
O O10 0.149318 0.585900 0.910357
O O11 0.000000 0.612174 0.000000
O O12 0.500000 0.228770 0.500000
O O13 0.370075 0.169270 0.569101
O O14 0.500000 0.346713 0.500000
O O15 0.707204 0.410790 0.496277
O O16 0.670423 0.000000 0.873920
O O17 0.000000 0.050401 0.000000
O O18 0.500000 0.938510 0.500000
O O19 0.258291 0.000000 0.484300
O O20 0.750000 0.750000 0.000000
O O21 0.000000 0.706905 0.000000
#
# Coordination Sequence:
#
# PCOD8097510 Si02
#       8
#     8   8   8   8   8   8   8   8
#     4  11  20  38  62  83 115 151 189 241 292 337
#     4   9  18  35  59  84 110 144 185 226 275 333
#     4  10  20  34  53  82 116 146 181 231 284 333
#     4  10  20  35  60  91 114 140 186 241 297 344
#     4  11  22  37  60  90 118 146 187 237 292 352
#     4   8  15  30  54  81 106 136 178 225 269 319
#     4  10  21  39  60  82 113 152 191 232 282 342
#     4  11  25  41  55  77 112 154 198 233 277 341
#
# _framework density 20.43065
#
# number of rings (size 3 to 8) (size 9 to 14) (size 15 to 20)
#    0.000    2.000    0.000    6.375    0.000    2.750 
#    0.000    7.500    0.000    3.000    0.000    0.000 
#    0.000    0.000    0.000    0.000    0.000    0.125 
#
# Total GULP energy -396639.439143 kJ/mol
# GULP energy per Si atom -12394.982473 kJ/mol
# Density = 2.038415 g / cm^3
# Si number density = 20.430650 Si / 1000 Ang^3
#
#
#
# Elastic Constant Matrix: (Units=GPa)
#
#
# Indices 1 2 3 4 5 6 
#
# 1 108.9525 58.2970 30.4919 0.0000 3.8541 0.0000
# 2 58.2970 156.0587 36.8068 0.0000 -4.2401 0.0000
# 3 30.4919 36.8068 61.8695 0.0000 17.9902 0.0000
# 4 0.0000 0.0000 0.0000 18.3251 0.0000 -3.6843
# 5 3.8541 -4.2401 17.9902 0.0000 26.5982 0.0000
# 6 0.0000 0.0000 0.0000 -3.6843 0.0000 35.6910
#
#
#
# Elastic Compliance Matrix: (Units=1/GPa)
#
#
# Indices 1 2 3 4 5 6 
#
# 1 0.012211 -0.003618 -0.003963 0.000000 0.000334 0.000000
# 2 -0.003618 0.009155 -0.005278 0.000000 0.005554 0.000000
# 3 -0.003963 -0.005278 0.026557 0.000000 -0.018230 0.000000
# 4 0.000000 0.000000 0.000000 0.055726 0.000000 0.005753
# 5 0.000334 0.005554 -0.018230 0.000000 0.050763 0.000000
# 6 0.000000 0.000000 0.000000 0.005753 0.000000 0.028612
#
#
# Mechanical properties :
#
#
# Convention : Reuss Voigt Hill
#
# Bulk Modulus (GPa) = 45.03525 64.23022 54.63274
# Shear Modulus (GPa) = 23.13247 29.54187 26.33717
#
# Velocity S-wave (km/s) = 3.36853 3.80670 3.59430
# Velocity P-wave (km/s) = 6.10084 7.12936 6.63505
#
# Compressibility (1/GPa) = 0.02220483
#
# Stress axis : x y z
#
# Youngs Moduli (GPa) = 81.89037 109.22826 37.65455
#
# Poissons Ratio (x) = 0.39517 0.14923
# Poissons Ratio (y) = 0.29627 0.19875
# Poissons Ratio (z) = 0.32455 0.57655
#
# Static dielectric constant tensor:
#      x y z
#    x 3.807060 0.000000 -0.107320 
#    y 0.000000 2.362080 0.000000 
#    z -0.107320 0.000000 3.804150 
# 
# 
# High freq. dielectric constant tensor:
#      x y z
#    x 1.789020 0.000000 0.001620 
#    y 0.000000 1.811120 0.000000 
#    z 0.001620 0.000000 1.782980 
# 
# From -- ./inp_files/201320.got.cif
#   From: 2010.06.25/outbox.cif.g09.slc.cpg/sg12_101_cif.got.tgz:201320.got - 2010.06.28 00:19:55.
