data_PCOD8097315
_publ_section_title
;
Structure prediction by ZEFSAII (Michael W. Deem and Ramdas Pophale) SiO2 
 PCOD8097315
Probable space group: C 2/M
;
_chemical_formula_sum "Si O2"
_cell_formula_units_Z 64
_cell_length_a 18.416893
_cell_length_b 8.810020
_cell_length_c 34.616013
_cell_angle_alpha 90.000000
_cell_angle_beta 36.015801
_cell_angle_gamma 90.000000
_cell_volume 3302.583377
_symmetry_space_group_name_H-M "C 2/M"
_symmetry_group_IT_number 12
_symmetry_cell_setting 'monoclinic'
loop_
_space_group_symop_operation_xyz
x,y,z
-x,y,-z
-x,-y,-z
x,-y,z
1/2+x,1/2+y,z
1/2-x,1/2+y,-z
1/2-x,1/2-y,-z
1/2+x,1/2-y,z
loop_
_atom_site_type_symbol
_atom_site_label
_atom_site_fract_x
_atom_site_fract_y
_atom_site_fract_z
Si Si1 0.340854 0.322520 0.889912
Si Si2 0.714001 0.176841 0.736728
Si Si3 0.909182 0.180199 0.506342
Si Si4 0.129341 0.320772 0.632701
Si Si5 0.531063 0.322587 0.872224
Si Si6 0.501187 0.677428 0.615423
Si Si7 0.551161 0.680321 0.743756
Si Si8 0.433314 0.175452 0.988433
O O1 0.325671 0.500000 0.890291
O O2 0.406985 0.283469 0.901835
O O3 0.424982 0.260127 0.818489
O O4 0.203884 0.251276 0.949148
O O5 0.646534 0.235522 0.804144
O O6 0.857041 0.211757 0.680879
O O7 0.667723 0.260996 0.718126
O O8 0.688115 0.000000 0.742086
O O9 0.770560 0.236403 0.574272
O O10 0.000000 0.248579 0.500000
O O11 0.951912 0.237942 0.446068
O O12 0.916438 0.000000 0.504151
O O13 0.120846 0.500000 0.641058
O O14 0.052335 0.243452 0.700079
O O15 0.072658 0.273056 0.616517
O O16 0.560870 0.500000 0.857902
O O17 0.513170 0.268441 0.923427
O O18 0.530256 0.500000 0.608680
O O19 0.556115 0.500000 0.741027
O O20 0.427982 0.000000 0.977770
O O21 0.500000 0.195913 0.000000
#
# Coordination Sequence:
#
# PCOD8097315 Si02
#       8
#     8   8   8   8   8   8   8   8
#     4   8  17  34  54  76 102 136 177 220 265 313
#     4  10  20  36  59  83 106 139 185 229 272 325
#     4   9  18  35  58  81 107 142 185 230 272 317
#     4  11  22  35  55  83 114 147 183 223 269 325
#     4  10  20  35  55  78 107 141 176 220 273 324
#     4  10  21  37  57  80 110 147 182 223 276 327
#     4  10  20  36  57  80 110 145 182 227 276 323
#     4  10  20  34  53  77 105 138 179 223 266 320
#
# _framework density 19.378768999999998
#
# number of rings (size 3 to 8) (size 9 to 14) (size 15 to 20)
#    0.000    2.250    0.000    3.750    0.000    4.250 
#    0.000    6.250    0.000    2.625    0.000    0.000 
#    0.000    0.000    0.000    0.000    0.000    0.000 
#
# Total GULP energy -396871.199374 kJ/mol
# GULP energy per Si atom -12402.224980 kJ/mol
# Density = 1.933466 g / cm^3
# Si number density = 19.378769 Si / 1000 Ang^3
#
#
#
# Elastic Constant Matrix: (Units=GPa)
#
#
# Indices 1 2 3 4 5 6 
#
# 1 85.4832 29.5210 46.5820 -0.0179 15.0276 -0.0140
# 2 29.5210 51.7278 30.0051 -0.1234 0.2645 0.0214
# 3 46.5820 30.0051 112.1734 -0.0035 15.8740 -0.0070
# 4 -0.0179 -0.1234 -0.0035 24.7674 -0.0193 2.9752
# 5 15.0276 0.2645 15.8740 -0.0193 29.9717 0.0025
# 6 -0.0140 0.0214 -0.0070 2.9752 0.0025 28.4512
#
#
#
# Elastic Compliance Matrix: (Units=1/GPa)
#
#
# Indices 1 2 3 4 5 6 
#
# 1 0.017911 -0.007588 -0.004483 -0.000033 -0.006539 0.000017
# 2 -0.007588 0.026401 -0.004774 0.000135 0.006100 -0.000039
# 3 -0.004483 -0.004774 0.012680 -0.000030 -0.004426 0.000008
# 4 -0.000033 0.000135 -0.000030 0.040890 0.000058 -0.004276
# 5 -0.006539 0.006100 -0.004426 0.000058 0.038934 -0.000018
# 6 0.000017 -0.000039 0.000008 -0.004276 -0.000018 0.035595
#
#
# Mechanical properties :
#
#
# Convention : Reuss Voigt Hill
#
# Bulk Modulus (GPa) = 42.91556 51.28896 47.10226
# Shear Modulus (GPa) = 23.37891 26.18981 24.78436
#
# Velocity S-wave (km/s) = 3.47712 3.68022 3.58011
# Velocity P-wave (km/s) = 6.18985 6.67703 6.43805
#
# Compressibility (1/GPa) = 0.02330157
#
# Stress axis : x y z
#
# Youngs Moduli (GPa) = 55.83132 37.87738 78.86668
#
# Poissons Ratio (x) = 0.28742 0.35354
# Poissons Ratio (y) = 0.42366 0.37652
# Poissons Ratio (z) = 0.25028 0.18083
#
# Static dielectric constant tensor:
#      x y z
#    x 3.515640 0.000020 -0.069490 
#    y 0.000020 3.330810 -0.000060 
#    z -0.069490 -0.000060 3.802880 
# 
# 
# High freq. dielectric constant tensor:
#      x y z
#    x 1.754260 0.000000 0.001190 
#    y 0.000000 1.733540 0.000000 
#    z 0.001190 0.000000 1.770190 
# 
# From -- ./inp_files/378207.got.cif
#   From: 2010.06.25/outbox.cif.g09.slc.cpg/sg12_190_cif.got.tgz:378207.got - 2010.06.28 00:19:55.
