data_PCOD8097291
_publ_section_title
;
Structure prediction by ZEFSAII (Michael W. Deem and Ramdas Pophale) SiO2 
 PCOD8097291
Probable space group: C 2/M
;
_chemical_formula_sum "Si O2"
_cell_formula_units_Z 48
_cell_length_a 8.479054
_cell_length_b 11.428597
_cell_length_c 27.762686
_cell_angle_alpha 90.000000
_cell_angle_beta 64.728265
_cell_angle_gamma 90.000000
_cell_volume 2432.826267
_symmetry_space_group_name_H-M "C 2/M"
_symmetry_group_IT_number 12
_symmetry_cell_setting 'monoclinic'
loop_
_space_group_symop_operation_xyz
x,y,z
-x,y,-z
-x,-y,-z
x,-y,z
1/2+x,1/2+y,z
1/2-x,1/2+y,-z
1/2-x,1/2-y,-z
1/2+x,1/2-y,z
loop_
_atom_site_type_symbol
_atom_site_label
_atom_site_fract_x
_atom_site_fract_y
_atom_site_fract_z
Si Si1 0.295251 0.132773 0.023889
Si Si2 0.729548 0.212576 0.788699
Si Si3 0.260480 0.369593 0.603365
Si Si4 0.930025 0.694705 0.461529
Si Si5 0.044096 0.632272 0.720798
Si Si6 0.078814 0.870921 0.145892
O O1 0.217605 0.157821 0.086523
O O2 0.232795 0.000000 0.013484
O O3 0.500000 0.126896 0.000000
O O4 0.250000 0.250000 0.000000
O O5 0.864514 0.297869 0.744831
O O6 0.640892 0.133865 0.759523
O O7 0.827380 0.132820 0.814551
O O8 0.582358 0.283434 0.836814
O O9 0.329375 0.500000 0.605115
O O10 0.112948 0.379829 0.580344
O O11 0.427831 0.293699 0.568729
O O12 0.168377 0.315525 0.662795
O O13 0.750000 0.750000 0.500000
O O14 0.000000 0.623473 0.500000
O O15 0.995797 0.500000 0.713865
O O16 0.001007 0.000000 0.149323
#
# Coordination Sequence:
#
# PCOD8097291 Si02
#       6
#     8   8   8   8   8   8
#     4  10  21  37  56  80 110 144 184 228 275 327
#     4  10  20  34  54  77 105 136 171 214 261 309
#     4  10  20  35  54  75 103 136 168 209 258 304
#     4   9  19  34  52  75 101 130 169 209 248 301
#     4  10  20  34  53  77 103 134 171 209 255 310
#     4  10  20  35  54  77 106 139 176 218 265 316
#
# _framework density 19.730139999999999
#
# number of rings (size 3 to 8) (size 9 to 14) (size 15 to 20)
#    0.000    2.167    0.000    3.000    0.000    3.667 
#    0.000    6.667    0.000   14.000    0.000    0.000 
#    0.000    0.000    0.000    0.000    0.000    0.000 
#
# Total GULP energy -297350.234372 kJ/mol
# GULP energy per Si atom -12389.593099 kJ/mol
# Density = 1.968523 g / cm^3
# Si number density = 19.730140 Si / 1000 Ang^3
#
#
#
# Elastic Constant Matrix: (Units=GPa)
#
#
# Indices 1 2 3 4 5 6 
#
# 1 68.8907 20.1155 25.5208 0.0000 -16.2591 0.0000
# 2 20.1155 87.2308 35.3612 0.0000 -8.3484 0.0000
# 3 25.5208 35.3612 113.5892 0.0000 -20.0981 0.0000
# 4 0.0000 0.0000 0.0000 19.8155 0.0000 -26.6973
# 5 -16.2591 -8.3484 -20.0981 0.0000 37.5731 0.0000
# 6 0.0000 0.0000 0.0000 -26.6973 0.0000 77.5625
#
#
#
# Elastic Compliance Matrix: (Units=1/GPa)
#
#
# Indices 1 2 3 4 5 6 
#
# 1 0.017428 -0.002622 -0.002063 0.000000 0.005855 0.000000
# 2 -0.002622 0.013536 -0.003638 0.000000 -0.000073 0.000000
# 3 -0.002063 -0.003638 0.011154 0.000000 0.004265 0.000000
# 4 0.000000 0.000000 0.000000 0.094107 0.000000 0.032392
# 5 0.005855 -0.000073 0.004265 0.000000 0.031414 0.000000
# 6 0.000000 0.000000 0.000000 0.032392 0.000000 0.024042
#
#
# Mechanical properties :
#
#
# Convention : Reuss Voigt Hill
#
# Bulk Modulus (GPa) = 39.25871 47.96732 43.61301
# Shear Modulus (GPa) = 23.06084 39.57110 31.31597
#
# Velocity S-wave (km/s) = 3.42250 4.48327 3.98831
# Velocity P-wave (km/s) = 5.96314 7.15291 6.58495
#
# Compressibility (1/GPa) = 0.02547205
#
# Stress axis : x y z
#
# Youngs Moduli (GPa) = 57.38017 73.87627 89.65082
#
# Poissons Ratio (x) = 0.19371 0.18498
# Poissons Ratio (y) = 0.15045 0.32612
# Poissons Ratio (z) = 0.11839 0.26874
#
# Static dielectric constant tensor:
#      x y z
#    x 3.678410 0.000000 0.084210 
#    y 0.000000 3.622720 0.000000 
#    z 0.084210 0.000000 3.939430 
# 
# 
# High freq. dielectric constant tensor:
#      x y z
#    x 1.766270 0.000000 -0.008500 
#    y 0.000000 1.759650 0.000000 
#    z -0.008500 0.000000 1.786910 
# 
# From -- ./inp_files/331975.got.cif
#   From: 2010.06.25/outbox.cif.g09.slc.cpg/sg12_166_cif.got.tgz:331975.got - 2010.06.28 00:19:55.
