data_PCOD8097287
_publ_section_title
;
Structure prediction by ZEFSAII (Michael W. Deem and Ramdas Pophale) SiO2 
 PCOD8097287
Probable space group: C 2/M
;
_chemical_formula_sum "Si O2"
_cell_formula_units_Z 40
_cell_length_a 26.871827
_cell_length_b 8.783451
_cell_length_c 11.297876
_cell_angle_alpha 90.000000
_cell_angle_beta 55.306728
_cell_angle_gamma 90.000000
_cell_volume 2192.514139
_symmetry_space_group_name_H-M "C 2/M"
_symmetry_group_IT_number 12
_symmetry_cell_setting 'monoclinic'
loop_
_space_group_symop_operation_xyz
x,y,z
-x,y,-z
-x,-y,-z
x,-y,z
1/2+x,1/2+y,z
1/2-x,1/2+y,-z
1/2-x,1/2-y,-z
1/2+x,1/2-y,z
loop_
_atom_site_type_symbol
_atom_site_label
_atom_site_fract_x
_atom_site_fract_y
_atom_site_fract_z
Si Si1 0.423828 0.319904 0.213198
Si Si2 0.335739 0.823480 0.948185
Si Si3 0.775589 0.676327 0.783786
Si Si4 0.943309 0.819804 0.921694
Si Si5 0.695862 0.319741 0.499108
O O1 0.423087 0.500000 0.213974
O O2 0.486862 0.267423 0.188319
O O3 0.367039 0.254360 0.362693
O O4 0.420389 0.265549 0.081939
O O5 0.320083 0.791361 0.832995
O O6 0.404131 0.767912 0.876469
O O7 0.327888 0.000000 0.989667
O O8 0.292110 0.728230 0.093218
O O9 0.773202 0.500000 0.751558
O O10 0.801208 0.772496 0.640865
O O11 0.935965 0.000000 0.914349
O O12 0.698882 0.500000 0.506142
O O13 0.750000 0.250000 0.500000
#
# Coordination Sequence:
#
# PCOD8097287 Si02
#       5
#     8   8   8   8   8
#     4   8  17  32  51  76 103 133 168 205 248 304
#     4  10  20  34  53  77 102 130 169 216 261 302
#     4  10  21  36  52  73 103 137 172 209 253 307
#     4   9  16  32  56  76  99 133 170 207 251 302
#     4  11  21  34  53  78 107 136 169 209 255 303
#
# _framework density 18.243895999999999
#
# number of rings (size 3 to 8) (size 9 to 14) (size 15 to 20)
#    0.000    2.400    0.000    4.200    0.000    4.000 
#    0.000    6.000    0.000    6.000    0.000    0.000 
#    0.000    0.000    0.000    0.000    0.000    0.000 
#
# Total GULP energy -248014.720248 kJ/mol
# GULP energy per Si atom -12400.736012 kJ/mol
# Density = 1.820237 g / cm^3
# Si number density = 18.243896 Si / 1000 Ang^3
#
#
#
# Elastic Constant Matrix: (Units=GPa)
#
#
# Indices 1 2 3 4 5 6 
#
# 1 143.0060 40.8420 62.4156 0.0000 -17.8528 0.0000
# 2 40.8420 54.3949 32.6860 0.0000 -2.0358 0.0000
# 3 62.4156 32.6860 123.3577 0.0000 -12.1921 0.0000
# 4 0.0000 0.0000 0.0000 25.3974 0.0000 1.1285
# 5 -17.8528 -2.0358 -12.1921 0.0000 24.2525 0.0000
# 6 0.0000 0.0000 0.0000 1.1285 0.0000 33.0414
#
#
#
# Elastic Compliance Matrix: (Units=1/GPa)
#
#
# Indices 1 2 3 4 5 6 
#
# 1 0.010879 -0.005934 -0.003357 0.000000 0.005823 0.000000
# 2 -0.005934 0.025131 -0.004083 0.000000 -0.004311 0.000000
# 3 -0.003357 -0.004083 0.011163 0.000000 0.002798 0.000000
# 4 0.000000 0.000000 0.000000 0.039434 0.000000 -0.001347
# 5 0.005823 -0.004311 0.002798 0.000000 0.046564 0.000000
# 6 0.000000 0.000000 0.000000 -0.001347 0.000000 0.030311
#
#
# Mechanical properties :
#
#
# Convention : Reuss Voigt Hill
#
# Bulk Modulus (GPa) = 48.95395 65.84954 57.40175
# Shear Modulus (GPa) = 25.37567 28.85927 27.11747
#
# Velocity S-wave (km/s) = 3.73354 3.98157 3.85955
# Velocity P-wave (km/s) = 6.74367 7.57031 7.16891
#
# Compressibility (1/GPa) = 0.02042736
#
# Stress axis : x y z
#
# Youngs Moduli (GPa) = 91.91668 39.79091 89.57823
#
# Poissons Ratio (x) = 0.23610 0.30071
# Poissons Ratio (y) = 0.54540 0.36574
# Poissons Ratio (z) = 0.30856 0.16246
#
# Static dielectric constant tensor:
#      x y z
#    x 3.494380 0.000000 -0.149460 
#    y 0.000000 3.198730 0.000000 
#    z -0.149460 0.000000 3.548860 
# 
# 
# High freq. dielectric constant tensor:
#      x y z
#    x 1.717670 0.000000 -0.005270 
#    y 0.000000 1.695720 0.000000 
#    z -0.005270 0.000000 1.695100 
# 
# From -- ./inp_files/162362.got.cif
#   From: 2010.06.25/outbox.cif.g09.slc.cpg/sg12_82_cif.got.tgz:162362.got - 2010.06.28 00:19:55.
