data_PCOD8097000
_publ_section_title
;
Structure prediction by ZEFSAII (Michael W. Deem and Ramdas Pophale) SiO2 
 PCOD8097000
Probable space group: C 2/M
;
_chemical_formula_sum "Si O2"
_cell_formula_units_Z 56
_cell_length_a 30.121123
_cell_length_b 13.641091
_cell_length_c 8.739769
_cell_angle_alpha 90.000000
_cell_angle_beta 115.788135
_cell_angle_gamma 90.000000
_cell_volume 3233.404137
_symmetry_space_group_name_H-M "C 2/M"
_symmetry_group_IT_number 12
_symmetry_cell_setting 'monoclinic'
loop_
_space_group_symop_operation_xyz
x,y,z
-x,y,-z
-x,-y,-z
x,-y,z
1/2+x,1/2+y,z
1/2-x,1/2+y,-z
1/2-x,1/2-y,-z
1/2+x,1/2-y,z
loop_
_atom_site_type_symbol
_atom_site_label
_atom_site_fract_x
_atom_site_fract_y
_atom_site_fract_z
Si Si1 0.039250 0.385126 0.186566
Si Si2 0.627205 0.228373 0.831629
Si Si3 0.688253 0.610944 0.767105
Si Si4 0.045893 0.752205 0.469189
Si Si5 0.875945 0.726079 0.839324
Si Si6 0.299511 0.114316 0.891310
Si Si7 0.114902 0.111824 0.388721
O O1 0.038329 0.500000 0.215876
O O2 0.026616 0.332225 0.327084
O O3 0.092795 0.352164 0.209955
O O4 0.000000 0.353472 0.000000
O O5 0.658139 0.326110 0.843454
O O6 0.587603 0.204998 0.641654
O O7 0.666258 0.138037 0.907779
O O8 0.600369 0.245009 0.956218
O O9 0.687435 0.500000 0.827399
O O10 0.663797 0.618442 0.563842
O O11 0.744011 0.649724 0.837608
O O12 0.067932 0.843540 0.408089
O O13 0.000000 0.791128 0.500000
O O14 0.873411 0.829108 0.748128
O O15 0.821684 0.677345 0.781792
O O16 0.301803 0.000000 0.855265
O O17 0.101933 0.000000 0.326690
#
# Coordination Sequence:
#
# PCOD8097000 Si02
#       7
#     8   8   8   8   8   8   8
#     4  10  20  34  52  74 102 136 170 206 253 301
#     4   9  19  32  51  76 101 136 168 210 250 299
#     4   9  17  32  52  74 102 134 172 211 256 299
#     4  10  20  35  53  76 103 131 170 211 250 299
#     4   9  19  32  51  73 101 135 165 213 245 306
#     4   9  18  31  51  74 102 136 169 209 253 301
#     4   9  19  35  53  74 101 134 169 212 257 301
#
# _framework density 17.319208
#
# number of rings (size 3 to 8) (size 9 to 14) (size 15 to 20)
#    0.857    1.857    0.000    1.714    0.000    2.286 
#    0.000    0.000    0.000   14.571    0.000    0.000 
#    0.000    0.000    0.000    0.000    0.000    0.000 
#
# Total GULP energy -347028.832185 kJ/mol
# GULP energy per Si atom -12393.886864 kJ/mol
# Density = 1.727979 g / cm^3
# Si number density = 17.319208 Si / 1000 Ang^3
#
#
#
# Elastic Constant Matrix: (Units=GPa)
#
#
# Indices 1 2 3 4 5 6 
#
# 1 79.8683 34.7990 29.2172 0.0000 1.8789 0.0000
# 2 34.7990 90.2884 43.5238 0.0000 -3.9631 0.0000
# 3 29.2172 43.5238 82.2210 0.0000 -3.1769 0.0000
# 4 0.0000 0.0000 0.0000 27.3957 0.0000 -0.0111
# 5 1.8789 -3.9631 -3.1769 0.0000 28.2489 0.0000
# 6 0.0000 0.0000 0.0000 -0.0111 0.0000 16.4819
#
#
#
# Elastic Compliance Matrix: (Units=1/GPa)
#
#
# Indices 1 2 3 4 5 6 
#
# 1 0.015761 -0.004601 -0.003245 0.000000 -0.002059 0.000000
# 2 -0.004601 0.016254 -0.006899 0.000000 0.001810 0.000000
# 3 -0.003245 -0.006899 0.017012 0.000000 0.001161 0.000000
# 4 0.000000 0.000000 0.000000 0.036502 0.000000 0.000025
# 5 -0.002059 0.001810 0.001161 0.000000 0.035921 0.000000
# 6 0.000000 0.000000 0.000000 0.000025 0.000000 0.060673
#
#
# Mechanical properties :
#
#
# Convention : Reuss Voigt Hill
#
# Bulk Modulus (GPa) = 51.18322 51.93975 51.56148
# Shear Modulus (GPa) = 22.92264 24.08114 23.50189
#
# Velocity S-wave (km/s) = 3.64199 3.73289 3.68772
# Velocity P-wave (km/s) = 6.87768 6.97381 6.92592
#
# Compressibility (1/GPa) = 0.01953765
#
# Stress axis : x y z
#
# Youngs Moduli (GPa) = 63.44963 61.52282 58.78078
#
# Poissons Ratio (x) = 0.28305 0.19072
# Poissons Ratio (y) = 0.29191 0.40555
# Poissons Ratio (z) = 0.20587 0.42447
#
# Static dielectric constant tensor:
#      x y z
#    x 3.197560 0.000000 0.028870 
#    y 0.000000 3.116860 0.000000 
#    z 0.028870 0.000000 3.203920 
# 
# 
# High freq. dielectric constant tensor:
#      x y z
#    x 1.670820 0.000000 0.000730 
#    y 0.000000 1.662260 0.000000 
#    z 0.000730 0.000000 1.660350 
# 
# From -- ./inp_files/111313.got.cif
#   From: 2010.06.25/outbox.cif.g09.slc.cpg/sg12_56_cif.got.tgz:111313.got - 2010.06.28 00:19:55.
