data_PCOD8097834
_publ_section_title
;
Structure prediction by ZEFSAII (Michael W. Deem and Ramdas Pophale) SiO2 
 PCOD8097834
Probable space group: C 2/M
;
_chemical_formula_sum "Si O2"
_cell_formula_units_Z 56
_cell_length_a 16.361010
_cell_length_b 23.556119
_cell_length_c 8.763472
_cell_angle_alpha 90.000000
_cell_angle_beta 122.041391
_cell_angle_gamma 90.000000
_cell_volume 2862.953759
_symmetry_space_group_name_H-M "C 2/M"
_symmetry_group_IT_number 12
_symmetry_cell_setting 'monoclinic'
loop_
_space_group_symop_operation_xyz
x,y,z
-x,y,-z
-x,-y,-z
x,-y,z
1/2+x,1/2+y,z
1/2-x,1/2+y,-z
1/2-x,1/2-y,-z
1/2+x,1/2-y,z
loop_
_atom_site_type_symbol
_atom_site_label
_atom_site_fract_x
_atom_site_fract_y
_atom_site_fract_z
Si Si1 0.218827 0.565867 0.149927
Si Si2 0.278139 0.266678 0.359570
Si Si3 0.397889 0.837309 0.828460
Si Si4 0.897596 0.877883 0.477828
Si Si5 0.212734 0.565031 0.790299
Si Si6 0.897257 0.336680 0.463678
Si Si7 0.908906 0.934538 0.810374
O O1 0.197644 0.500000 0.157390
O O2 0.133915 0.600010 0.150416
O O3 0.323359 0.580504 0.320169
O O4 0.217854 0.581906 0.971678
O O5 0.250000 0.250000 0.500000
O O6 0.181246 0.292012 0.185536
O O7 0.362386 0.313299 0.438113
O O8 0.320015 0.209683 0.322941
O O9 0.402121 0.836672 0.650748
O O10 0.500000 0.820295 0.000000
O O11 0.905417 0.894945 0.660889
O O12 0.000000 0.884143 0.500000
O O13 0.181751 0.500000 0.737971
O O14 0.131856 0.601647 0.625522
O O15 0.315806 0.577350 0.819562
O O16 0.000000 0.319373 0.500000
O O17 0.916423 0.000000 0.766601
O O18 0.000000 0.916135 0.000000
#
# Coordination Sequence:
#
# PCOD8097834 Si02
#       7
#     8   8   8   8   8   8   8
#     4  10  21  37  58  84 115 151 190 235 284 334
#     4   9  20  39  59  81 112 147 187 234 282 334
#     4  10  21  39  60  85 114 146 189 235 279 333
#     4  11  21  35  56  84 116 151 192 234 282 336
#     4  10  21  38  58  83 113 146 189 234 281 338
#     4  11  22  39  61  83 114 149 184 230 284 337
#     4  10  20  34  54  82 117 155 192 232 279 332
#
# _framework density 19.560219
#
# number of rings (size 3 to 8) (size 9 to 14) (size 15 to 20)
#    0.000    1.857    0.000    5.143    0.000    4.571 
#    0.000   15.714    0.000    0.000    0.000    0.000 
#    0.000    0.000    0.000    0.000    0.000    0.000 
#
# Total GULP energy -347235.342253 kJ/mol
# GULP energy per Si atom -12401.262223 kJ/mol
# Density = 1.951570 g / cm^3
# Si number density = 19.560219 Si / 1000 Ang^3
#
#
#
# Elastic Constant Matrix: (Units=GPa)
#
#
# Indices 1 2 3 4 5 6 
#
# 1 125.4470 54.4002 48.5153 0.0000 7.6933 0.0000
# 2 54.4002 101.8792 52.3307 0.0000 4.5633 0.0000
# 3 48.5153 52.3307 116.6671 0.0000 9.1220 0.0000
# 4 0.0000 0.0000 0.0000 22.9120 0.0000 0.8859
# 5 7.6933 4.5633 9.1220 0.0000 37.5498 0.0000
# 6 0.0000 0.0000 0.0000 0.8859 0.0000 34.0280
#
#
#
# Elastic Compliance Matrix: (Units=1/GPa)
#
#
# Indices 1 2 3 4 5 6 
#
# 1 0.010951 -0.004552 -0.002426 0.000000 -0.001101 0.000000
# 2 -0.004552 0.014647 -0.004700 0.000000 0.000294 0.000000
# 3 -0.002426 -0.004700 0.011830 0.000000 -0.001806 0.000000
# 4 0.000000 0.000000 0.000000 0.043689 0.000000 -0.001137
# 5 -0.001101 0.000294 -0.001806 0.000000 0.027260 0.000000
# 6 0.000000 0.000000 0.000000 -0.001137 0.000000 0.029417
#
#
# Mechanical properties :
#
#
# Convention : Reuss Voigt Hill
#
# Bulk Modulus (GPa) = 71.06474 72.72063 71.89268
# Shear Modulus (GPa) = 30.14928 31.48110 30.81519
#
# Velocity S-wave (km/s) = 3.93027 4.01614 3.97344
# Velocity P-wave (km/s) = 7.55024 7.66579 7.60824
#
# Compressibility (1/GPa) = 0.01407168
#
# Stress axis : x y z
#
# Youngs Moduli (GPa) = 91.31308 68.27220 84.53364
#
# Poissons Ratio (x) = 0.31079 0.20509
# Poissons Ratio (y) = 0.41567 0.39731
# Poissons Ratio (z) = 0.22153 0.32088
#
# Static dielectric constant tensor:
#      x y z
#    x 3.728790 0.000000 0.079140 
#    y 0.000000 3.729260 0.000000 
#    z 0.079140 0.000000 3.464090 
# 
# 
# High freq. dielectric constant tensor:
#      x y z
#    x 1.775110 0.000000 0.001730 
#    y 0.000000 1.767940 0.000000 
#    z 0.001730 0.000000 1.755930 
# 
# From -- ./inp_files/65934.got.cif
#   From: 2010.06.25/outbox.cif.g09.slc.cpg/sg12_33_cif.got.tgz:65934.got - 2010.06.28 00:19:55.
