data_PCOD8097150
_publ_section_title
;
Structure prediction by ZEFSAII (Michael W. Deem and Ramdas Pophale) SiO2 
 PCOD8097150
Probable space group: C 2/M
;
_chemical_formula_sum "Si O2"
_cell_formula_units_Z 56
_cell_length_a 25.150674
_cell_length_b 8.856543
_cell_length_c 14.966006
_cell_angle_alpha 90.000000
_cell_angle_beta 74.952941
_cell_angle_gamma 90.000000
_cell_volume 3219.347236
_symmetry_space_group_name_H-M "C 2/M"
_symmetry_group_IT_number 12
_symmetry_cell_setting 'monoclinic'
loop_
_space_group_symop_operation_xyz
x,y,z
-x,y,-z
-x,-y,-z
x,-y,z
1/2+x,1/2+y,z
1/2-x,1/2+y,-z
1/2-x,1/2-y,-z
1/2+x,1/2-y,z
loop_
_atom_site_type_symbol
_atom_site_label
_atom_site_fract_x
_atom_site_fract_y
_atom_site_fract_z
Si Si1 0.854425 0.322612 0.768009
Si Si2 0.742642 0.678770 0.906800
Si Si3 0.463382 0.321586 0.390968
Si Si4 0.630622 0.823098 0.904835
Si Si5 0.449277 0.678999 0.198028
Si Si6 0.436275 0.823217 0.887821
Si Si7 0.080195 0.821627 0.406643
O O1 0.857049 0.500000 0.757650
O O2 0.793889 0.269833 0.823436
O O3 0.898615 0.267763 0.822315
O O4 0.867770 0.251155 0.665840
O O5 0.740829 0.500000 0.919072
O O6 0.688265 0.737227 0.882437
O O7 0.750000 0.750000 0.000000
O O8 0.468349 0.500000 0.389750
O O9 0.443146 0.265228 0.303397
O O10 0.524474 0.258704 0.384521
O O11 0.421144 0.271569 0.488112
O O12 0.598720 0.763852 0.832683
O O13 0.641876 0.000000 0.891231
O O14 0.595945 0.785452 0.007885
O O15 0.442558 0.500000 0.190900
O O16 0.508285 0.726806 0.133912
O O17 0.450877 0.000000 0.875216
O O18 0.085029 0.000000 0.395683
#
# Coordination Sequence:
#
# PCOD8097150 Si02
#       7
#     8   8   8   8   8   8   8
#     4  10  20  34  52  78 110 137 167 215 269 308
#     4  11  22  38  57  78 105 140 179 222 264 308
#     4   8  16  30  50  76 108 136 169 214 262 308
#     4  11  23  39  54  74 106 146 182 219 263 312
#     4  11  21  34  53  80 108 141 179 218 259 314
#     4  10  20  35  51  73 109 146 172 208 264 315
#     4   9  16  31  53  77 103 138 174 211 258 315
#
# _framework density 17.394829999999999
#
# number of rings (size 3 to 8) (size 9 to 14) (size 15 to 20)
#    0.000    2.000    2.857    2.571    0.000    4.000 
#    0.000    2.857    0.000    0.857    0.000    0.000 
#    0.000    0.000    0.000    0.000    0.000    0.000 
#
# Total GULP energy -347199.812681 kJ/mol
# GULP energy per Si atom -12399.993310 kJ/mol
# Density = 1.735524 g / cm^3
# Si number density = 17.394830 Si / 1000 Ang^3
#
#
#
# Elastic Constant Matrix: (Units=GPa)
#
#
# Indices 1 2 3 4 5 6 
#
# 1 107.7444 28.1696 58.5941 0.0000 -11.2204 0.0000
# 2 28.1696 39.6026 34.8123 0.0000 -10.5308 0.0000
# 3 58.5941 34.8123 133.4849 0.0000 -16.0119 0.0000
# 4 0.0000 0.0000 0.0000 28.2554 0.0000 -2.5281
# 5 -11.2204 -10.5308 -16.0119 0.0000 23.4395 0.0000
# 6 0.0000 0.0000 0.0000 -2.5281 0.0000 28.6270
#
#
#
# Elastic Compliance Matrix: (Units=1/GPa)
#
#
# Indices 1 2 3 4 5 6 
#
# 1 0.013077 -0.005318 -0.004236 0.000000 0.000977 0.000000
# 2 -0.005318 0.037071 -0.006144 0.000000 0.009912 0.000000
# 3 -0.004236 -0.006144 0.011305 0.000000 0.002935 0.000000
# 4 0.000000 0.000000 0.000000 0.035673 0.000000 0.003150
# 5 0.000977 0.009912 0.002935 0.000000 0.049588 0.000000
# 6 0.000000 0.000000 0.000000 0.003150 0.000000 0.035210
#
#
# Mechanical properties :
#
#
# Convention : Reuss Voigt Hill
#
# Bulk Modulus (GPa) = 33.27184 58.22043 45.74613
# Shear Modulus (GPa) = 22.38726 26.68147 24.53436
#
# Velocity S-wave (km/s) = 3.59138 3.92072 3.75966
# Velocity P-wave (km/s) = 6.03045 7.35110 6.72328
#
# Compressibility (1/GPa) = 0.03005545
#
# Stress axis : x y z
#
# Youngs Moduli (GPa) = 76.46934 26.97546 88.45347
#
# Poissons Ratio (x) = 0.14347 0.37470
# Poissons Ratio (y) = 0.40670 0.54349
# Poissons Ratio (z) = 0.32393 0.16575
#
# Static dielectric constant tensor:
#      x y z
#    x 3.320700 0.000000 0.040450 
#    y 0.000000 3.174840 0.000000 
#    z 0.040450 0.000000 3.606650 
# 
# 
# High freq. dielectric constant tensor:
#      x y z
#    x 1.654240 0.000000 -0.002580 
#    y 0.000000 1.664470 0.000000 
#    z -0.002580 0.000000 1.679380 
# 
# From -- ./inp_files/237304.got.cif
#   From: 2010.06.25/outbox.cif.g09.slc.cpg/sg12_119_cif.got.tgz:237304.got - 2010.06.28 00:19:55.
