data_PCOD8097769
_publ_section_title
;
Structure prediction by ZEFSAII (Michael W. Deem and Ramdas Pophale) SiO2 
 PCOD8097769
Probable space group: C 2/M
;
_chemical_formula_sum "Si O2"
_cell_formula_units_Z 56
_cell_length_a 14.334422
_cell_length_b 14.944197
_cell_length_c 28.670376
_cell_angle_alpha 90.000000
_cell_angle_beta 152.777248
_cell_angle_gamma 90.000000
_cell_volume 2809.511484
_symmetry_space_group_name_H-M "C 2/M"
_symmetry_group_IT_number 12
_symmetry_cell_setting 'monoclinic'
loop_
_space_group_symop_operation_xyz
x,y,z
-x,y,-z
-x,-y,-z
x,-y,z
1/2+x,1/2+y,z
1/2-x,1/2+y,-z
1/2-x,1/2-y,-z
1/2+x,1/2-y,z
loop_
_atom_site_type_symbol
_atom_site_label
_atom_site_fract_x
_atom_site_fract_y
_atom_site_fract_z
Si Si1 0.534710 0.898269 0.371475
Si Si2 0.679646 0.398322 0.146903
Si Si3 0.155627 0.596403 0.527331
Si Si4 0.739598 0.276188 0.596098
Si Si5 0.086633 0.715944 0.820998
Si Si6 0.294465 0.099775 0.935546
Si Si7 0.731444 0.850011 0.976097
O O1 0.310696 0.875992 0.251659
O O2 0.533899 0.876832 0.426081
O O3 0.709880 0.844283 0.422553
O O4 0.592946 0.000000 0.387923
O O5 0.724288 0.500000 0.149534
O O6 0.737031 0.326151 0.133112
O O7 0.444640 0.390525 0.054489
O O8 0.269583 0.500000 0.571530
O O9 0.306976 0.677405 0.607365
O O10 0.000000 0.586105 0.500000
O O11 0.500000 0.281227 0.500000
O O12 0.866881 0.295468 0.699417
O O13 0.133530 0.821161 0.852235
O O14 0.077558 0.654207 0.863564
O O15 0.348735 0.095001 0.015035
O O16 0.211047 0.000000 0.884435
O O17 0.500000 0.122129 0.000000
O O18 0.750000 0.750000 0.000000
#
# Coordination Sequence:
#
# PCOD8097769 Si02
#       7
#     8   8   8   8   8   8   8
#     4   9  19  36  57  82 111 143 181 229 279 325
#     4  10  20  35  59  87 112 141 180 228 281 333
#     4   9  18  33  53  77 106 139 180 227 269 316
#     4  10  21  36  56  81 109 146 187 228 277 330
#     4  10  21  37  56  82 114 143 182 234 279 323
#     4  10  21  38  58  81 114 152 184 217 269 339
#     4  10  20  34  54  81 111 143 178 220 272 327
#
# _framework density 19.932290999999999
#
# number of rings (size 3 to 8) (size 9 to 14) (size 15 to 20)
#    0.000    2.286    0.000    3.000    0.000    7.143 
#    0.000    4.286    0.000    1.714    0.000    0.000 
#    0.000    0.000    0.000    0.000    0.000    0.000 
#
# Total GULP energy -346939.342023 kJ/mol
# GULP energy per Si atom -12390.690787 kJ/mol
# Density = 1.988692 g / cm^3
# Si number density = 19.932291 Si / 1000 Ang^3
#
#
#
# Elastic Constant Matrix: (Units=GPa)
#
#
# Indices 1 2 3 4 5 6 
#
# 1 101.2481 33.5339 65.5210 0.0009 -21.9675 0.0001
# 2 33.5339 95.1388 34.5397 0.0003 -5.4025 0.0001
# 3 65.5210 34.5397 105.6910 0.0094 -15.9482 0.0003
# 4 0.0009 0.0003 0.0094 28.2662 -0.0009 -1.3445
# 5 -21.9675 -5.4025 -15.9482 -0.0009 32.7950 -0.0003
# 6 0.0001 0.0001 0.0003 -1.3445 -0.0003 26.8580
#
#
#
# Elastic Compliance Matrix: (Units=1/GPa)
#
#
# Indices 1 2 3 4 5 6 
#
# 1 0.018485 -0.002656 -0.009485 0.000003 0.007332 0.000000
# 2 -0.002656 0.012308 -0.002523 0.000001 -0.000978 0.000000
# 3 -0.009485 -0.002523 0.016344 -0.000005 0.001179 0.000000
# 4 0.000003 0.000001 -0.000005 0.035462 0.000000 0.001775
# 5 0.007332 -0.000978 0.001179 0.000000 0.035816 0.000000
# 6 0.000000 0.000000 0.000000 0.001775 0.000000 0.037322
#
#
# Mechanical properties :
#
#
# Convention : Reuss Voigt Hill
#
# Bulk Modulus (GPa) = 56.15342 63.25190 59.70266
# Shear Modulus (GPa) = 26.17768 28.81608 27.49688
#
# Velocity S-wave (km/s) = 3.62792 3.80636 3.71821
# Velocity P-wave (km/s) = 6.76626 7.14983 6.96069
#
# Compressibility (1/GPa) = 0.01780835
#
# Stress axis : x y z
#
# Youngs Moduli (GPa) = 54.09664 81.25095 61.18308
#
# Poissons Ratio (x) = 0.21577 0.58035
# Poissons Ratio (y) = 0.14366 0.15439
# Poissons Ratio (z) = 0.51313 0.20503
#
# Static dielectric constant tensor:
#      x y z
#    x 3.798570 0.000000 -0.617490 
#    y 0.000000 4.185560 0.000000 
#    z -0.617490 0.000000 3.690400 
# 
# 
# High freq. dielectric constant tensor:
#      x y z
#    x 1.770480 0.000000 -0.031460 
#    y 0.000000 1.794890 0.000000 
#    z -0.031460 0.000000 1.758180 
# 
# From -- ./inp_files/361450.got.cif
#   From: 2010.06.25/outbox.cif.g09.slc.cpg/sg12_181_cif.got.tgz:361450.got - 2010.06.28 00:19:55.
