data_PCOD8097392
_publ_section_title
;
Structure prediction by ZEFSAII (Michael W. Deem and Ramdas Pophale) SiO2 
 PCOD8097392
Probable space group: C 2/M
;
_chemical_formula_sum "Si O2"
_cell_formula_units_Z 56
_cell_length_a 30.105857
_cell_length_b 8.878636
_cell_length_c 16.826293
_cell_angle_alpha 90.000000
_cell_angle_beta 134.542384
_cell_angle_gamma 90.000000
_cell_volume 3205.618286
_symmetry_space_group_name_H-M "C 2/M"
_symmetry_group_IT_number 12
_symmetry_cell_setting 'monoclinic'
loop_
_space_group_symop_operation_xyz
x,y,z
-x,y,-z
-x,-y,-z
x,-y,z
1/2+x,1/2+y,z
1/2-x,1/2+y,-z
1/2-x,1/2-y,-z
1/2+x,1/2-y,z
loop_
_atom_site_type_symbol
_atom_site_label
_atom_site_fract_x
_atom_site_fract_y
_atom_site_fract_z
Si Si1 0.275892 0.676804 0.151250
Si Si2 0.084365 0.175008 0.251877
Si Si3 0.734372 0.324632 0.686998
Si Si4 0.619477 0.825063 0.135850
Si Si5 0.162349 0.826126 0.927167
Si Si6 0.057573 0.827223 0.910853
Si Si7 0.305191 0.822540 0.519224
O O1 0.266286 0.500000 0.141500
O O2 0.293346 0.728505 0.262427
O O3 0.328991 0.727130 0.154073
O O4 0.209281 0.741602 0.043899
O O5 0.089314 0.226295 0.167268
O O6 0.128852 0.271265 0.363899
O O7 0.014626 0.206693 0.194547
O O8 0.102354 0.000000 0.280676
O O9 0.721522 0.500000 0.653668
O O10 0.807582 0.289245 0.777372
O O11 0.698975 0.226161 0.577408
O O12 0.607445 0.000000 0.138459
O O13 0.585699 0.781975 0.012158
O O14 0.092401 0.796084 0.870402
O O15 0.180508 0.000000 0.955240
O O16 0.067611 0.000000 0.950957
O O17 0.250000 0.750000 0.500000
O O18 0.299254 0.000000 0.519796
#
# Coordination Sequence:
#
# PCOD8097392 Si02
#       7
#     8   8   8   8   8   8   8
#     4   9  17  31  51  77 106 136 169 209 257 306
#     4  11  23  38  54  73 104 143 180 217 258 306
#     4  10  20  34  53  78 109 139 171 212 259 307
#     4  11  21  33  52  78 109 142 176 212 256 309
#     4   9  17  30  51  77 106 136 170 210 254 306
#     4  10  21  35  52  77 109 143 176 213 259 309
#     4  12  24  38  57  78 101 134 176 220 263 307
#
# _framework density 17.469328000000001
#
# number of rings (size 3 to 8) (size 9 to 14) (size 15 to 20)
#    0.000    1.714    2.857    2.571    0.000    4.000 
#    0.000    0.000    0.000    0.857    0.000    6.000 
#    0.000    0.000    0.000    0.000    0.000    0.000 
#
# Total GULP energy -347202.109092 kJ/mol
# GULP energy per Si atom -12400.075325 kJ/mol
# Density = 1.742957 g / cm^3
# Si number density = 17.469328 Si / 1000 Ang^3
#
#
#
# Elastic Constant Matrix: (Units=GPa)
#
#
# Indices 1 2 3 4 5 6 
#
# 1 139.8936 43.9667 62.4799 0.0000 -10.9838 0.0000
# 2 43.9667 67.9336 36.1941 0.0000 -4.9305 0.0000
# 3 62.4799 36.1941 85.1089 0.0000 -6.1717 0.0000
# 4 0.0000 0.0000 0.0000 29.9166 0.0000 -2.2049
# 5 -10.9838 -4.9305 -6.1717 0.0000 26.9112 0.0000
# 6 0.0000 0.0000 0.0000 -2.2049 0.0000 18.7636
#
#
#
# Elastic Compliance Matrix: (Units=1/GPa)
#
#
# Indices 1 2 3 4 5 6 
#
# 1 0.011489 -0.003695 -0.006683 0.000000 0.002480 0.000000
# 2 -0.003695 0.020294 -0.005855 0.000000 0.000867 0.000000
# 3 -0.006683 -0.005855 0.019189 0.000000 0.000600 0.000000
# 4 0.000000 0.000000 0.000000 0.033718 0.000000 0.003962
# 5 0.002480 0.000867 0.000600 0.000000 0.038468 0.000000
# 6 0.000000 0.000000 0.000000 0.003962 0.000000 0.053760
#
#
# Mechanical properties :
#
#
# Convention : Reuss Voigt Hill
#
# Bulk Modulus (GPa) = 54.03592 64.24641 59.14116
# Shear Modulus (GPa) = 23.19606 25.13799 24.16702
#
# Velocity S-wave (km/s) = 3.64787 3.79750 3.72344
# Velocity P-wave (km/s) = 6.98152 7.48896 7.23969
#
# Compressibility (1/GPa) = 0.01850621
#
# Stress axis : x y z
#
# Youngs Moduli (GPa) = 87.03831 49.27543 52.11236
#
# Poissons Ratio (x) = 0.18208 0.34828
# Poissons Ratio (y) = 0.32162 0.30511
# Poissons Ratio (z) = 0.58169 0.28850
#
# Static dielectric constant tensor:
#      x y z
#    x 3.833710 0.000000 -0.137830 
#    y 0.000000 3.403950 0.000000 
#    z -0.137830 0.000000 3.134870 
# 
# 
# High freq. dielectric constant tensor:
#      x y z
#    x 1.682140 0.000000 -0.009570 
#    y 0.000000 1.679720 0.000000 
#    z -0.009570 0.000000 1.652510 
# 
# From -- ./inp_files/287392.got.cif
#   From: 2010.06.25/outbox.cif.g09.slc.cpg/sg12_144_cif.got.tgz:287392.got - 2010.06.28 00:19:55.
