data_PCOD8097984
_publ_section_title
;
Structure prediction by ZEFSAII (Michael W. Deem and Ramdas Pophale) SiO2 
 PCOD8097984
Probable space group: C 2/M
;
_chemical_formula_sum "Si O2"
_cell_formula_units_Z 48
_cell_length_a 27.146559
_cell_length_b 8.853977
_cell_length_c 15.286477
_cell_angle_alpha 90.000000
_cell_angle_beta 139.271474
_cell_angle_gamma 90.000000
_cell_volume 2397.314311
_symmetry_space_group_name_H-M "C 2/M"
_symmetry_group_IT_number 12
_symmetry_cell_setting 'monoclinic'
loop_
_space_group_symop_operation_xyz
x,y,z
-x,y,-z
-x,-y,-z
x,-y,z
1/2+x,1/2+y,z
1/2-x,1/2+y,-z
1/2-x,1/2-y,-z
1/2+x,1/2-y,z
loop_
_atom_site_type_symbol
_atom_site_label
_atom_site_fract_x
_atom_site_fract_y
_atom_site_fract_z
Si Si1 0.334779 0.673317 0.274800
Si Si2 0.412937 0.676304 0.865327
Si Si3 0.589725 0.679845 0.799976
Si Si4 0.676959 0.678708 0.086530
Si Si5 0.919542 0.173895 0.564441
Si Si6 0.168772 0.321968 0.403584
O O1 0.310136 0.500000 0.229257
O O2 0.369117 0.741216 0.231634
O O3 0.262288 0.767529 0.204940
O O4 0.398021 0.689368 0.434082
O O5 0.398073 0.500000 0.827896
O O6 0.365445 0.736611 0.884015
O O7 0.388968 0.768514 0.748212
O O8 0.500000 0.709180 0.000000
O O9 0.588298 0.500000 0.794795
O O10 0.503968 0.738751 0.689163
O O11 0.634571 0.743954 0.944030
O O12 0.674475 0.500000 0.079450
O O13 0.862804 0.273505 0.544963
O O14 0.914197 0.000000 0.588535
O O15 0.177826 0.500000 0.412575
O O16 0.250000 0.250000 0.500000
#
# Coordination Sequence:
#
# PCOD8097984 Si02
#       6
#     8   8   8   8   8   8
#     4  10  20  34  56  84 112 144 183 228 275 327
#     4  10  21  39  62  86 114 151 192 234 285 343
#     4   9  18  35  58  83 110 144 186 225 269 331
#     4  10  20  34  55  81 111 147 183 223 273 332
#     4  10  20  37  60  83 109 144 187 234 281 330
#     4  12  25  40  59  84 115 151 192 238 287 339
#
# _framework density 20.022406
#
# number of rings (size 3 to 8) (size 9 to 14) (size 15 to 20)
#    0.000    1.833    0.000    4.500    0.000    9.000 
#    0.000    3.333    0.000    2.000    0.000    0.000 
#    0.000    0.000    0.000    0.000    0.000    0.000 
#
# Total GULP energy -297718.219845 kJ/mol
# GULP energy per Si atom -12404.925827 kJ/mol
# Density = 1.997683 g / cm^3
# Si number density = 20.022406 Si / 1000 Ang^3
#
#
#
# Elastic Constant Matrix: (Units=GPa)
#
#
# Indices 1 2 3 4 5 6 
#
# 1 114.7669 20.4645 16.5680 0.0000 3.5048 0.0000
# 2 20.4645 51.8211 20.0909 0.0000 -2.1883 0.0000
# 3 16.5680 20.0909 86.6479 0.0000 0.8497 0.0000
# 4 0.0000 0.0000 0.0000 22.9678 0.0000 4.7913
# 5 3.5048 -2.1883 0.8497 0.0000 42.7241 0.0000
# 6 0.0000 0.0000 0.0000 4.7913 0.0000 24.5820
#
#
#
# Elastic Compliance Matrix: (Units=1/GPa)
#
#
# Indices 1 2 3 4 5 6 
#
# 1 0.009494 -0.003393 -0.001019 0.000000 -0.000932 0.000000
# 2 -0.003393 0.022476 -0.004578 0.000000 0.001521 0.000000
# 3 -0.001019 -0.004578 0.012801 0.000000 -0.000405 0.000000
# 4 0.000000 0.000000 0.000000 0.045385 0.000000 -0.008846
# 5 -0.000932 0.001521 -0.000405 0.000000 0.023568 0.000000
# 6 0.000000 0.000000 0.000000 -0.008846 0.000000 0.042404
#
#
# Mechanical properties :
#
#
# Convention : Reuss Voigt Hill
#
# Bulk Modulus (GPa) = 37.32640 40.83142 39.07891
# Shear Modulus (GPa) = 27.31647 31.12895 29.22271
#
# Velocity S-wave (km/s) = 3.69764 3.94725 3.82449
# Velocity P-wave (km/s) = 6.07560 6.41962 6.24998
#
# Compressibility (1/GPa) = 0.02679069
#
# Stress axis : x y z
#
# Youngs Moduli (GPa) = 105.32920 44.49161 78.11735
#
# Poissons Ratio (x) = 0.15098 0.07963
# Poissons Ratio (y) = 0.35743 0.35759
# Poissons Ratio (z) = 0.10737 0.20366
#
# Static dielectric constant tensor:
#      x y z
#    x 4.200310 0.000000 -0.478200 
#    y 0.000000 3.356340 0.000000 
#    z -0.478200 0.000000 4.165870 
# 
# 
# High freq. dielectric constant tensor:
#      x y z
#    x 1.799070 0.000000 -0.001830 
#    y 0.000000 1.747100 0.000000 
#    z -0.001830 0.000000 1.798120 
# 
# From -- ./inp_files/244669.got.cif
#   From: 2010.06.25/outbox.cif.g09.slc.cpg/sg12_123_cif.got.tgz:244669.got - 2010.06.28 00:19:55.
