data_PCOD8097576
_publ_section_title
;
Structure prediction by ZEFSAII (Michael W. Deem and Ramdas Pophale) SiO2 
 PCOD8097576
Probable space group: C 2/M
;
_chemical_formula_sum "Si O2"
_cell_formula_units_Z 48
_cell_length_a 19.138634
_cell_length_b 8.993725
_cell_length_c 32.246442
_cell_angle_alpha 90.000000
_cell_angle_beta 152.291432
_cell_angle_gamma 90.000000
_cell_volume 2580.842048
_symmetry_space_group_name_H-M "C 2/M"
_symmetry_group_IT_number 12
_symmetry_cell_setting 'monoclinic'
loop_
_space_group_symop_operation_xyz
x,y,z
-x,y,-z
-x,-y,-z
x,-y,z
1/2+x,1/2+y,z
1/2-x,1/2+y,-z
1/2-x,1/2-y,-z
1/2+x,1/2-y,z
loop_
_atom_site_type_symbol
_atom_site_label
_atom_site_fract_x
_atom_site_fract_y
_atom_site_fract_z
Si Si1 0.082760 0.823248 0.503543
Si Si2 0.221521 0.326926 0.858270
Si Si3 0.041718 0.826447 0.648494
Si Si4 0.911053 0.325909 0.656299
Si Si5 0.159902 0.824641 0.989604
Si Si6 0.857377 0.325660 0.853235
O O1 0.255725 0.768629 0.594723
O O2 0.000000 0.753463 0.500000
O O3 0.996066 0.766124 0.417117
O O4 0.075675 0.000000 0.501817
O O5 0.252001 0.500000 0.865277
O O6 0.331351 0.234180 0.886096
O O7 0.048075 0.283466 0.758833
O O8 0.255988 0.284566 0.923506
O O9 0.213911 0.788791 0.749393
O O10 0.929986 0.748415 0.621685
O O11 0.009810 0.000000 0.635299
O O12 0.904130 0.500000 0.644692
O O13 0.993470 0.758544 0.902926
O O14 0.151863 0.000000 0.978062
O O15 0.250000 0.750000 0.000000
O O16 0.891871 0.500000 0.873619
#
# Coordination Sequence:
#
# PCOD8097576 Si02
#       6
#     8   8   8   8   8   8
#     4   9  17  29  48  74 101 131 167 204 244 293
#     4   9  19  35  54  76 101 131 169 213 257 300
#     4   9  18  32  51  75 101 129 163 206 249 290
#     4   9  17  31  53  76  97 127 166 206 248 296
#     4  11  23  37  53  75 105 137 169 208 254 303
#     4  10  20  34  54  78 103 133 170 211 253 299
#
# _framework density 18.598579999999998
#
# number of rings (size 3 to 8) (size 9 to 14) (size 15 to 20)
#    0.000    2.500    0.000    2.000    0.000    5.333 
#    0.000    5.000    0.000    2.000    0.000    0.000 
#    0.000    0.000    0.000    0.000    0.000    0.000 
#
# Total GULP energy -297636.575449 kJ/mol
# GULP energy per Si atom -12401.523977 kJ/mol
# Density = 1.855625 g / cm^3
# Si number density = 18.598580 Si / 1000 Ang^3
#
#
#
# Elastic Constant Matrix: (Units=GPa)
#
#
# Indices 1 2 3 4 5 6 
#
# 1 170.9286 49.1070 81.9128 0.0001 19.8470 0.0000
# 2 49.1070 50.9500 33.7559 0.0001 9.2183 0.0001
# 3 81.9128 33.7559 101.3195 0.0003 14.0947 0.0000
# 4 0.0001 0.0001 0.0003 19.3586 0.0000 1.0526
# 5 19.8470 9.2183 14.0947 0.0000 26.7134 0.0000
# 6 0.0000 0.0001 0.0000 1.0526 0.0000 32.0950
#
#
#
# Elastic Compliance Matrix: (Units=1/GPa)
#
#
# Indices 1 2 3 4 5 6 
#
# 1 0.010959 -0.005715 -0.006581 0.000000 -0.002698 0.000000
# 2 -0.005715 0.028702 -0.004484 0.000000 -0.003293 0.000000
# 3 -0.006581 -0.004484 0.017039 0.000000 -0.002554 0.000000
# 4 0.000000 0.000000 0.000000 0.051749 0.000000 -0.001697
# 5 -0.002698 -0.003293 -0.002554 0.000000 0.041922 0.000000
# 6 0.000000 0.000000 0.000000 -0.001697 0.000000 0.031213
#
#
# Mechanical properties :
#
#
# Convention : Reuss Voigt Hill
#
# Bulk Modulus (GPa) = 43.21375 72.52774 57.87075
# Shear Modulus (GPa) = 22.43586 26.19490 24.31538
#
# Velocity S-wave (km/s) = 3.47698 3.75698 3.61969
# Velocity P-wave (km/s) = 6.27731 7.60927 6.97515
#
# Compressibility (1/GPa) = 0.02314078
#
# Stress axis : x y z
#
# Youngs Moduli (GPa) = 91.24835 34.84123 58.68784
#
# Poissons Ratio (x) = 0.19910 0.38621
# Poissons Ratio (y) = 0.52145 0.26317
# Poissons Ratio (z) = 0.60049 0.15624
#
# Static dielectric constant tensor:
#      x y z
#    x 3.545410 0.000000 0.048820 
#    y 0.000000 3.268360 0.000000 
#    z 0.048820 0.000000 3.707000 
# 
# 
# High freq. dielectric constant tensor:
#      x y z
#    x 1.719360 0.000000 0.003400 
#    y 0.000000 1.704070 0.000000 
#    z 0.003400 0.000000 1.735700 
# 
# From -- ./inp_files/274083.got.cif
#   From: 2010.06.25/outbox.cif.g09.slc.cpg/sg12_138_cif.got.tgz:274083.got - 2010.06.28 00:19:55.
