data_PCOD8097540
_publ_section_title
;
Structure prediction by ZEFSAII (Michael W. Deem and Ramdas Pophale) SiO2 
 PCOD8097540
Probable space group: C 2/M
;
_chemical_formula_sum "Si O2"
_cell_formula_units_Z 56
_cell_length_a 13.781155
_cell_length_b 10.352118
_cell_length_c 20.920299
_cell_angle_alpha 90.000000
_cell_angle_beta 84.595714
_cell_angle_gamma 90.000000
_cell_volume 2971.309847
_symmetry_space_group_name_H-M "C 2/M"
_symmetry_group_IT_number 12
_symmetry_cell_setting 'monoclinic'
loop_
_space_group_symop_operation_xyz
x,y,z
-x,y,-z
-x,-y,-z
x,-y,z
1/2+x,1/2+y,z
1/2-x,1/2+y,-z
1/2-x,1/2-y,-z
1/2+x,1/2-y,z
loop_
_atom_site_type_symbol
_atom_site_label
_atom_site_fract_x
_atom_site_fract_y
_atom_site_fract_z
Si Si1 0.762140 0.648341 0.233979
Si Si2 0.613098 0.647826 0.986291
Si Si3 0.402101 0.791134 0.535601
Si Si4 0.585644 0.354533 0.334421
Si Si5 0.623545 0.351320 0.704484
Si Si6 0.739862 0.145638 0.912076
Si Si7 0.306911 0.361992 0.431016
O O1 0.795293 0.500000 0.245932
O O2 0.673979 0.692263 0.284900
O O3 0.848266 0.751817 0.241019
O O4 0.728066 0.662040 0.163117
O O5 0.628512 0.500000 0.961278
O O6 0.657592 0.748590 0.933013
O O7 0.500000 0.680327 0.000000
O O8 0.663839 0.669378 0.051729
O O9 0.500000 0.858588 0.500000
O O10 0.428041 0.733454 0.602610
O O11 0.366519 0.684283 0.488061
O O12 0.308267 0.882878 0.547697
O O13 0.603616 0.500000 0.357310
O O14 0.491920 0.345111 0.295349
O O15 0.657244 0.500000 0.717435
O O16 0.673698 0.288574 0.636893
O O17 0.698871 0.000000 0.926682
O O18 0.354754 0.500000 0.414015
#
# Coordination Sequence:
#
# PCOD8097540 Si02
#       7
#     8   8   8   8   8   8   8
#     4  10  21  38  55  76 110 148 182 216 264 322
#     4   9  18  34  59  89 115 142 179 221 260 305
#     4  11  20  33  53  74 100 131 175 224 281 335
#     4  10  20  34  54  76 102 138 180 223 273 329
#     4  10  20  36  55  77 103 136 181 230 272 317
#     4   9  19  35  55  81 115 149 178 216 262 313
#     4  10  21  34  50  74 101 129 170 225 279 329
#
# _framework density 18.846907999999999
#
# number of rings (size 3 to 8) (size 9 to 14) (size 15 to 20)
#    0.000    2.143    2.857    0.429    0.000    2.857 
#    0.000    4.286    0.000    0.000    0.000    0.000 
#    0.000    0.000    0.000    0.000    0.000    0.000 
#
# Total GULP energy -346941.867590 kJ/mol
# GULP energy per Si atom -12390.780985 kJ/mol
# Density = 1.880401 g / cm^3
# Si number density = 18.846908 Si / 1000 Ang^3
#
#
#
# Elastic Constant Matrix: (Units=GPa)
#
#
# Indices 1 2 3 4 5 6 
#
# 1 93.0454 33.1857 22.2026 0.0000 0.5666 0.0000
# 2 33.1857 84.5456 43.2844 0.0000 2.5447 0.0000
# 3 22.2026 43.2844 86.9175 0.0000 5.2731 0.0000
# 4 0.0000 0.0000 0.0000 -4.0085 0.0000 -58.5303
# 5 0.5666 2.5447 5.2731 0.0000 20.3198 0.0000
# 6 0.0000 0.0000 0.0000 -58.5303 0.0000 -101.9121
#
#
#
# Elastic Compliance Matrix: (Units=1/GPa)
#
#
# Indices 1 2 3 4 5 6 
#
# 1 0.012567 -0.004414 -0.001041 0.000000 0.000472 0.000000
# 2 -0.004414 0.017426 -0.007544 0.000000 -0.000101 0.000000
# 3 -0.001041 -0.007544 0.015716 0.000000 -0.003105 0.000000
# 4 0.000000 0.000000 0.000000 0.033776 0.000000 -0.019398
# 5 0.000472 -0.000101 -0.003105 0.000000 0.050018 0.000000
# 6 0.000000 0.000000 0.000000 -0.019398 0.000000 0.001329
#
#
# Mechanical properties :
#
#
# Convention : Reuss Voigt Hill
#
# Bulk Modulus (GPa) = 50.73248 51.31709 51.02479
# Shear Modulus (GPa) = 30.59944 -6.06442 12.26751
#
# Velocity S-wave (km/s) = 4.03374 -1.79575 2.55405
# Velocity P-wave (km/s) = 6.97649 4.79457 5.98578
#
# Compressibility (1/GPa) = 0.01971124
#
# Stress axis : x y z
#
# Youngs Moduli (GPa) = 79.57160 57.38506 63.62799
#
# Poissons Ratio (x) = 0.25332 0.06621
# Poissons Ratio (y) = 0.35126 0.48003
# Poissons Ratio (z) = 0.08280 0.43293
#
# Static dielectric constant tensor:
#      x y z
#    x 3.453170 0.000000 -0.022220 
#    y 0.000000 3.395880 0.000000 
#    z -0.022220 0.000000 3.379520 
# 
# 
# High freq. dielectric constant tensor:
#      x y z
#    x 1.731540 0.000000 0.002650 
#    y 0.000000 1.721790 0.000000 
#    z 0.002650 0.000000 1.727830 
# 
# From -- ./inp_files/304216.got.cif
#   From: 2010.06.25/outbox.cif.g09.slc.cpg/sg12_153_cif.got.tgz:304216.got - 2010.06.28 00:19:55.
