data_PCOD8097409
_publ_section_title
;
Structure prediction by ZEFSAII (Michael W. Deem and Ramdas Pophale) SiO2 
 PCOD8097409
Probable space group: C 2/M
;
_chemical_formula_sum "Si O2"
_cell_formula_units_Z 64
_cell_length_a 29.898384
_cell_length_b 9.401973
_cell_length_c 23.579015
_cell_angle_alpha 90.000000
_cell_angle_beta 29.702638
_cell_angle_gamma 90.000000
_cell_volume 3284.239796
_symmetry_space_group_name_H-M "C 2/M"
_symmetry_group_IT_number 12
_symmetry_cell_setting 'monoclinic'
loop_
_space_group_symop_operation_xyz
x,y,z
-x,y,-z
-x,-y,-z
x,-y,z
1/2+x,1/2+y,z
1/2-x,1/2+y,-z
1/2-x,1/2-y,-z
1/2+x,1/2-y,z
loop_
_atom_site_type_symbol
_atom_site_label
_atom_site_fract_x
_atom_site_fract_y
_atom_site_fract_z
Si Si1 0.672450 0.162973 0.751360
Si Si2 0.512140 0.332778 0.423820
Si Si3 0.632531 0.667966 0.508332
Si Si4 0.181266 0.653886 0.228945
Si Si5 0.856858 0.169612 0.102432
Si Si6 0.322624 0.846538 0.892570
Si Si7 0.498097 0.837348 0.871027
Si Si8 0.014751 0.666835 0.721682
O O1 0.766567 0.214429 0.620075
O O2 0.640754 0.262195 0.837961
O O3 0.599215 0.176201 0.782790
O O4 0.681076 0.000000 0.763748
O O5 0.500000 0.271696 0.500000
O O6 0.520357 0.500000 0.414006
O O7 0.430217 0.281691 0.474791
O O8 0.606311 0.270979 0.300867
O O9 0.626180 0.500000 0.526526
O O10 0.599553 0.748221 0.601451
O O11 0.145238 0.500000 0.291284
O O12 0.260247 0.710095 0.182321
O O13 0.216513 0.632478 0.126914
O O14 0.871385 0.000000 0.090376
O O15 0.933809 0.234966 0.977891
O O16 0.424891 0.786523 0.785790
O O17 0.323825 0.000000 0.922497
O O18 0.250000 0.750000 0.000000
O O19 0.500897 0.789132 0.802444
O O20 0.463343 0.000000 0.914975
O O21 0.036178 0.500000 0.692036
#
# Coordination Sequence:
#
# PCOD8097409 Si02
#       8
#     8   8   8   8   8   8   8   8
#     4  10  22  41  62  84 115 154 196 242 294 351
#     4  10  20  34  54  81 111 146 190 232 271 327
#     4  10  21  37  58  85 117 154 196 242 289 340
#     4  10  21  36  53  79 113 147 181 221 277 336
#     4  11  23  38  59  89 120 149 191 245 296 349
#     4  10  20  34  53  78 110 146 183 225 273 329
#     4  10  22  40  62  86 113 153 198 241 294 350
#     4  10  21  38  59  84 117 154 195 240 288 347
#
# _framework density 19.487005
#
# number of rings (size 3 to 8) (size 9 to 14) (size 15 to 20)
#    0.000    1.875    1.250    2.250    0.000    6.750 
#    0.000    0.000    0.000    0.000    0.000    0.000 
#    0.000    0.000    0.000    0.000    0.000    0.000 
#
# Total GULP energy -396696.969895 kJ/mol
# GULP energy per Si atom -12396.780309 kJ/mol
# Density = 1.944265 g / cm^3
# Si number density = 19.487005 Si / 1000 Ang^3
#
#
#
# Elastic Constant Matrix: (Units=GPa)
#
#
# Indices 1 2 3 4 5 6 
#
# 1 89.7954 28.4234 26.3796 0.0215 3.0696 -0.0074
# 2 28.4234 56.6364 50.2709 0.0307 10.0745 -0.0237
# 3 26.3796 50.2709 108.8606 0.0429 7.7749 -0.0270
# 4 0.0215 0.0307 0.0429 26.4672 -0.0266 11.0994
# 5 3.0696 10.0745 7.7749 -0.0266 33.2695 0.0125
# 6 -0.0074 -0.0237 -0.0270 11.0994 0.0125 19.3200
#
#
#
# Elastic Compliance Matrix: (Units=1/GPa)
#
#
# Indices 1 2 3 4 5 6 
#
# 1 0.013265 -0.006607 -0.000223 0.000000 0.000829 -0.000004
# 2 -0.006607 0.034408 -0.013818 -0.000038 -0.006580 0.000047
# 3 -0.000223 -0.013818 0.015581 -0.000014 0.000564 0.000012
# 4 0.000000 -0.000038 -0.000014 0.049775 0.000065 -0.028596
# 5 0.000829 -0.006580 0.000564 0.000065 0.031842 -0.000065
# 6 -0.000004 0.000047 0.000012 -0.028596 -0.000065 0.068188
#
#
# Mechanical properties :
#
#
# Convention : Reuss Voigt Hill
#
# Bulk Modulus (GPa) = 45.54116 51.71558 48.62837
# Shear Modulus (GPa) = 19.10775 25.82592 22.46683
#
# Velocity S-wave (km/s) = 3.13475 3.64440 3.39914
# Velocity P-wave (km/s) = 6.04342 6.65620 6.35720
#
# Compressibility (1/GPa) = 0.02195816
#
# Stress axis : x y z
#
# Youngs Moduli (GPa) = 75.38747 29.06299 64.18112
#
# Poissons Ratio (x) = 0.19202 0.01428
# Poissons Ratio (y) = 0.49808 0.88687
# Poissons Ratio (z) = 0.01678 0.40160
#
# Static dielectric constant tensor:
#      x y z
#    x 3.413810 -0.000030 0.016470 
#    y -0.000030 3.636080 0.000020 
#    z 0.016470 0.000020 3.478670 
# 
# 
# High freq. dielectric constant tensor:
#      x y z
#    x 1.768780 0.000000 -0.001000 
#    y 0.000000 1.754690 0.000000 
#    z -0.001000 0.000000 1.756080 
# 
# From -- ./inp_files/249767.got.cif
#   From: 2010.06.25/outbox.cif.g09.slc.cpg/sg12_125_cif.got.tgz:249767.got - 2010.06.28 00:19:55.
