data_PCOD8097396
_publ_section_title
;
Structure prediction by ZEFSAII (Michael W. Deem and Ramdas Pophale) SiO2 
 PCOD8097396
Probable space group: C 2/M
;
_chemical_formula_sum "Si O2"
_cell_formula_units_Z 56
_cell_length_a 22.352799
_cell_length_b 9.067900
_cell_length_c 14.674591
_cell_angle_alpha 90.000000
_cell_angle_beta 78.260617
_cell_angle_gamma 90.000000
_cell_volume 2912.220370
_symmetry_space_group_name_H-M "C 2/M"
_symmetry_group_IT_number 12
_symmetry_cell_setting 'monoclinic'
loop_
_space_group_symop_operation_xyz
x,y,z
-x,y,-z
-x,-y,-z
x,-y,z
1/2+x,1/2+y,z
1/2-x,1/2+y,-z
1/2-x,1/2-y,-z
1/2+x,1/2-y,z
loop_
_atom_site_type_symbol
_atom_site_label
_atom_site_fract_x
_atom_site_fract_y
_atom_site_fract_z
Si Si1 0.890844 0.827348 0.347222
Si Si2 0.606975 0.171763 0.122915
Si Si3 0.857936 0.329389 0.089219
Si Si4 0.780061 0.825896 0.256354
Si Si5 0.154401 0.175319 0.284820
Si Si6 0.568262 0.674650 0.471752
Si Si7 0.031733 0.329327 0.818495
O O1 0.826797 0.779252 0.322156
O O2 0.892571 0.776467 0.451865
O O3 0.948057 0.756177 0.277964
O O4 0.900466 0.000000 0.334814
O O5 0.639260 0.269461 0.188882
O O6 0.536471 0.218628 0.133998
O O7 0.613100 0.000000 0.146779
O O8 0.640970 0.206694 0.017916
O O9 0.841717 0.500000 0.112168
O O10 0.806099 0.228960 0.151260
O O11 0.924308 0.290889 0.110400
O O12 0.717534 0.744747 0.299334
O O13 0.769438 0.000000 0.254439
O O14 0.102185 0.232277 0.370690
O O15 0.160346 0.000000 0.283083
O O16 0.500000 0.742455 0.500000
O O17 0.563635 0.500000 0.468412
O O18 0.034885 0.500000 0.793273
#
# Coordination Sequence:
#
# PCOD8097396 Si02
#       7
#     8   8   8   8   8   8   8
#     4   9  18  34  56  79 105 140 177 214 258 307
#     4  10  20  34  53  78 109 142 174 215 265 309
#     4   9  18  34  56  79 105 140 178 213 255 314
#     4  10  21  37  55  77 106 137 174 222 267 304
#     4  11  23  37  55  77 103 139 180 218 257 310
#     4   9  18  34  56  81 107 135 169 209 256 312
#     4   9  17  31  53  82 111 137 170 213 262 314
#
# _framework density 19.229315
#
# number of rings (size 3 to 8) (size 9 to 14) (size 15 to 20)
#    0.000    2.429    0.000    2.143    0.000    5.714 
#    0.000    1.429    0.000    8.143    0.000    0.000 
#    0.000    0.000    0.000    0.000    0.000    0.000 
#
# Total GULP energy -347238.756126 kJ/mol
# GULP energy per Si atom -12401.384147 kJ/mol
# Density = 1.918555 g / cm^3
# Si number density = 19.229315 Si / 1000 Ang^3
#
#
#
# Elastic Constant Matrix: (Units=GPa)
#
#
# Indices 1 2 3 4 5 6 
#
# 1 111.6447 36.8777 59.0630 0.0000 -11.4965 0.0000
# 2 36.8777 49.3823 33.2579 0.0000 -0.8914 0.0000
# 3 59.0630 33.2579 119.5039 0.0000 8.1302 0.0000
# 4 0.0000 0.0000 0.0000 26.0802 0.0000 -3.0859
# 5 -11.4965 -0.8914 8.1302 0.0000 26.9827 0.0000
# 6 0.0000 0.0000 0.0000 -3.0859 0.0000 23.2378
#
#
#
# Elastic Compliance Matrix: (Units=1/GPa)
#
#
# Indices 1 2 3 4 5 6 
#
# 1 0.015467 -0.007233 -0.006190 0.000000 0.008216 0.000000
# 2 -0.007233 0.028540 -0.004311 0.000000 -0.000840 0.000000
# 3 -0.006190 -0.004311 0.013084 0.000000 -0.006722 0.000000
# 4 0.000000 0.000000 0.000000 0.038955 0.000000 0.005173
# 5 0.008216 -0.000840 -0.006722 0.000000 0.042559 0.000000
# 6 0.000000 0.000000 0.000000 0.005173 0.000000 0.043720
#
#
# Mechanical properties :
#
#
# Convention : Reuss Voigt Hill
#
# Bulk Modulus (GPa) = 46.24704 59.88090 53.06397
# Shear Modulus (GPa) = 22.22203 25.34896 23.78550
#
# Velocity S-wave (km/s) = 3.40315 3.63470 3.52083
# Velocity P-wave (km/s) = 6.28843 6.98733 6.64707
#
# Compressibility (1/GPa) = 0.02162300
#
# Stress axis : x y z
#
# Youngs Moduli (GPa) = 64.65313 35.03908 76.42676
#
# Poissons Ratio (x) = 0.25344 0.47311
# Poissons Ratio (y) = 0.46764 0.32944
# Poissons Ratio (z) = 0.40023 0.15104
#
# Static dielectric constant tensor:
#      x y z
#    x 3.648190 0.000000 0.030360 
#    y 0.000000 3.328110 0.000000 
#    z 0.030360 0.000000 3.654870 
# 
# 
# High freq. dielectric constant tensor:
#      x y z
#    x 1.752550 0.000000 0.001990 
#    y 0.000000 1.729420 0.000000 
#    z 0.001990 0.000000 1.751050 
# 
# From -- ./inp_files/237396.got.cif
#   From: 2010.06.25/outbox.cif.g09.slc.cpg/sg12_119_cif.got.tgz:237396.got - 2010.06.28 00:19:55.
