data_PCOD8097743
_publ_section_title
;
Structure prediction by ZEFSAII (Michael W. Deem and Ramdas Pophale) SiO2 
 PCOD8097743
Probable space group: C 2/M
;
_chemical_formula_sum "Si O2"
_cell_formula_units_Z 40
_cell_length_a 29.436486
_cell_length_b 9.521044
_cell_length_c 16.079958
_cell_angle_alpha 90.000000
_cell_angle_beta 26.040495
_cell_angle_gamma 90.000000
_cell_volume 1978.455009
_symmetry_space_group_name_H-M "C 2/M"
_symmetry_group_IT_number 12
_symmetry_cell_setting 'monoclinic'
loop_
_space_group_symop_operation_xyz
x,y,z
-x,y,-z
-x,-y,-z
x,-y,z
1/2+x,1/2+y,z
1/2-x,1/2+y,-z
1/2-x,1/2-y,-z
1/2+x,1/2-y,z
loop_
_atom_site_type_symbol
_atom_site_label
_atom_site_fract_x
_atom_site_fract_y
_atom_site_fract_z
Si Si1 0.456027 0.341327 0.201473
Si Si2 0.518862 0.663266 0.564014
Si Si3 0.443518 0.164751 0.831980
Si Si4 0.165903 0.157563 0.752796
Si Si5 0.740634 0.339060 0.269170
O O1 0.437898 0.500000 0.265034
O O2 0.464252 0.234602 0.265130
O O3 0.360944 0.294449 0.297707
O O4 0.560801 0.336268 0.977347
O O5 0.500000 0.703247 0.500000
O O6 0.493746 0.500000 0.622230
O O7 0.442793 0.760287 0.743552
O O8 0.636515 0.701832 0.392926
O O9 0.465419 0.000000 0.786816
O O10 0.333054 0.197346 0.054269
O O11 0.250264 0.256775 0.658123
O O12 0.210374 0.000000 0.679087
O O13 0.743672 0.500000 0.290210
#
# Coordination Sequence:
#
# PCOD8097743 Si02
#       5
#     8   8   8   8   8
#     4   8  14  27  48  75 107 141 174 206 246 302
#     4  10  22  40  58  75 100 137 177 215 261 318
#     4  10  20  34  54  81 109 135 169 216 264 305
#     4   8  14  26  48  77 106 138 175 210 246 297
#     4   9  19  35  54  78 108 138 170 213 262 308
#
# _framework density 20.217797000000001
#
# number of rings (size 3 to 8) (size 9 to 14) (size 15 to 20)
#    0.000    3.000    0.000    1.800    0.000    3.600 
#    0.000    5.000    0.000    0.000    0.000    0.000 
#    0.000    0.000    0.000    0.000    0.000    0.000 
#
# Total GULP energy -247964.115021 kJ/mol
# GULP energy per Si atom -12398.205751 kJ/mol
# Density = 2.017178 g / cm^3
# Si number density = 20.217797 Si / 1000 Ang^3
#
#
#
# Elastic Constant Matrix: (Units=GPa)
#
#
# Indices 1 2 3 4 5 6 
#
# 1 126.1130 43.3344 20.0164 0.0000 5.2062 0.0000
# 2 43.3344 70.2839 14.1011 0.0000 5.7682 0.0000
# 3 20.0164 14.1011 30.1536 0.0000 3.6709 0.0000
# 4 0.0000 0.0000 0.0000 17.9984 0.0000 4.5205
# 5 5.2062 5.7682 3.6709 0.0000 31.9274 0.0000
# 6 0.0000 0.0000 0.0000 4.5205 0.0000 34.9105
#
#
#
# Elastic Compliance Matrix: (Units=1/GPa)
#
#
# Indices 1 2 3 4 5 6 
#
# 1 0.010561 -0.005620 -0.004357 0.000000 -0.000206 0.000000
# 2 -0.005620 0.018822 -0.004836 0.000000 -0.001928 0.000000
# 3 -0.004357 -0.004836 0.038666 0.000000 -0.002861 0.000000
# 4 0.000000 0.000000 0.000000 0.057428 0.000000 -0.007436
# 5 -0.000206 -0.001928 -0.002861 0.000000 0.032032 0.000000
# 6 0.000000 0.000000 0.000000 -0.007436 0.000000 0.029608
#
#
# Mechanical properties :
#
#
# Convention : Reuss Voigt Hill
#
# Bulk Modulus (GPa) = 26.02742 42.38382 34.20562
# Shear Modulus (GPa) = 21.78173 26.90717 24.34445
#
# Velocity S-wave (km/s) = 3.28587 3.65206 3.47379
# Velocity P-wave (km/s) = 5.22469 6.22836 5.74847
#
# Compressibility (1/GPa) = 0.03842103
#
# Stress axis : x y z
#
# Youngs Moduli (GPa) = 94.69135 53.12997 25.86263
#
# Poissons Ratio (x) = 0.29860 0.11268
# Poissons Ratio (y) = 0.53219 0.12508
# Poissons Ratio (z) = 0.41257 0.25695
#
# Static dielectric constant tensor:
#      x y z
#    x 3.893390 0.000000 0.043830 
#    y 0.000000 3.664900 0.000000 
#    z 0.043830 0.000000 3.476620 
# 
# 
# High freq. dielectric constant tensor:
#      x y z
#    x 1.788960 0.000000 0.005050 
#    y 0.000000 1.781590 0.000000 
#    z 0.005050 0.000000 1.781300 
# 
# From -- ./inp_files/211184.got.cif
#   From: 2010.06.25/outbox.cif.g09.slc.cpg/sg12_106_cif.got.tgz:211184.got - 2010.06.28 00:19:55.
