data_PCOD8097963
_publ_section_title
;
Structure prediction by ZEFSAII (Michael W. Deem and Ramdas Pophale) SiO2 
 PCOD8097963
Probable space group: C 2/M
;
_chemical_formula_sum "Si O2"
_cell_formula_units_Z 40
_cell_length_a 13.059935
_cell_length_b 9.317325
_cell_length_c 18.405624
_cell_angle_alpha 90.000000
_cell_angle_beta 71.333216
_cell_angle_gamma 90.000000
_cell_volume 2121.848375
_symmetry_space_group_name_H-M "C 2/M"
_symmetry_group_IT_number 12
_symmetry_cell_setting 'monoclinic'
loop_
_space_group_symop_operation_xyz
x,y,z
-x,y,-z
-x,-y,-z
x,-y,z
1/2+x,1/2+y,z
1/2-x,1/2+y,-z
1/2-x,1/2-y,-z
1/2+x,1/2-y,z
loop_
_atom_site_type_symbol
_atom_site_label
_atom_site_fract_x
_atom_site_fract_y
_atom_site_fract_z
Si Si1 0.844267 0.500000 0.095914
Si Si2 0.440571 0.670547 0.585963
Si Si3 0.088280 0.500000 0.085118
Si Si4 0.031875 0.838413 0.713242
Si Si5 0.238894 0.337137 0.306519
Si Si6 0.672984 0.749216 0.165624
O O1 0.771944 0.642238 0.125383
O O2 0.955327 0.500000 0.119984
O O3 0.878945 0.500000 0.005327
O O4 0.500000 0.724047 0.500000
O O5 0.426459 0.500000 0.590005
O O6 0.503556 0.732975 0.642069
O O7 0.322981 0.740850 0.619983
O O8 0.144413 0.360356 0.108101
O O9 0.140273 0.769838 0.721467
O O10 0.936966 0.837266 0.794258
O O11 0.060005 0.000000 0.687737
O O12 0.231884 0.500000 0.335458
O O13 0.197984 0.334006 0.233439
#
# Coordination Sequence:
#
# PCOD8097963 Si02
#       6
#     4   8   4   8   8   8
#     4  11  24  40  63  85 120 161 189 238 306 347
#     4   9  19  35  53  77 111 148 186 232 282 347
#     4  11  24  40  59  93 118 149 203 242 286 361
#     4   9  18  34  56  78 106 147 191 228 285 346
#     4  10  20  34  55  81 107 145 189 237 284 334
#     4  11  20  40  59  83 118 152 191 247 286 348
#
# _framework density 18.851488
#
# number of rings (size 3 to 8) (size 9 to 14) (size 15 to 20)
#    0.000    2.000    2.000    1.800    1.400    1.200 
#    1.800    0.000    0.000    4.800    0.000    0.000 
#    0.000    0.000    0.000    0.000    0.000    0.000 
#
# Total GULP energy -247777.636410 kJ/mol
# GULP energy per Si atom -12388.881820 kJ/mol
# Density = 1.880858 g / cm^3
# Si number density = 18.851488 Si / 1000 Ang^3
#
#
#
# Elastic Constant Matrix: (Units=GPa)
#
#
# Indices 1 2 3 4 5 6 
#
# 1 113.5021 40.8758 40.0749 0.0000 -27.7592 0.0000
# 2 40.8758 72.1329 32.4234 0.0000 -7.1952 0.0000
# 3 40.0749 32.4234 106.4550 0.0000 -14.4906 0.0000
# 4 0.0000 0.0000 0.0000 29.9744 0.0000 -5.3730
# 5 -27.7592 -7.1952 -14.4906 0.0000 28.9344 0.0000
# 6 0.0000 0.0000 0.0000 -5.3730 0.0000 24.7825
#
#
#
# Elastic Compliance Matrix: (Units=1/GPa)
#
#
# Indices 1 2 3 4 5 6 
#
# 1 0.014547 -0.006190 -0.002040 0.000000 0.011395 0.000000
# 2 -0.006190 0.018770 -0.003820 0.000000 -0.003184 0.000000
# 3 -0.002040 -0.003820 0.011729 0.000000 0.002967 0.000000
# 4 0.000000 0.000000 0.000000 0.034711 0.000000 0.007525
# 5 0.011395 -0.003184 0.002967 0.000000 0.046187 0.000000
# 6 0.000000 0.000000 0.000000 0.007525 0.000000 0.041983
#
#
# Mechanical properties :
#
#
# Convention : Reuss Voigt Hill
#
# Bulk Modulus (GPa) = 47.74049 57.64869 52.69459
# Shear Modulus (GPa) = 25.12461 28.65266 26.88864
#
# Velocity S-wave (km/s) = 3.65467 3.90284 3.78079
# Velocity P-wave (km/s) = 6.57178 7.13837 6.86093
#
# Compressibility (1/GPa) = 0.02094658
#
# Stress axis : x y z
#
# Youngs Moduli (GPa) = 68.74471 53.27535 85.25924
#
# Poissons Ratio (x) = 0.32976 0.17391
# Poissons Ratio (y) = 0.42551 0.32571
# Poissons Ratio (z) = 0.14022 0.20353
#
# Static dielectric constant tensor:
#      x y z
#    x 3.955260 0.000000 -0.085330 
#    y 0.000000 3.270780 0.000000 
#    z -0.085330 0.000000 3.390100 
# 
# 
# High freq. dielectric constant tensor:
#      x y z
#    x 1.745780 0.000000 -0.006000 
#    y 0.000000 1.719080 0.000000 
#    z -0.006000 0.000000 1.729720 
# 
# From -- ./inp_files/261530.got.cif
#   From: 2010.06.25/outbox.cif.g09.slc.cpg/sg12_131_cif.got.tgz:261530.got - 2010.06.28 00:19:55.
