data_PCOD8097516
_publ_section_title
;
Structure prediction by ZEFSAII (Michael W. Deem and Ramdas Pophale) SiO2 
 PCOD8097516
Probable space group: C 2/M
;
_chemical_formula_sum "Si O2"
_cell_formula_units_Z 44
_cell_length_a 14.907006
_cell_length_b 27.582498
_cell_length_c 5.225370
_cell_angle_alpha 90.000000
_cell_angle_beta 103.548193
_cell_angle_gamma 90.000000
_cell_volume 2088.741630
_symmetry_space_group_name_H-M "C 2/M"
_symmetry_group_IT_number 12
_symmetry_cell_setting 'monoclinic'
loop_
_space_group_symop_operation_xyz
x,y,z
-x,y,-z
-x,-y,-z
x,-y,z
1/2+x,1/2+y,z
1/2-x,1/2+y,-z
1/2-x,1/2-y,-z
1/2+x,1/2-y,z
loop_
_atom_site_type_symbol
_atom_site_label
_atom_site_fract_x
_atom_site_fract_y
_atom_site_fract_z
Si Si1 0.000000 0.127518 0.000000
Si Si2 0.108662 0.713388 0.578944
Si Si3 0.390980 0.156474 0.922455
Si Si4 0.229234 0.907356 0.745100
Si Si5 0.857175 0.054876 0.786854
Si Si6 0.397730 0.320987 0.323014
O O1 0.918873 0.163555 0.044753
O O2 0.055753 0.090092 0.223249
O O3 0.139987 0.692742 0.326328
O O4 0.144417 0.767820 0.657238
O O5 0.000000 0.716296 0.500000
O O6 0.143221 0.679675 0.833510
O O7 0.337498 0.105512 0.855943
O O8 0.500000 0.145782 0.000000
O O9 0.217322 0.942596 0.493834
O O10 0.178612 0.857628 0.624751
O O11 0.188515 0.931075 0.972889
O O12 0.893065 0.000000 0.830170
O O13 0.500000 0.329280 0.500000
#
# Coordination Sequence:
#
# PCOD8097516 Si02
#       6
#     4   8   8   8   8   8
#     4  10  21  36  58  84 124 160 188 228 279 352
#     4   9  20  32  56  80 116 155 192 238 271 331
#     4  10  21  39  56  84 111 154 199 237 289 332
#     4  11  23  38  61  83 115 152 191 243 291 345
#     4  11  23  40  61  88 115 149 192 240 297 352
#     4  10  20  34  53  83 121 156 193 227 279 333
#
# _framework density 21.065314000000001
#
# number of rings (size 3 to 8) (size 9 to 14) (size 15 to 20)
#    0.000    1.818    1.818    1.909    6.364    1.455 
#    0.000    2.727    0.000    3.273    0.000    0.000 
#    0.000    0.000    0.000    0.000    0.000    0.000 
#
# Total GULP energy -272541.915764 kJ/mol
# GULP energy per Si atom -12388.268898 kJ/mol
# Density = 2.101737 g / cm^3
# Si number density = 21.065314 Si / 1000 Ang^3
#
#
#
# Elastic Constant Matrix: (Units=GPa)
#
#
# Indices 1 2 3 4 5 6 
#
# 1 57.4006 20.4608 16.7192 0.0000 7.0084 0.0000
# 2 20.4608 68.7878 27.8935 0.0000 4.3992 0.0000
# 3 16.7192 27.8935 125.1430 0.0000 -1.5750 0.0000
# 4 0.0000 0.0000 0.0000 27.9430 0.0000 4.9463
# 5 7.0084 4.3992 -1.5750 0.0000 18.8787 0.0000
# 6 0.0000 0.0000 0.0000 4.9463 0.0000 12.3171
#
#
#
# Elastic Compliance Matrix: (Units=1/GPa)
#
#
# Indices 1 2 3 4 5 6 
#
# 1 0.020501 -0.004982 -0.001711 0.000000 -0.006592 0.000000
# 2 -0.004982 0.017504 -0.003267 0.000000 -0.002502 0.000000
# 3 -0.001711 -0.003267 0.008975 0.000000 0.002145 0.000000
# 4 0.000000 0.000000 0.000000 0.038526 0.000000 -0.015471
# 5 -0.006592 -0.002502 0.002145 0.000000 0.056179 0.000000
# 6 0.000000 0.000000 0.000000 -0.015471 0.000000 0.087401
#
#
# Mechanical properties :
#
#
# Convention : Reuss Voigt Hill
#
# Bulk Modulus (GPa) = 36.95810 42.38647 39.67228
# Shear Modulus (GPa) = 19.37777 24.24493 21.81135
#
# Velocity S-wave (km/s) = 3.03626 3.39623 3.22128
# Velocity P-wave (km/s) = 5.46575 5.96191 5.71921
#
# Compressibility (1/GPa) = 0.02705767
#
# Stress axis : x y z
#
# Youngs Moduli (GPa) = 48.77858 57.12847 111.42315
#
# Poissons Ratio (x) = 0.28463 0.19069
# Poissons Ratio (y) = 0.24303 0.36407
# Poissons Ratio (z) = 0.08348 0.18666
#
# Static dielectric constant tensor:
#      x y z
#    x 3.824190 0.000000 -0.128180 
#    y 0.000000 3.741510 0.000000 
#    z -0.128180 0.000000 4.165470 
# 
# 
# High freq. dielectric constant tensor:
#      x y z
#    x 1.804770 0.000000 0.002950 
#    y 0.000000 1.808490 0.000000 
#    z 0.002950 0.000000 1.835810 
# 
# From -- ./inp_files/12168.got.cif
#   From: 2010.06.25/outbox.cif.g09.slc.cpg/sg12_7_cif.got.tgz:12168.got - 2010.06.28 00:19:55.
