data_PCOD8097972
_publ_section_title
;
Structure prediction by ZEFSAII (Michael W. Deem and Ramdas Pophale) SiO2 
 PCOD8097972
Probable space group: C 2/M
;
_chemical_formula_sum "Si O2"
_cell_formula_units_Z 64
_cell_length_a 16.996584
_cell_length_b 11.353520
_cell_length_c 20.428783
_cell_angle_alpha 90.000000
_cell_angle_beta 54.479019
_cell_angle_gamma 90.000000
_cell_volume 3208.538254
_symmetry_space_group_name_H-M "C 2/M"
_symmetry_group_IT_number 12
_symmetry_cell_setting 'monoclinic'
loop_
_space_group_symop_operation_xyz
x,y,z
-x,y,-z
-x,-y,-z
x,-y,z
1/2+x,1/2+y,z
1/2-x,1/2+y,-z
1/2-x,1/2-y,-z
1/2+x,1/2-y,z
loop_
_atom_site_type_symbol
_atom_site_label
_atom_site_fract_x
_atom_site_fract_y
_atom_site_fract_z
Si Si1 0.758314 0.365093 0.043444
Si Si2 0.046597 0.629875 0.818995
Si Si3 0.902777 0.864342 0.365813
Si Si4 0.773578 0.729519 0.331290
Si Si5 0.408126 0.362465 0.507753
Si Si6 0.730063 0.137000 0.219695
Si Si7 0.600197 0.763050 0.927197
Si Si8 0.913303 0.223531 0.796469
O O1 0.761691 0.500000 0.010368
O O2 0.856047 0.346384 0.037356
O O3 0.667179 0.365484 0.136907
O O4 0.750000 0.250000 0.000000
O O5 0.003848 0.500000 0.833292
O O6 0.141694 0.639233 0.728104
O O7 0.076608 0.653136 0.878343
O O8 0.962324 0.716197 0.835759
O O9 0.814844 0.816953 0.365550
O O10 0.899927 0.804718 0.439347
O O11 0.007302 0.847247 0.282588
O O12 0.881115 0.000000 0.383611
O O13 0.686238 0.656713 0.403384
O O14 0.737471 0.800202 0.285693
O O15 0.500000 0.304294 0.500000
O O16 0.427119 0.500000 0.490055
O O17 0.825296 0.160938 0.129602
O O18 0.635223 0.180344 0.227455
O O19 0.720461 0.000000 0.237287
O O20 0.500000 0.703621 0.000000
#
# Coordination Sequence:
#
# PCOD8097972 Si02
#       8
#     8   8   8   8   8   8   8   8
#     4  11  24  40  60  86 116 151 190 236 287 339
#     4  10  20  35  57  82 110 146 187 231 278 329
#     4  10  20  35  57  81 107 143 182 225 278 333
#     4  10  20  35  54  80 113 145 181 226 275 331
#     4  10  20  34  55  81 108 142 184 229 276 325
#     4  10  21  37  57  81 111 148 185 224 280 341
#     4  10  22  38  56  82 110 143 187 234 279 326
#     4  10  21  37  58  83 112 144 184 231 279 333
#
# _framework density 19.946777000000001
#
# number of rings (size 3 to 8) (size 9 to 14) (size 15 to 20)
#    0.000    1.875    0.000    3.750    0.000    4.750 
#    0.000    8.125    0.000    9.000    0.000    0.000 
#    0.000    0.000    0.000    0.000    0.000    0.000 
#
# Total GULP energy -396713.861740 kJ/mol
# GULP energy per Si atom -12397.308179 kJ/mol
# Density = 1.990138 g / cm^3
# Si number density = 19.946777 Si / 1000 Ang^3
#
#
#
# Elastic Constant Matrix: (Units=GPa)
#
#
# Indices 1 2 3 4 5 6 
#
# 1 130.1899 18.8516 32.9147 0.0000 11.0069 0.0000
# 2 18.8516 65.4605 -0.7975 0.0000 18.8578 0.0000
# 3 32.9147 -0.7975 61.8168 0.0000 6.5382 0.0000
# 4 0.0000 0.0000 0.0000 19.0455 0.0000 2.6236
# 5 11.0069 18.8578 6.5382 0.0000 37.9024 0.0000
# 6 0.0000 0.0000 0.0000 2.6236 0.0000 18.5968
#
#
#
# Elastic Compliance Matrix: (Units=1/GPa)
#
#
# Indices 1 2 3 4 5 6 
#
# 1 0.009357 -0.002590 -0.004955 0.000000 -0.000574 0.000000
# 2 -0.002590 0.018635 0.002567 0.000000 -0.008963 0.000000
# 3 -0.004955 0.002567 0.019181 0.000000 -0.003147 0.000000
# 4 0.000000 0.000000 0.000000 0.053547 0.000000 -0.007554
# 5 -0.000574 -0.008963 -0.003147 0.000000 0.031552 0.000000
# 6 0.000000 0.000000 0.000000 -0.007554 0.000000 0.054838
#
#
# Mechanical properties :
#
#
# Convention : Reuss Voigt Hill
#
# Bulk Modulus (GPa) = 26.86811 39.93388 33.40100
# Shear Modulus (GPa) = 23.86948 28.87550 26.37249
#
# Velocity S-wave (km/s) = 3.46303 3.80890 3.64007
# Velocity P-wave (km/s) = 5.43040 6.27752 5.86926
#
# Compressibility (1/GPa) = 0.03721884
#
# Stress axis : x y z
#
# Youngs Moduli (GPa) = 106.86761 53.66139 52.13446
#
# Poissons Ratio (x) = 0.13897 0.25833
# Poissons Ratio (y) = 0.27676 -0.13384
# Poissons Ratio (z) = 0.52954 -0.13776
#
# Static dielectric constant tensor:
#      x y z
#    x 3.926270 0.000000 0.098240 
#    y 0.000000 3.319310 0.000000 
#    z 0.098240 0.000000 3.752890 
# 
# 
# High freq. dielectric constant tensor:
#      x y z
#    x 1.798040 0.000000 0.001690 
#    y 0.000000 1.754090 0.000000 
#    z 0.001690 0.000000 1.786610 
# 
# From -- ./inp_files/315679.got.cif
#   From: 2010.06.25/outbox.cif.g09.slc.cpg/sg12_158_cif.got.tgz:315679.got - 2010.06.28 00:19:55.
