data_PCOD8097920
_publ_section_title
;
Structure prediction by ZEFSAII (Michael W. Deem and Ramdas Pophale) SiO2 
 PCOD8097920
Probable space group: C 2/M
;
_chemical_formula_sum "Si O2"
_cell_formula_units_Z 56
_cell_length_a 27.432950
_cell_length_b 9.674107
_cell_length_c 18.881431
_cell_angle_alpha 90.000000
_cell_angle_beta 144.021766
_cell_angle_gamma 90.000000
_cell_volume 2943.810288
_symmetry_space_group_name_H-M "C 2/M"
_symmetry_group_IT_number 12
_symmetry_cell_setting 'monoclinic'
loop_
_space_group_symop_operation_xyz
x,y,z
-x,y,-z
-x,-y,-z
x,-y,z
1/2+x,1/2+y,z
1/2-x,1/2+y,-z
1/2-x,1/2-y,-z
1/2+x,1/2-y,z
loop_
_atom_site_type_symbol
_atom_site_label
_atom_site_fract_x
_atom_site_fract_y
_atom_site_fract_z
Si Si1 0.332275 0.162358 0.116848
Si Si2 0.609357 0.338954 0.324071
Si Si3 0.802107 0.848739 0.715371
Si Si4 0.953075 0.654109 0.129816
Si Si5 0.377348 0.155516 0.530196
Si Si6 0.972276 0.336400 0.389762
Si Si7 0.913974 0.345509 0.927809
O O1 0.395003 0.191735 0.126793
O O2 0.382126 0.207970 0.248725
O O3 0.308134 0.000000 0.092844
O O4 0.250000 0.250000 0.000000
O O5 0.595551 0.500000 0.324532
O O6 0.675121 0.315046 0.338919
O O7 0.522713 0.269075 0.202050
O O8 0.644517 0.260926 0.433320
O O9 0.703893 0.846906 0.613920
O O10 0.836840 0.737916 0.809252
O O11 0.838099 0.000000 0.776905
O O12 0.991230 0.500000 0.185636
O O13 0.901628 0.657136 0.997162
O O14 0.456143 0.212213 0.579913
O O15 0.395380 0.000000 0.580049
O O16 0.971911 0.500000 0.395772
O O17 0.000000 0.274895 0.500000
O O18 0.908530 0.500000 0.890437
O O19 0.000000 0.279391 0.000000
#
# Coordination Sequence:
#
# PCOD8097920 Si02
#       7
#     8   8   8   8   8   8   8
#     4  10  21  38  61  87 114 146 187 239 288 341
#     4  11  21  33  53  83 112 142 185 233 275 323
#     4  10  22  35  52  82 116 148 185 233 283 328
#     4  10  20  37  58  81 108 148 190 222 273 337
#     4  10  20  37  57  78 110 150 187 227 279 342
#     4   9  18  35  61  87 109 143 192 237 282 342
#     4  10  20  34  55  79 108 150 192 226 269 332
#
# _framework density 19.022964999999999
#
# number of rings (size 3 to 8) (size 9 to 14) (size 15 to 20)
#    0.000    2.000    2.857    0.857    0.000    3.714 
#    0.000    1.429    0.000    1.714    0.000    0.000 
#    0.000    0.000    0.000    0.000    0.000    0.000 
#
# Total GULP energy -346934.819088 kJ/mol
# GULP energy per Si atom -12390.529253 kJ/mol
# Density = 1.897967 g / cm^3
# Si number density = 19.022965 Si / 1000 Ang^3
#
#
#
# Elastic Constant Matrix: (Units=GPa)
#
#
# Indices 1 2 3 4 5 6 
#
# 1 55.8876 23.4209 44.2911 0.0000 -5.0456 0.0000
# 2 23.4209 72.9081 48.6315 0.0000 -0.3574 0.0000
# 3 44.2911 48.6315 135.4489 0.0000 -6.1602 0.0000
# 4 0.0000 0.0000 0.0000 34.2421 0.0000 -0.1574
# 5 -5.0456 -0.3574 -6.1602 0.0000 28.8242 0.0000
# 6 0.0000 0.0000 0.0000 -0.1574 0.0000 16.2406
#
#
#
# Elastic Compliance Matrix: (Units=1/GPa)
#
#
# Indices 1 2 3 4 5 6 
#
# 1 0.024996 -0.003486 -0.006791 0.000000 0.002881 0.000000
# 2 -0.003486 0.018560 -0.005596 0.000000 -0.001576 0.000000
# 3 -0.006791 -0.005596 0.011669 0.000000 0.001236 0.000000
# 4 0.000000 0.000000 0.000000 0.029205 0.000000 0.000283
# 5 0.002881 -0.001576 0.001236 0.000000 0.035442 0.000000
# 6 0.000000 0.000000 0.000000 0.000283 0.000000 0.061577
#
#
# Mechanical properties :
#
#
# Convention : Reuss Voigt Hill
#
# Bulk Modulus (GPa) = 42.58941 55.21463 48.90202
# Shear Modulus (GPa) = 22.62232 25.72145 24.17188
#
# Velocity S-wave (km/s) = 3.45224 3.68112 3.56851
# Velocity P-wave (km/s) = 6.19093 6.86700 6.53771
#
# Compressibility (1/GPa) = 0.02348001
#
# Stress axis : x y z
#
# Youngs Moduli (GPa) = 40.00681 53.87795 85.69887
#
# Poissons Ratio (x) = 0.18781 0.58197
# Poissons Ratio (y) = 0.13945 0.47955
# Poissons Ratio (z) = 0.27168 0.30149
#
# Static dielectric constant tensor:
#      x y z
#    x 3.492050 0.000000 -0.112530 
#    y 0.000000 3.384840 0.000000 
#    z -0.112530 0.000000 3.614040 
# 
# 
# High freq. dielectric constant tensor:
#      x y z
#    x 1.731940 0.000000 -0.005690 
#    y 0.000000 1.719810 0.000000 
#    z -0.005690 0.000000 1.745810 
# 
# From -- ./inp_files/329729.got.cif
#   From: 2010.06.25/outbox.cif.g09.slc.cpg/sg12_165_cif.got.tgz:329729.got - 2010.06.28 00:19:55.
