data_PCOD8097433
_publ_section_title
;
Structure prediction by ZEFSAII (Michael W. Deem and Ramdas Pophale) SiO2 
 PCOD8097433
Probable space group: C 2/M
;
_chemical_formula_sum "Si O2"
_cell_formula_units_Z 64
_cell_length_a 20.637144
_cell_length_b 15.802724
_cell_length_c 11.523754
_cell_angle_alpha 90.000000
_cell_angle_beta 69.273023
_cell_angle_gamma 90.000000
_cell_volume 3514.924607
_symmetry_space_group_name_H-M "C 2/M"
_symmetry_group_IT_number 12
_symmetry_cell_setting 'monoclinic'
loop_
_space_group_symop_operation_xyz
x,y,z
-x,y,-z
-x,-y,-z
x,-y,z
1/2+x,1/2+y,z
1/2-x,1/2+y,-z
1/2-x,1/2-y,-z
1/2+x,1/2-y,z
loop_
_atom_site_type_symbol
_atom_site_label
_atom_site_fract_x
_atom_site_fract_y
_atom_site_fract_z
Si Si1 0.446974 0.400499 0.206396
Si Si2 0.432552 0.739353 0.391518
Si Si3 0.906519 0.902454 0.975955
Si Si4 0.919463 0.405516 0.815741
Si Si5 0.161525 0.599269 0.916597
Si Si6 0.077269 0.596550 0.745723
Si Si7 0.910038 0.742634 0.664861
Si Si8 0.205844 0.817020 0.098437
O O1 0.444162 0.500000 0.245814
O O2 0.409540 0.340414 0.326027
O O3 0.525196 0.366155 0.132348
O O4 0.405305 0.385590 0.113946
O O5 0.409936 0.831619 0.358663
O O6 0.514436 0.722953 0.350883
O O7 0.395043 0.738491 0.539788
O O8 0.834779 0.868503 0.973103
O O9 0.911107 0.000000 0.946642
O O10 0.895158 0.500000 0.801750
O O11 0.912177 0.356618 0.698280
O O12 0.995766 0.404582 0.823378
O O13 0.871697 0.361261 0.944631
O O14 0.152773 0.500000 0.931657
O O15 0.119475 0.629591 0.830647
O O16 0.241752 0.625034 0.859945
O O17 0.100269 0.500000 0.693534
O O18 0.848542 0.784355 0.774278
O O19 0.250000 0.750000 0.000000
#
# Coordination Sequence:
#
# PCOD8097433 Si02
#       8
#     8   8   8   8   8   8   8   8
#     4   9  18  35  60  86 107 137 183 233 279 320
#     4  10  20  36  59  77 114 142 181 230 271 318
#     4   9  19  36  57  82 110 139 180 230 277 322
#     4   9  17  33  54  79 110 139 177 231 272 315
#     4  10  20  34  53  79 109 143 179 222 275 328
#     4   9  19  34  56  83 108 140 183 226 274 320
#     4  10  21  36  50  84 109 144 183 218 269 336
#     4  12  22  34  53  81 115 142 178 218 277 333
#
# _framework density 18.208072000000001
#
# number of rings (size 3 to 8) (size 9 to 14) (size 15 to 20)
#    0.000    2.250    2.500    1.500    1.750    2.000 
#    2.250    5.625    0.000    0.000    0.000    0.000 
#    0.000    0.000    0.000    0.000    0.000    0.000 
#
# Total GULP energy -396511.738437 kJ/mol
# GULP energy per Si atom -12390.991826 kJ/mol
# Density = 1.816663 g / cm^3
# Si number density = 18.208072 Si / 1000 Ang^3
#
#
#
# Elastic Constant Matrix: (Units=GPa)
#
#
# Indices 1 2 3 4 5 6 
#
# 1 84.3033 21.7447 41.9603 0.0000 9.9279 0.0000
# 2 21.7447 47.7156 48.9504 0.0000 19.8706 0.0000
# 3 41.9603 48.9504 126.1199 0.0000 11.7290 0.0000
# 4 0.0000 0.0000 0.0000 22.0675 0.0000 5.3991
# 5 9.9279 19.8706 11.7290 0.0000 21.4798 0.0000
# 6 0.0000 0.0000 0.0000 5.3991 0.0000 26.0480
#
#
#
# Elastic Compliance Matrix: (Units=1/GPa)
#
#
# Indices 1 2 3 4 5 6 
#
# 1 0.014596 -0.000790 -0.004203 0.000000 -0.003720 0.000000
# 2 -0.000790 0.058155 -0.018267 0.000000 -0.043458 0.000000
# 3 -0.004203 -0.018267 0.015450 0.000000 0.010405 0.000000
# 4 0.000000 0.000000 0.000000 0.047736 0.000000 -0.009895
# 5 -0.003720 -0.043458 0.010405 0.000000 0.082796 0.000000
# 6 0.000000 0.000000 0.000000 -0.009895 0.000000 0.040442
#
#
# Mechanical properties :
#
#
# Convention : Reuss Voigt Hill
#
# Bulk Modulus (GPa) = 23.99275 53.71662 38.85468
# Shear Modulus (GPa) = 15.64511 23.61794 19.63152
#
# Velocity S-wave (km/s) = 2.93446 3.60545 3.28712
# Velocity P-wave (km/s) = 4.96860 6.84821 5.98268
#
# Compressibility (1/GPa) = 0.04167926
#
# Stress axis : x y z
#
# Youngs Moduli (GPa) = 68.51182 17.19543 64.72626
#
# Poissons Ratio (x) = 0.01359 0.27207
# Poissons Ratio (y) = 0.05415 1.18235
# Poissons Ratio (z) = 0.28798 0.31411
#
# Static dielectric constant tensor:
#      x y z
#    x 3.343470 0.000000 0.151860 
#    y 0.000000 3.403930 0.000000 
#    z 0.151860 0.000000 3.275020 
# 
# 
# High freq. dielectric constant tensor:
#      x y z
#    x 1.694290 0.000000 0.012140 
#    y 0.000000 1.709260 0.000000 
#    z 0.012140 0.000000 1.687360 
# 
# From -- ./inp_files/167226.got.cif
#   From: 2010.06.25/outbox.cif.g09.slc.cpg/sg12_84_cif.got.tgz:167226.got - 2010.06.28 00:19:55.
