data_PCOD8097997
_publ_section_title
;
Structure prediction by ZEFSAII (Michael W. Deem and Ramdas Pophale) SiO2 
 PCOD8097997
Probable space group: C 2/M
;
_chemical_formula_sum "Si O2"
_cell_formula_units_Z 56
_cell_length_a 20.502483
_cell_length_b 24.572214
_cell_length_c 9.258002
_cell_angle_alpha 90.000000
_cell_angle_beta 39.828542
_cell_angle_gamma 90.000000
_cell_volume 2987.321477
_symmetry_space_group_name_H-M "C 2/M"
_symmetry_group_IT_number 12
_symmetry_cell_setting 'monoclinic'
loop_
_space_group_symop_operation_xyz
x,y,z
-x,y,-z
-x,-y,-z
x,-y,z
1/2+x,1/2+y,z
1/2-x,1/2+y,-z
1/2-x,1/2-y,-z
1/2+x,1/2-y,z
loop_
_atom_site_type_symbol
_atom_site_label
_atom_site_fract_x
_atom_site_fract_y
_atom_site_fract_z
Si Si1 0.709506 0.673130 0.432316
Si Si2 0.819597 0.333268 0.539685
Si Si3 0.953356 0.938549 0.724528
Si Si4 0.142870 0.059508 0.593917
Si Si5 0.021539 0.749791 0.793135
Si Si6 0.199855 0.753813 0.931477
Si Si7 0.781763 0.937658 0.221748
O O1 0.770215 0.684992 0.473955
O O2 0.704708 0.608239 0.412632
O O3 0.598015 0.700389 0.631742
O O4 0.774229 0.697771 0.193064
O O5 0.932898 0.307934 0.342866
O O6 0.749631 0.306575 0.778598
O O7 0.815710 0.398172 0.581560
O O8 0.000000 0.908674 0.500000
O O9 0.028218 0.936279 0.733151
O O10 0.930518 0.000000 0.715302
O O11 0.845897 0.916348 0.972133
O O12 0.144142 0.066634 0.764777
O O13 0.189283 0.000000 0.472445
O O14 0.000000 0.746222 0.000000
O O15 0.922001 0.761280 0.865672
O O16 0.250000 0.750000 0.000000
O O17 0.743449 0.000000 0.266634
#
# Coordination Sequence:
#
# PCOD8097997 Si02
#       7
#     8   8   8   8   8   8   8
#     4  10  20  34  55  82 107 147 185 217 276 338
#     4  10  20  35  57  82 108 146 186 219 275 338
#     4   9  17  28  43  68 104 144 180 215 267 324
#     4   9  18  31  48  73 107 143 181 220 263 324
#     4  11  19  36  61  78 105 149 181 228 278 326
#     4  11  23  37  55  84 112 135 185 235 276 326
#     4   9  18  32  52  76 107 142 182 229 266 317
#
# _framework density 18.745889999999999
#
# number of rings (size 3 to 8) (size 9 to 14) (size 15 to 20)
#    0.000    2.143    2.857    1.286    2.000    5.143 
#    0.000    0.000    0.000    1.286    0.000    1.000 
#    0.000    0.000    0.000    0.000    0.000    0.000 
#
# Total GULP energy -346874.227519 kJ/mol
# GULP energy per Si atom -12388.365269 kJ/mol
# Density = 1.870322 g / cm^3
# Si number density = 18.745890 Si / 1000 Ang^3
#
#
#
# Elastic Constant Matrix: (Units=GPa)
#
#
# Indices 1 2 3 4 5 6 
#
# 1 84.0905 14.1394 28.0121 0.0000 0.4076 0.0000
# 2 14.1394 99.2518 28.7305 0.0000 8.7613 0.0000
# 3 28.0121 28.7305 61.8573 0.0000 -0.1338 0.0000
# 4 0.0000 0.0000 0.0000 21.4560 0.0000 -6.2375
# 5 0.4076 8.7613 -0.1338 0.0000 26.4549 0.0000
# 6 0.0000 0.0000 0.0000 -6.2375 0.0000 -1.9402
#
#
#
# Elastic Compliance Matrix: (Units=1/GPa)
#
#
# Indices 1 2 3 4 5 6 
#
# 1 0.014008 -0.000164 -0.006268 0.000000 -0.000193 0.000000
# 2 -0.000164 0.012055 -0.005534 0.000000 -0.004018 0.000000
# 3 -0.006268 -0.005534 0.021579 0.000000 0.002038 0.000000
# 4 0.000000 0.000000 0.000000 0.024091 0.000000 -0.077449
# 5 -0.000193 -0.004018 0.002038 0.000000 0.039144 0.000000
# 6 0.000000 0.000000 0.000000 -0.077449 0.000000 -0.266413
#
#
# Mechanical properties :
#
#
# Convention : Reuss Voigt Hill
#
# Bulk Modulus (GPa) = 42.17343 42.99592 42.58468
# Shear Modulus (GPa) = -40.42065 20.81532 -9.80267
#
# Velocity S-wave (km/s) = -4.64857 3.33587 -2.28923
# Velocity P-wave (km/s) = 2.50320 6.15007 3.97224
#
# Compressibility (1/GPa) = 0.02371161
#
# Stress axis : x y z
#
# Youngs Moduli (GPa) = 71.38556 82.95138 46.34093
#
# Poissons Ratio (x) = 0.01362 0.29046
# Poissons Ratio (y) = 0.01172 0.25643
# Poissons Ratio (z) = 0.44743 0.45902
#
# Static dielectric constant tensor:
#      x y z
#    x 3.305430 0.000000 0.093340 
#    y 0.000000 3.596380 0.000000 
#    z 0.093340 0.000000 3.355780 
# 
# 
# High freq. dielectric constant tensor:
#      x y z
#    x 1.708400 0.000000 0.018160 
#    y 0.000000 1.728090 0.000000 
#    z 0.018160 0.000000 1.706560 
# 
# From -- ./inp_files/80029.got.cif
#   From: 2010.06.25/outbox.cif.g09.slc.cpg/sg12_41_cif.got.tgz:80029.got - 2010.06.28 00:19:55.
