data_PCOD8097214
_publ_section_title
;
Structure prediction by ZEFSAII (Michael W. Deem and Ramdas Pophale) SiO2 
 PCOD8097214
Probable space group: C 2/M
;
_chemical_formula_sum "Si O2"
_cell_formula_units_Z 56
_cell_length_a 17.882204
_cell_length_b 9.279081
_cell_length_c 19.862511
_cell_angle_alpha 90.000000
_cell_angle_beta 63.694517
_cell_angle_gamma 90.000000
_cell_volume 2954.495541
_symmetry_space_group_name_H-M "C 2/M"
_symmetry_group_IT_number 12
_symmetry_cell_setting 'monoclinic'
loop_
_space_group_symop_operation_xyz
x,y,z
-x,y,-z
-x,-y,-z
x,-y,z
1/2+x,1/2+y,z
1/2-x,1/2+y,-z
1/2-x,1/2-y,-z
1/2+x,1/2-y,z
loop_
_atom_site_type_symbol
_atom_site_label
_atom_site_fract_x
_atom_site_fract_y
_atom_site_fract_z
Si Si1 0.622221 0.667824 0.065011
Si Si2 0.344854 0.832268 0.638493
Si Si3 0.505229 0.829019 0.653407
Si Si4 0.796615 0.333998 0.231194
Si Si5 0.786237 0.332739 0.082475
Si Si6 0.514637 0.833306 0.802329
Si Si7 0.332776 0.168074 0.487586
O O1 0.607223 0.500000 0.058257
O O2 0.694359 0.696795 0.090592
O O3 0.537894 0.738177 0.125299
O O4 0.645633 0.740669 0.984960
O O5 0.425712 0.768309 0.644480
O O6 0.262209 0.754678 0.696468
O O7 0.356380 0.802902 0.555266
O O8 0.334487 0.000000 0.658640
O O9 0.497887 0.778237 0.733363
O O10 0.590781 0.769380 0.587068
O O11 0.507647 0.000000 0.646713
O O12 0.770312 0.500000 0.246416
O O13 0.787248 0.278560 0.158622
O O14 0.889553 0.308814 0.219187
O O15 0.811411 0.500000 0.066434
O O16 0.488749 0.000000 0.820915
O O17 0.250000 0.250000 0.500000
O O18 0.317858 0.000000 0.479434
#
# Coordination Sequence:
#
# PCOD8097214 Si02
#       7
#     8   8   8   8   8   8   8
#     4  10  20  34  54  78 103 133 171 217 261 301
#     4  10  20  34  55  80 104 135 175 217 258 301
#     4   9  18  34  55  77 103 138 177 212 252 307
#     4  10  21  36  54  77 106 139 172 210 259 311
#     4   9  19  36  55  75 102 137 174 210 254 310
#     4  10  20  34  53  75 102 138 174 209 255 312
#     4  10  20  35  55  79 108 139 173 214 258 305
#
# _framework density 18.954166000000001
#
# number of rings (size 3 to 8) (size 9 to 14) (size 15 to 20)
#    0.000    2.286    0.000    2.571    0.000    5.714 
#    0.000    4.286    0.000    1.714    0.000    0.000 
#    0.000    0.000    0.000    0.000    0.000    0.000 
#
# Total GULP energy -347313.129305 kJ/mol
# GULP energy per Si atom -12404.040332 kJ/mol
# Density = 1.891102 g / cm^3
# Si number density = 18.954166 Si / 1000 Ang^3
#
#
#
# Elastic Constant Matrix: (Units=GPa)
#
#
# Indices 1 2 3 4 5 6 
#
# 1 60.1115 21.7652 10.1139 0.0000 -7.0460 0.0001
# 2 21.7652 53.3960 37.5656 0.0000 -12.1689 0.0003
# 3 10.1139 37.5656 83.9502 0.0000 -22.4007 0.0000
# 4 0.0000 0.0000 0.0000 29.7645 0.0000 -3.4657
# 5 -7.0460 -12.1689 -22.4007 0.0000 31.0655 0.0000
# 6 0.0001 0.0003 0.0000 -3.4657 0.0000 25.7001
#
#
#
# Elastic Compliance Matrix: (Units=1/GPa)
#
#
# Indices 1 2 3 4 5 6 
#
# 1 0.019871 -0.009208 0.002435 0.000000 0.002656 0.000000
# 2 -0.009208 0.031737 -0.012794 0.000000 0.001118 0.000000
# 3 0.002435 -0.012794 0.020002 0.000000 0.009964 0.000000
# 4 0.000000 0.000000 0.000000 0.034133 0.000000 0.004603
# 5 0.002656 0.001118 0.009964 0.000000 0.040415 0.000000
# 6 0.000000 0.000000 0.000000 0.004603 0.000000 0.039531
#
#
# Mechanical properties :
#
#
# Convention : Reuss Voigt Hill
#
# Bulk Modulus (GPa) = 30.79090 37.37192 34.08141
# Shear Modulus (GPa) = 21.21809 25.84023 23.52916
#
# Velocity S-wave (km/s) = 3.34944 3.69630 3.52713
# Velocity P-wave (km/s) = 5.58914 6.16252 5.88282
#
# Compressibility (1/GPa) = 0.03247713
#
# Stress axis : x y z
#
# Youngs Moduli (GPa) = 50.32382 31.50919 49.99495
#
# Poissons Ratio (x) = 0.29012 -0.12173
# Poissons Ratio (y) = 0.46336 0.63962
# Poissons Ratio (z) = -0.12253 0.40312
#
# Static dielectric constant tensor:
#      x y z
#    x 3.568820 0.000000 0.083550 
#    y 0.000000 3.282730 0.000000 
#    z 0.083550 0.000000 3.568090 
# 
# 
# High freq. dielectric constant tensor:
#      x y z
#    x 1.744680 0.000000 0.002170 
#    y 0.000000 1.713800 0.000000 
#    z 0.002170 0.000000 1.750380 
# 
# From -- ./inp_files/313718.got.cif
#   From: 2010.06.25/outbox.cif.g09.slc.cpg/sg12_157_cif.got.tgz:313718.got - 2010.06.28 00:19:55.
