data_PCOD8097698
_publ_section_title
;
Structure prediction by ZEFSAII (Michael W. Deem and Ramdas Pophale) SiO2 
 PCOD8097698
Probable space group: C 2/M
;
_chemical_formula_sum "Si O2"
_cell_formula_units_Z 56
_cell_length_a 18.001612
_cell_length_b 8.959896
_cell_length_c 20.134348
_cell_angle_alpha 90.000000
_cell_angle_beta 63.218320
_cell_angle_gamma 90.000000
_cell_volume 2899.159009
_symmetry_space_group_name_H-M "C 2/M"
_symmetry_group_IT_number 12
_symmetry_cell_setting 'monoclinic'
loop_
_space_group_symop_operation_xyz
x,y,z
-x,y,-z
-x,-y,-z
x,-y,z
1/2+x,1/2+y,z
1/2-x,1/2+y,-z
1/2-x,1/2-y,-z
1/2+x,1/2-y,z
loop_
_atom_site_type_symbol
_atom_site_label
_atom_site_fract_x
_atom_site_fract_y
_atom_site_fract_z
Si Si1 0.029054 0.322935 0.282755
Si Si2 0.873060 0.674642 0.429197
Si Si3 0.206291 0.825794 0.419641
Si Si4 0.355313 0.323782 0.132338
Si Si5 0.197310 0.323492 0.281607
Si Si6 0.673390 0.171778 0.995928
Si Si7 0.494549 0.827946 0.856241
O O1 0.029496 0.500000 0.279787
O O2 0.117815 0.263884 0.272567
O O3 0.011386 0.263278 0.215954
O O4 0.957107 0.265977 0.361127
O O5 0.877121 0.500000 0.443771
O O6 0.862704 0.761521 0.502372
O O7 0.797883 0.711896 0.409724
O O8 0.195749 0.749531 0.353694
O O9 0.191337 0.000000 0.417778
O O10 0.355603 0.500000 0.121832
O O11 0.279470 0.272516 0.209587
O O12 0.441090 0.273229 0.130212
O O13 0.346510 0.247955 0.065247
O O14 0.193896 0.500000 0.292192
O O15 0.595159 0.188558 0.075319
O O16 0.695572 0.000000 0.974409
O O17 0.750000 0.250000 0.000000
O O18 0.524762 0.000000 0.845489
#
# Coordination Sequence:
#
# PCOD8097698 Si02
#       7
#     8   8   8   8   8   8   8
#     4   9  18  35  58  79 103 141 187 228 269 328
#     4   9  18  34  56  78 102 139 183 223 268 327
#     4  10  20  34  54  80 109 140 177 226 278 328
#     4  11  23  38  58  85 116 149 188 234 281 332
#     4  10  21  37  56  79 109 145 184 227 276 329
#     4  11  23  39  61  87 117 152 188 231 281 332
#     4  10  21  39  61  84 112 148 190 232 277 331
#
# _framework density 19.315947000000001
#
# number of rings (size 3 to 8) (size 9 to 14) (size 15 to 20)
#    0.000    2.000    0.000    3.429    0.000    8.571 
#    0.000    5.000    0.000    0.000    0.000    0.000 
#    0.000    0.000    0.000    0.000    0.000    0.000 
#
# Total GULP energy -347311.238593 kJ/mol
# GULP energy per Si atom -12403.972807 kJ/mol
# Density = 1.927198 g / cm^3
# Si number density = 19.315947 Si / 1000 Ang^3
#
#
#
# Elastic Constant Matrix: (Units=GPa)
#
#
# Indices 1 2 3 4 5 6 
#
# 1 -530.6015 -286.0614 -643.9306 0.0000 -369.6025 0.0007
# 2 -286.0614 -114.2737 -312.0468 -0.0001 -187.7813 0.0003
# 3 -643.9306 -312.0468 -623.9785 0.0000 -391.9679 0.0006
# 4 0.0000 -0.0001 0.0000 29.7214 0.0000 1.4406
# 5 -369.6025 -187.7813 -391.9679 0.0000 -180.8649 0.0003
# 6 0.0007 0.0003 0.0006 1.4406 0.0003 27.3804
#
#
#
# Elastic Compliance Matrix: (Units=1/GPa)
#
#
# Indices 1 2 3 4 5 6 
#
# 1 0.011010 -0.008530 -0.004079 0.000000 -0.004803 0.000000
# 2 -0.008530 0.031155 -0.007172 0.000000 0.000627 0.000000
# 3 -0.004079 -0.007172 0.010294 0.000000 -0.006529 0.000000
# 4 0.000000 0.000000 0.000000 0.033732 0.000000 -0.001775
# 5 -0.004803 0.000627 -0.006529 0.000000 0.017786 0.000000
# 6 0.000000 0.000000 0.000000 -0.001775 0.000000 0.036616
#
#
# Mechanical properties :
#
#
# Convention : Reuss Voigt Hill
#
# Bulk Modulus (GPa) = 77.52897 -416.99236 -169.73169
# Shear Modulus (GPa) = 27.10736 -26.54028 0.28354
#
# Velocity S-wave (km/s) = 3.75022 -3.71078 0.38355
# Velocity P-wave (km/s) = 7.67962 15.32020 9.37368
#
# Compressibility (1/GPa) = 0.01289840
#
# Stress axis : x y z
#
# Youngs Moduli (GPa) = 90.82986 32.09786 97.14036
#
# Poissons Ratio (x) = 0.27379 0.39619
# Poissons Ratio (y) = 0.77477 0.69666
# Poissons Ratio (z) = 0.37045 0.23020
#
# Static dielectric constant tensor:
#      x y z
#    x 3.586120 0.000000 -0.137610 
#    y 0.000000 3.431320 0.000000 
#    z -0.137610 0.000000 3.738890 
# 
# 
# High freq. dielectric constant tensor:
#      x y z
#    x 1.760020 0.000000 -0.000500 
#    y 0.000000 1.737870 0.000000 
#    z -0.000500 0.000000 1.770700 
# 
# From -- ./inp_files/274995.got.cif
#   From: 2010.06.25/outbox.cif.g09.slc.cpg/sg12_138_cif.got.tgz:274995.got - 2010.06.28 00:19:55.
