data_PCOD8097789
_publ_section_title
;
Structure prediction by ZEFSAII (Michael W. Deem and Ramdas Pophale) SiO2 
 PCOD8097789
Probable space group: C 2/M
;
_chemical_formula_sum "Si O2"
_cell_formula_units_Z 56
_cell_length_a 14.305940
_cell_length_b 8.808100
_cell_length_c 23.502519
_cell_angle_alpha 90.000000
_cell_angle_beta 104.055282
_cell_angle_gamma 90.000000
_cell_volume 2872.846860
_symmetry_space_group_name_H-M "C 2/M"
_symmetry_group_IT_number 12
_symmetry_cell_setting 'monoclinic'
loop_
_space_group_symop_operation_xyz
x,y,z
-x,y,-z
-x,-y,-z
x,-y,z
1/2+x,1/2+y,z
1/2-x,1/2+y,-z
1/2-x,1/2-y,-z
1/2+x,1/2-y,z
loop_
_atom_site_type_symbol
_atom_site_label
_atom_site_fract_x
_atom_site_fract_y
_atom_site_fract_z
Si Si1 0.964125 0.323226 0.646365
Si Si2 0.546146 0.677942 0.133466
Si Si3 0.357303 0.176931 0.745764
Si Si4 0.210266 0.823618 0.437641
Si Si5 0.858617 0.323941 0.080093
Si Si6 0.161176 0.323240 0.053927
Si Si7 0.182976 0.677652 0.661392
O O1 0.954906 0.500000 0.631404
O O2 0.930762 0.286178 0.705445
O O3 0.896107 0.237929 0.591704
O O4 0.073470 0.267168 0.653982
O O5 0.555538 0.500000 0.124090
O O6 0.610978 0.724248 0.196138
O O7 0.435565 0.726344 0.127357
O O8 0.575495 0.770888 0.081697
O O9 0.249231 0.226483 0.713958
O O10 0.358202 0.000000 0.761867
O O11 0.250000 0.750000 0.500000
O O12 0.284969 0.786064 0.398175
O O13 0.200567 0.000000 0.446885
O O14 0.873717 0.500000 0.096333
O O15 0.754136 0.273118 0.086022
O O16 0.869579 0.287677 0.014939
O O17 0.183717 0.500000 0.065315
O O18 0.194792 0.500000 0.677292
#
# Coordination Sequence:
#
# PCOD8097789 Si02
#       7
#     8   8   8   8   8   8   8
#     4   9  19  37  59  79 104 141 181 221 269 321
#     4  12  24  37  56  81 112 149 187 228 275 330
#     4  10  21  37  56  79 107 138 179 231 277 323
#     4  10  20  34  54  81 114 145 178 221 264 315
#     4  10  21  38  59  83 112 144 180 226 280 337
#     4  10  21  38  59  83 111 143 182 228 278 334
#     4   9  19  37  58  79 106 143 182 221 271 327
#
# _framework density 19.492858999999999
#
# number of rings (size 3 to 8) (size 9 to 14) (size 15 to 20)
#    0.000    2.000    0.000    3.429    0.000    6.857 
#    0.000    7.143    0.000    0.000    0.000    0.000 
#    0.000    0.000    0.000    0.000    0.000    0.000 
#
# Total GULP energy -347335.826341 kJ/mol
# GULP energy per Si atom -12404.850941 kJ/mol
# Density = 1.944849 g / cm^3
# Si number density = 19.492859 Si / 1000 Ang^3
#
#
#
# Elastic Constant Matrix: (Units=GPa)
#
#
# Indices 1 2 3 4 5 6 
#
# 1 119.7969 31.5140 31.6664 0.0000 20.1698 0.0000
# 2 31.5140 74.8241 44.8225 0.0000 10.1241 0.0000
# 3 31.6664 44.8225 60.9822 0.0000 19.1020 0.0000
# 4 0.0000 0.0000 0.0000 35.5416 0.0000 5.3717
# 5 20.1698 10.1241 19.1020 0.0000 21.2438 0.0000
# 6 0.0000 0.0000 0.0000 5.3717 0.0000 35.0351
#
#
#
# Elastic Compliance Matrix: (Units=1/GPa)
#
#
# Indices 1 2 3 4 5 6 
#
# 1 0.010686 -0.002842 -0.000983 0.000000 -0.007907 0.000000
# 2 -0.002842 0.025221 -0.019687 0.000000 0.008381 0.000000
# 3 -0.000983 -0.019687 0.039185 0.000000 -0.024918 0.000000
# 4 0.000000 0.000000 0.000000 0.028804 0.000000 -0.004416
# 5 -0.007907 0.008381 -0.024918 0.000000 0.072992 0.000000
# 6 0.000000 0.000000 0.000000 -0.004416 0.000000 0.029220
#
#
# Mechanical properties :
#
#
# Convention : Reuss Voigt Hill
#
# Bulk Modulus (GPa) = 35.62929 52.40102 44.01515
# Shear Modulus (GPa) = 19.04848 28.20411 23.62630
#
# Velocity S-wave (km/s) = 3.12942 3.80793 3.48523
# Velocity P-wave (km/s) = 5.60138 6.80252 6.23096
#
# Compressibility (1/GPa) = 0.02806680
#
# Stress axis : x y z
#
# Youngs Moduli (GPa) = 93.57742 39.64941 25.52025
#
# Poissons Ratio (x) = 0.11267 0.02510
# Poissons Ratio (y) = 0.26592 0.50243
# Poissons Ratio (z) = 0.09203 0.78059
#
# Static dielectric constant tensor:
#      x y z
#    x 3.663920 0.000000 0.044530 
#    y 0.000000 3.552130 0.000000 
#    z 0.044530 0.000000 3.442890 
# 
# 
# High freq. dielectric constant tensor:
#      x y z
#    x 1.765120 0.000000 0.009180 
#    y 0.000000 1.765650 0.000000 
#    z 0.009180 0.000000 1.752830 
# 
# From -- ./inp_files/338193.got.cif
#   From: 2010.06.25/outbox.cif.g09.slc.cpg/sg12_170_cif.got.tgz:338193.got - 2010.06.28 00:19:55.
