data_PCOD8097416
_publ_section_title
;
Structure prediction by ZEFSAII (Michael W. Deem and Ramdas Pophale) SiO2 
 PCOD8097416
Probable space group: C 2/M
;
_chemical_formula_sum "Si O2"
_cell_formula_units_Z 56
_cell_length_a 24.789378
_cell_length_b 8.866007
_cell_length_c 16.397610
_cell_angle_alpha 90.000000
_cell_angle_beta 124.466171
_cell_angle_gamma 90.000000
_cell_volume 2971.283481
_symmetry_space_group_name_H-M "C 2/M"
_symmetry_group_IT_number 12
_symmetry_cell_setting 'monoclinic'
loop_
_space_group_symop_operation_xyz
x,y,z
-x,y,-z
-x,-y,-z
x,-y,z
1/2+x,1/2+y,z
1/2-x,1/2+y,-z
1/2-x,1/2-y,-z
1/2+x,1/2-y,z
loop_
_atom_site_type_symbol
_atom_site_label
_atom_site_fract_x
_atom_site_fract_y
_atom_site_fract_z
Si Si1 0.245351 0.676979 0.871732
Si Si2 0.978105 0.827388 0.569158
Si Si3 0.982992 0.676302 0.237295
Si Si4 0.724469 0.678506 0.285177
Si Si5 0.330624 0.326032 0.489844
Si Si6 0.126679 0.678222 0.311307
Si Si7 0.148764 0.176837 0.905721
O O1 0.232261 0.500000 0.864688
O O2 0.258416 0.732248 0.791296
O O3 0.180543 0.757835 0.850225
O O4 0.307849 0.723749 0.979396
O O5 0.900621 0.809908 0.507647
O O6 0.000000 0.767600 0.500000
O O7 0.014531 0.725534 0.666525
O O8 0.999951 0.000000 0.601899
O O9 0.971087 0.500000 0.222734
O O10 0.923308 0.757234 0.140777
O O11 0.050350 0.723791 0.250149
O O12 0.715442 0.500000 0.281901
O O13 0.781333 0.730788 0.393662
O O14 0.656316 0.758527 0.252389
O O15 0.308015 0.500000 0.475856
O O16 0.332224 0.256496 0.581407
O O17 0.135650 0.500000 0.326114
O O18 0.143219 0.000000 0.890853
#
# Coordination Sequence:
#
# PCOD8097416 Si02
#       7
#     8   8   8   8   8   8   8
#     4   9  21  39  57  83 112 141 179 225 274 326
#     4   9  19  34  51  77 110 142 181 224 263 317
#     4  10  21  36  56  80 108 144 181 221 273 326
#     4  11  22  36  56  80 110 143 182 228 272 320
#     4  10  20  34  53  78 111 147 183 222 268 319
#     4  10  21  38  56  78 109 146 187 225 267 321
#     4  10  20  37  61  83 109 143 180 222 273 329
#
# _framework density 18.847073000000002
#
# number of rings (size 3 to 8) (size 9 to 14) (size 15 to 20)
#    0.000    2.143    0.000    2.571    2.000    4.286 
#    0.000    0.714    0.000    4.286    0.000    0.000 
#    0.000    0.000    0.000    0.000    0.000    0.000 
#
# Total GULP energy -347310.619055 kJ/mol
# GULP energy per Si atom -12403.950681 kJ/mol
# Density = 1.880418 g / cm^3
# Si number density = 18.847073 Si / 1000 Ang^3
#
#
#
# Elastic Constant Matrix: (Units=GPa)
#
#
# Indices 1 2 3 4 5 6 
#
# 1 97.4418 37.4525 57.9846 0.0000 -3.1164 0.0000
# 2 37.4525 53.9056 24.0374 0.0000 0.0587 0.0000
# 3 57.9846 24.0374 67.7403 0.0000 4.7011 0.0000
# 4 0.0000 0.0000 0.0000 30.0928 0.0000 2.6011
# 5 -3.1164 0.0587 4.7011 0.0000 31.8648 0.0000
# 6 0.0000 0.0000 0.0000 2.6011 0.0000 34.1431
#
#
#
# Elastic Compliance Matrix: (Units=1/GPa)
#
#
# Indices 1 2 3 4 5 6 
#
# 1 0.024893 -0.009075 -0.018447 0.000000 0.005173 0.000000
# 2 -0.009075 0.025387 -0.001187 0.000000 -0.000759 0.000000
# 3 -0.018447 -0.001187 0.031421 0.000000 -0.006438 0.000000
# 4 0.000000 0.000000 0.000000 0.033451 0.000000 -0.002548
# 5 0.005173 -0.000759 -0.006438 0.000000 0.032840 0.000000
# 6 0.000000 0.000000 0.000000 -0.002548 0.000000 0.029483
#
#
# Mechanical properties :
#
#
# Convention : Reuss Voigt Hill
#
# Bulk Modulus (GPa) = 41.18384 50.89298 46.03841
# Shear Modulus (GPa) = 20.57726 25.86102 23.21914
#
# Velocity S-wave (km/s) = 3.30783 3.70827 3.51376
# Velocity P-wave (km/s) = 6.04053 6.73771 6.39862
#
# Compressibility (1/GPa) = 0.02428137
#
# Stress axis : x y z
#
# Youngs Moduli (GPa) = 40.17135 39.39100 31.82617
#
# Poissons Ratio (x) = 0.35748 0.58710
# Poissons Ratio (y) = 0.36456 0.03779
# Poissons Ratio (z) = 0.74104 0.04677
#
# Static dielectric constant tensor:
#      x y z
#    x 3.684470 0.000000 -0.019550 
#    y 0.000000 3.477040 0.000000 
#    z -0.019550 0.000000 3.367110 
# 
# 
# High freq. dielectric constant tensor:
#      x y z
#    x 1.743560 0.000000 0.004210 
#    y 0.000000 1.740110 0.000000 
#    z 0.004210 0.000000 1.716400 
# 
# From -- ./inp_files/238334.got.cif
#   From: 2010.06.25/outbox.cif.g09.slc.cpg/sg12_120_cif.got.tgz:238334.got - 2010.06.28 00:19:55.
