data_PCOD8097947
_publ_section_title
;
Structure prediction by ZEFSAII (Michael W. Deem and Ramdas Pophale) SiO2 
 PCOD8097947
Probable space group: C 2/M
;
_chemical_formula_sum "Si O2"
_cell_formula_units_Z 56
_cell_length_a 28.342814
_cell_length_b 9.087614
_cell_length_c 19.240044
_cell_angle_alpha 90.000000
_cell_angle_beta 35.532836
_cell_angle_gamma 90.000000
_cell_volume 2880.060821
_symmetry_space_group_name_H-M "C 2/M"
_symmetry_group_IT_number 12
_symmetry_cell_setting 'monoclinic'
loop_
_space_group_symop_operation_xyz
x,y,z
-x,y,-z
-x,-y,-z
x,-y,z
1/2+x,1/2+y,z
1/2-x,1/2+y,-z
1/2-x,1/2-y,-z
1/2+x,1/2-y,z
loop_
_atom_site_type_symbol
_atom_site_label
_atom_site_fract_x
_atom_site_fract_y
_atom_site_fract_z
Si Si1 0.467476 0.173788 0.113595
Si Si2 0.881773 0.175612 0.453057
Si Si3 0.749130 0.169020 0.806252
Si Si4 0.574078 0.330930 0.451237
Si Si5 0.803635 0.828717 0.993930
Si Si6 0.482562 0.328410 0.812771
Si Si7 0.789500 0.674465 0.300908
O O1 0.521630 0.246763 0.108368
O O2 0.373757 0.227090 0.233989
O O3 0.475868 0.000000 0.111065
O O4 0.500000 0.226280 0.000000
O O5 0.914018 0.241411 0.487347
O O6 0.787279 0.228871 0.560074
O O7 0.939784 0.236090 0.322576
O O8 0.885341 0.000000 0.449619
O O9 0.846213 0.182027 0.691321
O O10 0.715971 0.271795 0.906113
O O11 0.715983 0.230193 0.772236
O O12 0.721939 0.000000 0.851674
O O13 0.500000 0.250996 0.500000
O O14 0.551025 0.500000 0.491884
O O15 0.783066 0.000000 0.013965
O O16 0.750000 0.750000 0.000000
O O17 0.900192 0.800153 0.867432
O O18 0.493445 0.500000 0.814988
O O19 0.785705 0.500000 0.300208
#
# Coordination Sequence:
#
# PCOD8097947 Si02
#       7
#     8   8   8   8   8   8   8
#     4  10  20  34  55  80 108 141 177 215 259 316
#     4   8  15  29  48  74 108 137 170 218 261 303
#     4   9  17  32  55  80 104 133 174 220 263 309
#     4   8  14  24  48  80 102 129 173 219 256 300
#     4  11  24  38  53  75 104 140 178 219 269 322
#     4  10  22  37  54  78 107 137 175 224 268 309
#     4   8  15  30  53  81 107 137 175 214 258 311
#
# _framework density 19.444033000000001
#
# number of rings (size 3 to 8) (size 9 to 14) (size 15 to 20)
#    0.000    2.857    0.000    3.000    2.000    3.143 
#    0.000    0.714    0.000    3.857    0.000    0.000 
#    0.000    0.000    0.000    0.000    0.000    0.000 
#
# Total GULP energy -347016.118086 kJ/mol
# GULP energy per Si atom -12393.432789 kJ/mol
# Density = 1.939978 g / cm^3
# Si number density = 19.444033 Si / 1000 Ang^3
#
#
#
# Elastic Constant Matrix: (Units=GPa)
#
#
# Indices 1 2 3 4 5 6 
#
# 1 100.1223 31.8232 44.8945 -0.0052 -11.4832 0.0002
# 2 31.8232 43.1642 33.7395 -0.0095 -0.4083 0.0029
# 3 44.8945 33.7395 113.0485 -0.0165 1.7478 0.0089
# 4 -0.0052 -0.0095 -0.0165 19.5951 0.0072 2.0235
# 5 -11.4832 -0.4083 1.7478 0.0072 28.3313 -0.0037
# 6 0.0002 0.0029 0.0089 2.0235 -0.0037 22.4339
#
#
#
# Elastic Compliance Matrix: (Units=1/GPa)
#
#
# Indices 1 2 3 4 5 6 
#
# 1 0.014875 -0.008109 -0.003582 -0.000006 0.006133 0.000004
# 2 -0.008109 0.034665 -0.007089 0.000010 -0.002350 -0.000003
# 3 -0.003582 -0.007089 0.012420 0.000007 -0.002320 -0.000005
# 4 -0.000006 0.000010 0.000007 0.051513 -0.000016 -0.004646
# 5 0.006133 -0.002350 -0.002320 -0.000016 0.037892 0.000009
# 6 0.000004 -0.000003 -0.000005 -0.004646 0.000009 0.044995
#
#
# Mechanical properties :
#
#
# Convention : Reuss Voigt Hill
#
# Bulk Modulus (GPa) = 40.98424 53.02771 47.00598
# Shear Modulus (GPa) = 20.65680 23.79723 22.22701
#
# Velocity S-wave (km/s) = 3.26294 3.50220 3.38469
# Velocity P-wave (km/s) = 5.94302 6.60947 6.28508
#
# Compressibility (1/GPa) = 0.02439962
#
# Stress axis : x y z
#
# Youngs Moduli (GPa) = 67.22883 28.84785 80.51607
#
# Poissons Ratio (x) = 0.23392 0.28840
# Poissons Ratio (y) = 0.54513 0.57080
# Poissons Ratio (z) = 0.24081 0.20451
#
# Static dielectric constant tensor:
#      x y z
#    x 3.752030 -0.000010 -0.244420 
#    y -0.000010 2.991480 0.000020 
#    z -0.244420 0.000020 3.838130 
# 
# 
# High freq. dielectric constant tensor:
#      x y z
#    x 1.762920 0.000000 -0.011990 
#    y 0.000000 1.698130 0.000000 
#    z -0.011990 0.000000 1.768370 
# 
# From -- ./inp_files/292408.got.cif
#   From: 2010.06.25/outbox.cif.g09.slc.cpg/sg12_147_cif.got.tgz:292408.got - 2010.06.28 00:19:55.
