data_PCOD8097749
_publ_section_title
;
Structure prediction by ZEFSAII (Michael W. Deem and Ramdas Pophale) SiO2 
 PCOD8097749
Probable space group: C 2/M
;
_chemical_formula_sum "Si O2"
_cell_formula_units_Z 64
_cell_length_a 23.941080
_cell_length_b 9.277941
_cell_length_c 16.576421
_cell_angle_alpha 90.000000
_cell_angle_beta 110.953016
_cell_angle_gamma 90.000000
_cell_volume 3438.542442
_symmetry_space_group_name_H-M "C 2/M"
_symmetry_group_IT_number 12
_symmetry_cell_setting 'monoclinic'
loop_
_space_group_symop_operation_xyz
x,y,z
-x,y,-z
-x,-y,-z
x,-y,z
1/2+x,1/2+y,z
1/2-x,1/2+y,-z
1/2-x,1/2-y,-z
1/2+x,1/2-y,z
loop_
_atom_site_type_symbol
_atom_site_label
_atom_site_fract_x
_atom_site_fract_y
_atom_site_fract_z
Si Si1 0.108031 0.669739 0.917482
Si Si2 0.995003 0.670298 0.750401
Si Si3 0.285277 0.170862 0.138434
Si Si4 0.832080 0.328306 0.330014
Si Si5 0.965495 0.671652 0.404601
Si Si6 0.737870 0.330115 0.411431
Si Si7 0.378268 0.331048 0.748969
Si Si8 0.848669 0.830610 0.916566
O O1 0.108284 0.500000 0.932575
O O2 0.169599 0.723956 0.907566
O O3 0.052293 0.714991 0.833187
O O4 0.103672 0.749069 0.001682
O O5 0.985052 0.500000 0.747899
O O6 0.937286 0.745845 0.756440
O O7 0.004814 0.724485 0.663675
O O8 0.307442 0.237186 0.234227
O O9 0.217333 0.221603 0.089314
O O10 0.287777 0.000000 0.146038
O O11 0.832038 0.500000 0.325718
O O12 0.898518 0.267971 0.377581
O O13 0.789993 0.274526 0.379782
O O14 0.965345 0.500000 0.405501
O O15 0.000000 0.734462 0.500000
O O16 0.741690 0.500000 0.427817
O O17 0.750000 0.250000 0.500000
O O18 0.674171 0.287448 0.340026
O O19 0.391631 0.500000 0.751204
O O20 0.358939 0.286773 0.829209
O O21 0.857136 0.000000 0.932761
#
# Coordination Sequence:
#
# PCOD8097749 Si02
#       8
#     8   8   8   8   8   8   8   8
#     4  10  20  34  54  81 110 136 168 221 280 318
#     4  10  21  36  55  80 108 139 177 222 269 314
#     4   9  15  30  54  78 106 137 171 216 268 316
#     4   9  15  29  54  79 105 137 172 216 264 309
#     4   9  17  29  50  82 109 131 171 221 262 307
#     4  10  21  36  57  83 109 141 178 218 265 313
#     4  10  22  39  55  75 108 146 181 217 259 312
#     4  10  20  35  56  79 103 139 184 218 256 320
#
# _framework density 18.612538000000001
#
# number of rings (size 3 to 8) (size 9 to 14) (size 15 to 20)
#    0.000    2.375    2.500    0.375    1.750    2.000 
#    0.000    2.500    0.000    1.875    0.000    0.000 
#    0.000    0.000    0.000    0.000    0.000    0.000 
#
# Total GULP energy -396736.627104 kJ/mol
# GULP energy per Si atom -12398.019597 kJ/mol
# Density = 1.857018 g / cm^3
# Si number density = 18.612538 Si / 1000 Ang^3
#
#
#
# Elastic Constant Matrix: (Units=GPa)
#
#
# Indices 1 2 3 4 5 6 
#
# 1 135.8839 37.3098 62.4974 0.0000 4.2323 0.0000
# 2 37.3098 25.3563 43.3955 0.0000 0.6762 0.0000
# 3 62.4974 43.3955 173.9681 0.0000 3.5832 0.0000
# 4 0.0000 0.0000 0.0000 28.5684 0.0000 -1.7683
# 5 4.2323 0.6762 3.5832 0.0000 22.1853 0.0000
# 6 0.0000 0.0000 0.0000 -1.7683 0.0000 25.8686
#
#
#
# Elastic Compliance Matrix: (Units=1/GPa)
#
#
# Indices 1 2 3 4 5 6 
#
# 1 0.012425 -0.018599 0.000214 0.000000 -0.001838 0.000000
# 2 -0.018599 0.096667 -0.017502 0.000000 0.003429 0.000000
# 3 0.000214 -0.017502 0.010061 0.000000 -0.001132 0.000000
# 4 0.000000 0.000000 0.000000 0.035152 0.000000 0.002403
# 5 -0.001838 0.003429 -0.001132 0.000000 0.045504 0.000000
# 6 0.000000 0.000000 0.000000 0.002403 0.000000 0.038821
#
#
# Mechanical properties :
#
#
# Convention : Reuss Voigt Hill
#
# Bulk Modulus (GPa) = 21.10693 69.06819 45.08756
# Shear Modulus (GPa) = 15.32810 28.12484 21.72647
#
# Velocity S-wave (km/s) = 2.87285 3.89146 3.42029
# Velocity P-wave (km/s) = 4.72960 7.57498 6.31464
#
# Compressibility (1/GPa) = 0.04737781
#
# Stress axis : x y z
#
# Youngs Moduli (GPa) = 80.48322 10.34475 99.39789
#
# Poissons Ratio (x) = 0.19240 -0.02124
# Poissons Ratio (y) = 1.49691 1.73968
# Poissons Ratio (z) = -0.01720 0.18106
#
# Static dielectric constant tensor:
#      x y z
#    x 3.555060 0.000000 0.020370 
#    y 0.000000 2.897880 0.000000 
#    z 0.020370 0.000000 3.602230 
# 
# 
# High freq. dielectric constant tensor:
#      x y z
#    x 1.730810 0.000000 0.000780 
#    y 0.000000 1.670820 0.000000 
#    z 0.000780 0.000000 1.740450 
# 
# From -- ./inp_files/232526.got.cif
#   From: 2010.06.25/outbox.cif.g09.slc.cpg/sg12_117_cif.got.tgz:232526.got - 2010.06.28 00:19:55.
