data_PCOD8097909
_publ_section_title
;
Structure prediction by ZEFSAII (Michael W. Deem and Ramdas Pophale) SiO2 
 PCOD8097909
Probable space group: C 2/M
;
_chemical_formula_sum "Si O2"
_cell_formula_units_Z 48
_cell_length_a 23.480101
_cell_length_b 8.722775
_cell_length_c 12.833457
_cell_angle_alpha 90.000000
_cell_angle_beta 89.857101
_cell_angle_gamma 90.000000
_cell_volume 2628.433174
_symmetry_space_group_name_H-M "C 2/M"
_symmetry_group_IT_number 12
_symmetry_cell_setting 'monoclinic'
loop_
_space_group_symop_operation_xyz
x,y,z
-x,y,-z
-x,-y,-z
x,-y,z
1/2+x,1/2+y,z
1/2-x,1/2+y,-z
1/2-x,1/2-y,-z
1/2+x,1/2-y,z
loop_
_atom_site_type_symbol
_atom_site_label
_atom_site_fract_x
_atom_site_fract_y
_atom_site_fract_z
Si Si1 0.065206 0.818798 0.108230
Si Si2 0.871333 0.179224 0.690112
Si Si3 0.247435 0.678586 0.613741
Si Si4 0.561930 0.317662 0.878669
Si Si5 0.434063 0.821484 0.500762
Si Si6 0.865908 0.181083 0.313801
O O1 0.111565 0.767546 0.193346
O O2 0.002451 0.756717 0.139793
O O3 0.061049 0.000000 0.102456
O O4 0.082976 0.759529 0.992744
O O5 0.805003 0.215002 0.675857
O O6 0.908738 0.280193 0.612615
O O7 0.884770 0.000000 0.671122
O O8 0.237166 0.500000 0.598942
O O9 0.250000 0.750000 0.500000
O O10 0.196667 0.747615 0.681828
O O11 0.563225 0.500000 0.871860
O O12 0.602956 0.250754 0.788860
O O13 0.500000 0.776214 0.500000
O O14 0.401949 0.722600 0.414977
O O15 0.424625 0.000000 0.477184
O O16 0.859465 0.000000 0.309099
#
# Coordination Sequence:
#
# PCOD8097909 Si02
#       6
#     8   8   8   8   8   8
#     4   8  14  29  52  79 106 132 168 218 266 312
#     4  10  20  34  55  78 101 135 180 221 261 312
#     4  11  22  36  53  75 104 143 182 223 267 310
#     4   8  15  28  51  80 107 133 167 215 268 313
#     4  11  23  35  50  76 109 139 168 214 272 321
#     4  11  21  34  54  79 105 139 180 219 262 316
#
# _framework density 18.26183
#
# number of rings (size 3 to 8) (size 9 to 14) (size 15 to 20)
#    0.000    2.167    1.667    3.500    0.000    3.333 
#    0.000    0.833    0.000    2.000    0.000    8.167 
#    0.000    0.000    0.000    0.000    0.000    0.000 
#
# Total GULP energy -297572.921398 kJ/mol
# GULP energy per Si atom -12398.871725 kJ/mol
# Density = 1.822026 g / cm^3
# Si number density = 18.261830 Si / 1000 Ang^3
#
#
#
# Elastic Constant Matrix: (Units=GPa)
#
#
# Indices 1 2 3 4 5 6 
#
# 1 130.9620 31.1058 66.6638 0.0000 9.0578 0.0000
# 2 31.1058 42.0049 15.1309 0.0000 5.8739 0.0000
# 3 66.6638 15.1309 130.9741 0.0000 13.5617 0.0000
# 4 0.0000 0.0000 0.0000 10.3436 0.0000 -6.7470
# 5 9.0578 5.8739 13.5617 0.0000 28.5097 0.0000
# 6 0.0000 0.0000 0.0000 -6.7470 0.0000 23.2920
#
#
#
# Elastic Compliance Matrix: (Units=1/GPa)
#
#
# Indices 1 2 3 4 5 6 
#
# 1 0.011988 -0.006986 -0.005311 0.000000 0.000157 0.000000
# 2 -0.006986 0.029341 0.000591 0.000000 -0.004107 0.000000
# 3 -0.005311 0.000591 0.010631 0.000000 -0.003492 0.000000
# 4 0.000000 0.000000 0.000000 0.119201 0.000000 0.034529
# 5 0.000157 -0.004107 -0.003492 0.000000 0.037533 0.000000
# 6 0.000000 0.000000 0.000000 0.034529 0.000000 0.052935
#
#
# Mechanical properties :
#
#
# Convention : Reuss Voigt Hill
#
# Bulk Modulus (GPa) = 35.02674 58.86023 46.94348
# Shear Modulus (GPa) = 16.97464 25.16509 21.06987
#
# Velocity S-wave (km/s) = 3.05210 3.71619 3.40040
# Velocity P-wave (km/s) = 5.62516 7.12142 6.41705
#
# Compressibility (1/GPa) = 0.02854962
#
# Stress axis : x y z
#
# Youngs Moduli (GPa) = 83.41985 34.08154 94.06114
#
# Poissons Ratio (x) = 0.23810 0.49953
# Poissons Ratio (y) = 0.58278 -0.05563
# Poissons Ratio (z) = 0.44302 -0.02016
#
# Static dielectric constant tensor:
#      x y z
#    x 3.464770 0.000000 -0.033690 
#    y 0.000000 3.103940 0.000000 
#    z -0.033690 0.000000 3.767370 
# 
# 
# High freq. dielectric constant tensor:
#      x y z
#    x 1.710790 0.000000 0.000670 
#    y 0.000000 1.681820 0.000000 
#    z 0.000670 0.000000 1.713100 
# 
# From -- ./inp_files/172247.got.cif
#   From: 2010.06.25/outbox.cif.g09.slc.cpg/sg12_87_cif.got.tgz:172247.got - 2010.06.28 00:19:55.
