data_PCOD8097137
_publ_section_title
;
Structure prediction by ZEFSAII (Michael W. Deem and Ramdas Pophale) SiO2 
 PCOD8097137
Probable space group: C 2/M
;
_chemical_formula_sum "Si O2"
_cell_formula_units_Z 56
_cell_length_a 22.002278
_cell_length_b 8.894481
_cell_length_c 16.609375
_cell_angle_alpha 90.000000
_cell_angle_beta 125.662025
_cell_angle_gamma 90.000000
_cell_volume 2640.881683
_symmetry_space_group_name_H-M "C 2/M"
_symmetry_group_IT_number 12
_symmetry_cell_setting 'monoclinic'
loop_
_space_group_symop_operation_xyz
x,y,z
-x,y,-z
-x,-y,-z
x,-y,z
1/2+x,1/2+y,z
1/2-x,1/2+y,-z
1/2-x,1/2-y,-z
1/2+x,1/2-y,z
loop_
_atom_site_type_symbol
_atom_site_label
_atom_site_fract_x
_atom_site_fract_y
_atom_site_fract_z
Si Si1 0.587842 0.824717 0.276221
Si Si2 0.794566 0.323168 0.960856
Si Si3 0.165071 0.171107 0.484017
Si Si4 0.807134 0.334184 0.238962
Si Si5 0.036987 0.322055 0.944637
Si Si6 0.779609 0.835905 0.667128
Si Si7 0.921512 0.830207 0.416817
O O1 0.605529 0.733141 0.372032
O O2 0.511428 0.776658 0.171681
O O3 0.653504 0.782066 0.263360
O O4 0.587277 0.000000 0.295885
O O5 0.797355 0.500000 0.977102
O O6 0.745658 0.282381 0.846284
O O7 0.750000 0.250000 0.000000
O O8 0.878905 0.260276 0.009415
O O9 0.238541 0.278358 0.553231
O O10 0.129122 0.173026 0.543982
O O11 0.187781 0.000000 0.480366
O O12 0.812484 0.500000 0.201298
O O13 0.775754 0.351601 0.303051
O O14 0.888803 0.262506 0.315218
O O15 0.040486 0.500000 0.956912
O O16 0.000000 0.257357 0.000000
O O17 0.814079 0.000000 0.674597
O O18 0.000000 0.753920 0.500000
O O19 0.933591 0.000000 0.395034
#
# Coordination Sequence:
#
# PCOD8097137 Si02
#       7
#     8   8   8   8   8   8   8
#     4  11  21  34  55  81 110 144 185 234 287 340
#     4  11  23  41  64  89 120 156 198 247 296 351
#     4  10  20  34  52  77 111 147 183 224 277 341
#     4  10  21  37  58  84 113 148 190 235 287 346
#     4   9  20  39  62  87 114 150 198 247 294 346
#     4  10  20  35  55  81 113 147 186 230 280 343
#     4   9  19  36  57  81 109 144 186 230 279 338
#
# _framework density 21.205038999999999
#
# number of rings (size 3 to 8) (size 9 to 14) (size 15 to 20)
#    0.000    2.000    0.000    3.429    0.000    4.857 
#    0.000    5.714    0.000    5.143    0.000    0.000 
#    0.000    0.000    0.000    0.000    0.000    0.000 
#
# Total GULP energy -346886.943374 kJ/mol
# GULP energy per Si atom -12388.819406 kJ/mol
# Density = 2.115677 g / cm^3
# Si number density = 21.205039 Si / 1000 Ang^3
#
#
#
# Elastic Constant Matrix: (Units=GPa)
#
#
# Indices 1 2 3 4 5 6 
#
# 1 67.5911 24.9470 41.1133 0.0000 18.7479 0.0000
# 2 24.9470 90.7276 49.5205 0.0000 6.1415 0.0000
# 3 41.1133 49.5205 147.5179 0.0000 27.5097 0.0000
# 4 0.0000 0.0000 0.0000 26.2066 0.0000 3.8127
# 5 18.7479 6.1415 27.5097 0.0000 38.5094 0.0000
# 6 0.0000 0.0000 0.0000 3.8127 0.0000 18.9504
#
#
#
# Elastic Compliance Matrix: (Units=1/GPa)
#
#
# Indices 1 2 3 4 5 6 
#
# 1 0.019823 -0.003269 -0.003144 0.000000 -0.006883 0.000000
# 2 -0.003269 0.014086 -0.004263 0.000000 0.002390 0.000000
# 3 -0.003144 -0.004263 0.010007 0.000000 -0.004938 0.000000
# 4 0.000000 0.000000 0.000000 0.039309 0.000000 -0.007909
# 5 -0.006883 0.002390 -0.004938 0.000000 0.032465 0.000000
# 6 0.000000 0.000000 0.000000 -0.007909 0.000000 0.054361
#
#
# Mechanical properties :
#
#
# Convention : Reuss Voigt Hill
#
# Bulk Modulus (GPa) = 44.31780 59.66648 51.99214
# Shear Modulus (GPa) = 25.13528 29.41700 27.27614
#
# Velocity S-wave (km/s) = 3.44662 3.72864 3.59040
# Velocity P-wave (km/s) = 6.06498 6.83637 6.46219
#
# Compressibility (1/GPa) = 0.02256430
#
# Stress axis : x y z
#
# Youngs Moduli (GPa) = 50.44699 70.99267 99.92957
#
# Poissons Ratio (x) = 0.23206 0.31415
# Poissons Ratio (y) = 0.16490 0.42603
# Poissons Ratio (z) = 0.15859 0.30266
#
# Static dielectric constant tensor:
#      x y z
#    x 3.939570 0.000000 0.048130 
#    y 0.000000 3.720590 0.000000 
#    z 0.048130 0.000000 4.233290 
# 
# 
# High freq. dielectric constant tensor:
#      x y z
#    x 1.827490 0.000000 0.000030 
#    y 0.000000 1.822540 0.000000 
#    z 0.000030 0.000000 1.841470 
# 
# From -- ./inp_files/288386.got.cif
#   From: 2010.06.25/outbox.cif.g09.slc.cpg/sg12_145_cif.got.tgz:288386.got - 2010.06.28 00:19:55.
