data_PCOD8097333
_publ_section_title
;
Structure prediction by ZEFSAII (Michael W. Deem and Ramdas Pophale) SiO2 
 PCOD8097333
Probable space group: C 2/M
;
_chemical_formula_sum "Si O2"
_cell_formula_units_Z 64
_cell_length_a 33.766384
_cell_length_b 9.112764
_cell_length_c 26.212514
_cell_angle_alpha 90.000000
_cell_angle_beta 23.825794
_cell_angle_gamma 90.000000
_cell_volume 3258.206947
_symmetry_space_group_name_H-M "C 2/M"
_symmetry_group_IT_number 12
_symmetry_cell_setting 'monoclinic'
loop_
_space_group_symop_operation_xyz
x,y,z
-x,y,-z
-x,-y,-z
x,-y,z
1/2+x,1/2+y,z
1/2-x,1/2+y,-z
1/2-x,1/2-y,-z
1/2+x,1/2-y,z
loop_
_atom_site_type_symbol
_atom_site_label
_atom_site_fract_x
_atom_site_fract_y
_atom_site_fract_z
Si Si1 0.753949 0.174376 0.603098
Si Si2 0.898409 0.662763 0.602329
Si Si3 0.340774 0.674550 0.865107
Si Si4 0.958042 0.826746 0.316909
Si Si5 0.574742 0.169176 0.749416
Si Si6 0.876557 0.668337 0.032990
Si Si7 0.774069 0.336867 0.849290
Si Si8 0.241616 0.327083 0.730631
O O1 0.862962 0.230330 0.460368
O O2 0.676007 0.233068 0.653239
O O3 0.720329 0.232096 0.698653
O O4 0.750400 0.000000 0.607245
O O5 0.917876 0.500000 0.556310
O O6 0.829921 0.648721 0.731257
O O7 0.847976 0.764239 0.619845
O O8 0.000000 0.736934 0.500000
O O9 0.327961 0.500000 0.879483
O O10 0.442897 0.721846 0.770972
O O11 0.339998 0.738453 0.809023
O O12 0.250000 0.750000 0.000000
O O13 0.957189 0.759293 0.261968
O O14 0.953985 0.000000 0.315653
O O15 0.585785 0.000000 0.720168
O O16 0.493161 0.186009 0.890151
O O17 0.843259 0.500000 0.065409
O O18 0.828872 0.759137 0.042518
O O19 0.842145 0.723387 0.130049
O O20 0.753690 0.500000 0.896501
O O21 0.251579 0.500000 0.718328
#
# Coordination Sequence:
#
# PCOD8097333 Si02
#       8
#     8   8   8   8   8   8   8   8
#     4   9  19  36  56  80 109 139 175 222 270 317
#     4   9  19  34  51  74 107 142 175 214 259 313
#     4  11  23  37  55  79 108 141 179 223 268 318
#     4  10  22  38  55  77 107 140 178 222 268 318
#     4  10  20  35  57  80 105 139 178 221 269 318
#     4   9  18  33  54  82 110 139 179 222 262 317
#     4  10  20  34  53  77 107 143 177 215 265 315
#     4   9  18  33  54  79 108 140 176 218 265 316
#
# _framework density 19.642707000000001
#
# number of rings (size 3 to 8) (size 9 to 14) (size 15 to 20)
#    0.000    2.375    0.000    1.875    1.750    4.750 
#    0.000    3.750    0.000    0.000    0.000    4.375 
#    0.000    0.000    0.000    0.000    0.000    0.000 
#
# Total GULP energy -396689.873970 kJ/mol
# GULP energy per Si atom -12396.558562 kJ/mol
# Density = 1.959800 g / cm^3
# Si number density = 19.642707 Si / 1000 Ang^3
#
#
#
# Elastic Constant Matrix: (Units=GPa)
#
#
# Indices 1 2 3 4 5 6 
#
# 1 128.3079 35.0750 53.0299 0.0021 -9.3134 0.0014
# 2 35.0750 44.3462 27.0749 0.0311 -4.2648 -0.0107
# 3 53.0299 27.0749 102.4493 0.0120 -17.3905 -0.0016
# 4 0.0021 0.0311 0.0120 22.8874 -0.0033 -1.0395
# 5 -9.3134 -4.2648 -17.3905 -0.0033 33.4303 0.0009
# 6 0.0014 -0.0107 -0.0016 -1.0395 0.0009 23.9420
#
#
#
# Elastic Compliance Matrix: (Units=1/GPa)
#
#
# Indices 1 2 3 4 5 6 
#
# 1 0.011246 -0.006370 -0.004106 0.000010 0.000184 -0.000003
# 2 -0.006370 0.030499 -0.004830 -0.000038 -0.000396 0.000012
# 3 -0.004106 -0.004830 0.014110 0.000000 0.005580 -0.000001
# 4 0.000010 -0.000038 0.000000 0.043779 0.000002 0.001901
# 5 0.000184 -0.000396 0.005580 0.000002 0.032816 -0.000001
# 6 -0.000003 0.000012 -0.000001 0.001901 -0.000001 0.041850
#
#
# Mechanical properties :
#
#
# Convention : Reuss Voigt Hill
#
# Bulk Modulus (GPa) = 39.61674 56.16258 47.88966
# Shear Modulus (GPa) = 23.43827 26.71351 25.07589
#
# Velocity S-wave (km/s) = 3.45806 3.69178 3.57683
# Velocity P-wave (km/s) = 6.01305 6.84299 6.44140
#
# Compressibility (1/GPa) = 0.02524186
#
# Stress axis : x y z
#
# Youngs Moduli (GPa) = 88.92421 32.78809 70.87101
#
# Poissons Ratio (x) = 0.20885 0.29102
# Poissons Ratio (y) = 0.56643 0.34233
# Poissons Ratio (z) = 0.36515 0.15838
#
# Static dielectric constant tensor:
#      x y z
#    x 3.842550 -0.000010 -0.090690 
#    y -0.000010 3.699290 0.000020 
#    z -0.090690 0.000020 3.746990 
# 
# 
# High freq. dielectric constant tensor:
#      x y z
#    x 1.766450 0.000000 -0.000490 
#    y 0.000000 1.745560 0.000000 
#    z -0.000490 0.000000 1.771140 
# 
# From -- ./inp_files/353286.got.cif
#   From: 2010.06.25/outbox.cif.g09.slc.cpg/sg12_177_cif.got.tgz:353286.got - 2010.06.28 00:19:55.
