data_PCOD8097901
_publ_section_title
;
Structure prediction by ZEFSAII (Michael W. Deem and Ramdas Pophale) SiO2 
 PCOD8097901
Probable space group: C 2/M
;
_chemical_formula_sum "Si O2"
_cell_formula_units_Z 64
_cell_length_a 14.672539
_cell_length_b 30.668895
_cell_length_c 9.124495
_cell_angle_alpha 90.000000
_cell_angle_beta 128.482384
_cell_angle_gamma 90.000000
_cell_volume 3214.125182
_symmetry_space_group_name_H-M "C 2/M"
_symmetry_group_IT_number 12
_symmetry_cell_setting 'monoclinic'
loop_
_space_group_symop_operation_xyz
x,y,z
-x,y,-z
-x,-y,-z
x,-y,z
1/2+x,1/2+y,z
1/2-x,1/2+y,-z
1/2-x,1/2-y,-z
1/2+x,1/2-y,z
loop_
_atom_site_type_symbol
_atom_site_label
_atom_site_fract_x
_atom_site_fract_y
_atom_site_fract_z
Si Si1 0.582116 0.841217 0.887420
Si Si2 0.248331 0.606255 0.242834
Si Si3 0.274008 0.826379 0.234549
Si Si4 0.812839 0.950813 0.547731
Si Si5 0.582240 0.548873 0.763442
Si Si6 0.319407 0.176293 0.622352
Si Si7 0.370324 0.408208 0.900986
Si Si8 0.870051 0.743949 0.886337
O O1 0.607780 0.834225 0.739513
O O2 0.445266 0.846442 0.777447
O O3 0.645771 0.883530 0.023084
O O4 0.632375 0.797767 0.011459
O O5 0.221047 0.568906 0.337908
O O6 0.361586 0.588653 0.270916
O O7 0.272717 0.649362 0.368600
O O8 0.290475 0.826553 0.424234
O O9 0.192604 0.865595 0.100564
O O10 0.213956 0.780683 0.131980
O O11 0.803193 0.925271 0.690785
O O12 0.943123 0.946980 0.611218
O O13 0.776822 0.000000 0.543256
O O14 0.620111 0.500000 0.747972
O O15 0.624781 0.553384 0.973907
O O16 0.324828 0.226640 0.681604
O O17 0.500000 0.392409 0.000000
O O18 0.000000 0.763537 0.000000
#
# Coordination Sequence:
#
# PCOD8097901 Si02
#       8
#     8   8   8   8   8   8   8   8
#     4  10  22  38  57  80 111 149 189 228 268 321
#     4  11  19  35  55  80 108 148 187 225 269 321
#     4  12  19  36  60  85 105 148 185 230 269 328
#     4  10  20  35  56  84 116 146 179 223 279 341
#     4  10  20  35  56  84 116 146 179 223 279 341
#     4  10  22  38  57  80 111 149 189 228 268 321
#     4  10  20  34  54  86 117 142 177 222 280 335
#     4   9  20  37  56  83 114 141 174 225 284 334
#
# _framework density 19.912106999999999
#
# number of rings (size 3 to 8) (size 9 to 14) (size 15 to 20)
#    0.000    1.750    2.500    3.750    0.000    2.500 
#    0.000    0.000    0.000   12.000    0.000    1.750 
#    0.000    0.000    0.000    0.000    0.000    0.000 
#
# Total GULP energy -396509.659044 kJ/mol
# GULP energy per Si atom -12390.926845 kJ/mol
# Density = 1.986679 g / cm^3
# Si number density = 19.912107 Si / 1000 Ang^3
#
#
#
# Elastic Constant Matrix: (Units=GPa)
#
#
# Indices 1 2 3 4 5 6 
#
# 1 65.9436 35.0152 15.6988 0.0000 -13.7958 0.0000
# 2 35.0152 98.4822 23.6866 0.0000 10.2138 0.0000
# 3 15.6988 23.6866 69.3989 0.0000 -5.4978 0.0000
# 4 0.0000 0.0000 0.0000 21.8949 0.0000 -1.8273
# 5 -13.7958 10.2138 -5.4978 0.0000 20.2242 0.0000
# 6 0.0000 0.0000 0.0000 -1.8273 0.0000 29.2767
#
#
#
# Elastic Compliance Matrix: (Units=1/GPa)
#
#
# Indices 1 2 3 4 5 6 
#
# 1 0.026563 -0.011944 -0.000019 0.000000 0.024146 0.000000
# 2 -0.011944 0.017417 -0.004686 0.000000 -0.018217 0.000000
# 3 -0.000019 -0.004686 0.016556 0.000000 0.006854 0.000000
# 4 0.000000 0.000000 0.000000 0.045912 0.000000 0.002866
# 5 0.024146 -0.018217 0.006854 0.000000 0.076980 0.000000
# 6 0.000000 0.000000 0.000000 0.002866 0.000000 0.034336
#
#
# Mechanical properties :
#
#
# Convention : Reuss Voigt Hill
#
# Bulk Modulus (GPa) = 36.71404 42.51401 39.61403
# Shear Modulus (GPa) = 19.22030 24.90742 22.06386
#
# Velocity S-wave (km/s) = 3.11023 3.54060 3.33237
# Velocity P-wave (km/s) = 5.60144 6.17346 5.89439
#
# Compressibility (1/GPa) = 0.02723753
#
# Stress axis : x y z
#
# Youngs Moduli (GPa) = 37.64682 57.41458 60.40034
#
# Poissons Ratio (x) = 0.68575 0.00117
# Poissons Ratio (y) = 0.44965 0.28304
# Poissons Ratio (z) = 0.00073 0.26905
#
# Static dielectric constant tensor:
#      x y z
#    x 3.485170 0.000000 -0.246580 
#    y 0.000000 3.608370 0.000000 
#    z -0.246580 0.000000 3.766760 
# 
# 
# High freq. dielectric constant tensor:
#      x y z
#    x 1.755920 0.000000 -0.028870 
#    y 0.000000 1.771840 0.000000 
#    z -0.028870 0.000000 1.782650 
# 
# From -- ./inp_files/68267.got.cif
#   From: 2010.06.25/outbox.cif.g09.slc.cpg/sg12_35_cif.got.tgz:68267.got - 2010.06.28 00:19:55.
