data_PCOD8097042
_publ_section_title
;
Structure prediction by ZEFSAII (Michael W. Deem and Ramdas Pophale) SiO2 
 PCOD8097042
Probable space group: C 2/M
;
_chemical_formula_sum "Si O2"
_cell_formula_units_Z 56
_cell_length_a 19.286853
_cell_length_b 9.019715
_cell_length_c 17.502751
_cell_angle_alpha 90.000000
_cell_angle_beta 90.197964
_cell_angle_gamma 90.000000
_cell_volume 3044.793948
_symmetry_space_group_name_H-M "C 2/M"
_symmetry_group_IT_number 12
_symmetry_cell_setting 'monoclinic'
loop_
_space_group_symop_operation_xyz
x,y,z
-x,y,-z
-x,-y,-z
x,-y,z
1/2+x,1/2+y,z
1/2-x,1/2+y,-z
1/2-x,1/2-y,-z
1/2+x,1/2-y,z
loop_
_atom_site_type_symbol
_atom_site_label
_atom_site_fract_x
_atom_site_fract_y
_atom_site_fract_z
Si Si1 0.072417 0.328212 0.378160
Si Si2 0.823905 0.831100 0.076833
Si Si3 0.419666 0.827617 0.795105
Si Si4 0.919050 0.325382 0.354955
Si Si5 0.324149 0.825124 0.495161
Si Si6 0.937140 0.172572 0.201430
Si Si7 0.184510 0.170132 0.096542
O O1 0.069617 0.500000 0.398692
O O2 0.100322 0.297778 0.293132
O O3 0.125853 0.256231 0.438799
O O4 0.993770 0.266259 0.386226
O O5 0.890496 0.795768 0.127676
O O6 0.764277 0.718055 0.100949
O O7 0.797780 0.000000 0.088808
O O8 0.845117 0.806140 0.988808
O O9 0.488787 0.741201 0.817865
O O10 0.357005 0.772521 0.845919
O O11 0.433080 0.000000 0.809740
O O12 0.924581 0.500000 0.338985
O O13 0.858761 0.286231 0.414116
O O14 0.901313 0.246228 0.275208
O O15 0.250000 0.750000 0.500000
O O16 0.314015 0.000000 0.505231
O O17 0.946272 0.000000 0.218013
O O18 0.178369 0.000000 0.122417
#
# Coordination Sequence:
#
# PCOD8097042 Si02
#       7
#     8   8   8   8   8   8   8
#     4   8  16  33  55  73  94 132 174 206 242 297
#     4   9  20  37  54  74 103 140 176 210 255 311
#     4  10  20  35  55  79 106 135 172 214 257 307
#     4   9  18  34  55  76  98 130 173 214 252 298
#     4  10  20  34  52  75 103 133 167 207 252 302
#     4  10  20  35  55  78 105 136 172 213 257 307
#     4  10  20  35  55  77 103 136 175 216 257 304
#
# _framework density 18.392050000000001
#
# number of rings (size 3 to 8) (size 9 to 14) (size 15 to 20)
#    0.000    2.571    0.000    2.571    0.000    5.714 
#    0.000   10.714    0.000    4.286    0.000    0.000 
#    0.000    0.000    0.000    0.000    0.000    0.000 
#
# Total GULP energy -347205.238714 kJ/mol
# GULP energy per Si atom -12400.187097 kJ/mol
# Density = 1.835019 g / cm^3
# Si number density = 18.392050 Si / 1000 Ang^3
#
#
#
# Elastic Constant Matrix: (Units=GPa)
#
#
# Indices 1 2 3 4 5 6 
#
# 1 63.7235 25.5411 25.5499 0.0000 -11.4418 0.0000
# 2 25.5411 56.6882 32.4945 0.0000 -3.2544 0.0000
# 3 25.5499 32.4945 53.8262 0.0000 -11.3785 0.0000
# 4 0.0000 0.0000 0.0000 25.5105 0.0000 -4.4331
# 5 -11.4418 -3.2544 -11.3785 0.0000 31.3831 0.0000
# 6 0.0000 0.0000 0.0000 -4.4331 0.0000 34.4970
#
#
#
# Elastic Compliance Matrix: (Units=1/GPa)
#
#
# Indices 1 2 3 4 5 6 
#
# 1 0.021227 -0.006301 -0.005171 0.000000 0.005211 0.000000
# 2 -0.006301 0.029177 -0.015670 0.000000 -0.004953 0.000000
# 3 -0.005171 -0.015670 0.032220 0.000000 0.008172 0.000000
# 4 0.000000 0.000000 0.000000 0.040095 0.000000 0.005152
# 5 0.005211 -0.004953 0.008172 0.000000 0.036213 0.000000
# 6 0.000000 0.000000 0.000000 0.005152 0.000000 0.029650
#
#
# Mechanical properties :
#
#
# Convention : Reuss Voigt Hill
#
# Bulk Modulus (GPa) = 35.28456 37.93433 36.60945
# Shear Modulus (GPa) = 19.81658 24.32161 22.06909
#
# Velocity S-wave (km/s) = 3.28602 3.64042 3.46775
# Velocity P-wave (km/s) = 5.79858 6.19196 5.99850
#
# Compressibility (1/GPa) = 0.02834101
#
# Stress axis : x y z
#
# Youngs Moduli (GPa) = 47.10964 34.27304 31.03640
#
# Poissons Ratio (x) = 0.21595 0.16047
# Poissons Ratio (y) = 0.29684 0.48635
# Poissons Ratio (z) = 0.24358 0.53707
#
# Static dielectric constant tensor:
#      x y z
#    x 3.328310 0.000000 0.068540 
#    y 0.000000 3.292720 0.000000 
#    z 0.068540 0.000000 3.508140 
# 
# 
# High freq. dielectric constant tensor:
#      x y z
#    x 1.709680 0.000000 -0.000090 
#    y 0.000000 1.702610 0.000000 
#    z -0.000090 0.000000 1.720670 
# 
# From -- ./inp_files/231021.got.cif
#   From: 2010.06.25/outbox.cif.g09.slc.cpg/sg12_116_cif.got.tgz:231021.got - 2010.06.28 00:19:55.
