data_PCOD8097850
_publ_section_title
;
Structure prediction by ZEFSAII (Michael W. Deem and Ramdas Pophale) SiO2 
 PCOD8097850
Probable space group: C 2/M
;
_chemical_formula_sum "Si O2"
_cell_formula_units_Z 56
_cell_length_a 28.432039
_cell_length_b 9.101295
_cell_length_c 13.320702
_cell_angle_alpha 90.000000
_cell_angle_beta 123.367653
_cell_angle_gamma 90.000000
_cell_volume 2878.771678
_symmetry_space_group_name_H-M "C 2/M"
_symmetry_group_IT_number 12
_symmetry_cell_setting 'monoclinic'
loop_
_space_group_symop_operation_xyz
x,y,z
-x,y,-z
-x,-y,-z
x,-y,z
1/2+x,1/2+y,z
1/2-x,1/2+y,-z
1/2-x,1/2-y,-z
1/2+x,1/2-y,z
loop_
_atom_site_type_symbol
_atom_site_label
_atom_site_fract_x
_atom_site_fract_y
_atom_site_fract_z
Si Si1 0.841490 0.331524 0.786764
Si Si2 0.217045 0.169438 0.688102
Si Si3 0.946705 0.172653 0.230857
Si Si4 0.128306 0.329494 0.710065
Si Si5 0.552751 0.326509 0.998241
Si Si6 0.448627 0.165280 0.569756
Si Si7 0.662268 0.168774 0.445064
O O1 0.861683 0.500000 0.809726
O O2 0.783935 0.312131 0.781784
O O3 0.888996 0.234499 0.892557
O O4 0.830388 0.278448 0.660112
O O5 0.186448 0.257872 0.740866
O O6 0.200838 0.229432 0.559473
O O7 0.198694 0.000000 0.672002
O O8 0.891581 0.252653 0.210733
O O9 0.001729 0.219352 0.357254
O O10 0.937978 0.000000 0.231118
O O11 0.954554 0.222765 0.125319
O O12 0.139966 0.500000 0.743611
O O13 0.079947 0.304490 0.570740
O O14 0.555409 0.500000 0.011646
O O15 0.500000 0.263671 0.000000
O O16 0.403158 0.187554 0.603829
O O17 0.473679 0.000000 0.602142
O O18 0.681163 0.000000 0.483571
#
# Coordination Sequence:
#
# PCOD8097850 Si02
#       7
#     8   8   8   8   8   8   8
#     4  10  21  36  56  82 110 144 185 225 265 316
#     4  10  20  34  54  83 114 141 178 225 269 317
#     4  11  22  35  54  80 108 140 181 226 271 319
#     4  10  21  37  56  79 109 144 181 220 268 325
#     4  10  23  41  58  80 110 142 179 223 268 318
#     4   9  18  32  52  79 110 143 178 216 262 322
#     4   9  18  33  53  81 115 147 180 217 264 322
#
# _framework density 19.452743000000002
#
# number of rings (size 3 to 8) (size 9 to 14) (size 15 to 20)
#    0.000    2.143    0.000    3.857    0.000    7.714 
#    0.000    0.714    0.000    0.000    0.000    0.000 
#    0.000    0.000    0.000    0.000    0.000    0.000 
#
# Total GULP energy -347299.763949 kJ/mol
# GULP energy per Si atom -12403.562998 kJ/mol
# Density = 1.940847 g / cm^3
# Si number density = 19.452743 Si / 1000 Ang^3
#
#
#
# Elastic Constant Matrix: (Units=GPa)
#
#
# Indices 1 2 3 4 5 6 
#
# 1 124.6023 56.6276 56.0869 0.0000 -14.1154 0.0000
# 2 56.6276 80.8503 36.5968 0.0000 -7.7297 0.0000
# 3 56.0869 36.5968 53.8001 0.0000 -6.1000 0.0000
# 4 0.0000 0.0000 0.0000 30.4757 0.0000 2.5880
# 5 -14.1154 -7.7297 -6.1000 0.0000 31.8303 0.0000
# 6 0.0000 0.0000 0.0000 2.5880 0.0000 33.3500
#
#
#
# Elastic Compliance Matrix: (Units=1/GPa)
#
#
# Indices 1 2 3 4 5 6 
#
# 1 0.017055 -0.005399 -0.013696 0.000000 0.003627 0.000000
# 2 -0.005399 0.019713 -0.007676 0.000000 0.000922 0.000000
# 3 -0.013696 -0.007676 0.038013 0.000000 -0.000653 0.000000
# 4 0.000000 0.000000 0.000000 0.033031 0.000000 -0.002563
# 5 0.003627 0.000922 -0.000653 0.000000 0.033124 0.000000
# 6 0.000000 0.000000 0.000000 -0.002563 0.000000 0.030184
#
#
# Mechanical properties :
#
#
# Convention : Reuss Voigt Hill
#
# Bulk Modulus (GPa) = 47.08493 61.98614 54.53554
# Shear Modulus (GPa) = 21.57567 26.46064 24.01816
#
# Velocity S-wave (km/s) = 3.33398 3.69216 3.51763
# Velocity P-wave (km/s) = 6.25123 7.07886 6.67788
#
# Compressibility (1/GPa) = 0.02123822
#
# Stress axis : x y z
#
# Youngs Moduli (GPa) = 58.63309 50.72831 26.30656
#
# Poissons Ratio (x) = 0.27389 0.36030
# Poissons Ratio (y) = 0.31657 0.20194
# Poissons Ratio (z) = 0.80305 0.38940
#
# Static dielectric constant tensor:
#      x y z
#    x 3.733840 0.000000 -0.211040 
#    y 0.000000 3.501570 0.000000 
#    z -0.211040 0.000000 3.334550 
# 
# 
# High freq. dielectric constant tensor:
#      x y z
#    x 1.774240 0.000000 -0.010740 
#    y 0.000000 1.757660 0.000000 
#    z -0.010740 0.000000 1.732030 
# 
# From -- ./inp_files/187738.got.cif
#   From: 2010.06.25/outbox.cif.g09.slc.cpg/sg12_94_cif.got.tgz:187738.got - 2010.06.28 00:19:55.
