data_PCOD8097503
_publ_section_title
;
Structure prediction by ZEFSAII (Michael W. Deem and Ramdas Pophale) SiO2 
 PCOD8097503
Probable space group: C 2/M
;
_chemical_formula_sum "Si O2"
_cell_formula_units_Z 64
_cell_length_a 24.878145
_cell_length_b 14.730246
_cell_length_c 8.975512
_cell_angle_alpha 90.000000
_cell_angle_beta 110.810968
_cell_angle_gamma 90.000000
_cell_volume 3074.583338
_symmetry_space_group_name_H-M "C 2/M"
_symmetry_group_IT_number 12
_symmetry_cell_setting 'monoclinic'
loop_
_space_group_symop_operation_xyz
x,y,z
-x,y,-z
-x,-y,-z
x,-y,z
1/2+x,1/2+y,z
1/2-x,1/2+y,-z
1/2-x,1/2-y,-z
1/2+x,1/2-y,z
loop_
_atom_site_type_symbol
_atom_site_label
_atom_site_fract_x
_atom_site_fract_y
_atom_site_fract_z
Si Si1 0.202846 0.104959 0.309118
Si Si2 0.756207 0.107544 0.335235
Si Si3 0.468159 0.672603 0.613590
Si Si4 0.577088 0.603051 0.141116
Si Si5 0.639395 0.280377 0.673632
Si Si6 0.193543 0.399644 0.780468
Si Si7 0.932611 0.240104 0.119510
Si Si8 0.646978 0.897578 0.054034
O O1 0.235659 0.142015 0.487461
O O2 0.140249 0.148042 0.224888
O O3 0.240991 0.124335 0.200714
O O4 0.190944 0.000000 0.325521
O O5 0.804097 0.157849 0.283282
O O6 0.690733 0.135657 0.226821
O O7 0.764659 0.000000 0.321399
O O8 0.500000 0.628445 0.500000
O O9 0.457404 0.601545 0.736383
O O10 0.405663 0.705313 0.502833
O O11 0.509028 0.753603 0.722677
O O12 0.577468 0.500000 0.080657
O O13 0.549351 0.667047 0.987984
O O14 0.651559 0.173479 0.666940
O O15 0.615066 0.300965 0.815102
O O16 0.177237 0.500000 0.701922
O O17 0.188797 0.396920 0.952751
O O18 0.908986 0.333211 0.021382
O O19 0.623910 0.000000 0.061144
#
# Coordination Sequence:
#
# PCOD8097503 Si02
#       8
#     8   8   8   8   8   8   8   8
#     4   9  19  34  52  80 116 149 184 230 281 340
#     4  10  20  34  53  81 117 151 190 233 284 349
#     4  10  22  42  59  81 113 154 196 241 281 338
#     4  11  23  39  59  86 117 151 192 237 288 342
#     4  10  21  36  59  83 115 155 194 232 291 341
#     4   9  19  35  55  84 119 152 190 233 282 343
#     4  10  23  38  59  84 116 151 197 242 284 336
#     4   9  20  38  60  85 117 155 193 236 286 343
#
# _framework density 20.815829000000001
#
# number of rings (size 3 to 8) (size 9 to 14) (size 15 to 20)
#    0.000    2.250    1.250    0.375    3.500    4.250 
#    0.000    3.125    0.000    5.250    0.000    0.000 
#    0.000    0.000    0.000    0.000    0.000    0.000 
#
# Total GULP energy -396496.888651 kJ/mol
# GULP energy per Si atom -12390.527770 kJ/mol
# Density = 2.076845 g / cm^3
# Si number density = 20.815829 Si / 1000 Ang^3
#
#
#
# Elastic Constant Matrix: (Units=GPa)
#
#
# Indices 1 2 3 4 5 6 
#
# 1 65.1441 33.2950 23.8134 0.0000 -2.1432 0.0000
# 2 33.2950 76.5266 36.8598 0.0000 7.6915 0.0000
# 3 23.8134 36.8598 83.3094 0.0000 9.6260 0.0000
# 4 0.0000 0.0000 0.0000 19.1671 0.0000 -1.5845
# 5 -2.1432 7.6915 9.6260 0.0000 41.3103 0.0000
# 6 0.0000 0.0000 0.0000 -1.5845 0.0000 17.7630
#
#
#
# Elastic Compliance Matrix: (Units=1/GPa)
#
#
# Indices 1 2 3 4 5 6 
#
# 1 0.020501 -0.007929 -0.002719 0.000000 0.003173 0.000000
# 2 -0.007929 0.019754 -0.006167 0.000000 -0.002652 0.000000
# 3 -0.002719 -0.006167 0.015819 0.000000 -0.002679 0.000000
# 4 0.000000 0.000000 0.000000 0.052560 0.000000 0.004688
# 5 0.003173 -0.002652 -0.002679 0.000000 0.025490 0.000000
# 6 0.000000 0.000000 0.000000 0.004688 0.000000 0.056715
#
#
# Mechanical properties :
#
#
# Convention : Reuss Voigt Hill
#
# Bulk Modulus (GPa) = 44.55472 45.87962 45.21717
# Shear Modulus (GPa) = 21.55631 24.38222 22.96926
#
# Velocity S-wave (km/s) = 3.22152 3.42618 3.32543
# Velocity P-wave (km/s) = 5.94040 6.14331 6.04270
#
# Compressibility (1/GPa) = 0.02244431
#
# Stress axis : x y z
#
# Youngs Moduli (GPa) = 48.77728 50.62211 63.21625
#
# Poissons Ratio (x) = 0.40139 0.17186
# Poissons Ratio (y) = 0.38676 0.38987
# Poissons Ratio (z) = 0.13261 0.31220
#
# Static dielectric constant tensor:
#      x y z
#    x 3.792780 0.000000 0.047710 
#    y 0.000000 3.596220 0.000000 
#    z 0.047710 0.000000 3.920460 
# 
# 
# High freq. dielectric constant tensor:
#      x y z
#    x 1.814420 0.000000 0.000420 
#    y 0.000000 1.788160 0.000000 
#    z 0.000420 0.000000 1.822140 
# 
# From -- ./inp_files/104693.got.cif
#   From: 2010.06.25/outbox.cif.g09.slc.cpg/sg12_53_cif.got.tgz:104693.got - 2010.06.28 00:19:55.
