data_PCOD8097912
_publ_section_title
;
Structure prediction by ZEFSAII (Michael W. Deem and Ramdas Pophale) SiO2 
 PCOD8097912
Probable space group: C 2/M
;
_chemical_formula_sum "Si O2"
_cell_formula_units_Z 56
_cell_length_a 30.729766
_cell_length_b 9.112239
_cell_length_c 11.219089
_cell_angle_alpha 90.000000
_cell_angle_beta 65.011515
_cell_angle_gamma 90.000000
_cell_volume 2847.464706
_symmetry_space_group_name_H-M "C 2/M"
_symmetry_group_IT_number 12
_symmetry_cell_setting 'monoclinic'
loop_
_space_group_symop_operation_xyz
x,y,z
-x,y,-z
-x,-y,-z
x,-y,z
1/2+x,1/2+y,z
1/2-x,1/2+y,-z
1/2-x,1/2-y,-z
1/2+x,1/2-y,z
loop_
_atom_site_type_symbol
_atom_site_label
_atom_site_fract_x
_atom_site_fract_y
_atom_site_fract_z
Si Si1 0.365861 0.664977 0.805924
Si Si2 0.526775 0.325466 0.348530
Si Si3 0.874565 0.167896 0.262481
Si Si4 0.217987 0.673401 0.216301
Si Si5 0.789447 0.831079 0.531721
Si Si6 0.176438 0.165053 0.902143
Si Si7 0.480751 0.674707 0.152301
O O1 0.356898 0.500000 0.766432
O O2 0.417538 0.724126 0.703754
O O3 0.322035 0.770624 0.827331
O O4 0.364621 0.664575 0.950616
O O5 0.500000 0.265725 0.500000
O O6 0.523028 0.500000 0.350450
O O7 0.506982 0.264678 0.243233
O O8 0.842468 0.179486 0.416197
O O9 0.846263 0.247912 0.186077
O O10 0.926596 0.237757 0.225849
O O11 0.884045 0.000000 0.213644
O O12 0.213973 0.500000 0.226640
O O13 0.204215 0.744503 0.355744
O O14 0.271642 0.730741 0.118051
O O15 0.750000 0.750000 0.500000
O O16 0.773956 0.000000 0.567775
O O17 0.189410 0.000000 0.846061
O O18 0.484158 0.500000 0.152004
O O19 0.500000 0.730928 0.000000
#
# Coordination Sequence:
#
# PCOD8097912 Si02
#       7
#     8   8   8   8   8   8   8
#     4  10  20  34  55  78 105 141 180 220 271 323
#     4   9  18  30  46  74 109 136 171 227 277 320
#     4   9  17  29  50  77 108 139 170 214 270 320
#     4  11  22  36  53  76 110 144 182 223 263 315
#     4  11  21  35  55  80 111 145 179 218 266 319
#     4   9  17  32  51  76 108 140 173 219 269 318
#     4   9  16  27  46  74 105 137 172 214 270 329
#
# _framework density 19.666616999999999
#
# number of rings (size 3 to 8) (size 9 to 14) (size 15 to 20)
#    0.000    2.286    1.429    2.143    2.000    3.429 
#    0.000    0.714    0.000    0.429    0.000    0.000 
#    0.000    4.000    0.000    0.000    0.000    0.000 
#
# Total GULP energy -346881.663684 kJ/mol
# GULP energy per Si atom -12388.630846 kJ/mol
# Density = 1.962185 g / cm^3
# Si number density = 19.666617 Si / 1000 Ang^3
#
#
#
# Elastic Constant Matrix: (Units=GPa)
#
#
# Indices 1 2 3 4 5 6 
#
# 1 122.5580 22.7082 53.5909 0.0000 -14.7666 0.0000
# 2 22.7082 39.4522 13.3676 0.0000 -3.5304 0.0000
# 3 53.5909 13.3676 115.0243 0.0000 -9.0479 0.0000
# 4 0.0000 0.0000 0.0000 16.3402 0.0000 1.8243
# 5 -14.7666 -3.5304 -9.0479 0.0000 38.6892 0.0000
# 6 0.0000 0.0000 0.0000 1.8243 0.0000 19.3933
#
#
#
# Elastic Compliance Matrix: (Units=1/GPa)
#
#
# Indices 1 2 3 4 5 6 
#
# 1 0.011357 -0.004753 -0.004515 0.000000 0.002845 0.000000
# 2 -0.004753 0.028488 -0.001054 0.000000 0.000539 0.000000
# 3 -0.004515 -0.001054 0.010979 0.000000 0.000748 0.000000
# 4 0.000000 0.000000 0.000000 0.061848 0.000000 -0.005818
# 5 0.002845 0.000539 0.000748 0.000000 0.027157 0.000000
# 6 0.000000 0.000000 0.000000 -0.005818 0.000000 0.052111
#
#
# Mechanical properties :
#
#
# Convention : Reuss Voigt Hill
#
# Bulk Modulus (GPa) = 33.13425 50.70753 41.92089
# Shear Modulus (GPa) = 22.45728 27.37572 24.91650
#
# Velocity S-wave (km/s) = 3.38287 3.73498 3.56328
# Velocity P-wave (km/s) = 5.66947 6.66631 6.18800
#
# Compressibility (1/GPa) = 0.03018025
#
# Stress axis : x y z
#
# Youngs Moduli (GPa) = 88.05008 35.10245 91.08399
#
# Poissons Ratio (x) = 0.16683 0.41127
# Poissons Ratio (y) = 0.41846 0.09601
# Poissons Ratio (z) = 0.39757 0.03700
#
# Static dielectric constant tensor:
#      x y z
#    x 3.848930 0.000000 0.013380 
#    y 0.000000 3.001800 0.000000 
#    z 0.013380 0.000000 3.931110 
# 
# 
# High freq. dielectric constant tensor:
#      x y z
#    x 1.781050 0.000000 -0.002560 
#    y 0.000000 1.692110 0.000000 
#    z -0.002560 0.000000 1.781600 
# 
# From -- ./inp_files/187273.got.cif
#   From: 2010.06.25/outbox.cif.g09.slc.cpg/sg12_94_cif.got.tgz:187273.got - 2010.06.28 00:19:55.
