data_PCOD8097580
_publ_section_title
;
Structure prediction by ZEFSAII (Michael W. Deem and Ramdas Pophale) SiO2 
 PCOD8097580
Probable space group: C 2/M
;
_chemical_formula_sum "Si O2"
_cell_formula_units_Z 48
_cell_length_a 18.296416
_cell_length_b 8.865551
_cell_length_c 17.995987
_cell_angle_alpha 90.000000
_cell_angle_beta 117.329076
_cell_angle_gamma 90.000000
_cell_volume 2593.273587
_symmetry_space_group_name_H-M "C 2/M"
_symmetry_group_IT_number 12
_symmetry_cell_setting 'monoclinic'
loop_
_space_group_symop_operation_xyz
x,y,z
-x,y,-z
-x,-y,-z
x,-y,z
1/2+x,1/2+y,z
1/2-x,1/2+y,-z
1/2-x,1/2-y,-z
1/2+x,1/2-y,z
loop_
_atom_site_type_symbol
_atom_site_label
_atom_site_fract_x
_atom_site_fract_y
_atom_site_fract_z
Si Si1 0.511158 0.323206 0.833856
Si Si2 0.082525 0.829927 0.585844
Si Si3 0.334757 0.178578 0.016186
Si Si4 0.507815 0.826099 0.330659
Si Si5 0.919775 0.334034 0.912480
Si Si6 0.172089 0.674178 0.501114
O O1 0.525757 0.500000 0.843227
O O2 0.593961 0.241718 0.897998
O O3 0.487725 0.272365 0.740936
O O4 0.434304 0.281083 0.851687
O O5 0.155186 0.752578 0.572605
O O6 0.000000 0.830909 0.500000
O O7 0.066833 0.734839 0.653269
O O8 0.109220 0.000000 0.619095
O O9 0.333065 0.000000 0.025634
O O10 0.250000 0.250000 0.000000
O O11 0.348394 0.221823 0.935455
O O12 0.594453 0.804631 0.411529
O O13 0.490319 0.000000 0.303596
O O14 0.899048 0.500000 0.869800
O O15 0.000000 0.346803 0.000000
O O16 0.191159 0.500000 0.524966
O O17 0.250000 0.750000 0.500000
#
# Coordination Sequence:
#
# PCOD8097580 Si02
#       6
#     8   8   8   8   8   8
#     4  11  21  33  53  79 105 135 172 213 256 304
#     4   9  17  31  52  76 102 133 170 210 253 307
#     4  10  20  35  55  78 105 136 172 213 257 306
#     4  10  20  35  54  76 104 137 172 211 255 304
#     4   8  16  32  52  73 100 135 170 206 251 304
#     4  10  20  34  54  78 104 136 173 213 258 306
#
# _framework density 18.509423999999999
#
# number of rings (size 3 to 8) (size 9 to 14) (size 15 to 20)
#    0.000    2.333    0.000    4.500    0.000    7.667 
#    0.000    1.667    0.000    6.000    0.000    0.000 
#    0.000    0.000    0.000    0.000    0.000    0.000 
#
# Total GULP energy -297570.451236 kJ/mol
# GULP energy per Si atom -12398.768801 kJ/mol
# Density = 1.846730 g / cm^3
# Si number density = 18.509424 Si / 1000 Ang^3
#
#
#
# Elastic Constant Matrix: (Units=GPa)
#
#
# Indices 1 2 3 4 5 6 
#
# 1 156.5449 71.8400 34.3197 0.0000 -27.3614 0.0000
# 2 71.8400 131.2099 35.1592 0.0000 -14.1918 0.0000
# 3 34.3197 35.1592 50.3102 0.0000 -22.5253 0.0000
# 4 0.0000 0.0000 0.0000 27.7612 0.0000 -5.0449
# 5 -27.3614 -14.1918 -22.5253 0.0000 26.5507 0.0000
# 6 0.0000 0.0000 0.0000 -5.0449 0.0000 36.8889
#
#
#
# Elastic Compliance Matrix: (Units=1/GPa)
#
#
# Indices 1 2 3 4 5 6 
#
# 1 0.009817 -0.004516 -0.000149 0.000000 0.007577 0.000000
# 2 -0.004516 0.011467 -0.006890 0.000000 -0.004369 0.000000
# 3 -0.000149 -0.006890 0.037209 0.000000 0.027732 0.000000
# 4 0.000000 0.000000 0.000000 0.036939 0.000000 0.005052
# 5 0.007577 -0.004369 0.027732 0.000000 0.066664 0.000000
# 6 0.000000 0.000000 0.000000 0.005052 0.000000 0.027799
#
#
# Mechanical properties :
#
#
# Convention : Reuss Voigt Hill
#
# Bulk Modulus (GPa) = 28.25987 68.96696 48.61341
# Shear Modulus (GPa) = 22.24192 31.35660 26.79926
#
# Velocity S-wave (km/s) = 3.47025 4.12040 3.80922
# Velocity P-wave (km/s) = 5.59980 7.74456 6.75781
#
# Compressibility (1/GPa) = 0.03538587
#
# Stress axis : x y z
#
# Youngs Moduli (GPa) = 101.86211 87.20345 26.87489
#
# Poissons Ratio (x) = 0.39379 0.00399
# Poissons Ratio (y) = 0.45998 0.18516
# Poissons Ratio (z) = 0.01513 0.60081
#
# Static dielectric constant tensor:
#      x y z
#    x 3.760640 0.000000 -0.362540 
#    y 0.000000 3.591040 0.000000 
#    z -0.362540 0.000000 3.138520 
# 
# 
# High freq. dielectric constant tensor:
#      x y z
#    x 1.723620 0.000000 -0.027740 
#    y 0.000000 1.732580 0.000000 
#    z -0.027740 0.000000 1.686390 
# 
# From -- ./inp_files/274578.got.cif
#   From: 2010.06.25/outbox.cif.g09.slc.cpg/sg12_138_cif.got.tgz:274578.got - 2010.06.28 00:19:55.
