data_PCOD8097654
_publ_section_title
;
Structure prediction by ZEFSAII (Michael W. Deem and Ramdas Pophale) SiO2 
 PCOD8097654
Probable space group: C 2/M
;
_chemical_formula_sum "Si O2"
_cell_formula_units_Z 64
_cell_length_a 29.864245
_cell_length_b 9.339241
_cell_length_c 23.051925
_cell_angle_alpha 90.000000
_cell_angle_beta 31.413115
_cell_angle_gamma 90.000000
_cell_volume 3351.034431
_symmetry_space_group_name_H-M "C 2/M"
_symmetry_group_IT_number 12
_symmetry_cell_setting 'monoclinic'
loop_
_space_group_symop_operation_xyz
x,y,z
-x,y,-z
-x,-y,-z
x,-y,z
1/2+x,1/2+y,z
1/2-x,1/2+y,-z
1/2-x,1/2-y,-z
1/2+x,1/2-y,z
loop_
_atom_site_type_symbol
_atom_site_label
_atom_site_fract_x
_atom_site_fract_y
_atom_site_fract_z
Si Si1 0.618520 0.660424 0.004771
Si Si2 0.005560 0.669684 0.213093
Si Si3 0.696506 0.662800 0.405324
Si Si4 0.578165 0.836421 0.371199
Si Si5 0.459840 0.343802 0.099574
Si Si6 0.141359 0.661974 0.710419
Si Si7 0.243038 0.831345 0.224522
Si Si8 0.030429 0.335787 0.618856
O O1 0.654590 0.500000 0.980951
O O2 0.683541 0.745671 0.891460
O O3 0.589779 0.752328 0.093116
O O4 0.529487 0.638613 0.071715
O O5 0.021708 0.500000 0.190775
O O6 0.998536 0.724635 0.286739
O O7 0.912253 0.712045 0.286929
O O8 0.664510 0.500000 0.436770
O O9 0.755115 0.681729 0.399733
O O10 0.746800 0.700426 0.289554
O O11 0.613875 0.759771 0.501800
O O12 0.500000 0.799709 0.500000
O O13 0.652610 0.723312 0.299940
O O14 0.548465 0.815816 0.337706
O O15 0.609659 0.000000 0.346968
O O16 0.423902 0.500000 0.120571
O O17 0.382392 0.249820 0.206561
O O18 0.500000 0.263655 0.000000
O O19 0.115369 0.500000 0.751416
O O20 0.253082 0.000000 0.200327
O O21 0.057330 0.500000 0.595757
#
# Coordination Sequence:
#
# PCOD8097654 Si02
#       8
#     8   8   8   8   8   8   8   8
#     4  10  20  34  54  79 108 143 181 221 267 316
#     4   9  19  37  57  77 107 145 185 222 260 313
#     4  10  21  34  51  80 114 144 178 220 267 318
#     4  10  20  37  59  82 108 137 174 221 275 326
#     4   9  17  29  46  71 102 137 178 222 264 307
#     4   9  18  32  49  72 105 144 179 214 258 309
#     4  11  22  35  55  83 113 142 176 220 270 322
#     4  10  21  37  58  81 105 140 181 223 271 321
#
# _framework density 19.098580999999999
#
# number of rings (size 3 to 8) (size 9 to 14) (size 15 to 20)
#    0.000    2.250    1.250    1.500    0.000    3.500 
#    0.000    0.625    0.000    0.000    0.000    0.000 
#    0.000    0.000    0.000    0.000    0.000    0.000 
#
# Total GULP energy -396441.612757 kJ/mol
# GULP energy per Si atom -12388.800399 kJ/mol
# Density = 1.905511 g / cm^3
# Si number density = 19.098581 Si / 1000 Ang^3
#
#
#
# Elastic Constant Matrix: (Units=GPa)
#
#
# Indices 1 2 3 4 5 6 
#
# 1 81.8282 26.4549 27.1263 0.0025 12.0091 0.0007
# 2 26.4549 70.1097 40.0045 -0.0028 2.1287 0.0046
# 3 27.1263 40.0045 78.6497 0.0027 10.9731 0.0020
# 4 0.0025 -0.0028 0.0027 -10.0185 0.0002 9.0619
# 5 12.0091 2.1287 10.9731 0.0002 29.4926 -0.0003
# 6 0.0007 0.0046 0.0020 9.0619 -0.0003 20.7303
#
#
#
# Elastic Compliance Matrix: (Units=1/GPa)
#
#
# Indices 1 2 3 4 5 6 
#
# 1 0.015091 -0.004182 -0.002386 0.000003 -0.004955 -0.000001
# 2 -0.004182 0.021429 -0.009998 -0.000009 0.003876 0.000000
# 3 -0.002386 -0.009998 0.019393 0.000005 -0.005522 -0.000002
# 4 0.000003 -0.000009 0.000005 -0.071532 -0.000002 0.031269
# 5 -0.004955 0.003876 -0.005522 -0.000002 0.037699 0.000001
# 6 -0.000001 0.000000 -0.000002 0.031269 0.000001 0.034570
#
#
# Mechanical properties :
#
#
# Convention : Reuss Voigt Hill
#
# Bulk Modulus (GPa) = 43.89758 46.41767 45.15763
# Shear Modulus (GPa) = 51.34722 17.17434 34.26078
#
# Velocity S-wave (km/s) = 5.19073 3.00200 4.24003
# Velocity P-wave (km/s) = 7.67852 6.03100 6.90408
#
# Compressibility (1/GPa) = 0.02278030
#
# Stress axis : x y z
#
# Youngs Moduli (GPa) = 66.26381 46.66682 51.56414
#
# Poissons Ratio (x) = 0.19518 0.12305
# Poissons Ratio (y) = 0.27714 0.51552
# Poissons Ratio (z) = 0.15812 0.46656
#
# Static dielectric constant tensor:
#      x y z
#    x 3.662750 -0.000010 0.105390 
#    y -0.000010 3.771490 0.000030 
#    z 0.105390 0.000030 3.379030 
# 
# 
# High freq. dielectric constant tensor:
#      x y z
#    x 1.737920 0.000000 0.003180 
#    y 0.000000 1.743870 0.000000 
#    z 0.003180 0.000000 1.728680 
# 
# From -- ./inp_files/353342.got.cif
#   From: 2010.06.25/outbox.cif.g09.slc.cpg/sg12_177_cif.got.tgz:353342.got - 2010.06.28 00:19:55.
