data_PCOD8097261
_publ_section_title
;
Structure prediction by ZEFSAII (Michael W. Deem and Ramdas Pophale) SiO2 
 PCOD8097261
Probable space group: C 2/M
;
_chemical_formula_sum "Si O2"
_cell_formula_units_Z 56
_cell_length_a 19.604067
_cell_length_b 9.023962
_cell_length_c 30.499727
_cell_angle_alpha 90.000000
_cell_angle_beta 144.357441
_cell_angle_gamma 90.000000
_cell_volume 3144.158003
_symmetry_space_group_name_H-M "C 2/M"
_symmetry_group_IT_number 12
_symmetry_cell_setting 'monoclinic'
loop_
_space_group_symop_operation_xyz
x,y,z
-x,y,-z
-x,-y,-z
x,-y,z
1/2+x,1/2+y,z
1/2-x,1/2+y,-z
1/2-x,1/2-y,-z
1/2+x,1/2-y,z
loop_
_atom_site_type_symbol
_atom_site_label
_atom_site_fract_x
_atom_site_fract_y
_atom_site_fract_z
Si Si1 0.274996 0.172196 0.558168
Si Si2 0.870444 0.823931 0.437285
Si Si3 0.116407 0.824761 0.155083
Si Si4 0.496838 0.169434 0.729861
Si Si5 0.161085 0.671521 0.268803
Si Si6 0.237175 0.825652 0.843636
Si Si7 0.407589 0.337237 0.990382
O O1 0.250000 0.250000 0.500000
O O2 0.185693 0.239240 0.547447
O O3 0.407089 0.200221 0.643343
O O4 0.251136 0.000000 0.539367
O O5 0.789149 0.780913 0.353525
O O6 0.000000 0.755354 0.500000
O O7 0.874612 0.000000 0.442860
O O8 0.133217 0.774170 0.213319
O O9 0.210846 0.748234 0.172818
O O10 0.982621 0.781581 0.071564
O O11 0.135096 0.000000 0.160691
O O12 0.434854 0.200178 0.743855
O O13 0.602860 0.281569 0.778948
O O14 0.541621 0.000000 0.751413
O O15 0.160520 0.500000 0.254104
O O16 0.248513 0.000000 0.844566
O O17 0.305500 0.775925 0.923570
O O18 0.351866 0.500000 0.970137
O O19 0.500000 0.350783 0.000000
#
# Coordination Sequence:
#
# PCOD8097261 Si02
#       7
#     8   8   8   8   8   8   8
#     4   9  18  32  51  74 100 132 166 202 247 297
#     4   8  15  30  51  73  98 128 162 201 246 293
#     4  10  20  34  53  76 104 135 164 201 253 308
#     4   9  19  36  52  69 103 143 171 203 253 304
#     4   9  18  33  53  75 100 134 172 207 246 295
#     4  11  21  32  52  79 101 127 171 218 251 290
#     4   8  16  32  51  71  99 134 164 197 252 308
#
# _framework density 17.81081
#
# number of rings (size 3 to 8) (size 9 to 14) (size 15 to 20)
#    0.000    2.857    0.000    4.286    0.000    5.429 
#    0.000    4.286    0.000    0.857    0.000    0.000 
#    0.000    0.000    0.000    0.000    0.000    0.000 
#
# Total GULP energy -347092.651317 kJ/mol
# GULP energy per Si atom -12396.166118 kJ/mol
# Density = 1.777027 g / cm^3
# Si number density = 17.810810 Si / 1000 Ang^3
#
#
#
# Elastic Constant Matrix: (Units=GPa)
#
#
# Indices 1 2 3 4 5 6 
#
# 1 67.4719 42.2148 66.4307 0.0000 -2.4740 -0.0001
# 2 42.2148 85.1544 59.7787 0.0000 0.1227 -0.0004
# 3 66.4307 59.7787 140.1987 0.0000 -12.0941 0.0000
# 4 0.0000 0.0000 0.0000 28.7878 0.0000 -5.8494
# 5 -2.4740 0.1227 -12.0941 0.0000 28.7512 0.0000
# 6 -0.0001 -0.0004 0.0000 -5.8494 0.0000 26.3791
#
#
#
# Elastic Compliance Matrix: (Units=1/GPa)
#
#
# Indices 1 2 3 4 5 6 
#
# 1 0.030665 -0.006937 -0.011769 0.000000 -0.002282 0.000000
# 2 -0.006937 0.018617 -0.004887 0.000000 -0.002732 0.000000
# 3 -0.011769 -0.004887 0.015261 0.000000 0.005428 0.000000
# 4 0.000000 0.000000 0.000000 0.036376 0.000000 0.008066
# 5 -0.002282 -0.002732 0.005428 0.000000 0.036880 0.000000
# 6 0.000000 0.000000 0.000000 0.008066 0.000000 0.039697
#
#
# Mechanical properties :
#
#
# Convention : Reuss Voigt Hill
#
# Bulk Modulus (GPa) = 57.61177 69.96372 63.78775
# Shear Modulus (GPa) = 21.69511 25.07699 23.38605
#
# Velocity S-wave (km/s) = 3.49390 3.75636 3.62750
# Velocity P-wave (km/s) = 6.97805 7.62761 7.31005
#
# Compressibility (1/GPa) = 0.01735756
#
# Stress axis : x y z
#
# Youngs Moduli (GPa) = 32.61058 53.71548 65.52556
#
# Poissons Ratio (x) = 0.37260 0.77119
# Poissons Ratio (y) = 0.22621 0.32021
# Poissons Ratio (z) = 0.38380 0.26249
#
# Static dielectric constant tensor:
#      x y z
#    x 3.389670 0.000000 0.045870 
#    y 0.000000 3.092740 0.000000 
#    z 0.045870 0.000000 3.674220 
# 
# 
# High freq. dielectric constant tensor:
#      x y z
#    x 1.670910 0.000000 0.000020 
#    y 0.000000 1.672130 0.000000 
#    z 0.000020 0.000000 1.702140 
# 
# From -- ./inp_files/363193.got.cif
#   From: 2010.06.25/outbox.cif.g09.slc.cpg/sg12_182_cif.got.tgz:363193.got - 2010.06.28 00:19:55.
