data_PCOD8097645
_publ_section_title
;
Structure prediction by ZEFSAII (Michael W. Deem and Ramdas Pophale) SiO2 
 PCOD8097645
Probable space group: C 2/M
;
_chemical_formula_sum "Si O2"
_cell_formula_units_Z 56
_cell_length_a 18.092655
_cell_length_b 9.078229
_cell_length_c 28.914723
_cell_angle_alpha 90.000000
_cell_angle_beta 141.607197
_cell_angle_gamma 90.000000
_cell_volume 2949.501169
_symmetry_space_group_name_H-M "C 2/M"
_symmetry_group_IT_number 12
_symmetry_cell_setting 'monoclinic'
loop_
_space_group_symop_operation_xyz
x,y,z
-x,y,-z
-x,-y,-z
x,-y,z
1/2+x,1/2+y,z
1/2-x,1/2+y,-z
1/2-x,1/2-y,-z
1/2+x,1/2-y,z
loop_
_atom_site_type_symbol
_atom_site_label
_atom_site_fract_x
_atom_site_fract_y
_atom_site_fract_z
Si Si1 0.597400 0.329736 0.638058
Si Si2 0.482989 0.328499 0.216597
Si Si3 0.318180 0.328908 0.492428
Si Si4 0.245768 0.326827 0.633547
Si Si5 0.368822 0.669496 0.927440
Si Si6 0.799600 0.669658 0.068673
Si Si7 0.680571 0.672623 0.779457
O O1 0.630770 0.500000 0.644969
O O2 0.457300 0.306483 0.568247
O O3 0.655027 0.227064 0.627818
O O4 0.643679 0.275203 0.710468
O O5 0.461088 0.500000 0.196584
O O6 0.621253 0.288532 0.285230
O O7 0.424840 0.239435 0.145765
O O8 0.423820 0.280158 0.236260
O O9 0.283488 0.500000 0.475041
O O10 0.250000 0.250000 0.500000
O O11 0.279842 0.257599 0.425863
O O12 0.228964 0.500000 0.616913
O O13 0.377777 0.500000 0.917185
O O14 0.296352 0.693127 0.938532
O O15 0.305253 0.752415 0.853991
O O16 0.500000 0.736127 0.000000
O O17 0.821321 0.500000 0.067542
O O18 0.750000 0.750000 0.000000
O O19 0.700652 0.500000 0.790851
#
# Coordination Sequence:
#
# PCOD8097645 Si02
#       7
#     8   8   8   8   8   8   8
#     4  10  22  39  57  82 116 149 181 225 280 330
#     4   9  19  37  57  77 106 144 184 227 274 325
#     4  11  23  40  62  85 113 149 187 228 276 332
#     4  11  23  38  58  85 115 147 186 231 278 329
#     4   9  19  35  53  75 105 138 174 219 269 319
#     4  10  20  34  54  79 107 141 181 225 273 328
#     4   9  18  35  57  77 102 139 182 223 266 322
#
# _framework density 18.986260999999999
#
# number of rings (size 3 to 8) (size 9 to 14) (size 15 to 20)
#    0.000    2.143    0.000    2.571    0.000    8.857 
#    0.000    7.143    0.000    0.000    0.000    0.000 
#    0.000    0.000    0.000    0.000    0.000    0.000 
#
# Total GULP energy -347305.811204 kJ/mol
# GULP energy per Si atom -12403.778972 kJ/mol
# Density = 1.894305 g / cm^3
# Si number density = 18.986261 Si / 1000 Ang^3
#
#
#
# Elastic Constant Matrix: (Units=GPa)
#
#
# Indices 1 2 3 4 5 6 
#
# 1 93.1780 58.0051 66.2522 0.0000 -5.5246 0.0000
# 2 58.0051 97.9946 84.7521 0.0001 -7.5730 -0.0001
# 3 66.2522 84.7521 158.7218 0.0000 -11.7163 0.0000
# 4 0.0000 0.0001 0.0000 37.7805 0.0000 3.3677
# 5 -5.5246 -7.5730 -11.7163 0.0000 35.6096 0.0000
# 6 0.0000 -0.0001 0.0000 3.3677 0.0000 13.5568
#
#
#
# Elastic Compliance Matrix: (Units=1/GPa)
#
#
# Indices 1 2 3 4 5 6 
#
# 1 0.017917 -0.007686 -0.003372 0.000000 0.000036 0.000000
# 2 -0.007686 0.022277 -0.008635 0.000000 0.000704 0.000000
# 3 -0.003372 -0.008635 0.012446 0.000000 0.001736 0.000000
# 4 0.000000 0.000000 0.000000 0.027068 0.000000 -0.006724
# 5 0.000036 0.000704 0.001736 0.000000 0.028809 0.000000
# 6 0.000000 0.000000 0.000000 -0.006724 0.000000 0.075434
#
#
# Mechanical properties :
#
#
# Convention : Reuss Voigt Hill
#
# Bulk Modulus (GPa) = 75.44762 85.32368 80.38565
# Shear Modulus (GPa) = 21.95358 26.78173 24.36765
#
# Velocity S-wave (km/s) = 3.40411 3.75985 3.58639
# Velocity P-wave (km/s) = 7.43471 7.99286 7.71883
#
# Compressibility (1/GPa) = 0.01325423
#
# Stress axis : x y z
#
# Youngs Moduli (GPa) = 55.81444 44.89031 80.34465
#
# Poissons Ratio (x) = 0.34504 0.27089
# Poissons Ratio (y) = 0.42901 0.69374
# Poissons Ratio (z) = 0.18819 0.38761
#
# Static dielectric constant tensor:
#      x y z
#    x 3.189300 0.000000 0.278700 
#    y 0.000000 3.537380 0.000000 
#    z 0.278700 0.000000 3.544800 
# 
# 
# High freq. dielectric constant tensor:
#      x y z
#    x 1.736280 0.000000 0.000520 
#    y 0.000000 1.739810 0.000000 
#    z 0.000520 0.000000 1.754530 
# 
# From -- ./inp_files/363154.got.cif
#   From: 2010.06.25/outbox.cif.g09.slc.cpg/sg12_182_cif.got.tgz:363154.got - 2010.06.28 00:19:55.
