data_PCOD8097029
_publ_section_title
;
Structure prediction by ZEFSAII (Michael W. Deem and Ramdas Pophale) SiO2 
 PCOD8097029
Probable space group: C 2/M
;
_chemical_formula_sum "Si O2"
_cell_formula_units_Z 44
_cell_length_a 8.459992
_cell_length_b 12.334928
_cell_length_c 28.603687
_cell_angle_alpha 90.000000
_cell_angle_beta 51.355154
_cell_angle_gamma 90.000000
_cell_volume 2331.295737
_symmetry_space_group_name_H-M "C 2/M"
_symmetry_group_IT_number 12
_symmetry_cell_setting 'monoclinic'
loop_
_space_group_symop_operation_xyz
x,y,z
-x,y,-z
-x,-y,-z
x,-y,z
1/2+x,1/2+y,z
1/2-x,1/2+y,-z
1/2-x,1/2-y,-z
1/2+x,1/2-y,z
loop_
_atom_site_type_symbol
_atom_site_label
_atom_site_fract_x
_atom_site_fract_y
_atom_site_fract_z
Si Si1 0.023086 0.237201 0.357493
Si Si2 0.912013 0.125037 0.285763
Si Si3 0.770691 0.877082 0.851662
Si Si4 0.129955 0.127976 0.432013
Si Si5 0.423513 0.698226 0.916828
Si Si6 0.000000 0.189704 0.000000
O O1 0.229079 0.297046 0.305348
O O2 0.026270 0.172188 0.404815
O O3 0.975709 0.148675 0.326955
O O4 0.856471 0.329440 0.393858
O O5 0.098730 0.152604 0.217696
O O6 0.846361 0.000000 0.293174
O O7 0.575442 0.800275 0.887332
O O8 0.923032 0.867457 0.868416
O O9 0.689529 0.000000 0.864409
O O10 0.000000 0.169325 0.500000
O O11 0.138670 0.000000 0.428519
O O12 0.193421 0.733436 0.965470
O O13 0.489767 0.626635 0.951357
#
# Coordination Sequence:
#
# PCOD8097029 Si02
#       6
#     8   8   8   8   8   4
#     4  10  20  34  53  75 100 134 168 204 250 296
#     4  10  20  34  52  75 101 130 167 207 247 295
#     4  10  20  34  53  75 100 132 166 203 250 296
#     4  10  20  34  52  75 103 133 167 207 248 294
#     4   9  17  34  53  73 102 131 163 206 246 292
#     4   8  16  32  52  72 102 132 160 206 248 286
#
# _framework density 18.873626000000002
#
# number of rings (size 3 to 8) (size 9 to 14) (size 15 to 20)
#    0.000    2.364    0.000    2.727    0.000    0.000 
#    0.000   20.909    0.000   24.000    0.000    0.000 
#    0.000    0.000    0.000    0.000    0.000    0.000 
#
# Total GULP energy -272590.641581 kJ/mol
# GULP energy per Si atom -12390.483708 kJ/mol
# Density = 1.883067 g / cm^3
# Si number density = 18.873626 Si / 1000 Ang^3
#
#
#
# Elastic Constant Matrix: (Units=GPa)
#
#
# Indices 1 2 3 4 5 6 
#
# 1 92.7698 17.3485 40.6992 0.0002 4.4624 -0.0001
# 2 17.3485 52.2804 34.1968 0.0002 -0.1022 -0.0001
# 3 40.6992 34.1968 108.2599 0.0002 1.0869 -0.0002
# 4 0.0002 0.0002 0.0002 -36.8933 -0.0001 5.1808
# 5 4.4624 -0.1022 1.0869 -0.0001 22.8593 0.0001
# 6 -0.0001 -0.0001 -0.0002 5.1808 0.0001 18.6810
#
#
#
# Elastic Compliance Matrix: (Units=1/GPa)
#
#
# Indices 1 2 3 4 5 6 
#
# 1 0.013115 -0.001446 -0.004450 0.000000 -0.002355 0.000000
# 2 -0.001446 0.024273 -0.007131 0.000000 0.000730 0.000000
# 3 -0.004450 -0.007131 0.013160 0.000000 0.000211 0.000000
# 4 0.000000 0.000000 0.000000 -0.026089 0.000000 0.007235
# 5 -0.002355 0.000730 0.000211 0.000000 0.044199 0.000000
# 6 0.000000 0.000000 0.000000 0.007235 0.000000 0.051524
#
#
# Mechanical properties :
#
#
# Convention : Reuss Voigt Hill
#
# Bulk Modulus (GPa) = 40.82507 48.64434 44.73470
# Shear Modulus (GPa) = 32.38298 11.66712 22.02505
#
# Velocity S-wave (km/s) = 4.14669 2.48900 3.41981
# Velocity P-wave (km/s) = 6.67866 5.83865 6.27273
#
# Compressibility (1/GPa) = 0.02449475
#
# Stress axis : x y z
#
# Youngs Moduli (GPa) = 76.24615 41.19750 75.98497
#
# Poissons Ratio (x) = 0.05956 0.33815
# Poissons Ratio (y) = 0.11024 0.54186
# Poissons Ratio (z) = 0.33931 0.29379
#
# Static dielectric constant tensor:
#      x y z
#    x 3.768890 0.000000 0.309210 
#    y 0.000000 3.146280 0.000000 
#    z 0.309210 0.000000 3.867440 
# 
# 
# High freq. dielectric constant tensor:
#      x y z
#    x 1.747340 0.000000 0.010990 
#    y 0.000000 1.709250 0.000000 
#    z 0.010990 0.000000 1.753530 
# 
# From -- ./inp_files/299363.got.cif
#   From: 2010.06.25/outbox.cif.g09.slc.cpg/sg12_150_cif.got.tgz:299363.got - 2010.06.28 00:19:55.
