data_PCOD8097529
_publ_section_title
;
Structure prediction by ZEFSAII (Michael W. Deem and Ramdas Pophale) SiO2 
 PCOD8097529
Probable space group: C 2/M
;
_chemical_formula_sum "Si O2"
_cell_formula_units_Z 36
_cell_length_a 9.087116
_cell_length_b 21.179669
_cell_length_c 12.445361
_cell_angle_alpha 90.000000
_cell_angle_beta 123.573877
_cell_angle_gamma 90.000000
_cell_volume 1995.667424
_symmetry_space_group_name_H-M "C 2/M"
_symmetry_group_IT_number 12
_symmetry_cell_setting 'monoclinic'
loop_
_space_group_symop_operation_xyz
x,y,z
-x,y,-z
-x,-y,-z
x,-y,z
1/2+x,1/2+y,z
1/2-x,1/2+y,-z
1/2-x,1/2-y,-z
1/2+x,1/2-y,z
loop_
_atom_site_type_symbol
_atom_site_label
_atom_site_fract_x
_atom_site_fract_y
_atom_site_fract_z
Si Si1 0.791919 0.928033 0.414431
Si Si2 0.986153 0.571144 0.871535
Si Si3 0.615193 0.192410 0.440899
Si Si4 0.140122 0.314026 0.848378
Si Si5 0.500000 0.744628 0.000000
O O1 0.710857 0.920472 0.260294
O O2 0.707803 0.875429 0.458465
O O3 0.000000 0.915511 0.500000
O O4 0.751917 0.000000 0.439035
O O5 0.053082 0.500000 0.891953
O O6 0.122365 0.610482 0.853171
O O7 0.000000 0.594901 0.000000
O O8 0.500000 0.185588 0.500000
O O9 0.750000 0.250000 0.500000
O O10 0.484502 0.212880 0.293719
O O11 0.340116 0.299415 0.896582
O O12 0.072898 0.286356 0.933403
#
# Coordination Sequence:
#
# PCOD8097529 Si02
#       5
#     8   8   8   8   4
#     4   9  19  36  57  81 109 143 184 224 270 327
#     4   9  17  33  56  79 105 137 176 219 264 315
#     4  11  22  36  54  80 110 145 180 226 269 324
#     4  10  20  36  53  79 103 141 176 219 268 318
#     4  10  20  34  54  74 106 138 174 220 266 318
#
# _framework density 18.039078
#
# number of rings (size 3 to 8) (size 9 to 14) (size 15 to 20)
#    0.000    2.222    1.111    2.000    0.000    2.222 
#    4.000    0.556    0.000    0.000    0.000    0.000 
#    0.000    0.000    0.000    0.000    0.000    0.000 
#
# Total GULP energy -223062.004977 kJ/mol
# GULP energy per Si atom -12392.333610 kJ/mol
# Density = 1.799802 g / cm^3
# Si number density = 18.039078 Si / 1000 Ang^3
#
#
#
# Elastic Constant Matrix: (Units=GPa)
#
#
# Indices 1 2 3 4 5 6 
#
# 1 105.1602 59.5640 44.3161 0.0000 14.2665 0.0000
# 2 59.5640 108.7465 49.3499 0.0000 11.1067 0.0000
# 3 44.3161 49.3499 105.9709 0.0000 12.7583 0.0000
# 4 0.0000 0.0000 0.0000 27.3088 0.0000 -4.0528
# 5 14.2665 11.1067 12.7583 0.0000 32.6266 0.0000
# 6 0.0000 0.0000 0.0000 -4.0528 0.0000 54.4434
#
#
#
# Elastic Compliance Matrix: (Units=1/GPa)
#
#
# Indices 1 2 3 4 5 6 
#
# 1 0.014804 -0.006528 -0.002769 0.000000 -0.003168 0.000000
# 2 -0.006528 0.014657 -0.004028 0.000000 -0.000560 0.000000
# 3 -0.002769 -0.004028 0.012760 0.000000 -0.002408 0.000000
# 4 0.000000 0.000000 0.000000 0.037027 0.000000 0.002756
# 5 -0.003168 -0.000560 -0.002408 0.000000 0.033167 0.000000
# 6 0.000000 0.000000 0.000000 0.002756 0.000000 0.018573
#
#
# Mechanical properties :
#
#
# Convention : Reuss Voigt Hill
#
# Bulk Modulus (GPa) = 64.22770 69.59309 66.91040
# Shear Modulus (GPa) = 30.70710 33.98558 32.34634
#
# Velocity S-wave (km/s) = 4.13031 4.34521 4.23913
# Velocity P-wave (km/s) = 7.64382 7.98983 7.81874
#
# Compressibility (1/GPa) = 0.01556961
#
# Stress axis : x y z
#
# Youngs Moduli (GPa) = 67.55044 68.22898 78.36797
#
# Poissons Ratio (x) = 0.44542 0.21702
# Poissons Ratio (y) = 0.44099 0.31567
# Poissons Ratio (z) = 0.18706 0.27483
#
# Static dielectric constant tensor:
#      x y z
#    x 3.189660 0.000000 0.128030 
#    y 0.000000 3.595970 0.000000 
#    z 0.128030 0.000000 3.635500 
# 
# 
# High freq. dielectric constant tensor:
#      x y z
#    x 1.671970 0.000000 0.010710 
#    y 0.000000 1.713310 0.000000 
#    z 0.010710 0.000000 1.716240 
# 
# From -- ./inp_files/119238.got.cif
#   From: 2010.06.25/outbox.cif.g09.slc.cpg/sg12_60_cif.got.tgz:119238.got - 2010.06.28 00:19:55.
