data_PCOD8097544
_publ_section_title
;
Structure prediction by ZEFSAII (Michael W. Deem and Ramdas Pophale) SiO2 
 PCOD8097544
Probable space group: C 2/M
;
_chemical_formula_sum "Si O2"
_cell_formula_units_Z 64
_cell_length_a 30.129586
_cell_length_b 9.256552
_cell_length_c 15.626447
_cell_angle_alpha 90.000000
_cell_angle_beta 133.069546
_cell_angle_gamma 90.000000
_cell_volume 3183.742560
_symmetry_space_group_name_H-M "C 2/M"
_symmetry_group_IT_number 12
_symmetry_cell_setting 'monoclinic'
loop_
_space_group_symop_operation_xyz
x,y,z
-x,y,-z
-x,-y,-z
x,-y,z
1/2+x,1/2+y,z
1/2-x,1/2+y,-z
1/2-x,1/2-y,-z
1/2+x,1/2-y,z
loop_
_atom_site_type_symbol
_atom_site_label
_atom_site_fract_x
_atom_site_fract_y
_atom_site_fract_z
Si Si1 0.567625 0.670283 0.604029
Si Si2 0.712666 0.334340 0.102921
Si Si3 0.973079 0.329392 0.128409
Si Si4 0.108663 0.164590 0.097492
Si Si5 0.607732 0.330603 0.843556
Si Si6 0.590378 0.660588 0.264559
Si Si7 0.288078 0.336980 0.480811
Si Si8 0.687685 0.328593 0.675875
O O1 0.500000 0.739558 0.500000
O O2 0.559559 0.500000 0.592931
O O3 0.597509 0.719082 0.733072
O O4 0.616756 0.717726 0.596420
O O5 0.733629 0.500000 0.131031
O O6 0.669266 0.298308 0.125794
O O7 0.772246 0.236843 0.193930
O O8 0.676563 0.297020 0.967163
O O9 0.966870 0.500000 0.122788
O O10 0.939361 0.261055 0.164183
O O11 0.042918 0.283858 0.225550
O O12 0.945737 0.268740 0.003865
O O13 0.121384 0.192906 0.213749
O O14 0.088668 0.000000 0.052635
O O15 0.593947 0.500000 0.839493
O O16 0.560273 0.500000 0.224077
O O17 0.641521 0.666499 0.403162
O O18 0.262639 0.500000 0.448054
O O19 0.250000 0.250000 0.500000
O O20 0.286951 0.272790 0.382588
O O21 0.692840 0.500000 0.688871
#
# Coordination Sequence:
#
# PCOD8097544 Si02
#       8
#     8   8   8   8   8   8   8   8
#     4   9  19  36  62  89 111 142 188 241 285 331
#     4   9  18  34  56  82 112 149 187 223 275 339
#     4  11  22  33  50  80 114 145 182 233 289 336
#     4   9  18  34  54  77 107 147 193 231 272 334
#     4   9  19  37  60  82 108 147 191 230 274 338
#     4  10  20  34  54  76 104 148 194 234 277 338
#     4  10  22  38  57  82 113 147 188 234 281 334
#     4  10  21  36  57  89 116 142 188 240 286 330
#
# _framework density 20.102126999999999
#
# number of rings (size 3 to 8) (size 9 to 14) (size 15 to 20)
#    0.000    2.375    0.000    3.000    1.750    6.500 
#    0.000    0.625    0.000    0.750    0.000    0.000 
#    0.000    0.000    0.000    0.000    0.000    0.000 
#
# Total GULP energy -396675.572901 kJ/mol
# GULP energy per Si atom -12396.111653 kJ/mol
# Density = 2.005637 g / cm^3
# Si number density = 20.102127 Si / 1000 Ang^3
#
#
#
# Elastic Constant Matrix: (Units=GPa)
#
#
# Indices 1 2 3 4 5 6 
#
# 1 91.7604 32.2766 53.5162 0.0000 5.2769 0.0000
# 2 32.2766 61.0216 29.9898 0.0000 1.6673 0.0000
# 3 53.5162 29.9898 118.6776 0.0000 -1.1271 0.0000
# 4 0.0000 0.0000 0.0000 24.5902 0.0000 6.3627
# 5 5.2769 1.6673 -1.1271 0.0000 30.4047 0.0000
# 6 0.0000 0.0000 0.0000 6.3627 0.0000 21.0135
#
#
#
# Elastic Compliance Matrix: (Units=1/GPa)
#
#
# Indices 1 2 3 4 5 6 
#
# 1 0.016614 -0.005728 -0.006071 0.000000 -0.002794 0.000000
# 2 -0.005728 0.020730 -0.002658 0.000000 -0.000241 0.000000
# 3 -0.006071 -0.002658 0.011851 0.000000 0.001639 0.000000
# 4 0.000000 0.000000 0.000000 0.044123 0.000000 -0.013360
# 5 -0.002794 -0.000241 0.001639 0.000000 0.033449 0.000000
# 6 0.000000 0.000000 0.000000 -0.013360 0.000000 0.051634
#
#
# Mechanical properties :
#
#
# Convention : Reuss Voigt Hill
#
# Bulk Modulus (GPa) = 49.30526 55.89164 52.59845
# Shear Modulus (GPa) = 23.35625 25.58014 24.46820
#
# Velocity S-wave (km/s) = 3.41233 3.57109 3.49262
# Velocity P-wave (km/s) = 6.33293 6.69835 6.51820
#
# Compressibility (1/GPa) = 0.02028181
#
# Stress axis : x y z
#
# Youngs Moduli (GPa) = 60.18971 48.23892 84.38049
#
# Poissons Ratio (x) = 0.27630 0.51228
# Poissons Ratio (y) = 0.34475 0.22428
# Poissons Ratio (z) = 0.36542 0.12821
#
# Static dielectric constant tensor:
#      x y z
#    x 3.629860 0.000000 -0.076730 
#    y 0.000000 3.382370 0.000000 
#    z -0.076730 0.000000 3.825720 
# 
# 
# High freq. dielectric constant tensor:
#      x y z
#    x 1.782070 0.000000 -0.001800 
#    y 0.000000 1.752810 0.000000 
#    z -0.001800 0.000000 1.791620 
# 
# From -- ./inp_files/250133.got.cif
#   From: 2010.06.25/outbox.cif.g09.slc.cpg/sg12_126_cif.got.tgz:250133.got - 2010.06.28 00:19:55.
