data_PCOD8097274
_publ_section_title
;
Structure prediction by ZEFSAII (Michael W. Deem and Ramdas Pophale) SiO2 
 PCOD8097274
Probable space group: C 2/M
;
_chemical_formula_sum "Si O2"
_cell_formula_units_Z 56
_cell_length_a 8.861641
_cell_length_b 28.648264
_cell_length_c 21.751063
_cell_angle_alpha 90.000000
_cell_angle_beta 35.429936
_cell_angle_gamma 90.000000
_cell_volume 3201.116501
_symmetry_space_group_name_H-M "C 2/M"
_symmetry_group_IT_number 12
_symmetry_cell_setting 'monoclinic'
loop_
_space_group_symop_operation_xyz
x,y,z
-x,y,-z
-x,-y,-z
x,-y,z
1/2+x,1/2+y,z
1/2-x,1/2+y,-z
1/2-x,1/2-y,-z
1/2+x,1/2-y,z
loop_
_atom_site_type_symbol
_atom_site_label
_atom_site_fract_x
_atom_site_fract_y
_atom_site_fract_z
Si Si1 0.922397 0.388973 0.199976
Si Si2 0.078691 0.798203 0.121888
Si Si3 0.918526 0.053569 0.377508
Si Si4 0.566249 0.798203 0.878111
Si Si5 0.679308 0.447756 1.000000
Si Si6 0.277696 0.388974 0.199976
Si Si7 0.571435 0.946431 0.377510
O O1 0.661169 0.413294 0.310292
O O2 0.851898 0.339048 0.195128
O O3 0.053339 0.421135 0.104045
O O4 0.115894 0.381301 0.192052
O O5 0.226822 0.794836 0.136588
O O6 0.927312 0.750000 0.161343
O O7 0.867591 0.839049 0.195126
O O8 0.276560 0.808038 0.999999
O O9 0.700782 0.065688 0.499999
O O10 0.807225 0.062535 0.346387
O O11 0.007558 0.000000 0.354828
O O12 0.747297 0.500000 0.999998
O O13 0.500000 0.449893 0.000000
O O14 0.530477 0.421136 0.104047
O O15 0.097654 0.413294 0.310294
O O16 0.573117 0.000000 0.354832
#
# Coordination Sequence:
#
# PCOD8097274 Si02
#       7
#     8   8   8   8   8   8   8
#     4  11  20  32  52  77 108 140 174 215 262 314
#     4  10  20  34  53  76 105 138 176 216 259 311
#     4   9  19  36  55  75 103 140 181 223 264 307
#     4  10  20  34  53  76 105 138 176 216 259 311
#     4   9  18  30  44  69 106 141 168 203 254 305
#     4  11  20  32  52  77 108 140 174 215 262 314
#     4   9  19  36  55  75 103 140 181 223 264 307
#
# _framework density 17.493895999999999
#
# number of rings (size 3 to 8) (size 9 to 14) (size 15 to 20)
#    0.000    2.143    1.429    3.429    0.000    3.429 
#    0.000    1.429    0.000    4.286    0.000    0.000 
#    0.000    0.000    0.000    0.000    0.000    0.000 
#
# Total GULP energy -347315.900356 kJ/mol
# GULP energy per Si atom -12404.139298 kJ/mol
# Density = 1.745408 g / cm^3
# Si number density = 17.493896 Si / 1000 Ang^3
#
#
#
# Elastic Constant Matrix: (Units=GPa)
#
#
# Indices 1 2 3 4 5 6 
#
# 1 66.2386 45.6091 29.4556 0.0002 0.1439 0.0000
# 2 45.6091 136.3330 52.8653 0.0000 0.0582 0.0000
# 3 29.4556 52.8653 76.9470 0.0000 -0.0559 -0.0002
# 4 0.0002 0.0000 0.0000 22.9832 -0.0002 -0.0628
# 5 0.1439 0.0582 -0.0559 -0.0002 27.3368 0.0000
# 6 0.0000 0.0000 -0.0002 -0.0628 0.0000 30.8196
#
#
#
# Elastic Compliance Matrix: (Units=1/GPa)
#
#
# Indices 1 2 3 4 5 6 
#
# 1 0.020608 -0.005228 -0.004297 0.000000 -0.000106 0.000000
# 2 -0.005228 0.011325 -0.005779 0.000000 -0.000008 0.000000
# 3 -0.004297 -0.005779 0.018612 0.000000 0.000073 0.000000
# 4 0.000000 0.000000 0.000000 0.043510 0.000000 0.000089
# 5 -0.000106 -0.000008 0.000073 0.000000 0.036581 0.000000
# 6 0.000000 0.000000 0.000000 0.000089 0.000000 0.032447
#
#
# Mechanical properties :
#
#
# Convention : Reuss Voigt Hill
#
# Bulk Modulus (GPa) = 50.16147 59.48650 54.82399
# Shear Modulus (GPa) = 24.95794 26.33382 25.64588
#
# Velocity S-wave (km/s) = 3.78122 3.88405 3.83298
# Velocity P-wave (km/s) = 6.91371 7.36155 7.14114
#
# Compressibility (1/GPa) = 0.01993562
#
# Stress axis : x y z
#
# Youngs Moduli (GPa) = 48.52557 88.30040 53.72986
#
# Poissons Ratio (x) = 0.46162 0.23088
# Poissons Ratio (y) = 0.25368 0.31053
# Poissons Ratio (z) = 0.20852 0.51033
#
# Static dielectric constant tensor:
#      x y z
#    x 3.089410 0.000000 -0.000210 
#    y 0.000000 3.286420 0.000000 
#    z -0.000210 0.000000 3.062240 
# 
# 
# High freq. dielectric constant tensor:
#      x y z
#    x 1.672580 0.000000 -0.000130 
#    y 0.000000 1.680740 0.000000 
#    z -0.000130 0.000000 1.655740 
# 
# From -- ./inp_files/199715.got.cif
#   From: 2010.06.25/outbox.cif.g09.slc.cpg/sg12_100_cif.got.tgz:199715.got - 2010.06.28 00:19:55.
