data_PCOD8097087
_publ_section_title
;
Structure prediction by ZEFSAII (Michael W. Deem and Ramdas Pophale) SiO2 
 PCOD8097087
Probable space group: C 2/M
;
_chemical_formula_sum "Si O2"
_cell_formula_units_Z 56
_cell_length_a 14.433636
_cell_length_b 9.250090
_cell_length_c 32.220082
_cell_angle_alpha 90.000000
_cell_angle_beta 47.115889
_cell_angle_gamma 90.000000
_cell_volume 3152.051441
_symmetry_space_group_name_H-M "C 2/M"
_symmetry_group_IT_number 12
_symmetry_cell_setting 'monoclinic'
loop_
_space_group_symop_operation_xyz
x,y,z
-x,y,-z
-x,-y,-z
x,-y,z
1/2+x,1/2+y,z
1/2-x,1/2+y,-z
1/2-x,1/2-y,-z
1/2+x,1/2-y,z
loop_
_atom_site_type_symbol
_atom_site_label
_atom_site_fract_x
_atom_site_fract_y
_atom_site_fract_z
Si Si1 0.383373 0.332892 0.652023
Si Si2 0.284965 0.670513 0.144136
Si Si3 0.567081 0.332861 0.067012
Si Si4 0.097098 0.331244 0.270666
Si Si5 0.764588 0.168923 0.058961
Si Si6 0.823790 0.830925 0.441705
Si Si7 0.693376 0.831232 0.637143
O O1 0.358949 0.500000 0.669488
O O2 0.354307 0.244638 0.702416
O O3 0.527975 0.305436 0.594644
O O4 0.289431 0.281044 0.644020
O O5 0.269171 0.500000 0.145332
O O6 0.422889 0.710502 0.118804
O O7 0.178654 0.732755 0.207579
O O8 0.274451 0.739341 0.101536
O O9 0.593077 0.500000 0.069051
O O10 0.642457 0.235981 0.075617
O O11 0.609651 0.299093 0.006554
O O12 0.122687 0.500000 0.269182
O O13 0.950526 0.300533 0.304849
O O14 0.741174 0.000000 0.069639
O O15 0.750000 0.750000 0.500000
O O16 0.778351 0.763176 0.412093
O O17 0.789742 0.000000 0.451963
O O18 0.713482 0.000000 0.620210
#
# Coordination Sequence:
#
# PCOD8097087 Si02
#       7
#     8   8   8   8   8   8   8
#     4   9  19  35  53  72  98 131 161 193 238 283
#     4   9  17  30  48  69  93 124 159 193 237 290
#     4   9  17  30  47  67  93 123 155 194 240 288
#     4   9  18  32  50  71  94 122 161 203 235 276
#     4   9  17  30  48  68  91 122 159 196 236 287
#     4  10  20  34  52  76 104 130 159 196 234 276
#     4   9  18  34  53  71  95 129 163 195 235 280
#
# _framework density 17.766207999999999
#
# number of rings (size 3 to 8) (size 9 to 14) (size 15 to 20)
#    0.000    2.857    0.000    0.857    0.000    4.571 
#    0.000    6.429    0.000    3.429    0.000    0.000 
#    0.000    0.000    0.000    0.000    0.000    0.000 
#
# Total GULP energy -347135.461971 kJ/mol
# GULP energy per Si atom -12397.695070 kJ/mol
# Density = 1.772577 g / cm^3
# Si number density = 17.766208 Si / 1000 Ang^3
#
#
#
# Elastic Constant Matrix: (Units=GPa)
#
#
# Indices 1 2 3 4 5 6 
#
# 1 93.0600 22.0421 44.3693 0.0002 5.5022 0.0002
# 2 22.0421 33.7656 32.1598 0.0004 2.4470 0.0004
# 3 44.3693 32.1598 118.8917 0.0002 -0.9065 0.0002
# 4 0.0002 0.0004 0.0002 22.4514 0.0001 3.7738
# 5 5.5022 2.4470 -0.9065 0.0001 17.9792 0.0002
# 6 0.0002 0.0004 0.0002 3.7738 0.0002 25.8953
#
#
#
# Elastic Compliance Matrix: (Units=1/GPa)
#
#
# Indices 1 2 3 4 5 6 
#
# 1 0.014045 -0.005220 -0.003859 0.000000 -0.003782 0.000000
# 2 -0.005220 0.042486 -0.009580 -0.000001 -0.004668 0.000000
# 3 -0.003859 -0.009580 0.012466 0.000000 0.003113 0.000000
# 4 0.000000 -0.000001 0.000000 0.045659 0.000000 -0.006654
# 5 -0.003782 -0.004668 0.003113 0.000000 0.057570 0.000000
# 6 0.000000 0.000000 0.000000 -0.006654 0.000000 0.039587
#
#
# Mechanical properties :
#
#
# Convention : Reuss Voigt Hill
#
# Bulk Modulus (GPa) = 31.56457 49.20664 40.38560
# Shear Modulus (GPa) = 19.25373 23.07491 21.16432
#
# Velocity S-wave (km/s) = 3.29557 3.60781 3.45522
# Velocity P-wave (km/s) = 5.68210 6.71654 6.22086
#
# Compressibility (1/GPa) = 0.03168110
#
# Stress axis : x y z
#
# Youngs Moduli (GPa) = 71.19774 23.53718 80.21763
#
# Poissons Ratio (x) = 0.12286 0.30952
# Poissons Ratio (y) = 0.37163 0.76848
# Poissons Ratio (z) = 0.27472 0.22549
#
# Static dielectric constant tensor:
#      x y z
#    x 3.360460 0.000000 -0.004630 
#    y 0.000000 3.132260 0.000000 
#    z -0.004630 0.000000 3.503960 
# 
# 
# High freq. dielectric constant tensor:
#      x y z
#    x 1.689370 0.000000 -0.000040 
#    y 0.000000 1.668900 0.000000 
#    z -0.000040 0.000000 1.691200 
# 
# From -- ./inp_files/337894.got.cif
#   From: 2010.06.25/outbox.cif.g09.slc.cpg/sg12_169_cif.got.tgz:337894.got - 2010.06.28 00:19:55.
