data_PCOD8097629
_publ_section_title
;
Structure prediction by ZEFSAII (Michael W. Deem and Ramdas Pophale) SiO2 
 PCOD8097629
Probable space group: C 2/M
;
_chemical_formula_sum "Si O2"
_cell_formula_units_Z 64
_cell_length_a 18.687956
_cell_length_b 9.104287
_cell_length_c 30.977459
_cell_angle_alpha 90.000000
_cell_angle_beta 40.787559
_cell_angle_gamma 90.000000
_cell_volume 3443.000497
_symmetry_space_group_name_H-M "C 2/M"
_symmetry_group_IT_number 12
_symmetry_cell_setting 'monoclinic'
loop_
_space_group_symop_operation_xyz
x,y,z
-x,y,-z
-x,-y,-z
x,-y,z
1/2+x,1/2+y,z
1/2-x,1/2+y,-z
1/2-x,1/2-y,-z
1/2+x,1/2-y,z
loop_
_atom_site_type_symbol
_atom_site_label
_atom_site_fract_x
_atom_site_fract_y
_atom_site_fract_z
Si Si1 0.136195 0.828874 0.058874
Si Si2 0.301684 0.171577 0.194081
Si Si3 0.678572 0.168387 0.422243
Si Si4 0.034795 0.170580 0.937551
Si Si5 0.596699 0.827268 0.682604
Si Si6 0.530391 0.171095 0.809181
Si Si7 0.011742 0.331762 0.424372
Si Si8 0.553283 0.673899 0.318606
O O1 0.064112 0.797115 0.049679
O O2 0.076265 0.762562 0.128159
O O3 0.155988 0.000000 0.057684
O O4 0.250000 0.750000 0.000000
O O5 0.355088 0.249584 0.128315
O O6 0.366571 0.214055 0.207950
O O7 0.178087 0.227221 0.255986
O O8 0.306200 0.000000 0.183039
O O9 0.779706 0.276611 0.381661
O O10 0.601037 0.191647 0.498734
O O11 0.613653 0.209884 0.408387
O O12 0.718981 0.000000 0.401633
O O13 0.063410 0.000000 0.927524
O O14 0.000000 0.233313 0.000000
O O15 0.560450 0.783828 0.747177
O O16 0.516782 0.745584 0.686856
O O17 0.589912 0.000000 0.677538
O O18 0.501847 0.000000 0.826482
O O19 0.022148 0.500000 0.404184
O O20 0.009010 0.225077 0.384970
O O21 0.542165 0.500000 0.320937
#
# Coordination Sequence:
#
# PCOD8097629 Si02
#       8
#     8   8   8   8   8   8   8   8
#     4  10  20  34  54  79 106 138 175 216 263 314
#     4   9  19  36  56  77 102 135 176 219 264 314
#     4   9  19  37  60  84 110 140 178 224 269 320
#     4   9  19  35  54  77 104 135 173 214 257 309
#     4  11  23  37  55  80 110 145 183 223 272 325
#     4   9  19  37  57  76 102 137 178 222 265 316
#     4   9  19  37  60  84 109 141 180 220 268 324
#     4  11  23  37  54  80 113 145 180 224 271 320
#
# _framework density 18.588438
#
# number of rings (size 3 to 8) (size 9 to 14) (size 15 to 20)
#    0.000    2.375    0.000    2.625    0.000    6.250 
#    0.000    7.500    0.000    0.000    0.000    0.000 
#    0.000    0.000    0.000    0.000    0.000    0.000 
#
# Total GULP energy -396916.417962 kJ/mol
# GULP energy per Si atom -12403.638061 kJ/mol
# Density = 1.854613 g / cm^3
# Si number density = 18.588438 Si / 1000 Ang^3
#
#
#
# Elastic Constant Matrix: (Units=GPa)
#
#
# Indices 1 2 3 4 5 6 
#
# 1 102.8746 54.5311 77.3504 -0.0009 2.7743 -0.0021
# 2 54.5311 77.6716 65.2173 -0.0015 -2.6885 -0.0027
# 3 77.3504 65.2173 134.9916 0.0000 0.6185 -0.0002
# 4 -0.0009 -0.0015 0.0000 37.1896 -0.0003 -3.0044
# 5 2.7743 -2.6885 0.6185 -0.0003 35.8336 -0.0015
# 6 -0.0021 -0.0027 -0.0002 -3.0044 -0.0015 12.3749
#
#
#
# Elastic Compliance Matrix: (Units=1/GPa)
#
#
# Indices 1 2 3 4 5 6 
#
# 1 0.019296 -0.007297 -0.007523 0.000000 -0.001912 0.000001
# 2 -0.007297 0.024539 -0.007686 0.000001 0.002539 0.000005
# 3 -0.007523 -0.007686 0.015433 -0.000001 -0.000261 -0.000003
# 4 0.000000 0.000001 -0.000001 0.027427 0.000001 0.006659
# 5 -0.001912 0.002539 -0.000261 0.000001 0.028250 0.000004
# 6 0.000001 0.000005 -0.000003 0.006659 0.000004 0.082426
#
#
# Mechanical properties :
#
#
# Convention : Reuss Voigt Hill
#
# Bulk Modulus (GPa) = 70.14070 78.85947 74.50009
# Shear Modulus (GPa) = 20.23193 24.97556 22.60374
#
# Velocity S-wave (km/s) = 3.30269 3.66950 3.49092
# Velocity P-wave (km/s) = 7.23596 7.77623 7.51095
#
# Compressibility (1/GPa) = 0.01425706
#
# Stress axis : x y z
#
# Youngs Moduli (GPa) = 51.82310 40.75139 64.79754
#
# Poissons Ratio (x) = 0.29737 0.48745
# Poissons Ratio (y) = 0.37816 0.49801
# Poissons Ratio (z) = 0.38985 0.31320
#
# Static dielectric constant tensor:
#      x y z
#    x 3.421920 0.000000 0.027170 
#    y 0.000000 3.388350 0.000000 
#    z 0.027170 0.000000 3.518770 
# 
# 
# High freq. dielectric constant tensor:
#      x y z
#    x 1.718790 0.000000 0.000590 
#    y 0.000000 1.722200 0.000000 
#    z 0.000590 0.000000 1.731710 
# 
# From -- ./inp_files/378244.got.cif
#   From: 2010.06.25/outbox.cif.g09.slc.cpg/sg12_190_cif.got.tgz:378244.got - 2010.06.28 00:19:55.
