data_PCOD8097841
_publ_section_title
;
Structure prediction by ZEFSAII (Michael W. Deem and Ramdas Pophale) SiO2 
 PCOD8097841
Probable space group: C 2/M
;
_chemical_formula_sum "Si O2"
_cell_formula_units_Z 64
_cell_length_a 28.760972
_cell_length_b 8.784965
_cell_length_c 14.209989
_cell_angle_alpha 90.000000
_cell_angle_beta 61.331906
_cell_angle_gamma 90.000000
_cell_volume 3150.225355
_symmetry_space_group_name_H-M "C 2/M"
_symmetry_group_IT_number 12
_symmetry_cell_setting 'monoclinic'
loop_
_space_group_symop_operation_xyz
x,y,z
-x,y,-z
-x,-y,-z
x,-y,z
1/2+x,1/2+y,z
1/2-x,1/2+y,-z
1/2-x,1/2-y,-z
1/2+x,1/2-y,z
loop_
_atom_site_type_symbol
_atom_site_label
_atom_site_fract_x
_atom_site_fract_y
_atom_site_fract_z
Si Si1 0.618787 0.677024 0.457014
Si Si2 0.795466 0.181267 0.891772
Si Si3 0.954177 0.678511 0.611704
Si Si4 0.290964 0.674662 0.389438
Si Si5 0.216643 0.324427 0.299686
Si Si6 0.093495 0.178558 0.686536
Si Si7 0.504301 0.680829 0.101046
Si Si8 0.586975 0.678881 0.169678
O O1 0.617781 0.500000 0.431160
O O2 0.599984 0.775802 0.386565
O O3 0.678328 0.738166 0.411328
O O4 0.585063 0.711259 0.583578
O O5 0.783886 0.237373 0.798261
O O6 0.852814 0.239469 0.875682
O O7 0.792897 0.000000 0.897563
O O8 0.750000 0.250000 0.000000
O O9 0.960340 0.500000 0.617708
O O10 0.953739 0.752848 0.714527
O O11 0.000000 0.746939 0.500000
O O12 0.294864 0.500000 0.418238
O O13 0.250000 0.750000 0.500000
O O14 0.273233 0.687072 0.297127
O O15 0.349777 0.749100 0.337534
O O16 0.200407 0.500000 0.299604
O O17 0.044709 0.251589 0.791500
O O18 0.094499 0.000000 0.705266
O O19 0.499116 0.500000 0.103272
O O20 0.560986 0.724650 0.093966
O O21 0.500000 0.748882 0.000000
O O22 0.586454 0.500000 0.184561
#
# Coordination Sequence:
#
# PCOD8097841 Si02
#       8
#     8   8   8   8   8   8   8   8
#     4  11  20  33  56  82 115 154 193 243 296 356
#     4  11  24  41  62  88 119 157 201 248 297 354
#     4  11  23  36  54  84 120 157 195 240 298 358
#     4  10  20  34  54  82 118 158 197 242 297 357
#     4  11  22  36  57  85 119 157 196 243 298 354
#     4   9  18  32  53  83 116 151 193 242 296 347
#     4   9  18  34  58  86 114 146 191 246 292 340
#     4  10  21  38  61  88 115 151 197 242 293 351
#
# _framework density 20.316006000000002
#
# number of rings (size 3 to 8) (size 9 to 14) (size 15 to 20)
#    0.000    1.750    2.500    2.250    0.000    4.000 
#    0.000    3.750    0.000    0.375    0.000    0.000 
#    0.000    0.000    0.000    0.000    0.000    0.000 
#
# Total GULP energy -396645.720904 kJ/mol
# GULP energy per Si atom -12395.178778 kJ/mol
# Density = 2.026977 g / cm^3
# Si number density = 20.316006 Si / 1000 Ang^3
#
#
#
# Elastic Constant Matrix: (Units=GPa)
#
#
# Indices 1 2 3 4 5 6 
#
# 1 115.3381 22.3946 55.6413 0.0000 11.3792 0.0000
# 2 22.3946 33.2369 29.2981 0.0000 0.9190 0.0000
# 3 55.6413 29.2981 126.6043 0.0000 1.4699 0.0000
# 4 0.0000 0.0000 0.0000 27.3002 0.0000 -1.7087
# 5 11.3792 0.9190 1.4699 0.0000 33.7585 0.0000
# 6 0.0000 0.0000 0.0000 -1.7087 0.0000 19.1256
#
#
#
# Elastic Compliance Matrix: (Units=1/GPa)
#
#
# Indices 1 2 3 4 5 6 
#
# 1 0.011880 -0.004193 -0.004208 0.000000 -0.003707 0.000000
# 2 -0.004193 0.039291 -0.007258 0.000000 0.000660 0.000000
# 3 -0.004208 -0.007258 0.011414 0.000000 0.001119 0.000000
# 4 0.000000 0.000000 0.000000 0.036836 0.000000 0.003291
# 5 -0.003707 0.000660 0.001119 0.000000 0.030805 0.000000
# 6 0.000000 0.000000 0.000000 0.003291 0.000000 0.052580
#
#
# Mechanical properties :
#
#
# Convention : Reuss Voigt Hill
#
# Bulk Modulus (GPa) = 31.98021 54.42747 43.20384
# Shear Modulus (GPa) = 22.26713 27.22654 24.74684
#
# Velocity S-wave (km/s) = 3.31424 3.66478 3.49391
# Velocity P-wave (km/s) = 5.51554 6.69000 6.13096
#
# Compressibility (1/GPa) = 0.03126934
#
# Stress axis : x y z
#
# Youngs Moduli (GPa) = 84.17562 25.45081 87.60857
#
# Poissons Ratio (x) = 0.10671 0.36864
# Poissons Ratio (y) = 0.35294 0.63582
# Poissons Ratio (z) = 0.35419 0.18471
#
# Static dielectric constant tensor:
#      x y z
#    x 4.080950 0.000000 -0.058080 
#    y 0.000000 3.387040 0.000000 
#    z -0.058080 0.000000 3.749560 
# 
# 
# High freq. dielectric constant tensor:
#      x y z
#    x 1.811220 0.000000 0.003710 
#    y 0.000000 1.761550 0.000000 
#    z 0.003710 0.000000 1.788430 
# 
# From -- ./inp_files/248950.got.cif
#   From: 2010.06.25/outbox.cif.g09.slc.cpg/sg12_125_cif.got.tgz:248950.got - 2010.06.28 00:19:55.
