data_PCOD8097712
_publ_section_title
;
Structure prediction by ZEFSAII (Michael W. Deem and Ramdas Pophale) SiO2 
 PCOD8097712
Probable space group: C 2/M
;
_chemical_formula_sum "Si O2"
_cell_formula_units_Z 64
_cell_length_a 22.022228
_cell_length_b 8.977383
_cell_length_c 17.232733
_cell_angle_alpha 90.000000
_cell_angle_beta 79.351914
_cell_angle_gamma 90.000000
_cell_volume 3348.279867
_symmetry_space_group_name_H-M "C 2/M"
_symmetry_group_IT_number 12
_symmetry_cell_setting 'monoclinic'
loop_
_space_group_symop_operation_xyz
x,y,z
-x,y,-z
-x,-y,-z
x,-y,z
1/2+x,1/2+y,z
1/2-x,1/2+y,-z
1/2-x,1/2-y,-z
1/2+x,1/2-y,z
loop_
_atom_site_type_symbol
_atom_site_label
_atom_site_fract_x
_atom_site_fract_y
_atom_site_fract_z
Si Si1 0.471392 0.326367 0.207774
Si Si2 0.183994 0.325805 0.011438
Si Si3 0.847331 0.323631 0.674176
Si Si4 0.396772 0.173545 0.352784
Si Si5 0.356107 0.675122 0.129956
Si Si6 0.569153 0.176508 0.486628
Si Si7 0.902903 0.671941 0.825297
Si Si8 0.218940 0.324926 0.722560
O O1 0.476754 0.500000 0.220123
O O2 0.451415 0.254452 0.293734
O O3 0.421768 0.287614 0.153060
O O4 0.536935 0.264247 0.164810
O O5 0.191800 0.500000 0.992668
O O6 0.150479 0.295578 0.100462
O O7 0.250000 0.250000 0.000000
O O8 0.143102 0.251482 0.953922
O O9 0.835380 0.500000 0.673039
O O10 0.891527 0.264314 0.595269
O O11 0.878232 0.276149 0.747686
O O12 0.783300 0.238728 0.677953
O O13 0.397890 0.227850 0.441528
O O14 0.330149 0.212753 0.333311
O O15 0.411790 0.000000 0.343044
O O16 0.344121 0.500000 0.124496
O O17 0.300492 0.743342 0.193638
O O18 0.500000 0.243624 0.500000
O O19 0.565729 0.000000 0.482224
O O20 0.921987 0.500000 0.819532
O O21 0.223405 0.500000 0.737813
#
# Coordination Sequence:
#
# PCOD8097712 Si02
#       8
#     8   8   8   8   8   8   8   8
#     4  10  21  36  57  83 109 141 180 223 272 322
#     4  11  23  38  58  84 112 145 184 225 271 321
#     4  10  20  35  56  80 107 142 183 225 269 321
#     4   9  18  34  55  79 109 144 182 222 266 322
#     4  10  21  38  58  81 110 143 181 224 270 322
#     4   9  17  31  54  80 104 138 184 226 266 320
#     4  10  22  38  56  79 108 142 179 220 267 323
#     4  10  20  34  54  80 110 144 180 222 273 324
#
# _framework density 19.114293
#
# number of rings (size 3 to 8) (size 9 to 14) (size 15 to 20)
#    0.000    2.125    0.000    3.000    0.000    7.500 
#    0.000    3.125    0.000    1.500    0.000    0.000 
#    0.000    0.000    0.000    0.000    0.000    0.000 
#
# Total GULP energy -396942.792148 kJ/mol
# GULP energy per Si atom -12404.462255 kJ/mol
# Density = 1.907079 g / cm^3
# Si number density = 19.114293 Si / 1000 Ang^3
#
#
#
# Elastic Constant Matrix: (Units=GPa)
#
#
# Indices 1 2 3 4 5 6 
#
# 1 124.5233 49.8940 56.9501 0.0000 -9.2028 0.0000
# 2 49.8940 69.7618 48.6423 0.0000 -1.6082 0.0000
# 3 56.9501 48.6423 144.6600 0.0000 3.8808 0.0000
# 4 0.0000 0.0000 0.0000 22.5133 0.0000 -3.1005
# 5 -9.2028 -1.6082 3.8808 0.0000 25.7101 0.0000
# 6 0.0000 0.0000 0.0000 -3.1005 0.0000 36.0839
#
#
#
# Elastic Compliance Matrix: (Units=1/GPa)
#
#
# Indices 1 2 3 4 5 6 
#
# 1 0.012318 -0.006852 -0.002663 0.000000 0.004382 0.000000
# 2 -0.006852 0.022653 -0.004912 0.000000 -0.000294 0.000000
# 3 -0.002663 -0.004912 0.009686 0.000000 -0.002722 0.000000
# 4 0.000000 0.000000 0.000000 0.044950 0.000000 0.003862
# 5 0.004382 -0.000294 -0.002722 0.000000 0.040856 0.000000
# 6 0.000000 0.000000 0.000000 0.003862 0.000000 0.028045
#
#
# Mechanical properties :
#
#
# Convention : Reuss Voigt Hill
#
# Bulk Modulus (GPa) = 63.27776 72.21311 67.74544
# Shear Modulus (GPa) = 25.95661 29.09205 27.52433
#
# Velocity S-wave (km/s) = 3.68906 3.90552 3.79883
# Velocity P-wave (km/s) = 7.16396 7.62883 7.40005
#
# Compressibility (1/GPa) = 0.01580334
#
# Stress axis : x y z
#
# Youngs Moduli (GPa) = 81.18312 44.14411 103.24492
#
# Poissons Ratio (x) = 0.30248 0.27493
# Poissons Ratio (y) = 0.55627 0.50711
# Poissons Ratio (z) = 0.21618 0.21682
#
# Static dielectric constant tensor:
#      x y z
#    x 3.525300 0.000000 0.078700 
#    y 0.000000 3.383620 0.000000 
#    z 0.078700 0.000000 3.696660 
# 
# 
# High freq. dielectric constant tensor:
#      x y z
#    x 1.750550 0.000000 0.003740 
#    y 0.000000 1.732520 0.000000 
#    z 0.003740 0.000000 1.749840 
# 
# From -- ./inp_files/281339.got.cif
#   From: 2010.06.25/outbox.cif.g09.slc.cpg/sg12_141_cif.got.tgz:281339.got - 2010.06.28 00:19:55.
