data_PCOD8097210
_publ_section_title
;
Structure prediction by ZEFSAII (Michael W. Deem and Ramdas Pophale) SiO2 
 PCOD8097210
Probable space group: C 2/M
;
_chemical_formula_sum "Si O2"
_cell_formula_units_Z 56
_cell_length_a 19.606783
_cell_length_b 8.951711
_cell_length_c 30.573977
_cell_angle_alpha 90.000000
_cell_angle_beta 35.627250
_cell_angle_gamma 90.000000
_cell_volume 3125.844930
_symmetry_space_group_name_H-M "C 2/M"
_symmetry_group_IT_number 12
_symmetry_cell_setting 'monoclinic'
loop_
_space_group_symop_operation_xyz
x,y,z
-x,y,-z
-x,-y,-z
x,-y,z
1/2+x,1/2+y,z
1/2-x,1/2+y,-z
1/2-x,1/2-y,-z
1/2+x,1/2-y,z
loop_
_atom_site_type_symbol
_atom_site_label
_atom_site_fract_x
_atom_site_fract_y
_atom_site_fract_z
Si Si1 0.412496 0.175634 0.724645
Si Si2 0.180856 0.672087 0.997767
Si Si3 0.269579 0.824281 0.716292
Si Si4 0.846886 0.675560 0.853179
Si Si5 0.973101 0.670723 0.163863
Si Si6 0.873927 0.677397 0.443860
Si Si7 0.475474 0.327179 0.563386
O O1 0.312211 0.223949 0.742546
O O2 0.386422 0.245032 0.785926
O O3 0.539020 0.227656 0.640729
O O4 0.413954 0.000000 0.729325
O O5 0.216691 0.500000 0.977540
O O6 0.043331 0.690271 0.081240
O O7 0.250000 0.750000 0.000000
O O8 0.221878 0.749279 0.931168
O O9 0.135277 0.781788 0.780190
O O10 0.347030 0.738117 0.640202
O O11 0.286675 0.000000 0.700150
O O12 0.824743 0.500000 0.862310
O O13 0.945962 0.714904 0.837120
O O14 0.929942 0.500000 0.191307
O O15 0.862000 0.500000 0.452791
O O16 0.750000 0.750000 0.500000
O O17 0.925001 0.736646 0.462785
O O18 0.500000 0.305053 0.500000
O O19 0.480319 0.500000 0.574746
#
# Coordination Sequence:
#
# PCOD8097210 Si02
#       7
#     8   8   8   8   8   8   8
#     4   8  17  34  52  71  98 132 166 201 246 297
#     4   9  17  30  48  72 100 129 163 204 250 293
#     4  10  20  34  53  75 101 133 167 207 252 300
#     4   9  17  32  53  73  96 129 168 207 246 292
#     4   9  18  31  49  73 100 131 164 202 249 299
#     4  10  20  35  55  79 107 137 172 212 254 304
#     4  10  21  37  56  76 101 136 174 212 259 310
#
# _framework density 17.915157000000001
#
# number of rings (size 3 to 8) (size 9 to 14) (size 15 to 20)
#    0.000    2.714    0.000    3.429    0.000    5.143 
#    0.000    7.857    0.000    4.286    0.000    0.000 
#    0.000    0.000    0.000    0.000    0.000    0.000 
#
# Total GULP energy -347090.600960 kJ/mol
# GULP energy per Si atom -12396.092891 kJ/mol
# Density = 1.787438 g / cm^3
# Si number density = 17.915157 Si / 1000 Ang^3
#
#
#
# Elastic Constant Matrix: (Units=GPa)
#
#
# Indices 1 2 3 4 5 6 
#
# 1 70.5214 39.4865 66.1578 0.0002 7.2922 -0.0048
# 2 39.4865 82.9540 56.5566 0.0047 2.2952 -0.0049
# 3 66.1578 56.5566 129.8862 -0.0007 12.2488 0.0032
# 4 0.0002 0.0047 -0.0007 34.8966 -0.0011 -3.7726
# 5 7.2922 2.2952 12.2488 -0.0011 31.4402 0.0012
# 6 -0.0048 -0.0049 0.0032 -3.7726 0.0012 25.4941
#
#
#
# Elastic Compliance Matrix: (Units=1/GPa)
#
#
# Indices 1 2 3 4 5 6 
#
# 1 0.028750 -0.005344 -0.012172 0.000001 -0.001536 0.000006
# 2 -0.005344 0.018228 -0.005405 -0.000002 0.002015 0.000003
# 3 -0.012172 -0.005405 0.016557 0.000000 -0.003233 -0.000005
# 4 0.000001 -0.000002 0.000000 0.029122 0.000001 0.004309
# 5 -0.001536 0.002015 -0.003233 0.000001 0.033275 -0.000001
# 6 0.000006 0.000003 -0.000005 0.004309 -0.000001 0.039862
#
#
# Mechanical properties :
#
#
# Convention : Reuss Voigt Hill
#
# Bulk Modulus (GPa) = 56.51916 67.52927 62.02422
# Shear Modulus (GPa) = 22.98482 26.44357 24.71419
#
# Velocity S-wave (km/s) = 3.58576 3.84610 3.71821
# Velocity P-wave (km/s) = 6.98286 7.58281 7.28901
#
# Compressibility (1/GPa) = 0.01769312
#
# Stress axis : x y z
#
# Youngs Moduli (GPa) = 34.78249 54.86080 60.39606
#
# Poissons Ratio (x) = 0.29317 0.73515
# Poissons Ratio (y) = 0.18587 0.32645
# Poissons Ratio (z) = 0.42338 0.29653
#
# Static dielectric constant tensor:
#      x y z
#    x 3.221640 0.000000 0.190800 
#    y 0.000000 3.332210 0.000010 
#    z 0.190800 0.000010 3.724050 
# 
# 
# High freq. dielectric constant tensor:
#      x y z
#    x 1.670790 0.000000 0.005050 
#    y 0.000000 1.691230 0.000000 
#    z 0.005050 0.000000 1.705750 
# 
# From -- ./inp_files/377640.got.cif
#   From: 2010.06.25/outbox.cif.g09.slc.cpg/sg12_189_cif.got.tgz:377640.got - 2010.06.28 00:19:55.
