data_PCOD8097581
_publ_section_title
;
Structure prediction by ZEFSAII (Michael W. Deem and Ramdas Pophale) SiO2 
 PCOD8097581
Probable space group: C 2/M
;
_chemical_formula_sum "Si O2"
_cell_formula_units_Z 48
_cell_length_a 20.089671
_cell_length_b 9.164706
_cell_length_c 15.260886
_cell_angle_alpha 90.000000
_cell_angle_beta 70.962503
_cell_angle_gamma 90.000000
_cell_volume 2656.092564
_symmetry_space_group_name_H-M "C 2/M"
_symmetry_group_IT_number 12
_symmetry_cell_setting 'monoclinic'
loop_
_space_group_symop_operation_xyz
x,y,z
-x,y,-z
-x,-y,-z
x,-y,z
1/2+x,1/2+y,z
1/2-x,1/2+y,-z
1/2-x,1/2-y,-z
1/2+x,1/2-y,z
loop_
_atom_site_type_symbol
_atom_site_label
_atom_site_fract_x
_atom_site_fract_y
_atom_site_fract_z
Si Si1 0.602781 0.832934 0.391780
Si Si2 0.371458 0.669387 0.275667
Si Si3 0.551349 0.167021 0.606024
Si Si4 0.238336 0.169671 0.273416
Si Si5 0.077480 0.168649 0.938326
Si Si6 0.791088 0.669926 0.058221
O O1 0.530470 0.796224 0.373115
O O2 0.594183 0.805604 0.498642
O O3 0.661319 0.725873 0.329563
O O4 0.624723 0.000000 0.364670
O O5 0.356271 0.500000 0.296546
O O6 0.419380 0.726260 0.333321
O O7 0.296381 0.749775 0.307634
O O8 0.413749 0.699914 0.168288
O O9 0.560345 0.000000 0.632622
O O10 0.251140 0.201778 0.165926
O O11 0.243514 0.000000 0.293175
O O12 0.130371 0.266593 0.971870
O O13 0.092378 0.000000 0.954180
O O14 0.000000 0.216430 0.000000
O O15 0.795493 0.500000 0.034642
O O16 0.750000 0.750000 0.000000
#
# Coordination Sequence:
#
# PCOD8097581 Si02
#       6
#     8   8   8   8   8   8
#     4   9  19  36  56  77 103 137 173 210 257 308
#     4  10  20  34  54  78 104 137 174 211 256 308
#     4   9  19  36  55  76 105 137 170 212 258 305
#     4  10  21  36  54  77 105 136 172 215 257 300
#     4   9  19  36  55  76 105 137 170 213 260 304
#     4  10  21  36  54  77 105 137 173 212 255 304
#
# _framework density 18.071659
#
# number of rings (size 3 to 8) (size 9 to 14) (size 15 to 20)
#    0.000    2.500    0.000    2.500    0.000    6.333 
#    0.000    6.667    0.000    0.000    0.000    0.000 
#    0.000    0.000    0.000    0.000    0.000    0.000 
#
# Total GULP energy -297688.828165 kJ/mol
# GULP energy per Si atom -12403.701174 kJ/mol
# Density = 1.803053 g / cm^3
# Si number density = 18.071659 Si / 1000 Ang^3
#
#
#
# Elastic Constant Matrix: (Units=GPa)
#
#
# Indices 1 2 3 4 5 6 
#
# 1 136.0752 84.1942 73.9680 0.0000 1.3125 0.0000
# 2 84.1942 113.4826 59.7737 0.0000 4.9531 0.0000
# 3 73.9680 59.7737 71.0584 0.0000 0.0735 0.0000
# 4 0.0000 0.0000 0.0000 32.7190 0.0000 2.7556
# 5 1.3125 4.9531 0.0735 0.0000 39.7129 0.0000
# 6 0.0000 0.0000 0.0000 2.7556 0.0000 41.4812
#
#
#
# Elastic Compliance Matrix: (Units=1/GPa)
#
#
# Indices 1 2 3 4 5 6 
#
# 1 0.019443 -0.006777 -0.014538 0.000000 0.000230 0.000000
# 2 -0.006777 0.018337 -0.008368 0.000000 -0.002048 0.000000
# 3 -0.014538 -0.008368 0.036244 0.000000 0.001457 0.000000
# 4 0.000000 0.000000 0.000000 0.030735 0.000000 -0.002042
# 5 0.000230 -0.002048 0.001457 0.000000 0.025426 0.000000
# 6 0.000000 0.000000 0.000000 -0.002042 0.000000 0.024243
#
#
# Mechanical properties :
#
#
# Convention : Reuss Voigt Hill
#
# Bulk Modulus (GPa) = 68.22744 84.05422 76.14083
# Shear Modulus (GPa) = 22.86451 29.62798 26.24624
#
# Velocity S-wave (km/s) = 3.56084 4.05343 3.81510
# Velocity P-wave (km/s) = 7.39878 8.27766 7.85053
#
# Compressibility (1/GPa) = 0.01465686
#
# Stress axis : x y z
#
# Youngs Moduli (GPa) = 51.43370 54.53420 27.59095
#
# Poissons Ratio (x) = 0.36959 0.40111
# Poissons Ratio (y) = 0.34858 0.23088
# Poissons Ratio (z) = 0.74774 0.45635
#
# Static dielectric constant tensor:
#      x y z
#    x 3.353660 0.000000 -0.027030 
#    y 0.000000 3.366610 0.000000 
#    z -0.027030 0.000000 3.274590 
# 
# 
# High freq. dielectric constant tensor:
#      x y z
#    x 1.706310 0.000000 -0.000140 
#    y 0.000000 1.707020 0.000000 
#    z -0.000140 0.000000 1.695820 
# 
# From -- ./inp_files/229862.got.cif
#   From: 2010.06.25/outbox.cif.g09.slc.cpg/sg12_115_cif.got.tgz:229862.got - 2010.06.28 00:19:55.
