data_PCOD8097796
_publ_section_title
;
Structure prediction by ZEFSAII (Michael W. Deem and Ramdas Pophale) SiO2 
 PCOD8097796
Probable space group: C 2/M
;
_chemical_formula_sum "Si O2"
_cell_formula_units_Z 56
_cell_length_a 16.587889
_cell_length_b 14.943426
_cell_length_c 14.082879
_cell_angle_alpha 90.000000
_cell_angle_beta 118.447852
_cell_angle_gamma 90.000000
_cell_volume 3069.344492
_symmetry_space_group_name_H-M "C 2/M"
_symmetry_group_IT_number 12
_symmetry_cell_setting 'monoclinic'
loop_
_space_group_symop_operation_xyz
x,y,z
-x,y,-z
-x,-y,-z
x,-y,z
1/2+x,1/2+y,z
1/2-x,1/2+y,-z
1/2-x,1/2-y,-z
1/2+x,1/2-y,z
loop_
_atom_site_type_symbol
_atom_site_label
_atom_site_fract_x
_atom_site_fract_y
_atom_site_fract_z
Si Si1 0.210321 0.162242 0.636848
Si Si2 0.618559 0.827897 0.155902
Si Si3 0.886126 0.098326 0.598418
Si Si4 0.791820 0.837048 0.722781
Si Si5 0.537857 0.729437 0.623733
Si Si6 0.631515 0.899367 0.757965
Si Si7 0.579920 0.897493 0.935363
O O1 0.299786 0.120541 0.740045
O O2 0.188605 0.111908 0.527104
O O3 0.228598 0.267967 0.626438
O O4 0.124115 0.161846 0.661438
O O5 0.631521 0.720727 0.177152
O O6 0.520818 0.857504 0.141745
O O7 0.628478 0.847058 0.049560
O O8 0.837119 0.096221 0.673066
O O9 0.962034 0.176002 0.641538
O O10 0.930294 0.000000 0.608193
O O11 0.730414 0.890646 0.764068
O O12 0.500000 0.754067 0.500000
O O13 0.560054 0.824043 0.684584
O O14 0.642949 0.886463 0.877759
O O15 0.593207 0.000000 0.715869
O O16 0.567509 0.000000 0.958282
#
# Coordination Sequence:
#
# PCOD8097796 Si02
#       7
#     8   8   8   8   8   8   8
#     4   8  19  34  52  77 105 140 178 221 260 311
#     4   9  18  34  56  77 102 139 172 226 269 305
#     4  11  20  32  55  79 108 147 177 215 265 314
#     4   9  19  35  52  77 105 142 179 214 260 318
#     4   9  19  36  53  78 112 139 179 222 259 314
#     4  10  20  36  56  79 109 142 176 219 267 316
#     4  10  20  34  54  82 107 133 178 225 268 316
#
# _framework density 18.244938000000001
#
# number of rings (size 3 to 8) (size 9 to 14) (size 15 to 20)
#    0.857    1.714    0.000    2.571    0.000    4.571 
#    0.000    0.000    0.000    0.000    0.000    5.000 
#    0.000    0.000    0.000    0.000    0.000    0.000 
#
# Total GULP energy -346932.826666 kJ/mol
# GULP energy per Si atom -12390.458095 kJ/mol
# Density = 1.820341 g / cm^3
# Si number density = 18.244938 Si / 1000 Ang^3
#
#
#
# Elastic Constant Matrix: (Units=GPa)
#
#
# Indices 1 2 3 4 5 6 
#
# 1 100.8588 34.8073 57.9076 0.0000 -16.1137 0.0000
# 2 34.8073 102.2099 48.5952 0.0000 -9.4561 0.0000
# 3 57.9076 48.5952 100.2078 0.0000 -2.6148 0.0000
# 4 0.0000 0.0000 0.0000 1.5785 0.0000 0.2606
# 5 -16.1137 -9.4561 -2.6148 0.0000 34.0302 0.0000
# 6 0.0000 0.0000 0.0000 0.2606 0.0000 22.3362
#
#
#
# Elastic Compliance Matrix: (Units=1/GPa)
#
#
# Indices 1 2 3 4 5 6 
#
# 1 0.016398 -0.000685 -0.008964 0.000000 0.006885 0.000000
# 2 -0.000685 0.013072 -0.005868 0.000000 0.002857 0.000000
# 3 -0.008964 -0.005868 0.017888 0.000000 -0.004501 0.000000
# 4 0.000000 0.000000 0.000000 0.634746 0.000000 -0.007406
# 5 0.006885 0.002857 -0.004501 0.000000 0.033094 0.000000
# 6 0.000000 0.000000 0.000000 -0.007406 0.000000 0.044857
#
#
# Mechanical properties :
#
#
# Convention : Reuss Voigt Hill
#
# Bulk Modulus (GPa) = 61.26756 65.09963 63.18359
# Shear Modulus (GPa) = 6.27723 22.38674 14.33198
#
# Velocity S-wave (km/s) = 1.85688 3.50667 2.80578
# Velocity P-wave (km/s) = 6.18472 7.22178 6.72328
#
# Compressibility (1/GPa) = 0.01632185
#
# Stress axis : x y z
#
# Youngs Moduli (GPa) = 60.98280 76.50183 55.90437
#
# Poissons Ratio (x) = 0.05244 0.50113
# Poissons Ratio (y) = 0.04180 0.32807
# Poissons Ratio (z) = 0.54665 0.44894
#
# Static dielectric constant tensor:
#      x y z
#    x 3.361960 0.000000 0.001700 
#    y 0.000000 3.199550 0.000000 
#    z 0.001700 0.000000 3.178840 
# 
# 
# High freq. dielectric constant tensor:
#      x y z
#    x 1.708470 0.000000 -0.011050 
#    y 0.000000 1.697630 0.000000 
#    z -0.011050 0.000000 1.689280 
# 
# From -- ./inp_files/224894.got.cif
#   From: 2010.06.25/outbox.cif.g09.slc.cpg/sg12_113_cif.got.tgz:224894.got - 2010.06.28 00:19:55.
