data_PCOD8097599
_publ_section_title
;
Structure prediction by ZEFSAII (Michael W. Deem and Ramdas Pophale) SiO2 
 PCOD8097599
Probable space group: C 2/M
;
_chemical_formula_sum "Si O2"
_cell_formula_units_Z 56
_cell_length_a 31.565352
_cell_length_b 9.205407
_cell_length_c 18.306189
_cell_angle_alpha 90.000000
_cell_angle_beta 35.190846
_cell_angle_gamma 90.000000
_cell_volume 3065.501380
_symmetry_space_group_name_H-M "C 2/M"
_symmetry_group_IT_number 12
_symmetry_cell_setting 'monoclinic'
loop_
_space_group_symop_operation_xyz
x,y,z
-x,y,-z
-x,-y,-z
x,-y,z
1/2+x,1/2+y,z
1/2-x,1/2+y,-z
1/2-x,1/2-y,-z
1/2+x,1/2-y,z
loop_
_atom_site_type_symbol
_atom_site_label
_atom_site_fract_x
_atom_site_fract_y
_atom_site_fract_z
Si Si1 0.338902 0.163939 0.441219
Si Si2 0.527417 0.833423 0.379742
Si Si3 0.451206 0.328175 0.363466
Si Si4 0.928929 0.331885 0.892555
Si Si5 0.922648 0.667576 0.071575
Si Si6 0.334359 0.336032 0.306712
Si Si7 0.825604 0.333065 0.906659
O O1 0.371473 0.257909 0.461779
O O2 0.364991 0.237525 0.329022
O O3 0.252659 0.165944 0.571959
O O4 0.369855 0.000000 0.398240
O O5 0.500000 0.809046 0.500000
O O6 0.477222 0.723794 0.405587
O O7 0.613332 0.795415 0.242253
O O8 0.513938 0.000000 0.373923
O O9 0.446112 0.500000 0.368450
O O10 0.504485 0.269859 0.225245
O O11 0.950816 0.500000 0.849894
O O12 0.858222 0.294989 0.941263
O O13 0.916420 0.297369 0.994749
O O14 0.904061 0.500000 0.113070
O O15 0.861029 0.769191 0.193305
O O16 0.000000 0.708692 0.000000
O O17 0.363808 0.500000 0.275075
O O18 0.803947 0.500000 0.932606
O O19 0.750000 0.250000 0.000000
#
# Coordination Sequence:
#
# PCOD8097599 Si02
#       7
#     8   8   8   8   8   8   8
#     4  10  20  36  55  74 104 145 181 215 266 327
#     4   9  19  38  60  80 108 145 186 227 273 335
#     4  11  21  33  55  84 109 136 176 226 272 315
#     4   9  19  36  55  77 108 145 184 218 264 330
#     4  10  20  34  54  78 106 143 180 216 268 327
#     4  10  21  35  53  78 106 137 179 228 267 308
#     4   9  18  34  56  80 107 144 183 226 277 329
#
# _framework density 18.267810999999998
#
# number of rings (size 3 to 8) (size 9 to 14) (size 15 to 20)
#    0.000    2.286    0.000    3.857    0.000    6.286 
#    2.571    0.000    0.000    0.000    0.000    0.000 
#    0.000    0.000    0.000    0.000    0.000    0.000 
#
# Total GULP energy -347139.489646 kJ/mol
# GULP energy per Si atom -12397.838916 kJ/mol
# Density = 1.822623 g / cm^3
# Si number density = 18.267811 Si / 1000 Ang^3
#
#
#
# Elastic Constant Matrix: (Units=GPa)
#
#
# Indices 1 2 3 4 5 6 
#
# 1 108.9850 55.7555 53.3405 -0.0003 6.9661 0.0001
# 2 55.7555 127.7245 44.0008 -0.0123 8.1525 0.0026
# 3 53.3405 44.0008 82.7398 -0.0069 25.7974 0.0016
# 4 -0.0003 -0.0123 -0.0069 30.1793 0.0032 -2.9014
# 5 6.9661 8.1525 25.7974 0.0032 25.3526 -0.0002
# 6 0.0001 0.0026 0.0016 -2.9014 -0.0002 28.7472
#
#
#
# Elastic Compliance Matrix: (Units=1/GPa)
#
#
# Indices 1 2 3 4 5 6 
#
# 1 0.015760 -0.003732 -0.010545 -0.000005 0.007600 0.000000
# 2 -0.003732 0.010637 -0.003667 0.000003 0.001337 0.000000
# 3 -0.010545 -0.003667 0.028654 0.000008 -0.025080 -0.000001
# 4 -0.000005 0.000003 0.000008 0.033460 -0.000012 0.003377
# 5 0.007600 0.001337 -0.025080 -0.000012 0.062446 0.000000
# 6 0.000000 0.000000 -0.000001 0.003377 0.000000 0.035127
#
#
# Mechanical properties :
#
#
# Convention : Reuss Voigt Hill
#
# Bulk Modulus (GPa) = 52.18620 69.51588 60.85104
# Shear Modulus (GPa) = 21.89525 27.94599 24.92062
#
# Velocity S-wave (km/s) = 3.46579 3.91550 3.69749
# Velocity P-wave (km/s) = 6.68169 7.65362 7.18411
#
# Compressibility (1/GPa) = 0.01916215
#
# Stress axis : x y z
#
# Youngs Moduli (GPa) = 63.45115 94.01519 34.89886
#
# Poissons Ratio (x) = 0.35088 0.36801
# Poissons Ratio (y) = 0.23681 0.12798
# Poissons Ratio (z) = 0.66909 0.34478
#
# Static dielectric constant tensor:
#      x y z
#    x 3.450960 0.000000 0.064630 
#    y 0.000000 3.437580 0.000010 
#    z 0.064630 0.000010 3.262230 
# 
# 
# High freq. dielectric constant tensor:
#      x y z
#    x 1.709750 0.000000 0.000470 
#    y 0.000000 1.711940 0.000000 
#    z 0.000470 0.000000 1.698790 
# 
# From -- ./inp_files/295097.got.cif
#   From: 2010.06.25/outbox.cif.g09.slc.cpg/sg12_148_cif.got.tgz:295097.got - 2010.06.28 00:19:55.
