data_PCOD8097494
_publ_section_title
;
Structure prediction by ZEFSAII (Michael W. Deem and Ramdas Pophale) SiO2 
 PCOD8097494
Probable space group: C 2/M
;
_chemical_formula_sum "Si O2"
_cell_formula_units_Z 40
_cell_length_a 30.197625
_cell_length_b 9.102939
_cell_length_c 7.769522
_cell_angle_alpha 90.000000
_cell_angle_beta 105.374390
_cell_angle_gamma 90.000000
_cell_volume 2059.312030
_symmetry_space_group_name_H-M "C 2/M"
_symmetry_group_IT_number 12
_symmetry_cell_setting 'monoclinic'
loop_
_space_group_symop_operation_xyz
x,y,z
-x,y,-z
-x,-y,-z
x,-y,z
1/2+x,1/2+y,z
1/2-x,1/2+y,-z
1/2-x,1/2-y,-z
1/2+x,1/2-y,z
loop_
_atom_site_type_symbol
_atom_site_label
_atom_site_fract_x
_atom_site_fract_y
_atom_site_fract_z
Si Si1 0.392811 0.831627 0.216607
Si Si2 0.292800 0.667457 0.465422
Si Si3 0.053693 0.670971 0.061361
Si Si4 0.207910 0.666447 0.875625
Si Si5 0.894041 0.169292 0.582895
O O1 0.341130 0.825720 0.078608
O O2 0.399673 0.740191 0.399026
O O3 0.404849 0.000000 0.276091
O O4 0.425366 0.770756 0.097974
O O5 0.277501 0.500000 0.418800
O O6 0.250000 0.750000 0.500000
O O7 0.305070 0.750142 0.307346
O O8 0.342064 0.678167 0.611312
O O9 0.065589 0.500000 0.096192
O O10 0.073114 0.754522 0.246496
O O11 0.000000 0.701521 0.000000
O O12 0.224085 0.500000 0.859277
O O13 0.250000 0.750000 0.000000
O O14 0.908263 0.000000 0.576745
#
# Coordination Sequence:
#
# PCOD8097494 Si02
#       5
#     8   8   8   8   8
#     4   9  20  39  60  83 114 155 196 238 289 346
#     4  10  21  36  54  81 113 151 192 233 286 346
#     4  10  22  40  63  89 115 151 199 245 292 347
#     4  10  20  34  53  81 113 150 192 235 285 342
#     4  10  22  39  59  86 119 154 191 240 297 347
#
# _framework density 19.423963000000001
#
# number of rings (size 3 to 8) (size 9 to 14) (size 15 to 20)
#    0.000    2.200    0.000    1.800    2.800    5.200 
#    0.000    4.000    0.000    0.000    0.000    0.000 
#    0.000    0.000    0.000    0.000    0.000    0.000 
#
# Total GULP energy -247765.569457 kJ/mol
# GULP energy per Si atom -12388.278473 kJ/mol
# Density = 1.937975 g / cm^3
# Si number density = 19.423963 Si / 1000 Ang^3
#
#
#
# Elastic Constant Matrix: (Units=GPa)
#
#
# Indices 1 2 3 4 5 6 
#
# 1 128.8420 59.5275 65.1246 0.0000 -5.1846 0.0000
# 2 59.5275 132.9097 61.9933 0.0000 8.1837 0.0000
# 3 65.1246 61.9933 116.4316 0.0000 4.8065 0.0000
# 4 0.0000 0.0000 0.0000 33.3989 0.0000 5.3456
# 5 -5.1846 8.1837 4.8065 0.0000 30.6609 0.0000
# 6 0.0000 0.0000 0.0000 5.3456 0.0000 26.4545
#
#
#
# Elastic Compliance Matrix: (Units=1/GPa)
#
#
# Indices 1 2 3 4 5 6 
#
# 1 0.011993 -0.003191 -0.005161 0.000000 0.003689 0.000000
# 2 -0.003191 0.010964 -0.003935 0.000000 -0.002849 0.000000
# 3 -0.005161 -0.003935 0.013652 0.000000 -0.001963 0.000000
# 4 0.000000 0.000000 0.000000 0.030942 0.000000 -0.006252
# 5 0.003689 -0.002849 -0.001963 0.000000 0.034307 0.000000
# 6 0.000000 0.000000 0.000000 -0.006252 0.000000 0.039064
#
#
# Mechanical properties :
#
#
# Convention : Reuss Voigt Hill
#
# Bulk Modulus (GPa) = 83.09996 83.49713 83.29854
# Shear Modulus (GPa) = 29.49702 30.87205 30.18453
#
# Velocity S-wave (km/s) = 3.90114 3.99103 3.94634
# Velocity P-wave (km/s) = 7.94776 8.01983 7.98388
#
# Compressibility (1/GPa) = 0.01203370
#
# Stress axis : x y z
#
# Youngs Moduli (GPa) = 83.38097 91.20666 73.24944
#
# Poissons Ratio (x) = 0.29106 0.37807
# Poissons Ratio (y) = 0.26608 0.28825
# Poissons Ratio (z) = 0.43036 0.35892
#
# Static dielectric constant tensor:
#      x y z
#    x 4.771330 0.000000 -0.037430 
#    y 0.000000 3.657420 0.000000 
#    z -0.037430 0.000000 2.908540 
# 
# 
# High freq. dielectric constant tensor:
#      x y z
#    x 1.768430 0.000000 0.003460 
#    y 0.000000 1.763780 0.000000 
#    z 0.003460 0.000000 1.741110 
# 
# From -- ./inp_files/101189.got.cif
#   From: 2010.06.25/outbox.cif.g09.slc.cpg/sg12_51_cif.got.tgz:101189.got - 2010.06.28 00:19:55.
