data_PCOD8097965
_publ_section_title
;
Structure prediction by ZEFSAII (Michael W. Deem and Ramdas Pophale) SiO2 
 PCOD8097965
Probable space group: C 2/M
;
_chemical_formula_sum "Si O2"
_cell_formula_units_Z 56
_cell_length_a 19.288235
_cell_length_b 8.798343
_cell_length_c 24.808343
_cell_angle_alpha 90.000000
_cell_angle_beta 43.185235
_cell_angle_gamma 90.000000
_cell_volume 2881.212325
_symmetry_space_group_name_H-M "C 2/M"
_symmetry_group_IT_number 12
_symmetry_cell_setting 'monoclinic'
loop_
_space_group_symop_operation_xyz
x,y,z
-x,y,-z
-x,-y,-z
x,-y,z
1/2+x,1/2+y,z
1/2-x,1/2+y,-z
1/2-x,1/2-y,-z
1/2+x,1/2-y,z
loop_
_atom_site_type_symbol
_atom_site_label
_atom_site_fract_x
_atom_site_fract_y
_atom_site_fract_z
Si Si1 0.291640 0.678479 0.775728
Si Si2 0.757954 0.323606 0.686802
Si Si3 0.586229 0.178353 0.486926
Si Si4 0.058225 0.321527 0.913613
Si Si5 0.360035 0.820003 0.429645
Si Si6 0.527095 0.678408 0.821692
Si Si7 0.533904 0.819637 0.251605
O O1 0.307721 0.500000 0.772961
O O2 0.314704 0.729653 0.701477
O O3 0.175481 0.727626 0.853953
O O4 0.366768 0.761270 0.774118
O O5 0.769849 0.500000 0.695294
O O6 0.806311 0.283903 0.601638
O O7 0.642621 0.274979 0.745522
O O8 0.500000 0.258798 0.500000
O O9 0.580217 0.237713 0.551154
O O10 0.566852 0.000000 0.499126
O O11 0.049620 0.500000 0.908322
O O12 0.001166 0.240027 0.895966
O O13 0.000000 0.269250 0.000000
O O14 0.250000 0.750000 0.500000
O O15 0.429167 0.763706 0.340282
O O16 0.346252 0.000000 0.435707
O O17 0.506740 0.500000 0.830874
O O18 0.461434 0.757119 0.812025
O O19 0.537701 0.000000 0.248683
#
# Coordination Sequence:
#
# PCOD8097965 Si02
#       7
#     8   8   8   8   8   8   8
#     4  10  20  34  55  81 108 139 176 220 268 318
#     4   9  17  31  51  73 100 136 176 218 265 318
#     4   9  16  28  47  69  94 128 172 216 257 304
#     4   9  19  38  62  86 112 140 172 214 266 324
#     4  10  21  35  52  74 102 140 182 226 273 318
#     4  10  20  34  55  81 108 140 179 220 262 315
#     4  11  22  36  54  77 109 147 185 223 268 322
#
# _framework density 19.436263
#
# number of rings (size 3 to 8) (size 9 to 14) (size 15 to 20)
#    0.000    2.286    0.000    3.000    0.000    6.000 
#    0.000    1.429    0.000    1.714    0.000    0.000 
#    0.000    0.000    0.000    0.000    0.000    0.000 
#
# Total GULP energy -347081.707536 kJ/mol
# GULP energy per Si atom -12395.775269 kJ/mol
# Density = 1.939202 g / cm^3
# Si number density = 19.436263 Si / 1000 Ang^3
#
#
#
# Elastic Constant Matrix: (Units=GPa)
#
#
# Indices 1 2 3 4 5 6 
#
# 1 115.3546 37.4303 37.3259 -0.0001 20.9195 0.0002
# 2 37.4303 58.3200 25.1148 -0.0001 9.5343 0.0003
# 3 37.3259 25.1148 80.3216 0.0000 21.8385 0.0001
# 4 -0.0001 -0.0001 0.0000 22.9950 0.0000 2.2563
# 5 20.9195 9.5343 21.8385 0.0000 30.3268 0.0000
# 6 0.0002 0.0003 0.0001 2.2563 0.0000 33.0709
#
#
#
# Elastic Compliance Matrix: (Units=1/GPa)
#
#
# Indices 1 2 3 4 5 6 
#
# 1 0.012312 -0.006028 -0.002540 0.000000 -0.004768 0.000000
# 2 -0.006028 0.022885 -0.004388 0.000000 0.000123 0.000000
# 3 -0.002540 -0.004388 0.017596 0.000000 -0.009539 0.000000
# 4 0.000000 0.000000 0.000000 0.043781 0.000000 -0.002987
# 5 -0.004768 0.000123 -0.009539 0.000000 0.043094 0.000000
# 6 0.000000 0.000000 0.000000 -0.002987 0.000000 0.030442
#
#
# Mechanical properties :
#
#
# Convention : Reuss Voigt Hill
#
# Bulk Modulus (GPa) = 37.20157 50.41538 43.80848
# Shear Modulus (GPa) = 24.39242 27.55356 25.97299
#
# Velocity S-wave (km/s) = 3.54643 3.76924 3.65953
# Velocity P-wave (km/s) = 5.99595 6.70358 6.35962
#
# Compressibility (1/GPa) = 0.02688059
#
# Stress axis : x y z
#
# Youngs Moduli (GPa) = 81.22426 43.69625 56.83151
#
# Poissons Ratio (x) = 0.26342 0.14434
# Poissons Ratio (y) = 0.48965 0.24937
# Poissons Ratio (z) = 0.20630 0.19173
#
# Static dielectric constant tensor:
#      x y z
#    x 3.845330 0.000000 0.188140 
#    y 0.000000 3.337840 0.000000 
#    z 0.188140 0.000000 3.630570 
# 
# 
# High freq. dielectric constant tensor:
#      x y z
#    x 1.763820 0.000000 0.011030 
#    y 0.000000 1.740090 0.000000 
#    z 0.011030 0.000000 1.747930 
# 
# From -- ./inp_files/342262.got.cif
#   From: 2010.06.25/outbox.cif.g09.slc.cpg/sg12_172_cif.got.tgz:342262.got - 2010.06.28 00:19:55.
