data_PCOD8097118
_publ_section_title
;
Structure prediction by ZEFSAII (Michael W. Deem and Ramdas Pophale) SiO2 
 PCOD8097118
Probable space group: C 2/M
;
_chemical_formula_sum "Si O2"
_cell_formula_units_Z 48
_cell_length_a 12.619977
_cell_length_b 38.811914
_cell_length_c 13.346517
_cell_angle_alpha 90.000000
_cell_angle_beta 22.679379
_cell_angle_gamma 90.000000
_cell_volume 2520.573114
_symmetry_space_group_name_H-M "C 2/M"
_symmetry_group_IT_number 12
_symmetry_cell_setting 'monoclinic'
loop_
_space_group_symop_operation_xyz
x,y,z
-x,y,-z
-x,-y,-z
x,-y,z
1/2+x,1/2+y,z
1/2-x,1/2+y,-z
1/2-x,1/2-y,-z
1/2+x,1/2-y,z
loop_
_atom_site_type_symbol
_atom_site_label
_atom_site_fract_x
_atom_site_fract_y
_atom_site_fract_z
Si Si1 0.612127 0.461412 0.514062
Si Si2 0.086506 0.718558 0.040264
Si Si3 0.257094 0.851955 0.991058
Si Si4 0.144965 0.337489 0.480021
Si Si5 0.386723 0.920899 0.987278
Si Si6 0.581891 0.240843 0.541946
O O1 0.500000 0.462808 0.500000
O O2 0.683136 0.500000 0.489121
O O3 0.377715 0.445576 0.789047
O O4 0.882283 0.437628 0.285448
O O5 0.845011 0.733791 0.323363
O O6 0.185961 0.682405 0.995990
O O7 0.332666 0.746320 0.828949
O O8 0.000000 0.713024 0.000000
O O9 0.295894 0.883328 0.032371
O O10 0.952901 0.852035 0.209187
O O11 0.468474 0.857652 0.716236
O O12 0.157360 0.297924 0.503516
O O13 0.000000 0.342545 0.500000
O O14 0.500000 0.917251 0.000000
O O15 0.500000 0.242721 0.500000
#
# Coordination Sequence:
#
# PCOD8097118 Si02
#       6
#     8   8   8   8   8   8
#     4   9  17  31  53  79 112 152 178 195 229 285
#     4  10  20  34  52  77 105 132 167 208 262 331
#     4  12  23  35  55  77 104 140 171 209 270 323
#     4  11  24  40  54  71  97 132 183 237 271 301
#     4  10  20  34  52  81 118 144 170 205 243 302
#     4   9  19  35  52  70  97 132 173 225 268 305
#
# _framework density 19.043288
#
# number of rings (size 3 to 8) (size 9 to 14) (size 15 to 20)
#    0.000    1.833    0.000    4.500    0.000    8.667 
#    0.000    6.667    0.000    0.000    0.000    0.000 
#    0.000   46.667    0.000    0.000    0.000    0.000 
#
# Total GULP energy -297624.300585 kJ/mol
# GULP energy per Si atom -12401.012524 kJ/mol
# Density = 1.899994 g / cm^3
# Si number density = 19.043288 Si / 1000 Ang^3
#
#
#
# Elastic Constant Matrix: (Units=GPa)
#
#
# Indices 1 2 3 4 5 6 
#
# 1 53.2211 13.3777 18.2944 0.0000 -19.0310 0.0000
# 2 13.3777 105.7261 36.8998 0.0000 -16.2236 0.0000
# 3 18.2944 36.8998 136.1189 0.0000 -16.6229 0.0000
# 4 0.0000 0.0000 0.0000 25.1386 0.0000 -4.4031
# 5 -19.0310 -16.2236 -16.6229 0.0000 25.1011 0.0000
# 6 0.0000 0.0000 0.0000 -4.4031 0.0000 18.8381
#
#
#
# Elastic Compliance Matrix: (Units=1/GPa)
#
#
# Indices 1 2 3 4 5 6 
#
# 1 0.025952 0.000033 -0.001187 0.000000 0.018910 0.000000
# 2 0.000033 0.011139 -0.002330 0.000000 0.005681 0.000000
# 3 -0.001187 -0.002330 0.008534 0.000000 0.003245 0.000000
# 4 0.000000 0.000000 0.000000 0.041478 0.000000 0.009695
# 5 0.018910 0.005681 0.003245 0.000000 0.059997 0.000000
# 6 0.000000 0.000000 0.000000 0.009695 0.000000 0.055350
#
#
# Mechanical properties :
#
#
# Convention : Reuss Voigt Hill
#
# Bulk Modulus (GPa) = 25.87001 48.02331 36.94666
# Shear Modulus (GPa) = 22.49163 28.91518 25.70340
#
# Velocity S-wave (km/s) = 3.44041 3.90088 3.67786
# Velocity P-wave (km/s) = 5.42183 6.74996 6.12202
#
# Compressibility (1/GPa) = 0.03865480
#
# Stress axis : x y z
#
# Youngs Moduli (GPa) = 38.53329 89.77171 117.17667
#
# Poissons Ratio (x) = -0.00292 0.13913
# Poissons Ratio (y) = -0.00125 0.27306
# Poissons Ratio (z) = 0.04575 0.20920
#
# Static dielectric constant tensor:
#      x y z
#    x 3.476830 0.000000 -0.072810 
#    y 0.000000 3.431210 0.000000 
#    z -0.072810 0.000000 3.913180 
# 
# 
# High freq. dielectric constant tensor:
#      x y z
#    x 1.730920 0.000000 -0.005700 
#    y 0.000000 1.722600 0.000000 
#    z -0.005700 0.000000 1.762960 
# 
# From -- ./inp_files/219545.got.cif
#   From: 2010.06.25/outbox.cif.g09.slc.cpg/sg12_110_cif.got.tgz:219545.got - 2010.06.28 00:19:55.
