data_PCOD8097635
_publ_section_title
;
Structure prediction by ZEFSAII (Michael W. Deem and Ramdas Pophale) SiO2 
 PCOD8097635
Probable space group: C 2/M
;
_chemical_formula_sum "Si O2"
_cell_formula_units_Z 48
_cell_length_a 19.210177
_cell_length_b 8.982916
_cell_length_c 20.272024
_cell_angle_alpha 90.000000
_cell_angle_beta 131.072660
_cell_angle_gamma 90.000000
_cell_volume 2637.219653
_symmetry_space_group_name_H-M "C 2/M"
_symmetry_group_IT_number 12
_symmetry_cell_setting 'monoclinic'
loop_
_space_group_symop_operation_xyz
x,y,z
-x,y,-z
-x,-y,-z
x,-y,z
1/2+x,1/2+y,z
1/2-x,1/2+y,-z
1/2-x,1/2-y,-z
1/2+x,1/2-y,z
loop_
_atom_site_type_symbol
_atom_site_label
_atom_site_fract_x
_atom_site_fract_y
_atom_site_fract_z
Si Si1 0.701588 0.173727 0.287241
Si Si2 0.180814 0.827475 0.907917
Si Si3 0.669980 0.327144 0.752858
Si Si4 0.486677 0.170679 0.645938
Si Si5 0.796205 0.671415 0.466999
Si Si6 0.972050 0.174805 0.773754
O O1 0.745068 0.203112 0.242654
O O2 0.766548 0.249152 0.381661
O O3 0.599800 0.245350 0.222116
O O4 0.693908 0.000000 0.298866
O O5 0.198987 0.773842 0.844193
O O6 0.075542 0.788960 0.862565
O O7 0.200746 0.000000 0.926441
O O8 0.250000 0.750000 0.000000
O O9 0.641101 0.500000 0.736524
O O10 0.580668 0.235215 0.673246
O O11 0.406988 0.184077 0.541486
O O12 0.455422 0.264277 0.690070
O O13 0.501637 0.000000 0.676722
O O14 0.764206 0.500000 0.445235
O O15 0.750000 0.750000 0.500000
O O16 0.952742 0.000000 0.761127
#
# Coordination Sequence:
#
# PCOD8097635 Si02
#       6
#     8   8   8   8   8   8
#     4  11  22  36  55  80 110 147 187 226 272 321
#     4   9  19  37  60  84 106 136 177 220 270 329
#     4   9  21  39  56  78 112 146 179 223 276 328
#     4  10  20  34  54  79 106 143 190 229 266 318
#     4  11  22  34  52  79 111 146 188 234 270 314
#     4  10  20  35  56  80 110 144 180 223 272 324
#
# _framework density 18.200984999999999
#
# number of rings (size 3 to 8) (size 9 to 14) (size 15 to 20)
#    0.000    2.000    1.667    3.000    0.000    7.333 
#    0.000    4.167    0.000    5.000    0.000    0.000 
#    0.000    0.000    0.000    0.000    0.000    0.000 
#
# Total GULP energy -297639.294214 kJ/mol
# GULP energy per Si atom -12401.637259 kJ/mol
# Density = 1.815956 g / cm^3
# Si number density = 18.200985 Si / 1000 Ang^3
#
#
#
# Elastic Constant Matrix: (Units=GPa)
#
#
# Indices 1 2 3 4 5 6 
#
# 1 127.4690 67.4191 58.9378 0.0000 8.1231 0.0000
# 2 67.4191 115.0021 60.2737 0.0000 7.7981 0.0000
# 3 58.9378 60.2737 121.9659 0.0000 10.9182 0.0000
# 4 0.0000 0.0000 0.0000 32.7133 0.0000 3.5940
# 5 8.1231 7.7981 10.9182 0.0000 21.4792 0.0000
# 6 0.0000 0.0000 0.0000 3.5940 0.0000 31.9602
#
#
#
# Elastic Compliance Matrix: (Units=1/GPa)
#
#
# Indices 1 2 3 4 5 6 
#
# 1 0.012251 -0.005475 -0.003119 0.000000 -0.001060 0.000000
# 2 -0.005475 0.014221 -0.004301 0.000000 -0.000906 0.000000
# 3 -0.003119 -0.004301 0.012139 0.000000 -0.003429 0.000000
# 4 0.000000 0.000000 0.000000 0.030951 0.000000 -0.003480
# 5 -0.001060 -0.000906 -0.003429 0.000000 0.049030 0.000000
# 6 0.000000 0.000000 0.000000 -0.003480 0.000000 0.031680
#
#
# Mechanical properties :
#
#
# Convention : Reuss Voigt Hill
#
# Bulk Modulus (GPa) = 78.00530 81.96645 79.98587
# Shear Modulus (GPa) = 27.72620 29.08430 28.40525
#
# Velocity S-wave (km/s) = 3.90723 4.00178 3.95478
# Velocity P-wave (km/s) = 7.95651 8.15378 8.05575
#
# Compressibility (1/GPa) = 0.01281964
#
# Stress axis : x y z
#
# Youngs Moduli (GPa) = 81.62807 70.31950 82.38076
#
# Poissons Ratio (x) = 0.38501 0.25697
# Poissons Ratio (y) = 0.44693 0.35431
# Poissons Ratio (z) = 0.25462 0.30243
#
# Static dielectric constant tensor:
#      x y z
#    x 3.548290 0.000000 -0.056700 
#    y 0.000000 3.583000 0.000000 
#    z -0.056700 0.000000 3.703600 
# 
# 
# High freq. dielectric constant tensor:
#      x y z
#    x 1.702720 0.000000 0.014550 
#    y 0.000000 1.718620 0.000000 
#    z 0.014550 0.000000 1.690990 
# 
# From -- ./inp_files/281828.got.cif
#   From: 2010.06.25/outbox.cif.g09.slc.cpg/sg12_141_cif.got.tgz:281828.got - 2010.06.28 00:19:55.
