data_PCOD8097650
_publ_section_title
;
Structure prediction by ZEFSAII (Michael W. Deem and Ramdas Pophale) SiO2 
 PCOD8097650
Probable space group: C 2/M
;
_chemical_formula_sum "Si O2"
_cell_formula_units_Z 56
_cell_length_a 28.519213
_cell_length_b 8.668448
_cell_length_c 19.010349
_cell_angle_alpha 90.000000
_cell_angle_beta 41.437326
_cell_angle_gamma 90.000000
_cell_volume 3110.254994
_symmetry_space_group_name_H-M "C 2/M"
_symmetry_group_IT_number 12
_symmetry_cell_setting 'monoclinic'
loop_
_space_group_symop_operation_xyz
x,y,z
-x,y,-z
-x,-y,-z
x,-y,z
1/2+x,1/2+y,z
1/2-x,1/2+y,-z
1/2-x,1/2-y,-z
1/2+x,1/2-y,z
loop_
_atom_site_type_symbol
_atom_site_label
_atom_site_fract_x
_atom_site_fract_y
_atom_site_fract_z
Si Si1 0.751882 0.321366 0.892863
Si Si2 0.710500 0.820446 0.800948
Si Si3 0.356587 0.178525 0.378965
Si Si4 0.994996 0.179132 0.794133
Si Si5 0.558441 0.680154 0.991581
Si Si6 0.740343 0.321822 0.622772
Si Si7 0.636606 0.177621 0.119344
O O1 0.730133 0.500000 0.924629
O O2 0.756737 0.272400 0.806389
O O3 0.827144 0.289973 0.845850
O O4 0.690825 0.219653 0.996579
O O5 0.743749 0.780419 0.688467
O O6 0.718806 0.000000 0.806398
O O7 0.628327 0.775365 0.895796
O O8 0.436955 0.222860 0.304532
O O9 0.328740 0.278737 0.344986
O O10 0.311165 0.215323 0.499536
O O11 0.349824 0.000000 0.366046
O O12 0.970386 0.227477 0.899696
O O13 0.933510 0.219057 0.807589
O O14 0.013866 0.000000 0.768618
O O15 0.577591 0.500000 0.966814
O O16 0.500000 0.725488 0.000000
O O17 0.734089 0.500000 0.651062
O O18 0.615209 0.000000 0.134733
#
# Coordination Sequence:
#
# PCOD8097650 Si02
#       7
#     8   8   8   8   8   8   8
#     4  10  20  35  54  77 108 144 180 221 272 324
#     4  12  23  34  54  81 109 142 180 226 269 319
#     4  10  21  37  58  82 108 141 185 230 267 315
#     4  11  21  33  54  80 111 148 179 219 272 325
#     4  10  21  35  50  73 108 146 179 213 264 326
#     4  10  21  38  58  79 108 145 183 226 273 320
#     4  10  20  34  54  79 108 141 181 226 266 319
#
# _framework density 18.004954000000001
#
# number of rings (size 3 to 8) (size 9 to 14) (size 15 to 20)
#    0.000    1.571    1.429    4.286    0.000    5.429 
#    0.000    0.000    0.000    0.857    0.000    6.000 
#    0.000    0.000    0.000    0.000    0.000    0.000 
#
# Total GULP energy -347363.935200 kJ/mol
# GULP energy per Si atom -12405.854829 kJ/mol
# Density = 1.796397 g / cm^3
# Si number density = 18.004954 Si / 1000 Ang^3
#
#
#
# Elastic Constant Matrix: (Units=GPa)
#
#
# Indices 1 2 3 4 5 6 
#
# 1 120.2187 29.0247 47.3815 0.0008 0.7554 0.0049
# 2 29.0247 56.0675 26.3456 -0.0232 3.9198 0.0227
# 3 47.3815 26.3456 74.9269 -0.0047 1.4990 0.0070
# 4 0.0008 -0.0232 -0.0047 27.2919 0.0042 -1.1506
# 5 0.7554 3.9198 1.4990 0.0042 22.3790 -0.0086
# 6 0.0049 0.0227 0.0070 -1.1506 -0.0086 31.8203
#
#
#
# Elastic Compliance Matrix: (Units=1/GPa)
#
#
# Indices 1 2 3 4 5 6 
#
# 1 0.011503 -0.003080 -0.006202 -0.000004 0.000567 0.000002
# 2 -0.003080 0.022428 -0.005870 0.000018 -0.003431 -0.000015
# 3 -0.006202 -0.005870 0.019334 -0.000001 -0.000058 0.000001
# 4 -0.000004 0.000018 -0.000001 0.036697 -0.000009 0.001327
# 5 0.000567 -0.003431 -0.000058 -0.000009 0.045270 0.000014
# 6 0.000002 -0.000015 0.000001 0.001327 0.000014 0.031474
#
#
# Mechanical properties :
#
#
# Convention : Reuss Voigt Hill
#
# Bulk Modulus (GPa) = 43.55345 50.74628 47.14987
# Shear Modulus (GPa) = 24.43031 26.19566 25.31299
#
# Velocity S-wave (km/s) = 3.68756 3.81847 3.75359
# Velocity P-wave (km/s) = 6.50946 6.90556 6.71043
#
# Compressibility (1/GPa) = 0.02296029
#
# Stress axis : x y z
#
# Youngs Moduli (GPa) = 86.93604 44.58696 51.72336
#
# Poissons Ratio (x) = 0.13732 0.32081
# Poissons Ratio (y) = 0.26775 0.30361
# Poissons Ratio (z) = 0.53921 0.26172
#
# Static dielectric constant tensor:
#      x y z
#    x 3.453230 -0.000040 0.041630 
#    y -0.000040 3.366860 0.000050 
#    z 0.041630 0.000050 3.154080 
# 
# 
# High freq. dielectric constant tensor:
#      x y z
#    x 1.701060 0.000000 0.000380 
#    y 0.000000 1.710010 0.000000 
#    z 0.000380 0.000000 1.674600 
# 
# From -- ./inp_files/288188.got.cif
#   From: 2010.06.25/outbox.cif.g09.slc.cpg/sg12_145_cif.got.tgz:288188.got - 2010.06.28 00:19:55.
