data_PCOD8097804
_publ_section_title
;
Structure prediction by ZEFSAII (Michael W. Deem and Ramdas Pophale) SiO2 
 PCOD8097804
Probable space group: C 2/M
;
_chemical_formula_sum "Si O2"
_cell_formula_units_Z 48
_cell_length_a 19.973573
_cell_length_b 14.203899
_cell_length_c 8.634931
_cell_angle_alpha 90.000000
_cell_angle_beta 94.135196
_cell_angle_gamma 90.000000
_cell_volume 2443.374990
_symmetry_space_group_name_H-M "C 2/M"
_symmetry_group_IT_number 12
_symmetry_cell_setting 'monoclinic'
loop_
_space_group_symop_operation_xyz
x,y,z
-x,y,-z
-x,-y,-z
x,-y,z
1/2+x,1/2+y,z
1/2-x,1/2+y,-z
1/2-x,1/2-y,-z
1/2+x,1/2-y,z
loop_
_atom_site_type_symbol
_atom_site_label
_atom_site_fract_x
_atom_site_fract_y
_atom_site_fract_z
Si Si1 0.824314 0.749974 0.858116
Si Si2 0.331032 0.756933 0.515856
Si Si3 0.767513 0.602191 0.049250
Si Si4 0.557600 0.735453 0.885328
Si Si5 0.390248 0.896327 0.288585
Si Si6 0.932500 0.889546 0.394309
O O1 0.857316 0.732328 0.696859
O O2 0.781535 0.845776 0.838448
O O3 0.775193 0.662802 0.892740
O O4 0.874230 0.764058 0.008047
O O5 0.250000 0.750000 0.500000
O O6 0.354783 0.850701 0.432038
O O7 0.367314 0.665524 0.449022
O O8 0.737703 0.500000 0.999918
O O9 0.838322 0.588939 0.142387
O O10 0.552473 0.826136 0.769072
O O11 0.554537 0.641339 0.781150
O O12 0.500000 0.737822 0.000000
O O13 0.419936 0.000000 0.337532
O O14 0.000000 0.865247 0.500000
O O15 0.916172 0.000000 0.397808
#
# Coordination Sequence:
#
# PCOD8097804 Si02
#       6
#     8   8   8   8   8   8
#     4  10  20  34  54  82 112 146 193 232 288 351
#     4  11  21  36  59  86 120 158 197 246 299 353
#     4   9  18  33  52  76 110 145 182 233 283 335
#     4  10  21  38  60  83 113 154 195 245 293 348
#     4   9  19  36  56  82 114 148 190 237 288 348
#     4  10  23  42  62  88 122 160 203 247 297 361
#
# _framework density 19.644957000000002
#
# number of rings (size 3 to 8) (size 9 to 14) (size 15 to 20)
#    0.000    2.167    1.667    1.000    2.333    3.333 
#    0.000    0.000    0.000   17.000    0.000    0.000 
#    0.000    0.000    0.000    0.000    0.000    0.000 
#
# Total GULP energy -297470.044845 kJ/mol
# GULP energy per Si atom -12394.585202 kJ/mol
# Density = 1.960024 g / cm^3
# Si number density = 19.644957 Si / 1000 Ang^3
#
#
#
# Elastic Constant Matrix: (Units=GPa)
#
#
# Indices 1 2 3 4 5 6 
#
# 1 74.7293 40.8783 31.9697 0.0000 -18.5391 0.0000
# 2 40.8783 155.1699 52.9153 0.0000 -15.1045 0.0000
# 3 31.9697 52.9153 123.5059 0.0000 -22.8813 0.0000
# 4 0.0000 0.0000 0.0000 17.0848 0.0000 2.9047
# 5 -18.5391 -15.1045 -22.8813 0.0000 36.6075 0.0000
# 6 0.0000 0.0000 0.0000 2.9047 0.0000 19.8541
#
#
#
# Elastic Compliance Matrix: (Units=1/GPa)
#
#
# Indices 1 2 3 4 5 6 
#
# 1 0.017623 -0.003362 -0.001951 0.000000 0.006318 0.000000
# 2 -0.003362 0.008239 -0.002652 0.000000 0.000039 0.000000
# 3 -0.001951 -0.002652 0.010577 0.000000 0.004529 0.000000
# 4 0.000000 0.000000 0.000000 0.060024 0.000000 -0.008782
# 5 0.006318 0.000039 0.004529 0.000000 0.033363 0.000000
# 6 0.000000 0.000000 0.000000 -0.008782 0.000000 0.051652
#
#
# Mechanical properties :
#
#
# Convention : Reuss Voigt Hill
#
# Bulk Modulus (GPa) = 48.76122 67.21465 57.98793
# Shear Modulus (GPa) = 24.48042 29.88540 27.18291
#
# Velocity S-wave (km/s) = 3.53390 3.90459 3.72386
# Velocity P-wave (km/s) = 6.44410 7.39031 6.93337
#
# Compressibility (1/GPa) = 0.02050810
#
# Stress axis : x y z
#
# Youngs Moduli (GPa) = 56.74455 121.38029 94.54402
#
# Poissons Ratio (x) = 0.40813 0.18441
# Poissons Ratio (y) = 0.19080 0.25075
# Poissons Ratio (z) = 0.11068 0.32193
#
# Static dielectric constant tensor:
#      x y z
#    x 0.934260 0.000000 -0.891770 
#    y 0.000000 3.946030 0.000000 
#    z -0.891770 0.000000 3.385120 
# 
# 
# High freq. dielectric constant tensor:
#      x y z
#    x 1.748880 0.000000 -0.005950 
#    y 0.000000 1.768850 0.000000 
#    z -0.005950 0.000000 1.769510 
# 
# From -- ./inp_files/85174.got.cif
#   From: 2010.06.25/outbox.cif.g09.slc.cpg/sg12_43_cif.got.tgz:85174.got - 2010.06.28 00:19:55.
