data_PCOD8097272
_publ_section_title
;
Structure prediction by ZEFSAII (Michael W. Deem and Ramdas Pophale) SiO2 
 PCOD8097272
Probable space group: C 2/M
;
_chemical_formula_sum "Si O2"
_cell_formula_units_Z 64
_cell_length_a 14.082891
_cell_length_b 8.792510
_cell_length_c 31.671961
_cell_angle_alpha 90.000000
_cell_angle_beta 62.138856
_cell_angle_gamma 90.000000
_cell_volume 3467.149471
_symmetry_space_group_name_H-M "C 2/M"
_symmetry_group_IT_number 12
_symmetry_cell_setting 'monoclinic'
loop_
_space_group_symop_operation_xyz
x,y,z
-x,y,-z
-x,-y,-z
x,-y,z
1/2+x,1/2+y,z
1/2-x,1/2+y,-z
1/2-x,1/2-y,-z
1/2+x,1/2-y,z
loop_
_atom_site_type_symbol
_atom_site_label
_atom_site_fract_x
_atom_site_fract_y
_atom_site_fract_z
Si Si1 0.801891 0.825036 0.448980
Si Si2 0.449343 0.676632 0.798056
Si Si3 0.982749 0.321676 0.132937
Si Si4 0.041274 0.679383 0.697037
Si Si5 0.216633 0.323789 0.881289
Si Si6 0.963774 0.177371 0.628104
Si Si7 0.742268 0.819762 0.369589
Si Si8 0.213544 0.323216 0.050699
O O1 0.750000 0.750000 0.500000
O O2 0.748117 0.763459 0.416992
O O3 0.929218 0.794060 0.421518
O O4 0.775658 0.000000 0.458526
O O5 0.471130 0.500000 0.783604
O O6 0.520742 0.727063 0.823081
O O7 0.479702 0.780753 0.752444
O O8 0.324885 0.709775 0.833124
O O9 0.976730 0.500000 0.145167
O O10 0.882101 0.266469 0.126402
O O11 0.089539 0.281471 0.084626
O O12 0.038482 0.500000 0.689432
O O13 0.163760 0.736574 0.675923
O O14 0.980663 0.765763 0.672016
O O15 0.204886 0.500000 0.894770
O O16 0.213450 0.235558 0.926068
O O17 0.871390 0.274752 0.625677
O O18 0.932815 0.000000 0.635625
O O19 0.760920 0.000000 0.362553
O O20 0.232030 0.500000 0.042820
O O21 0.250000 0.250000 0.000000
#
# Coordination Sequence:
#
# PCOD8097272 Si02
#       8
#     8   8   8   8   8   8   8   8
#     4   9  20  36  55  79 110 144 181 224 268 319
#     4  10  20  35  55  79 107 137 172 220 267 315
#     4   9  19  36  55  76 103 138 177 216 261 318
#     4  11  22  37  57  80 109 146 182 222 269 321
#     4   9  19  36  56  76 102 136 174 214 260 310
#     4  10  21  38  57  81 111 144 182 225 272 324
#     4  10  21  38  57  81 110 142 182 227 272 321
#     4  10  20  34  53  76 105 137 173 216 261 312
#
# _framework density 18.458967000000001
#
# number of rings (size 3 to 8) (size 9 to 14) (size 15 to 20)
#    0.000    2.250    0.000    3.375    0.000    6.500 
#    0.000    8.750    0.000    0.000    0.000    0.000 
#    0.000    0.000    0.000    0.000    0.000    0.000 
#
# Total GULP energy -396899.647822 kJ/mol
# GULP energy per Si atom -12403.113994 kJ/mol
# Density = 1.841695 g / cm^3
# Si number density = 18.458967 Si / 1000 Ang^3
#
#
#
# Elastic Constant Matrix: (Units=GPa)
#
#
# Indices 1 2 3 4 5 6 
#
# 1 115.6130 21.1102 35.7692 0.0000 7.7409 0.0000
# 2 21.1102 60.9656 39.7289 0.0000 1.3625 0.0000
# 3 35.7692 39.7289 114.6463 0.0000 7.3702 0.0000
# 4 0.0000 0.0000 0.0000 37.2097 0.0000 3.1947
# 5 7.7409 1.3625 7.3702 0.0000 13.8355 0.0000
# 6 0.0000 0.0000 0.0000 3.1947 0.0000 32.9971
#
#
#
# Elastic Compliance Matrix: (Units=1/GPa)
#
#
# Indices 1 2 3 4 5 6 
#
# 1 0.009956 -0.001945 -0.002160 0.000000 -0.004228 0.000000
# 2 -0.001945 0.021615 -0.007058 0.000000 0.002720 0.000000
# 3 -0.002160 -0.007058 0.012136 0.000000 -0.004561 0.000000
# 4 0.000000 0.000000 0.000000 0.027100 0.000000 -0.002624
# 5 -0.004228 0.002720 -0.004561 0.000000 0.076805 0.000000
# 6 0.000000 0.000000 0.000000 -0.002624 0.000000 0.030560
#
#
# Mechanical properties :
#
#
# Convention : Reuss Voigt Hill
#
# Bulk Modulus (GPa) = 46.77447 53.82685 50.30066
# Shear Modulus (GPa) = 24.08178 29.78291 26.93234
#
# Velocity S-wave (km/s) = 3.61586 4.02115 3.82388
# Velocity P-wave (km/s) = 6.54426 7.12623 6.84143
#
# Compressibility (1/GPa) = 0.02137919
#
# Stress axis : x y z
#
# Youngs Moduli (GPa) = 100.43980 46.26404 82.40158
#
# Poissons Ratio (x) = 0.08999 0.17802
# Poissons Ratio (y) = 0.19536 0.58162
# Poissons Ratio (z) = 0.21700 0.32655
#
# Static dielectric constant tensor:
#      x y z
#    x 3.528540 0.000000 0.084260 
#    y 0.000000 3.441860 0.000000 
#    z 0.084260 0.000000 3.480900 
# 
# 
# High freq. dielectric constant tensor:
#      x y z
#    x 1.718840 0.000000 0.003090 
#    y 0.000000 1.723480 0.000000 
#    z 0.003090 0.000000 1.717820 
# 
# From -- ./inp_files/359922.got.cif
#   From: 2010.06.25/outbox.cif.g09.slc.cpg/sg12_180_cif.got.tgz:359922.got - 2010.06.28 00:19:55.
