data_PCOD8097874
_publ_section_title
;
Structure prediction by ZEFSAII (Michael W. Deem and Ramdas Pophale) SiO2 
 PCOD8097874
Probable space group: C 2/M
;
_chemical_formula_sum "Si O2"
_cell_formula_units_Z 64
_cell_length_a 14.266135
_cell_length_b 18.596048
_cell_length_c 12.830239
_cell_angle_alpha 90.000000
_cell_angle_beta 68.374390
_cell_angle_gamma 90.000000
_cell_volume 3164.196058
_symmetry_space_group_name_H-M "C 2/M"
_symmetry_group_IT_number 12
_symmetry_cell_setting 'monoclinic'
loop_
_space_group_symop_operation_xyz
x,y,z
-x,y,-z
-x,-y,-z
x,-y,z
1/2+x,1/2+y,z
1/2-x,1/2+y,-z
1/2-x,1/2-y,-z
1/2+x,1/2-y,z
loop_
_atom_site_type_symbol
_atom_site_label
_atom_site_fract_x
_atom_site_fract_y
_atom_site_fract_z
Si Si1 0.106860 0.681504 0.409354
Si Si2 0.389672 0.781478 0.833225
Si Si3 0.887140 0.844423 0.570440
Si Si4 0.227575 0.919305 0.556874
Si Si5 0.569835 0.729327 0.873107
Si Si6 0.362092 0.420485 0.788043
Si Si7 0.572990 0.578592 0.796582
Si Si8 0.712656 0.827511 0.931062
O O1 0.115556 0.684010 0.279503
O O2 0.127668 0.760325 0.447138
O O3 0.189820 0.626825 0.416550
O O4 0.000000 0.654654 0.500000
O O5 0.505621 0.755095 0.798986
O O6 0.317669 0.716064 0.898559
O O7 0.355927 0.838614 0.937027
O O8 0.800859 0.886446 0.543019
O O9 0.872233 0.858255 0.698199
O O10 0.000000 0.870903 0.500000
O O11 0.123556 0.920069 0.662837
O O12 0.269977 0.000000 0.524392
O O13 0.614577 0.648101 0.842275
O O14 0.657008 0.787348 0.857718
O O15 0.500000 0.727864 0.000000
O O16 0.362601 0.500000 0.737522
O O17 0.452812 0.413354 0.833541
O O18 0.252562 0.407351 0.886334
O O19 0.596977 0.500000 0.840239
#
# Coordination Sequence:
#
# PCOD8097874 Si02
#       8
#     8   8   8   8   8   8   8   8
#     4  11  24  40  63  90 116 159 213 260 287 350
#     4  10  20  39  59  86 121 157 201 245 306 345
#     4  11  21  37  60  88 122 159 198 247 305 351
#     4  11  24  40  58  85 123 165 201 243 309 368
#     4  10  20  34  59  85 116 159 203 243 295 358
#     4  11  21  36  59  89 123 158 199 244 302 364
#     4  10  20  34  54  83 124 159 189 242 303 365
#     4  10  20  36  61  88 120 161 200 243 295 362
#
# _framework density 20.226306000000001
#
# number of rings (size 3 to 8) (size 9 to 14) (size 15 to 20)
#    0.000    1.500    3.750    1.500    1.750    2.000 
#    0.000    0.625    0.000    4.125    0.000    0.000 
#    0.000    0.000    0.000    0.000    0.000    0.000 
#
# Total GULP energy -396543.315272 kJ/mol
# GULP energy per Si atom -12391.978602 kJ/mol
# Density = 2.018027 g / cm^3
# Si number density = 20.226306 Si / 1000 Ang^3
#
#
#
# Elastic Constant Matrix: (Units=GPa)
#
#
# Indices 1 2 3 4 5 6 
#
# 1 90.0044 45.0839 29.4048 0.0000 6.1938 0.0000
# 2 45.0839 84.4705 25.8002 0.0000 1.7565 0.0000
# 3 29.4048 25.8002 66.9554 0.0000 -3.5667 0.0000
# 4 0.0000 0.0000 0.0000 20.4422 0.0000 -3.4637
# 5 6.1938 1.7565 -3.5667 0.0000 29.0564 0.0000
# 6 0.0000 0.0000 0.0000 -3.4637 0.0000 26.2762
#
#
#
# Elastic Compliance Matrix: (Units=1/GPa)
#
#
# Indices 1 2 3 4 5 6 
#
# 1 0.016555 -0.007344 -0.004635 0.000000 -0.003654 0.000000
# 2 -0.007344 0.016737 -0.003216 0.000000 0.000159 0.000000
# 3 -0.004635 -0.003216 0.018393 0.000000 0.003440 0.000000
# 4 0.000000 0.000000 0.000000 0.050036 0.000000 0.006596
# 5 -0.003654 0.000159 0.003440 0.000000 0.035607 0.000000
# 6 0.000000 0.000000 0.000000 0.006596 0.000000 0.038927
#
#
# Mechanical properties :
#
#
# Convention : Reuss Voigt Hill
#
# Bulk Modulus (GPa) = 46.95800 49.11202 48.03501
# Shear Modulus (GPa) = 23.39248 24.56436 23.97842
#
# Velocity S-wave (km/s) = 3.40448 3.48871 3.44685
# Velocity P-wave (km/s) = 6.22259 6.36884 6.29614
#
# Compressibility (1/GPa) = 0.02129563
#
# Stress axis : x y z
#
# Youngs Moduli (GPa) = 60.40431 59.74775 54.36764
#
# Poissons Ratio (x) = 0.43879 0.25201
# Poissons Ratio (y) = 0.44362 0.17482
# Poissons Ratio (z) = 0.27999 0.19212
#
# Static dielectric constant tensor:
#      x y z
#    x 3.909390 0.000000 -0.083050 
#    y 0.000000 3.787630 0.000000 
#    z -0.083050 0.000000 3.796320 
# 
# 
# High freq. dielectric constant tensor:
#      x y z
#    x 1.780350 0.000000 -0.003380 
#    y 0.000000 1.777340 0.000000 
#    z -0.003380 0.000000 1.785790 
# 
# From -- ./inp_files/147626.got.cif
#   From: 2010.06.25/outbox.cif.g09.slc.cpg/sg12_74_cif.got.tgz:147626.got - 2010.06.28 00:19:55.
