data_PCOD8097413
_publ_section_title
;
Structure prediction by ZEFSAII (Michael W. Deem and Ramdas Pophale) SiO2 
 PCOD8097413
Probable space group: C 2/M
;
_chemical_formula_sum "Si O2"
_cell_formula_units_Z 56
_cell_length_a 33.474892
_cell_length_b 10.395117
_cell_length_c 10.899219
_cell_angle_alpha 90.000000
_cell_angle_beta 48.625019
_cell_angle_gamma 90.000000
_cell_volume 2846.011411
_symmetry_space_group_name_H-M "C 2/M"
_symmetry_group_IT_number 12
_symmetry_cell_setting 'monoclinic'
loop_
_space_group_symop_operation_xyz
x,y,z
-x,y,-z
-x,-y,-z
x,-y,z
1/2+x,1/2+y,z
1/2-x,1/2+y,-z
1/2-x,1/2-y,-z
1/2+x,1/2-y,z
loop_
_atom_site_type_symbol
_atom_site_label
_atom_site_fract_x
_atom_site_fract_y
_atom_site_fract_z
Si Si1 0.400631 0.857890 0.903357
Si Si2 0.684192 0.643303 0.556675
Si Si3 0.998490 0.355941 0.146214
Si Si4 0.395926 0.359578 0.724663
Si Si5 0.792511 0.726588 0.237163
Si Si6 0.774587 0.139074 0.032203
Si Si7 0.085177 0.150872 0.594660
O O1 0.440891 0.837964 0.933412
O O2 0.417708 0.752211 0.768229
O O3 0.407179 0.000000 0.831405
O O4 0.340052 0.850009 0.074825
O O5 0.669846 0.500000 0.624847
O O6 0.740778 0.641100 0.371403
O O7 0.684958 0.722036 0.680520
O O8 0.638009 0.695753 0.560785
O O9 0.977450 0.500000 0.224676
O O10 0.963075 0.242118 0.271242
O O11 0.000000 0.338268 0.000000
O O12 0.422181 0.500000 0.702517
O O13 0.333906 0.373334 0.866910
O O14 0.406533 0.320931 0.564370
O O15 0.772480 0.835094 0.182624
O O16 0.746053 0.000000 0.068150
O O17 0.750000 0.250000 0.000000
O O18 0.072124 0.000000 0.645566
#
# Coordination Sequence:
#
# PCOD8097413 Si02
#       7
#     8   8   8   8   8   8   8
#     4  10  21  37  59  84 110 145 188 228 273 330
#     4  10  20  35  56  82 113 147 184 228 276 330
#     4  10  22  40  59  82 113 146 182 228 277 325
#     4   9  20  37  55  79 112 145 180 227 278 324
#     4  10  20  35  56  82 113 146 183 228 279 329
#     4  10  20  34  53  78 110 148 186 226 273 325
#     4  10  21  38  59  84 112 145 186 227 272 327
#
# _framework density 19.676659999999998
#
# number of rings (size 3 to 8) (size 9 to 14) (size 15 to 20)
#    0.000    2.143    0.000    2.571    0.000    6.571 
#    0.000    7.857    0.000    0.000    0.000    0.000 
#    0.000    0.000    0.000    0.000    0.000    0.000 
#
# Total GULP energy -347007.762997 kJ/mol
# GULP energy per Si atom -12393.134393 kJ/mol
# Density = 1.963188 g / cm^3
# Si number density = 19.676660 Si / 1000 Ang^3
#
#
#
# Elastic Constant Matrix: (Units=GPa)
#
#
# Indices 1 2 3 4 5 6 
#
# 1 74.2174 41.2907 29.1935 0.0000 24.5623 0.0000
# 2 41.2907 113.3984 40.6232 0.0000 33.0923 0.0000
# 3 29.1935 40.6232 84.3063 0.0000 23.5302 0.0000
# 4 0.0000 0.0000 0.0000 37.3829 0.0000 -2.9926
# 5 24.5623 33.0923 23.5302 0.0000 21.8976 0.0000
# 6 0.0000 0.0000 0.0000 -2.9926 0.0000 30.2254
#
#
#
# Elastic Compliance Matrix: (Units=1/GPa)
#
#
# Indices 1 2 3 4 5 6 
#
# 1 0.021604 -0.001349 -0.000909 0.000000 -0.021217 0.000000
# 2 -0.001349 0.015969 -0.001306 0.000000 -0.021216 0.000000
# 3 -0.000909 -0.001306 0.017098 0.000000 -0.015380 0.000000
# 4 0.000000 0.000000 0.000000 0.026964 0.000000 0.002670
# 5 -0.021217 -0.021216 -0.015380 0.000000 0.118055 0.000000
# 6 0.000000 0.000000 0.000000 0.002670 0.000000 0.033349
#
#
# Mechanical properties :
#
#
# Convention : Reuss Voigt Hill
#
# Bulk Modulus (GPa) = 21.03374 54.90411 37.96892
# Shear Modulus (GPa) = 19.53009 28.62213 24.07611
#
# Velocity S-wave (km/s) = 3.15390 3.81809 3.50178
# Velocity P-wave (km/s) = 4.89649 6.88483 5.97396
#
# Compressibility (1/GPa) = 0.04754265
#
# Stress axis : x y z
#
# Youngs Moduli (GPa) = 46.28777 62.62173 58.48600
#
# Poissons Ratio (x) = 0.08448 0.05317
# Poissons Ratio (y) = 0.06245 0.07638
# Poissons Ratio (z) = 0.04208 0.08178
#
# Static dielectric constant tensor:
#      x y z
#    x 3.616630 0.000000 0.071230 
#    y 0.000000 3.981420 0.000000 
#    z 0.071230 0.000000 3.527860 
# 
# 
# High freq. dielectric constant tensor:
#      x y z
#    x 1.769610 0.000000 0.010910 
#    y 0.000000 1.773840 0.000000 
#    z 0.010910 0.000000 1.761960 
# 
# From -- ./inp_files/110326.got.cif
#   From: 2010.06.25/outbox.cif.g09.slc.cpg/sg12_56_cif.got.tgz:110326.got - 2010.06.28 00:19:55.
