data_PCOD8097836
_publ_section_title
;
Structure prediction by ZEFSAII (Michael W. Deem and Ramdas Pophale) SiO2 
 PCOD8097836
Probable space group: C 2/M
;
_chemical_formula_sum "Si O2"
_cell_formula_units_Z 48
_cell_length_a 20.214940
_cell_length_b 9.624347
_cell_length_c 13.129423
_cell_angle_alpha 90.000000
_cell_angle_beta 113.818674
_cell_angle_gamma 90.000000
_cell_volume 2336.839384
_symmetry_space_group_name_H-M "C 2/M"
_symmetry_group_IT_number 12
_symmetry_cell_setting 'monoclinic'
loop_
_space_group_symop_operation_xyz
x,y,z
-x,y,-z
-x,-y,-z
x,-y,z
1/2+x,1/2+y,z
1/2-x,1/2+y,-z
1/2-x,1/2-y,-z
1/2+x,1/2-y,z
loop_
_atom_site_type_symbol
_atom_site_label
_atom_site_fract_x
_atom_site_fract_y
_atom_site_fract_z
Si Si1 0.021493 0.841749 0.267870
Si Si2 0.744571 0.152531 0.402397
Si Si3 0.406461 0.836375 0.287240
Si Si4 0.092959 0.847694 0.524407
Si Si5 0.151100 0.844452 0.213948
Si Si6 0.247466 0.655328 0.900891
O O1 0.075040 0.805649 0.396450
O O2 0.066204 0.823928 0.189023
O O3 0.953938 0.735116 0.226583
O O4 0.992634 0.000000 0.257565
O O5 0.750000 0.250000 0.500000
O O6 0.822703 0.142290 0.402209
O O7 0.691330 0.217662 0.289235
O O8 0.715600 0.000000 0.415573
O O9 0.435477 0.763288 0.409837
O O10 0.321427 0.808104 0.213948
O O11 0.423151 0.000000 0.304338
O O12 0.059293 0.000000 0.527226
O O13 0.175500 0.832935 0.111063
O O14 0.173972 0.000000 0.268050
O O15 0.237011 0.500000 0.935392
O O16 0.250000 0.750000 0.000000
#
# Coordination Sequence:
#
# PCOD8097836 Si02
#       6
#     8   8   8   8   8   8
#     4  10  21  37  57  83 120 159 192 226 274 343
#     4  11  20  31  52  83 118 155 194 238 280 332
#     4  11  23  38  57  85 119 152 189 240 289 333
#     4  10  20  34  54  82 117 161 199 227 271 335
#     4  10  20  39  60  83 114 150 192 241 286 337
#     4  10  23  42  65  87 110 142 189 245 297 347
#
# _framework density 20.540565000000001
#
# number of rings (size 3 to 8) (size 9 to 14) (size 15 to 20)
#    0.000    1.667    3.333    1.500    0.000    6.000 
#    0.000    0.833    0.000    5.000    0.000    0.000 
#    0.000    0.000    0.000    0.000    0.000    0.000 
#
# Total GULP energy -297343.866522 kJ/mol
# GULP energy per Si atom -12389.327772 kJ/mol
# Density = 2.049381 g / cm^3
# Si number density = 20.540565 Si / 1000 Ang^3
#
#
#
# Elastic Constant Matrix: (Units=GPa)
#
#
# Indices 1 2 3 4 5 6 
#
# 1 124.5038 45.8455 18.6415 0.0000 -25.2589 0.0000
# 2 45.8455 130.6912 37.8345 0.0000 -19.1076 0.0000
# 3 18.6415 37.8345 53.5725 0.0000 -19.6420 0.0000
# 4 0.0000 0.0000 0.0000 28.3865 0.0000 -5.7118
# 5 -25.2589 -19.1076 -19.6420 0.0000 24.4187 0.0000
# 6 0.0000 0.0000 0.0000 -5.7118 0.0000 28.7082
#
#
#
# Elastic Compliance Matrix: (Units=1/GPa)
#
#
# Indices 1 2 3 4 5 6 
#
# 1 0.010972 -0.002902 0.002213 0.000000 0.010859 0.000000
# 2 -0.002902 0.010535 -0.006394 0.000000 0.000098 0.000000
# 3 0.002213 -0.006394 0.030375 0.000000 0.021719 0.000000
# 4 0.000000 0.000000 0.000000 0.036697 0.000000 0.007301
# 5 0.010859 0.000098 0.021719 0.000000 0.069732 0.000000
# 6 0.000000 0.000000 0.000000 0.007301 0.000000 0.036286
#
#
# Mechanical properties :
#
#
# Convention : Reuss Voigt Hill
#
# Bulk Modulus (GPa) = 26.51425 57.04563 41.77994
# Shear Modulus (GPa) = 22.59004 30.06575 26.32790
#
# Velocity S-wave (km/s) = 3.31989 3.83002 3.58404
# Velocity P-wave (km/s) = 5.25659 6.88413 6.12466
#
# Compressibility (1/GPa) = 0.03771557
#
# Stress axis : x y z
#
# Youngs Moduli (GPa) = 91.13994 94.92049 32.92149
#
# Poissons Ratio (x) = 0.27545 -0.07285
# Poissons Ratio (y) = 0.26448 0.21051
# Poissons Ratio (z) = -0.20168 0.60696
#
# Static dielectric constant tensor:
#      x y z
#    x 4.070170 0.000000 -0.150070 
#    y 0.000000 3.807190 0.000000 
#    z -0.150070 0.000000 3.123290 
# 
# 
# High freq. dielectric constant tensor:
#      x y z
#    x 1.818540 0.000000 -0.011900 
#    y 0.000000 1.810410 0.000000 
#    z -0.011900 0.000000 1.752420 
# 
# From -- ./inp_files/230340.got.cif
#   From: 2010.06.25/outbox.cif.g09.slc.cpg/sg12_116_cif.got.tgz:230340.got - 2010.06.28 00:19:55.
