data_PCOD8097297
_publ_section_title
;
Structure prediction by ZEFSAII (Michael W. Deem and Ramdas Pophale) SiO2 
 PCOD8097297
Probable space group: C 2/M
;
_chemical_formula_sum "Si O2"
_cell_formula_units_Z 48
_cell_length_a 19.190977
_cell_length_b 8.990250
_cell_length_c 15.999669
_cell_angle_alpha 90.000000
_cell_angle_beta 72.970409
_cell_angle_gamma 90.000000
_cell_volume 2639.414085
_symmetry_space_group_name_H-M "C 2/M"
_symmetry_group_IT_number 12
_symmetry_cell_setting 'monoclinic'
loop_
_space_group_symop_operation_xyz
x,y,z
-x,y,-z
-x,-y,-z
x,-y,z
1/2+x,1/2+y,z
1/2-x,1/2+y,-z
1/2-x,1/2-y,-z
1/2+x,1/2-y,z
loop_
_atom_site_type_symbol
_atom_site_label
_atom_site_fract_x
_atom_site_fract_y
_atom_site_fract_z
Si Si1 0.145212 0.174399 0.754809
Si Si2 0.306412 0.171432 0.095219
Si Si3 0.015453 0.826646 0.243645
Si Si4 0.647731 0.671845 0.083281
Si Si5 0.526782 0.825912 0.579489
Si Si6 0.811702 0.325139 0.423954
O O1 0.171402 0.229219 0.834802
O O2 0.191543 0.258804 0.667948
O O3 0.060013 0.213215 0.775526
O O4 0.160024 0.000000 0.740678
O O5 0.220695 0.193613 0.111086
O O6 0.326322 0.000000 0.104622
O O7 0.351348 0.228099 0.999609
O O8 0.080767 0.769650 0.162334
O O9 0.021290 0.747532 0.331015
O O10 0.023171 0.000000 0.258245
O O11 0.637580 0.500000 0.060408
O O12 0.500000 0.762425 0.500000
O O13 0.611428 0.785346 0.560434
O O14 0.512844 0.000000 0.590195
O O15 0.797953 0.500000 0.423805
O O16 0.750000 0.250000 0.500000
#
# Coordination Sequence:
#
# PCOD8097297 Si02
#       6
#     8   8   8   8   8   8
#     4  10  20  35  54  75 102 135 170 209 253 300
#     4  10  20  34  53  77 104 134 169 209 253 301
#     4   9  19  35  54  75  99 132 172 210 249 296
#     4   9  19  36  54  74 102 134 170 210 252 300
#     4   9  19  35  53  75 103 133 166 207 254 300
#     4  10  20  35  54  76 104 135 169 209 251 300
#
# _framework density 18.185855
#
# number of rings (size 3 to 8) (size 9 to 14) (size 15 to 20)
#    0.000    2.500    0.000    1.500    0.000    5.000 
#    0.000    6.667    0.000    0.000    0.000    0.000 
#    0.000    0.000    0.000    0.000    0.000    0.000 
#
# Total GULP energy -297689.952140 kJ/mol
# GULP energy per Si atom -12403.748006 kJ/mol
# Density = 1.814446 g / cm^3
# Si number density = 18.185855 Si / 1000 Ang^3
#
#
#
# Elastic Constant Matrix: (Units=GPa)
#
#
# Indices 1 2 3 4 5 6 
#
# 1 66.9791 37.6850 75.8210 0.0000 -7.3250 0.0000
# 2 37.6850 67.4107 54.9142 0.0000 -4.8729 0.0000
# 3 75.8210 54.9142 152.3084 0.0000 -12.4151 0.0000
# 4 0.0000 0.0000 0.0000 41.0626 0.0000 1.5678
# 5 -7.3250 -4.8729 -12.4151 0.0000 40.3789 0.0000
# 6 0.0000 0.0000 0.0000 1.5678 0.0000 25.1172
#
#
#
# Elastic Compliance Matrix: (Units=1/GPa)
#
#
# Indices 1 2 3 4 5 6 
#
# 1 0.037096 -0.008054 -0.015482 0.000000 0.000997 0.000000
# 2 -0.008054 0.022754 -0.004195 0.000000 -0.000005 0.000000
# 3 -0.015482 -0.004195 0.015914 0.000000 0.001578 0.000000
# 4 0.000000 0.000000 0.000000 0.024411 0.000000 -0.001524
# 5 0.000997 -0.000005 0.001578 0.000000 0.025431 0.000000
# 6 0.000000 0.000000 0.000000 -0.001524 0.000000 0.039908
#
#
# Mechanical properties :
#
#
# Convention : Reuss Voigt Hill
#
# Bulk Modulus (GPa) = 49.25550 69.28205 59.26878
# Shear Modulus (GPa) = 21.95458 29.19694 25.57576
#
# Velocity S-wave (km/s) = 3.47830 4.01118 3.75421
# Velocity P-wave (km/s) = 6.57835 7.72219 7.17311
#
# Compressibility (1/GPa) = 0.02030230
#
# Stress axis : x y z
#
# Youngs Moduli (GPa) = 26.95699 43.94877 62.83929
#
# Poissons Ratio (x) = 0.35397 0.97286
# Poissons Ratio (y) = 0.21712 0.26359
# Poissons Ratio (z) = 0.41734 0.18435
#
# Static dielectric constant tensor:
#      x y z
#    x 3.367140 0.000000 -0.035340 
#    y 0.000000 3.383930 0.000000 
#    z -0.035340 0.000000 3.515140 
# 
# 
# High freq. dielectric constant tensor:
#      x y z
#    x 1.698860 0.000000 -0.000960 
#    y 0.000000 1.709640 0.000000 
#    z -0.000960 0.000000 1.713700 
# 
# From -- ./inp_files/229888.got.cif
#   From: 2010.06.25/outbox.cif.g09.slc.cpg/sg12_115_cif.got.tgz:229888.got - 2010.06.28 00:19:55.
