data_PCOD8097726
_publ_section_title
;
Structure prediction by ZEFSAII (Michael W. Deem and Ramdas Pophale) SiO2 
 PCOD8097726
Probable space group: C 2/M
;
_chemical_formula_sum "Si O2"
_cell_formula_units_Z 56
_cell_length_a 29.859736
_cell_length_b 8.631469
_cell_length_c 21.815965
_cell_angle_alpha 90.000000
_cell_angle_beta 146.864512
_cell_angle_gamma 90.000000
_cell_volume 3073.485725
_symmetry_space_group_name_H-M "C 2/M"
_symmetry_group_IT_number 12
_symmetry_cell_setting 'monoclinic'
loop_
_space_group_symop_operation_xyz
x,y,z
-x,y,-z
-x,-y,-z
x,-y,z
1/2+x,1/2+y,z
1/2-x,1/2+y,-z
1/2-x,1/2-y,-z
1/2+x,1/2-y,z
loop_
_atom_site_type_symbol
_atom_site_label
_atom_site_fract_x
_atom_site_fract_y
_atom_site_fract_z
Si Si1 0.913724 0.320825 0.103950
Si Si2 0.077047 0.320885 0.744641
Si Si3 0.285430 0.180401 0.300494
Si Si4 0.543007 0.680646 0.487217
Si Si5 0.754770 0.679198 0.125668
Si Si6 0.004602 0.819226 0.913760
Si Si7 0.878079 0.681064 0.853948
O O1 0.928315 0.500000 0.106479
O O2 0.934061 0.280008 0.197115
O O3 0.976505 0.222281 0.134755
O O4 0.819934 0.283241 0.981799
O O5 0.057317 0.500000 0.707562
O O6 0.169963 0.282734 0.832593
O O7 0.015434 0.212696 0.637018
O O8 0.373268 0.227166 0.427503
O O9 0.281057 0.226048 0.224186
O O10 0.216921 0.273927 0.260001
O O11 0.270727 0.000000 0.294414
O O12 0.500000 0.741148 0.500000
O O13 0.562978 0.500000 0.514836
O O14 0.728304 0.500000 0.091964
O O15 0.924136 0.727897 0.844151
O O16 0.987734 0.000000 0.901306
O O17 0.083235 0.773229 0.044513
O O18 0.889050 0.500000 0.878364
#
# Coordination Sequence:
#
# PCOD8097726 Si02
#       7
#     8   8   8   8   8   8   8
#     4  11  22  35  55  82 114 149 187 231 278 328
#     4  10  22  39  56  78 110 152 193 229 276 332
#     4  11  21  35  58  83 113 148 185 227 278 334
#     4  11  23  37  56  82 110 145 190 238 279 319
#     4  10  20  34  54  80 112 150 187 224 275 333
#     4  11  21  35  55  80 113 148 184 222 276 338
#     4  11  21  35  56  83 113 142 182 231 279 326
#
# _framework density 18.220354
#
# number of rings (size 3 to 8) (size 9 to 14) (size 15 to 20)
#    0.000    1.286    2.857    5.143    0.000    2.857 
#    0.000    0.000    0.000    0.857    0.000    0.000 
#    0.000    0.000    0.000    0.000    0.000    0.000 
#
# Total GULP energy -347386.969788 kJ/mol
# GULP energy per Si atom -12406.677492 kJ/mol
# Density = 1.817888 g / cm^3
# Si number density = 18.220354 Si / 1000 Ang^3
#
#
#
# Elastic Constant Matrix: (Units=GPa)
#
#
# Indices 1 2 3 4 5 6 
#
# 1 119.4662 31.4933 39.7534 0.0000 6.5867 0.0000
# 2 31.4933 73.2808 21.2291 0.0000 -0.6037 0.0000
# 3 39.7534 21.2291 65.1732 0.0000 -0.9310 0.0000
# 4 0.0000 0.0000 0.0000 30.4398 0.0000 4.5801
# 5 6.5867 -0.6037 -0.9310 0.0000 27.7943 0.0000
# 6 0.0000 0.0000 0.0000 4.5801 0.0000 28.3099
#
#
#
# Elastic Compliance Matrix: (Units=1/GPa)
#
#
# Indices 1 2 3 4 5 6 
#
# 1 0.011344 -0.003183 -0.005925 0.000000 -0.002956 0.000000
# 2 -0.003183 0.015962 -0.003244 0.000000 0.000992 0.000000
# 3 -0.005925 -0.003244 0.020043 0.000000 0.002005 0.000000
# 4 0.000000 0.000000 0.000000 0.033671 0.000000 -0.005447
# 5 -0.002956 0.000992 0.002005 0.000000 0.036768 0.000000
# 6 0.000000 0.000000 0.000000 -0.005447 0.000000 0.036205
#
#
# Mechanical properties :
#
#
# Convention : Reuss Voigt Hill
#
# Bulk Modulus (GPa) = 44.15840 49.20798 46.68319
# Shear Modulus (GPa) = 26.84633 28.33841 27.59237
#
# Velocity S-wave (km/s) = 3.84269 3.94803 3.89571
# Velocity P-wave (km/s) = 6.63149 6.91725 6.77588
#
# Compressibility (1/GPa) = 0.02264575
#
# Stress axis : x y z
#
# Youngs Moduli (GPa) = 88.15008 62.64885 49.89289
#
# Poissons Ratio (x) = 0.19943 0.29561
# Poissons Ratio (y) = 0.28060 0.16183
# Poissons Ratio (z) = 0.52229 0.20320
#
# Static dielectric constant tensor:
#      x y z
#    x 3.481060 0.000000 0.073680 
#    y 0.000000 3.359220 0.000000 
#    z 0.073680 0.000000 3.111600 
# 
# 
# High freq. dielectric constant tensor:
#      x y z
#    x 1.710730 0.000000 0.011400 
#    y 0.000000 1.716400 0.000000 
#    z 0.011400 0.000000 1.681610 
# 
# From -- ./inp_files/288143.got.cif
#   From: 2010.06.25/outbox.cif.g09.slc.cpg/sg12_145_cif.got.tgz:288143.got - 2010.06.28 00:19:55.
