data_PCOD8097140
_publ_section_title
;
Structure prediction by ZEFSAII (Michael W. Deem and Ramdas Pophale) SiO2 
 PCOD8097140
Probable space group: C 2/M
;
_chemical_formula_sum "Si O2"
_cell_formula_units_Z 60
_cell_length_a 14.799662
_cell_length_b 18.733675
_cell_length_c 14.408103
_cell_angle_alpha 90.000000
_cell_angle_beta 135.708759
_cell_angle_gamma 90.000000
_cell_volume 2789.505833
_symmetry_space_group_name_H-M "C 2/M"
_symmetry_group_IT_number 12
_symmetry_cell_setting 'monoclinic'
loop_
_space_group_symop_operation_xyz
x,y,z
-x,y,-z
-x,-y,-z
x,-y,z
1/2+x,1/2+y,z
1/2-x,1/2+y,-z
1/2-x,1/2-y,-z
1/2+x,1/2-y,z
loop_
_atom_site_type_symbol
_atom_site_label
_atom_site_fract_x
_atom_site_fract_y
_atom_site_fract_z
Si Si1 0.768895 0.660067 0.250988
Si Si2 0.599290 0.580800 0.816391
Si Si3 0.696767 0.418300 0.376004
Si Si4 0.941558 0.785913 0.322647
Si Si5 0.164177 0.418236 0.878807
Si Si6 0.511837 0.799271 0.188117
Si Si7 0.000000 0.215956 0.000000
Si Si8 0.779795 0.187836 0.451778
O O1 0.777840 0.626448 0.359783
O O2 0.842592 0.736465 0.307132
O O3 0.834760 0.606584 0.227021
O O4 0.619705 0.666810 0.114767
O O5 0.617690 0.500000 0.790923
O O6 0.456463 0.590213 0.754869
O O7 0.622408 0.637152 0.749387
O O8 0.697288 0.596380 0.972279
O O9 0.741604 0.500000 0.404395
O O10 0.730386 0.387743 0.502111
O O11 0.976693 0.749460 0.250245
O O12 0.073919 0.800428 0.479526
O O13 0.123982 0.500000 0.852700
O O14 0.053799 0.376203 0.852706
O O15 0.667917 0.809300 0.291359
O O16 0.456604 0.764013 0.054909
O O17 0.750000 0.250000 0.500000
#
# Coordination Sequence:
#
# PCOD8097140 Si02
#       8
#     8   8   8   8   8   8   4   8
#     4  11  20  32  55  84 118 149 180 226 281 337
#     4   9  17  31  52  78 109 147 189 230 272 324
#     4  10  20  34  56  87 118 148 184 229 280 333
#     4   9  18  34  55  78 108 146 190 229 274 331
#     4  10  20  34  52  77 113 151 184 222 276 339
#     4  10  21  36  55  77 107 146 189 234 280 328
#     4  12  22  34  56  86 116 144 188 238 276 328
#     4   9  18  37  57  74 105 148 193 231 270 329
#
# _framework density 21.509184999999999
#
# number of rings (size 3 to 8) (size 9 to 14) (size 15 to 20)
#    0.000    2.133    0.000    5.200    0.000    2.667 
#    0.000   13.667    0.000    8.800    0.000    0.933 
#    0.000   28.800    0.000    0.000    0.000    0.000 
#
# Total GULP energy -371981.681253 kJ/mol
# GULP energy per Si atom -12399.389375 kJ/mol
# Density = 2.146023 g / cm^3
# Si number density = 21.509185 Si / 1000 Ang^3
#
#
#
# Elastic Constant Matrix: (Units=GPa)
#
#
# Indices 1 2 3 4 5 6 
#
# 1 53.5722 27.8571 -5.2469 0.0000 11.1463 0.0000
# 2 27.8571 128.1921 13.0102 0.0000 7.0149 0.0000
# 3 -5.2469 13.0102 47.7911 -0.0001 7.1135 -0.0001
# 4 0.0000 0.0000 -0.0001 29.1861 0.0000 0.7362
# 5 11.1463 7.0149 7.1135 0.0000 13.9888 0.0000
# 6 0.0000 0.0000 -0.0001 0.7362 0.0000 35.9388
#
#
#
# Elastic Compliance Matrix: (Units=1/GPa)
#
#
# Indices 1 2 3 4 5 6 
#
# 1 0.026983 -0.005412 0.007824 0.000000 -0.022765 0.000000
# 2 -0.005412 0.009238 -0.003312 0.000000 0.001364 0.000000
# 3 0.007824 -0.003312 0.025279 0.000000 -0.017428 0.000000
# 4 0.000000 0.000000 0.000000 0.034281 0.000000 -0.000702
# 5 -0.022765 0.001364 -0.017428 0.000000 0.097803 0.000000
# 6 0.000000 0.000000 0.000000 -0.000702 0.000000 0.027839
#
#
# Mechanical properties :
#
#
# Convention : Reuss Voigt Hill
#
# Bulk Modulus (GPa) = 16.75008 33.42180 25.08594
# Shear Modulus (GPa) = 20.56558 28.75175 24.65866
#
# Velocity S-wave (km/s) = 3.09549 3.66008 3.38956
# Velocity P-wave (km/s) = 4.53656 5.78219 5.19683
#
# Compressibility (1/GPa) = 0.05970121
#
# Stress axis : x y z
#
# Youngs Moduli (GPa) = 37.05972 108.24400 39.55829
#
# Poissons Ratio (x) = 0.58582 -0.30951
# Poissons Ratio (y) = 0.20057 0.13102
# Poissons Ratio (z) = -0.28997 0.35852
#
# Static dielectric constant tensor:
#      x y z
#    x 3.718860 0.000000 0.249950 
#    y 0.000000 4.095900 0.000000 
#    z 0.249950 0.000000 4.185310 
# 
# 
# High freq. dielectric constant tensor:
#      x y z
#    x 1.826670 0.000000 0.009810 
#    y 0.000000 1.847300 0.000000 
#    z 0.009810 0.000000 1.843630 
# 
# From -- ./inp_files/146101.got.cif
#   From: 2010.06.25/outbox.cif.g09.slc.cpg/sg12_74_cif.got.tgz:146101.got - 2010.06.28 00:19:55.
