data_PCOD8097776
_publ_section_title
;
Structure prediction by ZEFSAII (Michael W. Deem and Ramdas Pophale) SiO2 
 PCOD8097776
Probable space group: C 2/M
;
_chemical_formula_sum "Si O2"
_cell_formula_units_Z 64
_cell_length_a 20.484019
_cell_length_b 9.001368
_cell_length_c 24.900757
_cell_angle_alpha 90.000000
_cell_angle_beta 50.708281
_cell_angle_gamma 90.000000
_cell_volume 3553.357453
_symmetry_space_group_name_H-M "C 2/M"
_symmetry_group_IT_number 12
_symmetry_cell_setting 'monoclinic'
loop_
_space_group_symop_operation_xyz
x,y,z
-x,y,-z
-x,-y,-z
x,-y,z
1/2+x,1/2+y,z
1/2-x,1/2+y,-z
1/2-x,1/2-y,-z
1/2+x,1/2-y,z
loop_
_atom_site_type_symbol
_atom_site_label
_atom_site_fract_x
_atom_site_fract_y
_atom_site_fract_z
Si Si1 0.265259 0.673745 0.574401
Si Si2 0.628830 0.675006 0.922980
Si Si3 0.463395 0.826371 0.207821
Si Si4 0.627550 0.670799 0.578433
Si Si5 0.532849 0.672857 0.276267
Si Si6 0.767778 0.672821 0.291186
Si Si7 0.704568 0.176182 0.218952
Si Si8 0.980562 0.824004 0.923943
O O1 0.248967 0.500000 0.582899
O O2 0.346565 0.719586 0.495836
O O3 0.180239 0.740664 0.594801
O O4 0.277021 0.724261 0.629849
O O5 0.624977 0.500000 0.919967
O O6 0.721875 0.733580 0.859752
O O7 0.561915 0.735067 0.914361
O O8 0.602110 0.719423 0.997554
O O9 0.486119 0.738257 0.249287
O O10 0.366939 0.792880 0.242813
O O11 0.523870 0.765674 0.129166
O O12 0.480182 0.000000 0.208065
O O13 0.651649 0.500000 0.574413
O O14 0.528335 0.697527 0.640231
O O15 0.551555 0.500000 0.257129
O O16 0.618815 0.756951 0.241996
O O17 0.751273 0.500000 0.287267
O O18 0.724280 0.770552 0.268485
O O19 0.697434 0.000000 0.222755
O O20 0.984445 0.000000 0.910355
#
# Coordination Sequence:
#
# PCOD8097776 Si02
#       8
#     8   8   8   8   8   8   8   8
#     4   9  17  32  54  80 108 138 174 222 270 312
#     4   8  16  31  54  80 106 138 177 219 267 320
#     4  11  21  34  54  84 113 140 178 223 266 316
#     4   9  18  32  53  79 106 139 180 220 265 318
#     4  11  23  38  55  78 110 147 183 221 269 323
#     4  10  20  34  54  81 112 141 175 220 269 318
#     4  11  22  37  57  80 108 144 183 222 267 321
#     4   9  16  32  56  81 107 137 175 221 271 318
#
# _framework density 18.011134999999999
#
# number of rings (size 3 to 8) (size 9 to 14) (size 15 to 20)
#    0.000    2.250    2.500    1.875    0.000    1.500 
#    0.000    3.750    0.000    3.750    0.000    0.000 
#    0.000    0.000    0.000    0.000    0.000    0.000 
#
# Total GULP energy -396692.334401 kJ/mol
# GULP energy per Si atom -12396.635450 kJ/mol
# Density = 1.797014 g / cm^3
# Si number density = 18.011135 Si / 1000 Ang^3
#
#
#
# Elastic Constant Matrix: (Units=GPa)
#
#
# Indices 1 2 3 4 5 6 
#
# 1 36.0258 10.2908 23.6787 0.0000 0.3247 -0.0004
# 2 10.2908 43.6880 26.1844 -0.0001 4.2323 -0.0007
# 3 23.6787 26.1844 126.2900 0.0000 3.5330 -0.0001
# 4 0.0000 -0.0001 0.0000 24.7230 0.0000 2.9036
# 5 0.3247 4.2323 3.5330 0.0000 23.5984 0.0001
# 6 -0.0004 -0.0007 -0.0001 2.9036 0.0001 31.3839
#
#
#
# Elastic Compliance Matrix: (Units=1/GPa)
#
#
# Indices 1 2 3 4 5 6 
#
# 1 0.032468 -0.004673 -0.005151 0.000000 0.001163 0.000000
# 2 -0.004673 0.027171 -0.004642 0.000000 -0.004114 0.000001
# 3 -0.005151 -0.004642 0.009863 0.000000 -0.000573 0.000000
# 4 0.000000 0.000000 0.000000 0.040892 0.000000 -0.003783
# 5 0.001163 -0.004114 -0.000573 0.000000 0.043183 0.000000
# 6 0.000000 0.000001 0.000000 -0.003783 0.000000 0.032213
#
#
# Mechanical properties :
#
#
# Convention : Reuss Voigt Hill
#
# Bulk Modulus (GPa) = 24.64958 36.25683 30.45321
# Shear Modulus (GPa) = 21.90606 25.66439 23.78523
#
# Velocity S-wave (km/s) = 3.49126 3.77890 3.63793
# Velocity P-wave (km/s) = 5.47424 6.26211 5.88139
#
# Compressibility (1/GPa) = 0.04056864
#
# Stress axis : x y z
#
# Youngs Moduli (GPa) = 30.79953 36.80365 101.39264
#
# Poissons Ratio (x) = 0.17199 0.52229
# Poissons Ratio (y) = 0.14393 0.47069
# Poissons Ratio (z) = 0.15865 0.17085
#
# Static dielectric constant tensor:
#      x y z
#    x 3.072450 0.000000 -0.050390 
#    y 0.000000 3.228800 0.000000 
#    z -0.050390 0.000000 3.923680 
# 
# 
# High freq. dielectric constant tensor:
#      x y z
#    x 1.664450 0.000000 0.003830 
#    y 0.000000 1.689280 0.000000 
#    z 0.003830 0.000000 1.719460 
# 
# From -- ./inp_files/345964.got.cif
#   From: 2010.06.25/outbox.cif.g09.slc.cpg/sg12_173_cif.got.tgz:345964.got - 2010.06.28 00:19:55.
