data_PCOD8097359
_publ_section_title
;
Structure prediction by ZEFSAII (Michael W. Deem and Ramdas Pophale) SiO2 
 PCOD8097359
Probable space group: C 2/M
;
_chemical_formula_sum "Si O2"
_cell_formula_units_Z 56
_cell_length_a 19.183077
_cell_length_b 8.978069
_cell_length_c 19.926070
_cell_angle_alpha 90.000000
_cell_angle_beta 61.732385
_cell_angle_gamma 90.000000
_cell_volume 3022.547505
_symmetry_space_group_name_H-M "C 2/M"
_symmetry_group_IT_number 12
_symmetry_cell_setting 'monoclinic'
loop_
_space_group_symop_operation_xyz
x,y,z
-x,y,-z
-x,-y,-z
x,-y,z
1/2+x,1/2+y,z
1/2-x,1/2+y,-z
1/2-x,1/2-y,-z
1/2+x,1/2-y,z
loop_
_atom_site_type_symbol
_atom_site_label
_atom_site_fract_x
_atom_site_fract_y
_atom_site_fract_z
Si Si1 0.451624 0.829807 0.920311
Si Si2 0.490715 0.175649 0.354509
Si Si3 0.172956 0.324162 0.504809
Si Si4 0.417358 0.324775 0.800760
Si Si5 0.133815 0.672742 0.377052
Si Si6 0.775063 0.327334 0.794992
Si Si7 0.879752 0.330184 0.094003
O O1 0.428388 0.716336 0.873032
O O2 0.540886 0.796928 0.901535
O O3 0.443251 0.000000 0.899228
O O4 0.393069 0.800497 0.009206
O O5 0.401502 0.216698 0.414495
O O6 0.511493 0.253618 0.274872
O O7 0.551061 0.235281 0.384682
O O8 0.503077 0.000000 0.339152
O O9 0.186967 0.500000 0.495404
O O10 0.250000 0.250000 0.500000
O O11 0.156412 0.254881 0.438284
O O12 0.420167 0.500000 0.790573
O O13 0.332104 0.266310 0.816795
O O14 0.120868 0.500000 0.397114
O O15 0.204214 0.703798 0.292315
O O16 0.787134 0.500000 0.806843
O O17 0.685327 0.281418 0.848045
O O18 0.852354 0.500000 0.117907
#
# Coordination Sequence:
#
# PCOD8097359 Si02
#       7
#     8   8   8   8   8   8   8
#     4   9  19  37  57  77 106 142 176 214 264 318
#     4   9  18  35  57  76  98 136 179 216 260 310
#     4  10  20  34  53  78 107 136 170 213 259 309
#     4  11  22  35  54  80 108 138 176 222 264 310
#     4   8  16  33  55  75  97 132 176 213 249 301
#     4  10  20  35  56  80 107 139 175 218 266 314
#     4   9  19  36  57  79 105 139 177 217 262 313
#
# _framework density 18.527418000000001
#
# number of rings (size 3 to 8) (size 9 to 14) (size 15 to 20)
#    0.000    2.571    0.000    3.857    0.000    5.143 
#    0.000    7.857    0.000    4.286    0.000    0.000 
#    0.000    0.000    0.000    0.000    0.000    0.000 
#
# Total GULP energy -347203.334851 kJ/mol
# GULP energy per Si atom -12400.119102 kJ/mol
# Density = 1.848525 g / cm^3
# Si number density = 18.527418 Si / 1000 Ang^3
#
#
#
# Elastic Constant Matrix: (Units=GPa)
#
#
# Indices 1 2 3 4 5 6 
#
# 1 59.5896 23.8674 26.2157 -0.0001 -11.8681 -0.0004
# 2 23.8674 64.9296 32.1970 0.0000 -7.2757 -0.0009
# 3 26.2157 32.1970 62.1510 -0.0001 -15.4801 -0.0001
# 4 -0.0001 0.0000 -0.0001 26.2586 0.0000 -5.0273
# 5 -11.8681 -7.2757 -15.4801 0.0000 35.9422 -0.0001
# 6 -0.0004 -0.0009 -0.0001 -5.0273 -0.0001 32.2734
#
#
#
# Elastic Compliance Matrix: (Units=1/GPa)
#
#
# Indices 1 2 3 4 5 6 
#
# 1 0.022028 -0.004754 -0.005888 0.000000 0.003775 0.000000
# 2 -0.004754 0.021759 -0.009589 0.000000 -0.001295 0.000001
# 3 -0.005888 -0.009589 0.025286 0.000000 0.007005 0.000000
# 4 0.000000 0.000000 0.000000 0.039253 0.000000 0.006115
# 5 0.003775 -0.001295 0.007005 0.000000 0.031824 0.000000
# 6 0.000000 0.000001 0.000000 0.006115 0.000000 0.031938
#
#
# Mechanical properties :
#
#
# Convention : Reuss Voigt Hill
#
# Bulk Modulus (GPa) = 34.95399 39.02561 36.98980
# Shear Modulus (GPa) = 22.51354 25.85416 24.18385
#
# Velocity S-wave (km/s) = 3.48968 3.73963 3.61681
# Velocity P-wave (km/s) = 5.92825 6.30523 6.11964
#
# Compressibility (1/GPa) = 0.02860904
#
# Stress axis : x y z
#
# Youngs Moduli (GPa) = 45.39659 45.95812 39.54748
#
# Poissons Ratio (x) = 0.21850 0.23287
# Poissons Ratio (y) = 0.21583 0.37923
# Poissons Ratio (z) = 0.26731 0.44071
#
# Static dielectric constant tensor:
#      x y z
#    x 3.373380 0.000000 0.049760 
#    y 0.000000 3.178610 0.000000 
#    z 0.049760 0.000000 3.500690 
# 
# 
# High freq. dielectric constant tensor:
#      x y z
#    x 1.716780 0.000000 0.000020 
#    y 0.000000 1.698770 0.000000 
#    z 0.000020 0.000000 1.727790 
# 
# From -- ./inp_files/313682.got.cif
#   From: 2010.06.25/outbox.cif.g09.slc.cpg/sg12_157_cif.got.tgz:313682.got - 2010.06.28 00:19:55.
