data_PCOD8097646
_publ_section_title
;
Structure prediction by ZEFSAII (Michael W. Deem and Ramdas Pophale) SiO2 
 PCOD8097646
Probable space group: C 2/M
;
_chemical_formula_sum "Si O2"
_cell_formula_units_Z 64
_cell_length_a 15.405038
_cell_length_b 8.911837
_cell_length_c 23.823917
_cell_angle_alpha 90.000000
_cell_angle_beta 88.666505
_cell_angle_gamma 90.000000
_cell_volume 3269.832773
_symmetry_space_group_name_H-M "C 2/M"
_symmetry_group_IT_number 12
_symmetry_cell_setting 'monoclinic'
loop_
_space_group_symop_operation_xyz
x,y,z
-x,y,-z
-x,-y,-z
x,-y,z
1/2+x,1/2+y,z
1/2-x,1/2+y,-z
1/2-x,1/2-y,-z
1/2+x,1/2-y,z
loop_
_atom_site_type_symbol
_atom_site_label
_atom_site_fract_x
_atom_site_fract_y
_atom_site_fract_z
Si Si1 0.093664 0.171542 0.673098
Si Si2 0.242235 0.677397 0.739351
Si Si3 0.911940 0.677676 0.931106
Si Si4 0.162512 0.326523 0.440355
Si Si5 0.598163 0.326927 0.338404
Si Si6 0.762852 0.821421 0.865287
Si Si7 0.605616 0.177661 0.942582
Si Si8 0.155239 0.327197 0.565970
O O1 0.153264 0.264891 0.714054
O O2 0.099259 0.227570 0.608906
O O3 0.993226 0.190937 0.692811
O O4 0.123853 0.000000 0.675303
O O5 0.238718 0.500000 0.739621
O O6 0.325237 0.733976 0.702803
O O7 0.250160 0.738699 0.802398
O O8 0.901475 0.500000 0.924728
O O9 0.853909 0.759846 0.886088
O O10 0.011889 0.728516 0.919983
O O11 0.882256 0.731948 0.993516
O O12 0.188800 0.500000 0.431598
O O13 0.093786 0.274365 0.394678
O O14 0.121416 0.303018 0.502837
O O15 0.245056 0.220718 0.430818
O O16 0.613380 0.500000 0.354946
O O17 0.683084 0.755814 0.903466
O O18 0.765263 0.000000 0.867552
O O19 0.608264 0.000000 0.941684
O O20 0.148203 0.500000 0.584482
#
# Coordination Sequence:
#
# PCOD8097646 Si02
#       8
#     8   8   8   8   8   8   8   8
#     4  11  23  38  58  82 106 140 187 229 271 328
#     4  10  22  40  57  75 106 147 183 224 280 326
#     4   9  17  32  54  79 109 145 180 217 269 323
#     4  10  20  34  57  86 111 141 180 218 264 331
#     4  10  22  39  57  78 109 145 179 226 282 327
#     4  10  20  34  54  79 107 141 183 226 271 321
#     4   8  16  32  53  78 111 146 178 217 267 327
#     4  10  20  35  56  83 115 143 171 219 279 326
#
# _framework density 19.572866000000001
#
# number of rings (size 3 to 8) (size 9 to 14) (size 15 to 20)
#    0.000    2.250    1.250    2.250    0.000    4.500 
#    0.000    4.375    0.000    0.000    0.000    0.000 
#    0.000    0.000    0.000    0.000    0.000    0.000 
#
# Total GULP energy -396796.711739 kJ/mol
# GULP energy per Si atom -12399.897242 kJ/mol
# Density = 1.952832 g / cm^3
# Si number density = 19.572866 Si / 1000 Ang^3
#
#
#
# Elastic Constant Matrix: (Units=GPa)
#
#
# Indices 1 2 3 4 5 6 
#
# 1 98.1205 13.8494 51.0442 0.0000 18.1706 0.0000
# 2 13.8494 18.6593 22.9081 0.0000 3.4313 0.0000
# 3 51.0442 22.9081 119.0026 0.0000 17.6511 0.0000
# 4 0.0000 0.0000 0.0000 23.4579 0.0000 8.2399
# 5 18.1706 3.4313 17.6511 0.0000 18.6222 0.0000
# 6 0.0000 0.0000 0.0000 8.2399 0.0000 28.7687
#
#
#
# Elastic Compliance Matrix: (Units=1/GPa)
#
#
# Indices 1 2 3 4 5 6 
#
# 1 0.014688 -0.004124 -0.004065 0.000000 -0.009719 0.000000
# 2 -0.004124 0.071337 -0.012346 0.000000 0.002582 0.000000
# 3 -0.004065 -0.012346 0.013495 0.000000 -0.006550 0.000000
# 4 0.000000 0.000000 0.000000 0.047398 0.000000 -0.013576
# 5 -0.009719 0.002582 -0.006550 0.000000 0.068916 0.000000
# 6 0.000000 0.000000 0.000000 -0.013576 0.000000 0.038648
#
#
# Mechanical properties :
#
#
# Convention : Reuss Voigt Hill
#
# Bulk Modulus (GPa) = 17.10895 45.70953 31.40924
# Shear Modulus (GPa) = 15.87122 24.03514 19.95318
#
# Velocity S-wave (km/s) = 2.85068 3.50806 3.19632
# Velocity P-wave (km/s) = 4.42666 6.30974 5.45015
#
# Compressibility (1/GPa) = 0.05844895
#
# Stress axis : x y z
#
# Youngs Moduli (GPa) = 68.08240 14.01801 74.10219
#
# Poissons Ratio (x) = 0.05782 0.30120
# Poissons Ratio (y) = 0.28080 0.91489
# Poissons Ratio (z) = 0.27673 0.17307
#
# Static dielectric constant tensor:
#      x y z
#    x 3.600210 0.000000 -0.131740 
#    y 0.000000 3.328800 0.000000 
#    z -0.131740 0.000000 3.744730 
# 
# 
# High freq. dielectric constant tensor:
#      x y z
#    x 1.764530 0.000000 0.002550 
#    y 0.000000 1.744880 0.000000 
#    z 0.002550 0.000000 1.759350 
# 
# From -- ./inp_files/338915.got.cif
#   From: 2010.06.25/outbox.cif.g09.slc.cpg/sg12_170_cif.got.tgz:338915.got - 2010.06.28 00:19:55.
