data_PCOD8097830
_publ_section_title
;
Structure prediction by ZEFSAII (Michael W. Deem and Ramdas Pophale) SiO2 
 PCOD8097830
Probable space group: C 2/M
;
_chemical_formula_sum "Si O2"
_cell_formula_units_Z 64
_cell_length_a 27.014130
_cell_length_b 13.287822
_cell_length_c 13.723559
_cell_angle_alpha 90.000000
_cell_angle_beta 138.637460
_cell_angle_gamma 90.000000
_cell_volume 3255.334155
_symmetry_space_group_name_H-M "C 2/M"
_symmetry_group_IT_number 12
_symmetry_cell_setting 'monoclinic'
loop_
_space_group_symop_operation_xyz
x,y,z
-x,y,-z
-x,-y,-z
x,-y,z
1/2+x,1/2+y,z
1/2-x,1/2+y,-z
1/2-x,1/2-y,-z
1/2+x,1/2-y,z
loop_
_atom_site_type_symbol
_atom_site_label
_atom_site_fract_x
_atom_site_fract_y
_atom_site_fract_z
Si Si1 0.395016 0.886180 0.143348
Si Si2 0.891581 0.886416 0.997030
Si Si3 0.854822 0.384666 0.309441
Si Si4 0.563666 0.387336 0.295772
Si Si5 0.669489 0.307446 0.287187
Si Si6 0.941354 0.313079 0.615038
Si Si7 0.678133 0.113803 0.417746
Si Si8 0.282824 0.731741 0.943105
O O1 0.382047 0.877638 0.239423
O O2 0.471696 0.829056 0.232405
O O3 0.325867 0.836122 0.980557
O O4 0.400690 0.000000 0.116223
O O5 0.862075 0.813868 0.868070
O O6 0.869588 0.000000 0.939242
O O7 0.848650 0.853192 0.033383
O O8 0.979645 0.874338 0.134830
O O9 0.831538 0.500000 0.299557
O O10 0.922574 0.349013 0.478248
O O11 0.784953 0.307872 0.225538
O O12 0.577210 0.500000 0.357434
O O13 0.617210 0.369152 0.283568
O O14 0.579215 0.305399 0.403148
O O15 0.672481 0.189008 0.317722
O O16 0.751626 0.355883 0.411485
O O17 0.895078 0.379173 0.623352
O O18 0.685895 0.000000 0.389712
O O19 0.250000 0.750000 0.000000
#
# Coordination Sequence:
#
# PCOD8097830 Si02
#       8
#     8   8   8   8   8   8   8   8
#     4  10  20  36  56  81 114 151 190 235 291 344
#     4  11  20  35  60  83 108 147 195 240 282 335
#     4  10  20  34  58  86 111 146 192 242 288 337
#     4  10  21  36  57  83 115 152 188 237 291 340
#     4  10  21  35  56  84 116 148 192 239 281 336
#     4  11  20  35  58  86 116 147 194 238 285 345
#     4  10  20  34  54  82 117 153 183 228 288 341
#     4  10  21  37  55  84 116 146 184 239 292 343
#
# _framework density 19.660039999999999
#
# number of rings (size 3 to 8) (size 9 to 14) (size 15 to 20)
#    0.000    1.750    1.250    4.125    0.000    2.500 
#    0.000    1.250    0.000    4.500    0.000    0.000 
#    0.000    0.000    0.000    0.000    0.000    0.000 
#
# Total GULP energy -396632.666360 kJ/mol
# GULP energy per Si atom -12394.770824 kJ/mol
# Density = 1.961529 g / cm^3
# Si number density = 19.660040 Si / 1000 Ang^3
#
#
#
# Elastic Constant Matrix: (Units=GPa)
#
#
# Indices 1 2 3 4 5 6 
#
# 1 67.7196 38.1183 29.4645 0.0000 16.0483 0.0000
# 2 38.1183 150.5325 43.5658 0.0000 -1.6466 0.0000
# 3 29.4645 43.5658 64.2055 0.0000 10.0817 0.0000
# 4 0.0000 0.0000 0.0000 31.0039 0.0000 2.6712
# 5 16.0483 -1.6466 10.0817 0.0000 32.7032 0.0000
# 6 0.0000 0.0000 0.0000 2.6712 0.0000 23.7700
#
#
#
# Elastic Compliance Matrix: (Units=1/GPa)
#
#
# Indices 1 2 3 4 5 6 
#
# 1 0.021643 -0.003874 -0.005890 0.000000 -0.009000 0.000000
# 2 -0.003874 0.009121 -0.005025 0.000000 0.003910 0.000000
# 3 -0.005890 -0.005025 0.022356 0.000000 -0.004254 0.000000
# 4 0.000000 0.000000 0.000000 0.032569 0.000000 -0.003660
# 5 -0.009000 0.003910 -0.004254 0.000000 0.036503 0.000000
# 6 0.000000 0.000000 0.000000 -0.003660 0.000000 0.042481
#
#
# Mechanical properties :
#
#
# Convention : Reuss Voigt Hill
#
# Bulk Modulus (GPa) = 42.47886 56.08387 49.28136
# Shear Modulus (GPa) = 24.74026 28.91601 26.82813
#
# Velocity S-wave (km/s) = 3.55125 3.83926 3.69806
# Velocity P-wave (km/s) = 6.20232 6.94565 6.58448
#
# Compressibility (1/GPa) = 0.02354112
#
# Stress axis : x y z
#
# Youngs Moduli (GPa) = 46.20381 109.63467 44.73126
#
# Poissons Ratio (x) = 0.42476 0.26348
# Poissons Ratio (y) = 0.17901 0.22477
# Poissons Ratio (z) = 0.27215 0.55091
#
# Static dielectric constant tensor:
#      x y z
#    x 3.655030 0.000000 0.310380 
#    y 0.000000 3.896340 0.000000 
#    z 0.310380 0.000000 3.503750 
# 
# 
# High freq. dielectric constant tensor:
#      x y z
#    x 1.770780 0.000000 0.031250 
#    y 0.000000 1.774270 0.000000 
#    z 0.031250 0.000000 1.747790 
# 
# From -- ./inp_files/245960.got.cif
#   From: 2010.06.25/outbox.cif.g09.slc.cpg/sg12_123_cif.got.tgz:245960.got - 2010.06.28 00:19:55.
