data_PCOD8097923
_publ_section_title
;
Structure prediction by ZEFSAII (Michael W. Deem and Ramdas Pophale) SiO2 
 PCOD8097923
Probable space group: C 2/M
;
_chemical_formula_sum "Si O2"
_cell_formula_units_Z 64
_cell_length_a 18.352044
_cell_length_b 9.293727
_cell_length_c 20.544483
_cell_angle_alpha 90.000000
_cell_angle_beta 92.838299
_cell_angle_gamma 90.000000
_cell_volume 3499.745603
_symmetry_space_group_name_H-M "C 2/M"
_symmetry_group_IT_number 12
_symmetry_cell_setting 'monoclinic'
loop_
_space_group_symop_operation_xyz
x,y,z
-x,y,-z
-x,-y,-z
x,-y,z
1/2+x,1/2+y,z
1/2-x,1/2+y,-z
1/2-x,1/2-y,-z
1/2+x,1/2-y,z
loop_
_atom_site_type_symbol
_atom_site_label
_atom_site_fract_x
_atom_site_fract_y
_atom_site_fract_z
Si Si1 0.819484 0.332118 0.205670
Si Si2 0.672993 0.166993 0.427168
Si Si3 0.586731 0.169089 0.667764
Si Si4 0.321975 0.664822 0.083391
Si Si5 0.849836 0.836844 0.805086
Si Si6 0.576672 0.832074 0.302173
Si Si7 0.821824 0.163657 0.943524
Si Si8 0.658618 0.667737 0.555701
O O1 0.831060 0.500000 0.195620
O O2 0.860125 0.279441 0.272169
O O3 0.856312 0.255400 0.144319
O O4 0.734598 0.289429 0.207451
O O5 0.630958 0.220327 0.361287
O O6 0.643477 0.261734 0.485195
O O7 0.758268 0.194669 0.418836
O O8 0.656959 0.000000 0.442026
O O9 0.504988 0.211016 0.683089
O O10 0.605666 0.256848 0.604316
O O11 0.595434 0.000000 0.653743
O O12 0.321263 0.500000 0.105728
O O13 0.240239 0.716962 0.065560
O O14 0.363751 0.684052 0.015012
O O15 0.902789 0.740560 0.764721
O O16 0.873594 0.818651 0.882260
O O17 0.859222 0.000000 0.781803
O O18 0.584646 0.000000 0.291300
O O19 0.788516 0.000000 0.939680
O O20 0.639761 0.500000 0.550683
#
# Coordination Sequence:
#
# PCOD8097923 Si02
#       8
#     8   8   8   8   8   8   8   8
#     4   9  18  32  49  70  97 129 163 198 242 294
#     4   9  19  36  55  75 101 129 157 195 241 286
#     4  10  21  36  52  70  98 134 164 196 242 290
#     4   9  15  24  43  70  97 124 158 202 245 286
#     4   9  17  30  49  71  96 126 158 197 244 289
#     4  10  21  35  51  72  97 128 166 202 237 283
#     4   8  15  27  42  66  99 129 158 195 245 297
#     4  10  20  34  55  80 101 124 159 200 238 284
#
# _framework density 18.287043000000001
#
# number of rings (size 3 to 8) (size 9 to 14) (size 15 to 20)
#    0.000    2.750    0.000    2.250    0.000    5.000 
#    0.000    2.500    0.000    0.750    0.000    5.250 
#    0.000    0.000    0.000    0.000    0.000    0.000 
#
# Total GULP energy -396651.872232 kJ/mol
# GULP energy per Si atom -12395.371007 kJ/mol
# Density = 1.824542 g / cm^3
# Si number density = 18.287043 Si / 1000 Ang^3
#
#
#
# Elastic Constant Matrix: (Units=GPa)
#
#
# Indices 1 2 3 4 5 6 
#
# 1 52.6167 30.7845 43.0114 0.0000 -19.3028 0.0000
# 2 30.7845 63.9444 55.2988 0.0000 -16.9823 0.0000
# 3 43.0114 55.2988 128.6006 0.0000 -33.7687 0.0000
# 4 0.0000 0.0000 0.0000 36.1806 0.0000 -5.2740
# 5 -19.3028 -16.9823 -33.7687 0.0000 16.2730 0.0000
# 6 0.0000 0.0000 0.0000 -5.2740 0.0000 18.9854
#
#
#
# Elastic Compliance Matrix: (Units=1/GPa)
#
#
# Indices 1 2 3 4 5 6 
#
# 1 0.036744 -0.008990 0.001226 0.000000 0.036747 0.000000
# 2 -0.008990 0.027614 -0.009010 0.000000 -0.000544 0.000000
# 3 0.001226 -0.009010 0.020113 0.000000 0.033787 0.000000
# 4 0.000000 0.000000 0.000000 0.028806 0.000000 0.008002
# 5 0.036747 -0.000544 0.033787 0.000000 0.174586 0.000000
# 6 0.000000 0.000000 0.000000 0.008002 0.000000 0.054895
#
#
# Mechanical properties :
#
#
# Convention : Reuss Voigt Hill
#
# Bulk Modulus (GPa) = 19.63809 55.92790 37.78299
# Shear Modulus (GPa) = 12.71354 22.02560 17.36957
#
# Velocity S-wave (km/s) = 2.63956 3.47427 3.08527
# Velocity P-wave (km/s) = 4.47793 6.83694 5.77908
#
# Compressibility (1/GPa) = 0.05092146
#
# Stress axis : x y z
#
# Youngs Moduli (GPa) = 27.21515 36.21300 49.72022
#
# Poissons Ratio (x) = 0.32557 -0.06094
# Poissons Ratio (y) = 0.24468 0.44799
# Poissons Ratio (z) = -0.03336 0.32628
#
# Static dielectric constant tensor:
#      x y z
#    x 3.014000 0.000000 0.036020 
#    y 0.000000 3.336050 0.000000 
#    z 0.036020 0.000000 3.725770 
# 
# 
# High freq. dielectric constant tensor:
#      x y z
#    x 1.661320 0.000000 -0.004010 
#    y 0.000000 1.708850 0.000000 
#    z -0.004010 0.000000 1.730330 
# 
# From -- ./inp_files/314020.got.cif
#   From: 2010.06.25/outbox.cif.g09.slc.cpg/sg12_158_cif.got.tgz:314020.got - 2010.06.28 00:19:55.
