data_PCOD8097120
_publ_section_title
;
Structure prediction by ZEFSAII (Michael W. Deem and Ramdas Pophale) SiO2 
 PCOD8097120
Probable space group: C 2/M
;
_chemical_formula_sum "Si O2"
_cell_formula_units_Z 48
_cell_length_a 18.066928
_cell_length_b 16.250313
_cell_length_c 12.422377
_cell_angle_alpha 90.000000
_cell_angle_beta 133.438437
_cell_angle_gamma 90.000000
_cell_volume 2648.227583
_symmetry_space_group_name_H-M "C 2/M"
_symmetry_group_IT_number 12
_symmetry_cell_setting 'monoclinic'
loop_
_space_group_symop_operation_xyz
x,y,z
-x,y,-z
-x,-y,-z
x,-y,z
1/2+x,1/2+y,z
1/2-x,1/2+y,-z
1/2-x,1/2-y,-z
1/2+x,1/2-y,z
loop_
_atom_site_type_symbol
_atom_site_label
_atom_site_fract_x
_atom_site_fract_y
_atom_site_fract_z
Si Si1 0.883683 0.769604 0.718573
Si Si2 0.806203 0.827829 0.426924
Si Si3 0.886860 0.000000 0.261354
Si Si4 0.306203 0.672171 0.185482
Si Si5 0.619366 0.407480 0.119366
Si Si6 0.383683 0.269604 0.048793
Si Si7 0.886860 0.000000 0.512365
O O1 0.870161 0.774059 0.576019
O O2 0.813160 0.695412 0.690480
O O3 0.849169 0.854737 0.743047
O O4 1.000000 0.747889 0.863889
O O5 0.850062 0.813841 0.350062
O O6 0.820553 0.921519 0.479784
O O7 0.820553 0.078481 0.161321
O O8 0.906006 0.000000 0.406006
O O9 0.000000 0.000000 0.318279
O O10 0.370160 0.725942 0.164301
O O11 0.186839 0.695412 0.064160
O O12 0.669878 0.500000 0.169878
O O13 0.500000 0.420466 0.000000
O O14 0.650832 0.354737 0.044710
#
# Coordination Sequence:
#
# PCOD8097120 Si02
#       7
#     8   8   4   8   8   8   4
#     4  10  20  34  53  76 106 140 175 217 263 312
#     4  10  20  34  52  77 106 138 175 217 262 311
#     4   9  18  32  51  76 104 129 165 216 262 304
#     4  10  20  34  52  77 106 138 175 217 262 311
#     4   9  18  32  52  77 101 132 172 215 263 304
#     4  10  20  34  53  76 106 140 175 217 263 312
#     4   9  18  32  51  76 104 129 165 216 262 304
#
# _framework density 18.125330000000002
#
# number of rings (size 3 to 8) (size 9 to 14) (size 15 to 20)
#    0.000    2.333    1.667    1.000    2.333    2.000 
#    0.000    0.833    0.000    3.000    0.000    0.000 
#    0.000   14.667    0.000    0.000    0.000    0.000 
#
# Total GULP energy -297380.102238 kJ/mol
# GULP energy per Si atom -12390.837593 kJ/mol
# Density = 1.808408 g / cm^3
# Si number density = 18.125330 Si / 1000 Ang^3
#
#
#
# Elastic Constant Matrix: (Units=GPa)
#
#
# Indices 1 2 3 4 5 6 
#
# 1 72.7375 47.8050 44.7922 0.0000 1.9614 0.0000
# 2 47.8050 119.1487 40.8372 0.0000 24.3617 0.0000
# 3 44.7922 40.8372 73.7908 0.0000 -5.6411 0.0000
# 4 0.0000 0.0000 0.0000 21.3927 0.0000 6.2574
# 5 1.9614 24.3617 -5.6411 0.0000 40.2729 0.0000
# 6 0.0000 0.0000 0.0000 6.2574 0.0000 23.1823
#
#
#
# Elastic Compliance Matrix: (Units=1/GPa)
#
#
# Indices 1 2 3 4 5 6 
#
# 1 0.024988 -0.006216 -0.011659 0.000000 0.000910 0.000000
# 2 -0.006216 0.014435 -0.004912 0.000000 -0.009117 0.000000
# 3 -0.011659 -0.004912 0.023873 0.000000 0.006883 0.000000
# 4 0.000000 0.000000 0.000000 0.050752 0.000000 -0.013699
# 5 0.000910 -0.009117 0.006883 0.000000 0.031265 0.000000
# 6 0.000000 0.000000 0.000000 -0.013699 0.000000 0.046834
#
#
# Mechanical properties :
#
#
# Convention : Reuss Voigt Hill
#
# Bulk Modulus (GPa) = 56.42458 59.17176 57.79817
# Shear Modulus (GPa) = 20.52304 25.78578 23.15441
#
# Velocity S-wave (km/s) = 3.36860 3.77588 3.57804
# Velocity P-wave (km/s) = 6.80645 7.19211 7.00193
#
# Compressibility (1/GPa) = 0.01772277
#
# Stress axis : x y z
#
# Youngs Moduli (GPa) = 40.01870 69.27818 41.88748
#
# Poissons Ratio (x) = 0.43063 0.48835
# Poissons Ratio (y) = 0.24876 0.20576
# Poissons Ratio (z) = 0.46657 0.34030
#
# Static dielectric constant tensor:
#      x y z
#    x 3.332960 0.000000 -0.174700 
#    y 0.000000 3.535610 0.000000 
#    z -0.174700 0.000000 3.382930 
# 
# 
# High freq. dielectric constant tensor:
#      x y z
#    x 1.692110 0.000000 -0.023630 
#    y 0.000000 1.684320 0.000000 
#    z -0.023630 0.000000 1.698870 
# 
# From -- ./inp_files/158043.got.cif
#   From: 2010.06.25/outbox.cif.g09.slc.cpg/sg12_80_cif.got.tgz:158043.got - 2010.06.28 00:19:55.
