data_PCOD8097704
_publ_section_title
;
Structure prediction by ZEFSAII (Michael W. Deem and Ramdas Pophale) SiO2 
 PCOD8097704
Probable space group: C 2/M
;
_chemical_formula_sum "Si O2"
_cell_formula_units_Z 40
_cell_length_a 29.758529
_cell_length_b 9.649577
_cell_length_c 22.619626
_cell_angle_alpha 90.000000
_cell_angle_beta 160.849778
_cell_angle_gamma 90.000000
_cell_volume 2130.786708
_symmetry_space_group_name_H-M "C 2/M"
_symmetry_group_IT_number 12
_symmetry_cell_setting 'monoclinic'
loop_
_space_group_symop_operation_xyz
x,y,z
-x,y,-z
-x,-y,-z
x,-y,z
1/2+x,1/2+y,z
1/2-x,1/2+y,-z
1/2-x,1/2-y,-z
1/2+x,1/2-y,z
loop_
_atom_site_type_symbol
_atom_site_label
_atom_site_fract_x
_atom_site_fract_y
_atom_site_fract_z
Si Si1 0.086431 0.838231 0.664969
Si Si2 0.663826 0.659681 0.054013
Si Si3 0.619277 0.342377 0.488536
Si Si4 0.380796 0.658895 0.646770
Si Si5 0.348368 0.659344 0.824194
O O1 0.226892 0.753291 0.844358
O O2 0.000000 0.792703 0.500000
O O3 0.003786 0.798669 0.621268
O O4 0.123044 0.000000 0.707240
O O5 0.685429 0.500000 0.062243
O O6 0.689326 0.681945 0.154762
O O7 0.509974 0.707115 0.846592
O O8 0.662697 0.500000 0.556364
O O9 0.572545 0.323185 0.363093
O O10 0.749696 0.246767 0.660362
O O11 0.342182 0.500000 0.612653
O O12 0.250000 0.750000 0.500000
O O13 0.334467 0.500000 0.787664
O O14 0.500000 0.713943 0.000000
#
# Coordination Sequence:
#
# PCOD8097704 Si02
#       5
#     8   8   8   8   8
#     4  10  20  36  57  82 114 147 184 229 276 328
#     4  10  21  36  56  82 112 146 185 230 278 327
#     4  10  21  37  57  81 110 146 185 228 274 325
#     4  10  22  40  59  82 114 148 185 229 277 330
#     4  10  20  34  54  80 109 143 185 230 275 326
#
# _framework density 18.772410000000001
#
# number of rings (size 3 to 8) (size 9 to 14) (size 15 to 20)
#    0.000    2.000    2.000    1.200    0.000    5.600 
#    0.000    0.000    0.000    0.000    0.000    0.000 
#    0.000    0.000    0.000    0.000    0.000    0.000 
#
# Total GULP energy -248085.521251 kJ/mol
# GULP energy per Si atom -12404.276063 kJ/mol
# Density = 1.872968 g / cm^3
# Si number density = 18.772410 Si / 1000 Ang^3
#
#
#
# Elastic Constant Matrix: (Units=GPa)
#
#
# Indices 1 2 3 4 5 6 
#
# 1 62.0523 17.9146 8.0345 0.0000 12.3727 0.0000
# 2 17.9146 59.9067 48.7527 0.0000 12.4864 0.0000
# 3 8.0345 48.7527 96.3758 0.0000 12.0488 0.0000
# 4 0.0000 0.0000 0.0000 40.2828 0.0000 5.2202
# 5 12.3727 12.4864 12.0488 0.0000 35.3040 0.0000
# 6 0.0000 0.0000 0.0000 5.2202 0.0000 25.5107
#
#
#
# Elastic Compliance Matrix: (Units=1/GPa)
#
#
# Indices 1 2 3 4 5 6 
#
# 1 0.018679 -0.006421 0.002325 0.000000 -0.005069 0.000000
# 2 -0.006421 0.031588 -0.014967 0.000000 -0.003814 0.000000
# 3 0.002325 -0.014967 0.017960 0.000000 -0.001651 0.000000
# 4 0.000000 0.000000 0.000000 0.025501 0.000000 -0.005218
# 5 -0.005069 -0.003814 -0.001651 0.000000 0.032014 0.000000
# 6 0.000000 0.000000 0.000000 -0.005218 0.000000 0.040267
#
#
# Mechanical properties :
#
#
# Convention : Reuss Voigt Hill
#
# Bulk Modulus (GPa) = 33.22294 40.85984 37.04139
# Shear Modulus (GPa) = 23.34607 29.79503 26.57055
#
# Velocity S-wave (km/s) = 3.53035 3.98825 3.76627
# Velocity P-wave (km/s) = 5.86123 6.55907 6.21994
#
# Compressibility (1/GPa) = 0.03009969
#
# Stress axis : x y z
#
# Youngs Moduli (GPa) = 53.53643 31.65753 55.67976
#
# Poissons Ratio (x) = 0.20328 -0.12944
# Poissons Ratio (y) = 0.34377 0.83336
# Poissons Ratio (z) = -0.12446 0.47382
#
# Static dielectric constant tensor:
#      x y z
#    x 3.546030 0.000000 -0.026190 
#    y 0.000000 3.383860 0.000000 
#    z -0.026190 0.000000 3.356860 
# 
# 
# High freq. dielectric constant tensor:
#      x y z
#    x 1.739140 0.000000 0.002390 
#    y 0.000000 1.723430 0.000000 
#    z 0.002390 0.000000 1.726160 
# 
# From -- ./inp_files/71203.got.cif
#   From: 2010.06.25/outbox.cif.g09.slc.cpg/sg12_36_cif.got.tgz:71203.got - 2010.06.28 00:19:55.
