data_PCOD8097332
_publ_section_title
;
Structure prediction by ZEFSAII (Michael W. Deem and Ramdas Pophale) SiO2 
 PCOD8097332
Probable space group: C 2/M
;
_chemical_formula_sum "Si O2"
_cell_formula_units_Z 64
_cell_length_a 18.489185
_cell_length_b 10.261110
_cell_length_c 16.810556
_cell_angle_alpha 90.000000
_cell_angle_beta 94.138103
_cell_angle_gamma 90.000000
_cell_volume 3180.976871
_symmetry_space_group_name_H-M "C 2/M"
_symmetry_group_IT_number 12
_symmetry_cell_setting 'monoclinic'
loop_
_space_group_symop_operation_xyz
x,y,z
-x,y,-z
-x,-y,-z
x,-y,z
1/2+x,1/2+y,z
1/2-x,1/2+y,-z
1/2-x,1/2-y,-z
1/2+x,1/2-y,z
loop_
_atom_site_type_symbol
_atom_site_label
_atom_site_fract_x
_atom_site_fract_y
_atom_site_fract_z
Si Si1 0.298798 0.353985 0.850390
Si Si2 0.160273 0.647901 0.923645
Si Si3 0.741873 0.150664 0.680116
Si Si4 0.518294 0.855356 0.821171
Si Si5 0.014392 0.851640 0.315454
Si Si6 0.567082 0.268883 0.051901
Si Si7 0.864189 0.147940 0.387759
Si Si8 0.639450 0.349716 0.435042
O O1 0.270359 0.500000 0.849244
O O2 0.236813 0.285070 0.901239
O O3 0.293586 0.307392 0.758223
O O4 0.382850 0.352415 0.884363
O O5 0.170956 0.500000 0.952372
O O6 0.103682 0.658300 0.845995
O O7 0.128210 0.721112 0.996598
O O8 0.675948 0.252322 0.674488
O O9 0.783631 0.171562 0.600679
O O10 0.715240 0.000000 0.685033
O O11 0.495790 0.740660 0.760817
O O12 0.472446 0.843393 0.899919
O O13 0.502260 0.000000 0.785009
O O14 0.946310 0.854852 0.367552
O O15 0.078220 0.788136 0.373345
O O16 0.032119 0.000000 0.287060
O O17 0.500000 0.343088 0.000000
O O18 0.859279 0.209002 0.476259
O O19 0.831394 0.000000 0.380934
O O20 0.618452 0.500000 0.442605
#
# Coordination Sequence:
#
# PCOD8097332 Si02
#       8
#     8   8   8   8   8   8   8   8
#     4  10  20  34  53  77 107 143 177 213 263 320
#     4   9  18  34  54  75 103 141 182 218 258 315
#     4  10  20  35  56  79 107 144 179 214 262 319
#     4  10  20  35  56  80 106 139 179 222 267 314
#     4  10  20  35  56  80 107 141 180 221 266 316
#     4  10  20  34  54  78 104 135 175 222 265 310
#     4  10  20  35  56  81 108 139 179 225 266 308
#     4   9  18  34  55  78 107 145 183 216 259 317
#
# _framework density 20.119606000000001
#
# number of rings (size 3 to 8) (size 9 to 14) (size 15 to 20)
#    0.000    2.250    0.000    3.000    0.000    6.250 
#    0.000    5.625    0.000    9.750    0.000    0.000 
#    0.000    0.000    0.000    0.000    0.000    0.000 
#
# Total GULP energy -396468.641700 kJ/mol
# GULP energy per Si atom -12389.645053 kJ/mol
# Density = 2.007381 g / cm^3
# Si number density = 20.119606 Si / 1000 Ang^3
#
#
#
# Elastic Constant Matrix: (Units=GPa)
#
#
# Indices 1 2 3 4 5 6 
#
# 1 91.2417 22.8686 23.5198 0.0000 10.3137 0.0000
# 2 22.8686 63.4276 25.4359 0.0000 6.8712 0.0000
# 3 23.5198 25.4359 80.6405 0.0000 0.9559 0.0000
# 4 0.0000 0.0000 0.0000 18.4667 0.0000 2.1098
# 5 10.3137 6.8712 0.9559 0.0000 35.7511 0.0000
# 6 0.0000 0.0000 0.0000 2.1098 0.0000 20.7632
#
#
#
# Elastic Compliance Matrix: (Units=1/GPa)
#
#
# Indices 1 2 3 4 5 6 
#
# 1 0.012796 -0.003212 -0.002683 0.000000 -0.003002 0.000000
# 2 -0.003212 0.019258 -0.005106 0.000000 -0.002638 0.000000
# 3 -0.002683 -0.005106 0.014778 0.000000 0.001360 0.000000
# 4 0.000000 0.000000 0.000000 0.054788 0.000000 -0.005567
# 5 -0.003002 -0.002638 0.001360 0.000000 0.029308 0.000000
# 6 0.000000 0.000000 0.000000 -0.005567 0.000000 0.048728
#
#
# Mechanical properties :
#
#
# Convention : Reuss Voigt Hill
#
# Bulk Modulus (GPa) = 40.27699 42.10651 41.19175
# Shear Modulus (GPa) = 23.81695 25.89521 24.85608
#
# Velocity S-wave (km/s) = 3.44433 3.59146 3.51866
# Velocity P-wave (km/s) = 5.99000 6.17832 6.08489
#
# Compressibility (1/GPa) = 0.02482807
#
# Stress axis : x y z
#
# Youngs Moduli (GPa) = 78.14885 51.92742 67.66902
#
# Poissons Ratio (x) = 0.16680 0.18158
# Poissons Ratio (y) = 0.25104 0.34553
# Poissons Ratio (z) = 0.20970 0.26515
#
# Static dielectric constant tensor:
#      x y z
#    x 3.713540 0.000000 -0.005300 
#    y 0.000000 3.309890 0.000000 
#    z -0.005300 0.000000 3.731310 
# 
# 
# High freq. dielectric constant tensor:
#      x y z
#    x 1.797810 0.000000 -0.007670 
#    y 0.000000 1.741910 0.000000 
#    z -0.007670 0.000000 1.794780 
# 
# From -- ./inp_files/276585.got.cif
#   From: 2010.06.25/outbox.cif.g09.slc.cpg/sg12_139_cif.got.tgz:276585.got - 2010.06.28 00:19:55.
