data_PCOD8097106
_publ_section_title
;
Structure prediction by ZEFSAII (Michael W. Deem and Ramdas Pophale) SiO2 
 PCOD8097106
Probable space group: C 2/M
;
_chemical_formula_sum "Si O2"
_cell_formula_units_Z 64
_cell_length_a 24.430639
_cell_length_b 9.281800
_cell_length_c 29.109960
_cell_angle_alpha 90.000000
_cell_angle_beta 148.908939
_cell_angle_gamma 90.000000
_cell_volume 3408.746065
_symmetry_space_group_name_H-M "C 2/M"
_symmetry_group_IT_number 12
_symmetry_cell_setting 'monoclinic'
loop_
_space_group_symop_operation_xyz
x,y,z
-x,y,-z
-x,-y,-z
x,-y,z
1/2+x,1/2+y,z
1/2-x,1/2+y,-z
1/2-x,1/2-y,-z
1/2+x,1/2-y,z
loop_
_atom_site_type_symbol
_atom_site_label
_atom_site_fract_x
_atom_site_fract_y
_atom_site_fract_z
Si Si1 0.977441 0.833132 0.125167
Si Si2 0.391645 0.668526 0.630855
Si Si3 0.619176 0.668885 0.572853
Si Si4 0.905056 0.171134 0.171673
Si Si5 0.383185 0.836074 0.901154
Si Si6 0.300355 0.332272 0.468827
Si Si7 0.683882 0.164216 0.047855
Si Si8 0.699247 0.332278 0.244438
O O1 0.103228 0.808120 0.211252
O O2 0.938458 0.769994 0.145782
O O3 0.948587 0.000000 0.099560
O O4 0.918766 0.750311 0.042319
O O5 0.376925 0.500000 0.629569
O O6 0.508500 0.722181 0.728855
O O7 0.376030 0.707784 0.566167
O O8 0.308566 0.746286 0.604541
O O9 0.500000 0.713675 0.500000
O O10 0.637975 0.500000 0.594403
O O11 0.640110 0.712698 0.535011
O O12 0.697163 0.753857 0.662351
O O13 0.790509 0.234135 0.103110
O O14 0.900005 0.000000 0.167854
O O15 0.307120 0.827379 0.890756
O O16 0.333432 0.731463 0.828007
O O17 0.388714 0.000000 0.885981
O O18 0.500000 0.783952 0.000000
O O19 0.271982 0.500000 0.448520
O O20 0.670016 0.000000 0.021547
O O21 0.724876 0.500000 0.256356
#
# Coordination Sequence:
#
# PCOD8097106 Si02
#       8
#     8   8   8   8   8   8   8   8
#     4  10  20  34  52  76 108 141 177 219 268 322
#     4   9  17  32  54  77 105 139 175 217 265 322
#     4  10  22  39  58  82 112 144 182 229 277 325
#     4   9  18  32  51  77 106 138 176 216 264 321
#     4  10  20  36  57  81 109 142 185 231 271 317
#     4   9  18  33  55  81 105 135 176 220 269 320
#     4  10  20  34  54  77 103 140 182 223 268 316
#     4  11  23  37  58  84 109 145 185 224 276 331
#
# _framework density 18.775233
#
# number of rings (size 3 to 8) (size 9 to 14) (size 15 to 20)
#    0.000    2.250    1.250    1.500    0.000    4.000 
#    0.000    5.000    0.000    3.000    0.000    0.000 
#    0.000    0.000    0.000    0.000    0.000    0.000 
#
# Total GULP energy -396851.940986 kJ/mol
# GULP energy per Si atom -12401.623156 kJ/mol
# Density = 1.873250 g / cm^3
# Si number density = 18.775233 Si / 1000 Ang^3
#
#
#
# Elastic Constant Matrix: (Units=GPa)
#
#
# Indices 1 2 3 4 5 6 
#
# 1 112.5721 39.3291 59.4429 0.0002 2.0608 0.0000
# 2 39.3291 56.1515 54.8910 -0.0006 0.6557 -0.0004
# 3 59.4429 54.8910 129.8120 -0.0013 4.4965 -0.0003
# 4 0.0002 -0.0006 -0.0013 27.7586 -0.0004 0.2420
# 5 2.0608 0.6557 4.4965 -0.0004 27.7326 -0.0001
# 6 0.0000 -0.0004 -0.0003 0.2420 -0.0001 24.5004
#
#
#
# Elastic Compliance Matrix: (Units=1/GPa)
#
#
# Indices 1 2 3 4 5 6 
#
# 1 0.012622 -0.005448 -0.003468 0.000000 -0.000247 0.000000
# 2 -0.005448 0.032761 -0.011409 0.000000 0.001480 0.000000
# 3 -0.003468 -0.011409 0.014177 0.000000 -0.001771 0.000000
# 4 0.000000 0.000000 0.000000 0.036028 0.000000 -0.000356
# 5 -0.000247 0.001480 -0.001771 0.000000 0.036329 0.000000
# 6 0.000000 0.000000 0.000000 -0.000356 0.000000 0.040819
#
#
# Mechanical properties :
#
#
# Convention : Reuss Voigt Hill
#
# Bulk Modulus (GPa) = 52.88216 67.31797 60.10006
# Shear Modulus (GPa) = 22.75932 25.65648 24.20790
#
# Velocity S-wave (km/s) = 3.48544 3.70064 3.59465
# Velocity P-wave (km/s) = 6.66519 7.36153 7.02200
#
# Compressibility (1/GPa) = 0.01890997
#
# Stress axis : x y z
#
# Youngs Moduli (GPa) = 79.22591 30.52418 70.53584
#
# Poissons Ratio (x) = 0.16630 0.24459
# Poissons Ratio (y) = 0.43162 0.80478
# Poissons Ratio (z) = 0.27473 0.34827
#
# Static dielectric constant tensor:
#      x y z
#    x 3.619100 0.000000 0.053620 
#    y 0.000000 3.259190 0.000000 
#    z 0.053620 0.000000 3.477750 
# 
# 
# High freq. dielectric constant tensor:
#      x y z
#    x 1.737580 0.000000 -0.001940 
#    y 0.000000 1.709260 0.000000 
#    z -0.001940 0.000000 1.729980 
# 
# From -- ./inp_files/382545.got.cif
#   From: 2010.06.25/outbox.cif.g09.slc.cpg/sg12_192_cif.got.tgz:382545.got - 2010.06.28 00:19:55.
