data_PCOD8097612
_publ_section_title
;
Structure prediction by ZEFSAII (Michael W. Deem and Ramdas Pophale) SiO2 
 PCOD8097612
Probable space group: C 2/M
;
_chemical_formula_sum "Si O2"
_cell_formula_units_Z 48
_cell_length_a 18.553048
_cell_length_b 8.956078
_cell_length_c 15.138829
_cell_angle_alpha 90.000000
_cell_angle_beta 88.633419
_cell_angle_gamma 90.000000
_cell_volume 2514.790871
_symmetry_space_group_name_H-M "C 2/M"
_symmetry_group_IT_number 12
_symmetry_cell_setting 'monoclinic'
loop_
_space_group_symop_operation_xyz
x,y,z
-x,y,-z
-x,-y,-z
x,-y,z
1/2+x,1/2+y,z
1/2-x,1/2+y,-z
1/2-x,1/2-y,-z
1/2+x,1/2-y,z
loop_
_atom_site_type_symbol
_atom_site_label
_atom_site_fract_x
_atom_site_fract_y
_atom_site_fract_z
Si Si1 0.677192 0.172764 0.473771
Si Si2 0.082381 0.335596 0.969299
Si Si3 0.696512 0.326441 0.303003
Si Si4 0.957634 0.825348 0.195579
Si Si5 0.863454 0.330684 0.336300
Si Si6 0.609214 0.823012 0.159503
O O1 0.750000 0.250000 0.500000
O O2 0.650093 0.253587 0.385083
O O3 0.622865 0.189636 0.558563
O O4 0.691802 0.000000 0.452447
O O5 0.109361 0.500000 0.938263
O O6 0.091281 0.222209 0.887547
O O7 0.124819 0.281736 0.056004
O O8 0.000000 0.346274 0.000000
O O9 0.677615 0.500000 0.300001
O O10 0.780789 0.295796 0.314376
O O11 0.673961 0.248897 0.212556
O O12 0.914915 0.784656 0.285418
O O13 0.033412 0.741493 0.194891
O O14 0.972076 0.000000 0.191173
O O15 0.882435 0.500000 0.307503
O O16 0.606964 0.000000 0.172631
#
# Coordination Sequence:
#
# PCOD8097612 Si02
#       6
#     8   8   8   8   8   8
#     4   9  17  31  52  75 100 134 172 208 249 300
#     4   8  16  32  52  72  97 133 171 205 248 303
#     4  10  20  34  54  79 105 133 168 212 256 300
#     4  11  21  32  52  79 104 132 169 213 253 296
#     4   9  19  35  53  74 103 137 169 205 251 301
#     4  10  20  35  55  76 102 136 170 207 253 305
#
# _framework density 19.087074000000001
#
# number of rings (size 3 to 8) (size 9 to 14) (size 15 to 20)
#    0.000    2.500    0.000    5.000    0.000    7.667 
#    0.000    1.667    0.000    5.000    0.000    0.000 
#    0.000    0.000    0.000    0.000    0.000    0.000 
#
# Total GULP energy -297492.281423 kJ/mol
# GULP energy per Si atom -12395.511726 kJ/mol
# Density = 1.904363 g / cm^3
# Si number density = 19.087074 Si / 1000 Ang^3
#
#
#
# Elastic Constant Matrix: (Units=GPa)
#
#
# Indices 1 2 3 4 5 6 
#
# 1 18.5335 7.5160 -6.6735 0.0000 -1.7808 0.0000
# 2 7.5160 95.1739 5.8812 0.0000 -4.3375 0.0000
# 3 -6.6735 5.8812 28.2795 0.0000 0.0724 0.0000
# 4 0.0000 0.0000 0.0000 35.4178 0.0000 3.4383
# 5 -1.7808 -4.3375 0.0724 0.0000 27.7022 0.0000
# 6 0.0000 0.0000 0.0000 3.4383 0.0000 25.1544
#
#
#
# Elastic Compliance Matrix: (Units=1/GPa)
#
#
# Indices 1 2 3 4 5 6 
#
# 1 0.062311 -0.005764 0.015895 0.000000 0.003062 0.000000
# 2 -0.005764 0.011255 -0.003704 0.000000 0.001401 0.000000
# 3 0.015895 -0.003704 0.039882 0.000000 0.000338 0.000000
# 4 0.000000 0.000000 0.000000 0.028614 0.000000 -0.003911
# 5 0.003062 0.001401 0.000338 0.000000 0.036514 0.000000
# 6 0.000000 0.000000 0.000000 -0.003911 0.000000 0.040289
#
#
# Mechanical properties :
#
#
# Convention : Reuss Voigt Hill
#
# Bulk Modulus (GPa) = 7.91748 17.27049 12.59398
# Shear Modulus (GPa) = 20.15224 26.67240 23.41232
#
# Velocity S-wave (km/s) = 3.25284 3.74225 3.50609
# Velocity P-wave (km/s) = 4.27376 5.26692 4.79612
#
# Compressibility (1/GPa) = 0.12630289
#
# Stress axis : x y z
#
# Youngs Moduli (GPa) = 16.04842 88.84928 25.07409
#
# Poissons Ratio (x) = 0.51209 -0.39856
# Poissons Ratio (y) = 0.09250 0.09288
# Poissons Ratio (z) = -0.25509 0.32913
#
# Static dielectric constant tensor:
#      x y z
#    x 3.035600 0.000000 0.164900 
#    y 0.000000 3.579620 0.000000 
#    z 0.164900 0.000000 4.149190 
# 
# 
# High freq. dielectric constant tensor:
#      x y z
#    x 1.691450 0.000000 0.005350 
#    y 0.000000 1.749480 0.000000 
#    z 0.005350 0.000000 1.759730 
# 
# From -- ./inp_files/221503.got.cif
#   From: 2010.06.25/outbox.cif.g09.slc.cpg/sg12_111_cif.got.tgz:221503.got - 2010.06.28 00:19:55.
