data_PCOD8097742
_publ_section_title
;
Structure prediction by ZEFSAII (Michael W. Deem and Ramdas Pophale) SiO2 
 PCOD8097742
Probable space group: C 2/M
;
_chemical_formula_sum "Si O2"
_cell_formula_units_Z 64
_cell_length_a 27.053247
_cell_length_b 9.010426
_cell_length_c 13.938892
_cell_angle_alpha 90.000000
_cell_angle_beta 96.883008
_cell_angle_gamma 90.000000
_cell_volume 3373.274237
_symmetry_space_group_name_H-M "C 2/M"
_symmetry_group_IT_number 12
_symmetry_cell_setting 'monoclinic'
loop_
_space_group_symop_operation_xyz
x,y,z
-x,y,-z
-x,-y,-z
x,-y,z
1/2+x,1/2+y,z
1/2-x,1/2+y,-z
1/2-x,1/2-y,-z
1/2+x,1/2-y,z
loop_
_atom_site_type_symbol
_atom_site_label
_atom_site_fract_x
_atom_site_fract_y
_atom_site_fract_z
Si Si1 0.890146 0.174963 0.510976
Si Si2 0.259631 0.172281 0.791740
Si Si3 0.474226 0.830163 0.652517
Si Si4 0.321789 0.329295 0.662714
Si Si5 0.654181 0.675537 0.843111
Si Si6 0.912264 0.676070 0.324484
Si Si7 0.347498 0.831683 0.960130
Si Si8 0.097597 0.333481 0.205779
O O1 0.839384 0.211075 0.558588
O O2 0.883198 0.255282 0.407919
O O3 0.939344 0.234031 0.575638
O O4 0.896544 0.000000 0.497647
O O5 0.273745 0.241379 0.691076
O O6 0.206814 0.235266 0.814875
O O7 0.254901 0.000000 0.772807
O O8 0.300797 0.210047 0.881543
O O9 0.530331 0.772764 0.657427
O O10 0.457413 0.816597 0.761089
O O11 0.470263 0.000000 0.616242
O O12 0.308406 0.500000 0.668898
O O13 0.368747 0.292460 0.739837
O O14 0.648549 0.500000 0.830353
O O15 0.610176 0.757924 0.777667
O O16 0.650139 0.716103 0.953619
O O17 0.906794 0.500000 0.322514
O O18 0.342095 0.000000 0.998000
O O19 0.398617 0.815042 0.908814
O O20 0.118550 0.500000 0.235664
#
# Coordination Sequence:
#
# PCOD8097742 Si02
#       8
#     8   8   8   8   8   8   8   8
#     4  10  20  34  54  81 109 135 166 208 259 309
#     4   9  19  35  55  78 103 134 171 210 254 305
#     4   9  18  34  56  80 104 134 174 214 252 299
#     4   9  17  29  50  80 107 130 162 207 255 303
#     4  11  23  37  52  73 104 139 173 213 260 304
#     4  11  23  37  53  74 102 139 180 216 252 300
#     4   9  17  32  55  80 103 130 167 209 255 307
#     4   8  15  30  52  77 105 133 164 208 255 298
#
# _framework density 18.972663000000001
#
# number of rings (size 3 to 8) (size 9 to 14) (size 15 to 20)
#    0.000    2.500    0.000    3.000    0.000    7.000 
#    0.000    1.250    0.000    3.750    0.000    0.000 
#    0.000    0.000    0.000    0.000    0.000    0.000 
#
# Total GULP energy -396623.890360 kJ/mol
# GULP energy per Si atom -12394.496574 kJ/mol
# Density = 1.892948 g / cm^3
# Si number density = 18.972663 Si / 1000 Ang^3
#
#
#
# Elastic Constant Matrix: (Units=GPa)
#
#
# Indices 1 2 3 4 5 6 
#
# 1 33.9603 19.4552 34.2174 0.0000 -14.1907 0.0000
# 2 19.4552 54.1841 28.5152 0.0000 -4.6510 0.0000
# 3 34.2174 28.5152 61.8137 0.0000 -20.3769 0.0000
# 4 0.0000 0.0000 0.0000 34.1624 0.0000 -3.9323
# 5 -14.1907 -4.6510 -20.3769 0.0000 28.1671 0.0000
# 6 0.0000 0.0000 0.0000 -3.9323 0.0000 24.2680
#
#
#
# Elastic Compliance Matrix: (Units=1/GPa)
#
#
# Indices 1 2 3 4 5 6 
#
# 1 0.070630 -0.007623 -0.031865 0.000000 0.011273 0.000000
# 2 -0.007623 0.025836 -0.009925 0.000000 -0.006755 0.000000
# 3 -0.031865 -0.009925 0.042761 0.000000 0.013242 0.000000
# 4 0.000000 0.000000 0.000000 0.029828 0.000000 0.004833
# 5 0.011273 -0.006755 0.013242 0.000000 0.049646 0.000000
# 6 0.000000 0.000000 0.000000 0.004833 0.000000 0.041990
#
#
# Mechanical properties :
#
#
# Convention : Reuss Voigt Hill
#
# Bulk Modulus (GPa) = 24.75264 34.92596 29.83930
# Shear Modulus (GPa) = 13.40540 21.83754 17.62147
#
# Velocity S-wave (km/s) = 2.66101 3.39632 3.05090
# Velocity P-wave (km/s) = 4.74511 5.81623 5.30776
#
# Compressibility (1/GPa) = 0.04039972
#
# Stress axis : x y z
#
# Youngs Moduli (GPa) = 14.15829 38.70521 23.38606
#
# Poissons Ratio (x) = 0.29505 0.74520
# Poissons Ratio (y) = 0.10793 0.23212
# Poissons Ratio (z) = 0.45116 0.38416
#
# Static dielectric constant tensor:
#      x y z
#    x 3.533250 0.000000 -0.462010 
#    y 0.000000 3.414580 0.000000 
#    z -0.462010 0.000000 3.509420 
# 
# 
# High freq. dielectric constant tensor:
#      x y z
#    x 1.721210 0.000000 -0.035750 
#    y 0.000000 1.738000 0.000000 
#    z -0.035750 0.000000 1.730520 
# 
# From -- ./inp_files/187525.got.cif
#   From: 2010.06.25/outbox.cif.g09.slc.cpg/sg12_94_cif.got.tgz:187525.got - 2010.06.28 00:19:55.
