data_PCOD8097237
_publ_section_title
;
Structure prediction by ZEFSAII (Michael W. Deem and Ramdas Pophale) SiO2 
 PCOD8097237
Probable space group: C 2/M
;
_chemical_formula_sum "Si O2"
_cell_formula_units_Z 64
_cell_length_a 23.906099
_cell_length_b 9.341354
_cell_length_c 19.600150
_cell_angle_alpha 90.000000
_cell_angle_beta 127.577990
_cell_angle_gamma 90.000000
_cell_volume 3468.888541
_symmetry_space_group_name_H-M "C 2/M"
_symmetry_group_IT_number 12
_symmetry_cell_setting 'monoclinic'
loop_
_space_group_symop_operation_xyz
x,y,z
-x,y,-z
-x,-y,-z
x,-y,z
1/2+x,1/2+y,z
1/2-x,1/2+y,-z
1/2-x,1/2-y,-z
1/2+x,1/2-y,z
loop_
_atom_site_type_symbol
_atom_site_label
_atom_site_fract_x
_atom_site_fract_y
_atom_site_fract_z
Si Si1 0.069972 0.330019 0.904663
Si Si2 0.919465 0.329039 0.838931
Si Si3 0.834692 0.330020 0.904665
Si Si4 0.410095 0.832371 0.582479
Si Si5 0.323018 0.830214 0.646036
Si Si6 0.818429 0.831536 0.251967
Si Si7 0.672386 0.667629 0.582481
Si Si8 0.433539 0.831536 0.251969
O O1 0.064886 0.500000 0.898494
O O2 0.078092 0.273150 0.833630
O O3 0.998604 0.270321 0.886571
O O4 0.136642 0.279328 0.999999
O O5 0.919278 0.500000 0.838558
O O6 0.887966 0.270321 0.886571
O O7 0.871153 0.267508 0.742305
O O8 0.833609 0.500000 0.898497
O O9 0.755538 0.273151 0.833633
O O10 0.353945 0.777328 0.597054
O O11 0.393832 0.750000 0.499999
O O12 0.487739 0.793481 0.666067
O O13 0.402603 0.000000 0.563177
O O14 0.243110 0.777329 0.597053
O O15 0.326498 0.000000 0.652995
O O16 0.821668 0.793478 0.333930
O O17 0.880975 0.749999 0.261951
O O18 0.826955 0.000000 0.245923
O O19 0.660574 0.500000 0.563180
O O20 0.418969 0.000000 0.245922
#
# Coordination Sequence:
#
# PCOD8097237 Si02
#       8
#     8   8   8   8   8   8   8   8
#     4   9  16  27  47  76 105 131 162 202 249 299
#     4   9  13  23  46  75 104 130 157 198 252 300
#     4   9  16  27  47  76 105 131 162 202 249 299
#     4  10  20  34  53  76 102 131 164 205 252 300
#     4   9  15  28  50  74 102 131 158 197 252 304
#     4  10  21  36  52  72 101 135 170 209 248 289
#     4  10  20  34  53  76 102 131 164 205 252 300
#     4  10  21  36  52  72 101 135 170 209 248 289
#
# _framework density 18.449712999999999
#
# number of rings (size 3 to 8) (size 9 to 14) (size 15 to 20)
#    0.000    2.500    2.500    0.750    0.000    3.500 
#    0.000    2.500    0.000    0.000    0.000    0.875 
#    0.000    2.000    0.000    0.000    0.000    0.000 
#
# Total GULP energy -396720.680800 kJ/mol
# GULP energy per Si atom -12397.521275 kJ/mol
# Density = 1.840772 g / cm^3
# Si number density = 18.449713 Si / 1000 Ang^3
#
#
#
# Elastic Constant Matrix: (Units=GPa)
#
#
# Indices 1 2 3 4 5 6 
#
# 1 138.2710 37.7725 67.3493 0.0000 2.0473 0.0000
# 2 37.7725 21.2071 39.8826 0.0000 -0.0810 0.0000
# 3 67.3493 39.8826 171.2282 0.0000 -3.3287 0.0000
# 4 0.0000 0.0000 0.0000 19.4749 0.0000 0.1007
# 5 2.0473 -0.0810 -3.3287 0.0000 9.5094 0.0000
# 6 0.0000 0.0000 0.0000 0.1007 0.0000 22.0481
#
#
#
# Elastic Compliance Matrix: (Units=1/GPa)
#
#
# Indices 1 2 3 4 5 6 
#
# 1 0.014205 -0.026142 0.000441 0.000000 -0.003127 0.000000
# 2 -0.026142 0.132381 -0.020560 0.000000 -0.000441 0.000000
# 3 0.000441 -0.020560 0.010522 0.000000 0.003413 0.000000
# 4 0.000000 0.000000 0.000000 0.051349 0.000000 -0.000234
# 5 -0.003127 -0.000441 0.003413 0.000000 0.107023 0.000000
# 6 0.000000 0.000000 0.000000 -0.000234 0.000000 0.045356
#
#
# Mechanical properties :
#
#
# Convention : Reuss Voigt Hill
#
# Bulk Modulus (GPa) = 15.48348 68.96835 42.22592
# Shear Modulus (GPa) = 10.52877 22.58661 16.55769
#
# Velocity S-wave (km/s) = 2.39147 3.50269 2.99900
# Velocity P-wave (km/s) = 4.00450 7.33631 5.91005
#
# Compressibility (1/GPa) = 0.06458495
#
# Stress axis : x y z
#
# Youngs Moduli (GPa) = 70.39682 7.55393 95.03911
#
# Poissons Ratio (x) = 0.19748 -0.04191
# Poissons Ratio (y) = 1.84035 1.95404
# Poissons Ratio (z) = -0.03105 0.15531
#
# Static dielectric constant tensor:
#      x y z
#    x 3.451830 0.000000 -0.006830 
#    y 0.000000 2.764580 0.000000 
#    z -0.006830 0.000000 3.626880 
# 
# 
# High freq. dielectric constant tensor:
#      x y z
#    x 1.718950 0.000000 -0.000630 
#    y 0.000000 1.648140 0.000000 
#    z -0.000630 0.000000 1.735150 
# 
# From -- ./inp_files/283326.got.cif
#   From: 2010.06.25/outbox.cif.g09.slc.cpg/sg12_142_cif.got.tgz:283326.got - 2010.06.28 00:19:55.
