data_PCOD8097859
_publ_section_title
;
Structure prediction by ZEFSAII (Michael W. Deem and Ramdas Pophale) SiO2 
 PCOD8097859
Probable space group: C 2/M
;
_chemical_formula_sum "Si O2"
_cell_formula_units_Z 56
_cell_length_a 28.806216
_cell_length_b 9.378616
_cell_length_c 12.554872
_cell_angle_alpha 90.000000
_cell_angle_beta 59.170074
_cell_angle_gamma 90.000000
_cell_volume 2912.559749
_symmetry_space_group_name_H-M "C 2/M"
_symmetry_group_IT_number 12
_symmetry_cell_setting 'monoclinic'
loop_
_space_group_symop_operation_xyz
x,y,z
-x,y,-z
-x,-y,-z
x,-y,z
1/2+x,1/2+y,z
1/2-x,1/2+y,-z
1/2-x,1/2-y,-z
1/2+x,1/2-y,z
loop_
_atom_site_type_symbol
_atom_site_label
_atom_site_fract_x
_atom_site_fract_y
_atom_site_fract_z
Si Si1 0.250954 0.835438 0.678853
Si Si2 0.634820 0.662777 0.737052
Si Si3 0.441544 0.835613 0.019082
Si Si4 0.907184 0.832993 0.864345
Si Si5 0.283384 0.664901 0.045623
Si Si6 0.142683 0.835285 0.488620
Si Si7 0.559905 0.669301 0.409237
O O1 0.198599 0.802473 0.668478
O O2 0.237276 0.790202 0.814835
O O3 0.300679 0.744360 0.579588
O O4 0.267507 0.000000 0.652032
O O5 0.624739 0.500000 0.788074
O O6 0.602038 0.767538 0.850774
O O7 0.616278 0.683120 0.636617
O O8 0.425899 0.000000 0.019725
O O9 0.500000 0.818198 0.000000
O O10 0.443747 0.754912 0.903570
O O11 0.920201 0.780446 0.729858
O O12 0.919979 0.000000 0.862718
O O13 0.845824 0.794842 0.962921
O O14 0.274464 0.500000 0.032251
O O15 0.250000 0.750000 0.000000
O O16 0.101018 0.770871 0.450678
O O17 0.154623 0.000000 0.449814
O O18 0.500000 0.731776 0.500000
O O19 0.558698 0.500000 0.419137
#
# Coordination Sequence:
#
# PCOD8097859 Si02
#       7
#     8   8   8   8   8   8   8
#     4  10  20  36  55  82 120 152 188 237 288 343
#     4  10  21  39  62  88 116 151 196 238 283 347
#     4  11  25  41  59  87 120 151 191 244 298 350
#     4  10  20  38  62  84 115 154 193 240 286 339
#     4  10  20  34  54  83 116 153 195 237 285 341
#     4  10  21  36  59  89 117 151 196 237 283 346
#     4   9  19  35  57  88 117 145 191 244 285 330
#
# _framework density 19.227073000000001
#
# number of rings (size 3 to 8) (size 9 to 14) (size 15 to 20)
#    0.000    2.000    1.429    1.714    2.000    4.571 
#    0.000    0.714    0.000    0.857    0.000    0.000 
#    0.000    0.000    0.000    0.000    0.000    0.000 
#
# Total GULP energy -347282.712197 kJ/mol
# GULP energy per Si atom -12402.954007 kJ/mol
# Density = 1.918331 g / cm^3
# Si number density = 19.227073 Si / 1000 Ang^3
#
#
#
# Elastic Constant Matrix: (Units=GPa)
#
#
# Indices 1 2 3 4 5 6 
#
# 1 98.2406 47.6375 43.8933 0.0000 19.2168 0.0000
# 2 47.6375 61.1935 38.4873 0.0000 7.9390 0.0000
# 3 43.8933 38.4873 91.8121 0.0000 16.9569 0.0000
# 4 0.0000 0.0000 0.0000 19.4081 0.0000 4.6248
# 5 19.2168 7.9390 16.9569 0.0000 36.7683 0.0000
# 6 0.0000 0.0000 0.0000 4.6248 0.0000 26.7054
#
#
#
# Elastic Compliance Matrix: (Units=1/GPa)
#
#
# Indices 1 2 3 4 5 6 
#
# 1 0.018195 -0.011700 -0.002737 0.000000 -0.005721 0.000000
# 2 -0.011700 0.029727 -0.007446 0.000000 0.003130 0.000000
# 3 -0.002737 -0.007446 0.016135 0.000000 -0.004403 0.000000
# 4 0.000000 0.000000 0.000000 0.053743 0.000000 -0.009307
# 5 -0.005721 0.003130 -0.004403 0.000000 0.031542 0.000000
# 6 0.000000 0.000000 0.000000 -0.009307 0.000000 0.039057
#
#
# Mechanical properties :
#
#
# Convention : Reuss Voigt Hill
#
# Bulk Modulus (GPa) = 49.28633 56.80916 53.04774
# Shear Modulus (GPa) = 20.92681 24.65824 22.79252
#
# Velocity S-wave (km/s) = 3.30267 3.58505 3.44676
# Velocity P-wave (km/s) = 6.34295 6.83721 6.59471
#
# Compressibility (1/GPa) = 0.02028960
#
# Stress axis : x y z
#
# Youngs Moduli (GPa) = 54.96145 33.63957 61.97768
#
# Poissons Ratio (x) = 0.39359 0.16964
# Poissons Ratio (y) = 0.64306 0.46148
# Poissons Ratio (z) = 0.15044 0.25048
#
# Static dielectric constant tensor:
#      x y z
#    x 3.666000 0.000000 0.161530 
#    y 0.000000 3.330970 0.000000 
#    z 0.161530 0.000000 3.596650 
# 
# 
# High freq. dielectric constant tensor:
#      x y z
#    x 1.757690 0.000000 0.009430 
#    y 0.000000 1.723470 0.000000 
#    z 0.009430 0.000000 1.760130 
# 
# From -- ./inp_files/180758.got.cif
#   From: 2010.06.25/outbox.cif.g09.slc.cpg/sg12_91_cif.got.tgz:180758.got - 2010.06.28 00:19:55.
