data_PCOD8097897
_publ_section_title
;
Structure prediction by ZEFSAII (Michael W. Deem and Ramdas Pophale) SiO2 
 PCOD8097897
Probable space group: C 2/M
;
_chemical_formula_sum "Si O2"
_cell_formula_units_Z 48
_cell_length_a 27.746014
_cell_length_b 7.783943
_cell_length_c 12.360241
_cell_angle_alpha 90.000000
_cell_angle_beta 72.670603
_cell_angle_gamma 90.000000
_cell_volume 2548.310251
_symmetry_space_group_name_H-M "C 2/M"
_symmetry_group_IT_number 12
_symmetry_cell_setting 'monoclinic'
loop_
_space_group_symop_operation_xyz
x,y,z
-x,y,-z
-x,-y,-z
x,-y,z
1/2+x,1/2+y,z
1/2-x,1/2+y,-z
1/2-x,1/2-y,-z
1/2+x,1/2-y,z
loop_
_atom_site_type_symbol
_atom_site_label
_atom_site_fract_x
_atom_site_fract_y
_atom_site_fract_z
Si Si1 0.938722 0.500000 0.419580
Si Si2 0.192484 0.807584 0.773626
Si Si3 0.700895 0.301888 0.361876
Si Si4 0.876572 0.194048 0.771508
Si Si5 0.555610 0.000000 0.329517
Si Si6 0.631354 0.700623 0.606783
Si Si7 0.805659 0.308451 0.993142
O O1 0.931923 0.500000 0.552355
O O2 0.915085 0.325415 0.387513
O O3 0.996510 0.500000 0.345593
O O4 0.247900 0.803803 0.683840
O O5 0.151287 0.751910 0.712501
O O6 0.186990 0.690296 0.882719
O O7 0.181748 0.000000 0.819364
O O8 0.715003 0.500000 0.338392
O O9 0.661928 0.244980 0.295460
O O10 0.676872 0.260888 0.493890
O O11 0.922750 0.327419 0.740532
O O12 0.896666 0.000000 0.736289
O O13 0.847525 0.193032 0.905695
O O14 0.614523 0.500000 0.608589
O O15 0.813348 0.500000 0.944430
O O16 0.750000 0.250000 0.000000
#
# Coordination Sequence:
#
# PCOD8097897 Si02
#       7
#     4   8   8   8   4   8   8
#     4  11  24  40  69  87 125 153 210 257 306 358
#     4  11  23  35  55  86 123 166 205 238 298 361
#     4  10  20  34  54  85 121 163 198 235 297 361
#     4  11  22  39  60  86 127 158 195 251 302 356
#     4  11  24  42  63  99 111 165 204 253 316 355
#     4  10  23  40  58  87 123 161 201 252 301 362
#     4  12  23  36  56  86 123 164 207 244 292 359
#
# _framework density 18.836010000000002
#
# number of rings (size 3 to 8) (size 9 to 14) (size 15 to 20)
#    0.000    1.167    4.167    2.500    4.667    0.667 
#    0.000    1.667    0.000    2.000    0.000    3.500 
#    0.000    0.000    0.000    0.000    0.000    0.000 
#
# Total GULP energy -297675.108530 kJ/mol
# GULP energy per Si atom -12403.129522 kJ/mol
# Density = 1.879314 g / cm^3
# Si number density = 18.836010 Si / 1000 Ang^3
#
#
#
# Elastic Constant Matrix: (Units=GPa)
#
#
# Indices 1 2 3 4 5 6 
#
# 1 96.7830 49.7871 52.4642 0.0000 -4.1866 0.0000
# 2 49.7871 100.3674 33.1567 0.0000 -4.6147 0.0000
# 3 52.4642 33.1567 102.6403 0.0000 4.8967 0.0000
# 4 0.0000 0.0000 0.0000 26.6397 0.0000 -0.6466
# 5 -4.1866 -4.6147 4.8967 0.0000 30.3931 0.0000
# 6 0.0000 0.0000 0.0000 -0.6466 0.0000 27.6030
#
#
#
# Elastic Compliance Matrix: (Units=1/GPa)
#
#
# Indices 1 2 3 4 5 6 
#
# 1 0.017458 -0.006215 -0.007040 0.000000 0.002595 0.000000
# 2 -0.006215 0.013527 -0.001260 0.000000 0.001401 0.000000
# 3 -0.007040 -0.001260 0.013910 0.000000 -0.003402 0.000000
# 4 0.000000 0.000000 0.000000 0.037559 0.000000 0.000880
# 5 0.002595 0.001401 -0.003402 0.000000 0.034020 0.000000
# 6 0.000000 0.000000 0.000000 0.000880 0.000000 0.036249
#
#
# Mechanical properties :
#
#
# Convention : Reuss Voigt Hill
#
# Bulk Modulus (GPa) = 63.02693 63.40074 63.21384
# Shear Modulus (GPa) = 26.73213 27.88603 27.30908
#
# Velocity S-wave (km/s) = 3.77132 3.85185 3.81180
# Velocity P-wave (km/s) = 7.24550 7.31538 7.28052
#
# Compressibility (1/GPa) = 0.01586623
#
# Stress axis : x y z
#
# Youngs Moduli (GPa) = 57.28087 73.92667 71.88932
#
# Poissons Ratio (x) = 0.45946 0.50607
# Poissons Ratio (y) = 0.35600 0.09056
# Poissons Ratio (z) = 0.40324 0.09313
#
# Static dielectric constant tensor:
#      x y z
#    x 3.184250 0.000000 0.109810 
#    y 0.000000 3.539870 0.000000 
#    z 0.109810 0.000000 3.479480 
# 
# 
# High freq. dielectric constant tensor:
#      x y z
#    x 1.699140 0.000000 0.010070 
#    y 0.000000 1.747240 0.000000 
#    z 0.010070 0.000000 1.731960 
# 
# From -- ./inp_files/172961.got.cif
#   From: 2010.06.25/outbox.cif.g09.slc.cpg/sg12_87_cif.got.tgz:172961.got - 2010.06.28 00:19:55.
