data_PCOD8097944
_publ_section_title
;
Structure prediction by ZEFSAII (Michael W. Deem and Ramdas Pophale) SiO2 
 PCOD8097944
Probable space group: C 2/M
;
_chemical_formula_sum "Si O2"
_cell_formula_units_Z 64
_cell_length_a 30.403003
_cell_length_b 9.012748
_cell_length_c 17.827820
_cell_angle_alpha 90.000000
_cell_angle_beta 42.746352
_cell_angle_gamma 90.000000
_cell_volume 3315.769610
_symmetry_space_group_name_H-M "C 2/M"
_symmetry_group_IT_number 12
_symmetry_cell_setting 'monoclinic'
loop_
_space_group_symop_operation_xyz
x,y,z
-x,y,-z
-x,-y,-z
x,-y,z
1/2+x,1/2+y,z
1/2-x,1/2+y,-z
1/2-x,1/2-y,-z
1/2+x,1/2-y,z
loop_
_atom_site_type_symbol
_atom_site_label
_atom_site_fract_x
_atom_site_fract_y
_atom_site_fract_z
Si Si1 0.867396 0.329369 0.564055
Si Si2 0.399317 0.171019 0.694835
Si Si3 0.067579 0.829336 0.121869
Si Si4 0.486003 0.824422 0.101623
Si Si5 0.650469 0.172074 0.657157
Si Si6 0.008212 0.171845 0.631401
Si Si7 0.181701 0.173870 0.080127
Si Si8 0.214505 0.171322 0.438944
O O1 0.876328 0.500000 0.530308
O O2 0.872290 0.306896 0.646063
O O3 0.919026 0.228834 0.455616
O O4 0.798980 0.265727 0.619896
O O5 0.472886 0.228813 0.611580
O O6 0.357263 0.277037 0.798761
O O7 0.394921 0.000000 0.725672
O O8 0.141023 0.785382 0.055501
O O9 0.044226 0.731960 0.081432
O O10 0.021418 0.798879 0.250128
O O11 0.064591 0.000000 0.100979
O O12 0.415730 0.770052 0.220311
O O13 0.488080 0.000000 0.099127
O O14 0.500000 0.764021 0.000000
O O15 0.709579 0.193868 0.640818
O O16 0.667151 0.268348 0.563506
O O17 0.643937 0.000000 0.641554
O O18 0.004094 0.000000 0.613571
O O19 0.192223 0.000000 0.070772
O O20 0.250000 0.250000 0.000000
O O21 0.197474 0.000000 0.448149
#
# Coordination Sequence:
#
# PCOD8097944 Si02
#       8
#     8   8   8   8   8   8   8   8
#     4  11  22  34  50  78 114 148 182 222 274 332
#     4  10  21  36  53  77 112 148 184 225 274 330
#     4   9  20  37  56  82 111 140 181 226 274 331
#     4  10  21  37  57  82 112 143 183 232 281 333
#     4   9  19  37  57  77 107 143 181 230 282 336
#     4  10  20  34  55  81 110 144 185 230 274 328
#     4  10  21  39  61  83 110 145 188 235 280 332
#     4  10  20  34  55  80 107 143 186 230 277 335
#
# _framework density 19.301703
#
# number of rings (size 3 to 8) (size 9 to 14) (size 15 to 20)
#    0.000    2.125    0.000    3.750    0.000    9.750 
#    2.250    0.000    0.000    0.000    0.000    0.000 
#    0.000    0.000    0.000    0.000    0.000    0.000 
#
# Total GULP energy -396756.604404 kJ/mol
# GULP energy per Si atom -12398.643888 kJ/mol
# Density = 1.925777 g / cm^3
# Si number density = 19.301703 Si / 1000 Ang^3
#
#
#
# Elastic Constant Matrix: (Units=GPa)
#
#
# Indices 1 2 3 4 5 6 
#
# 1 141.2394 61.9162 44.5885 0.0067 -0.6780 -0.0028
# 2 61.9162 75.5083 28.6836 -0.0548 4.4638 0.0195
# 3 44.5885 28.6836 62.7855 -0.0262 -9.4991 0.0119
# 4 0.0067 -0.0548 -0.0262 25.9812 0.0147 -1.4439
# 5 -0.6780 4.4638 -9.4991 0.0147 23.8305 -0.0039
# 6 -0.0028 0.0195 0.0119 -1.4439 -0.0039 40.2624
#
#
#
# Elastic Compliance Matrix: (Units=1/GPa)
#
#
# Indices 1 2 3 4 5 6 
#
# 1 0.012208 -0.008111 -0.004983 -0.000025 -0.000119 0.000005
# 2 -0.008111 0.022354 -0.005449 0.000047 -0.006590 -0.000009
# 3 -0.004983 -0.005449 0.023506 0.000008 0.010249 -0.000003
# 4 -0.000025 0.000047 0.000008 0.038566 -0.000030 0.001383
# 5 -0.000119 -0.006590 0.010249 -0.000030 0.047279 0.000004
# 6 0.000005 -0.000009 -0.000003 0.001383 0.000004 0.024887
#
#
# Mechanical properties :
#
#
# Convention : Reuss Voigt Hill
#
# Bulk Modulus (GPa) = 47.65877 61.10109 54.37993
# Shear Modulus (GPa) = 23.48737 27.63782 25.56259
#
# Velocity S-wave (km/s) = 3.49213 3.78813 3.64314
# Velocity P-wave (km/s) = 6.40352 7.13146 6.77727
#
# Compressibility (1/GPa) = 0.02098250
#
# Stress axis : x y z
#
# Youngs Moduli (GPa) = 81.91226 44.73449 42.54257
#
# Poissons Ratio (x) = 0.36283 0.21197
# Poissons Ratio (y) = 0.66438 0.23183
# Poissons Ratio (z) = 0.40813 0.24378
#
# Static dielectric constant tensor:
#      x y z
#    x 3.737430 -0.000020 -0.124610 
#    y -0.000020 3.536930 0.000040 
#    z -0.124610 0.000040 3.356610 
# 
# 
# High freq. dielectric constant tensor:
#      x y z
#    x 1.767610 0.000000 -0.008240 
#    y 0.000000 1.756770 0.000000 
#    z -0.008240 0.000000 1.727290 
# 
# From -- ./inp_files/295660.got.cif
#   From: 2010.06.25/outbox.cif.g09.slc.cpg/sg12_148_cif.got.tgz:295660.got - 2010.06.28 00:19:55.
