data_PCOD8097437
_publ_section_title
;
Structure prediction by ZEFSAII (Michael W. Deem and Ramdas Pophale) SiO2 
 PCOD8097437
Probable space group: C 2/M
;
_chemical_formula_sum "Si O2"
_cell_formula_units_Z 64
_cell_length_a 19.103819
_cell_length_b 8.949121
_cell_length_c 22.054580
_cell_angle_alpha 90.000000
_cell_angle_beta 115.509188
_cell_angle_gamma 90.000000
_cell_volume 3402.940768
_symmetry_space_group_name_H-M "C 2/M"
_symmetry_group_IT_number 12
_symmetry_cell_setting 'monoclinic'
loop_
_space_group_symop_operation_xyz
x,y,z
-x,y,-z
-x,-y,-z
x,-y,z
1/2+x,1/2+y,z
1/2-x,1/2+y,-z
1/2-x,1/2-y,-z
1/2+x,1/2-y,z
loop_
_atom_site_type_symbol
_atom_site_label
_atom_site_fract_x
_atom_site_fract_y
_atom_site_fract_z
Si Si1 0.654720 0.828150 0.630109
Si Si2 0.013838 0.173060 0.895905
Si Si3 0.993218 0.328308 0.637662
Si Si4 0.320180 0.675800 0.991178
Si Si5 0.951431 0.174764 0.741969
Si Si6 0.918729 0.168753 0.503839
Si Si7 0.803948 0.673940 0.734003
Si Si8 0.868495 0.326690 0.889781
O O1 0.577111 0.810514 0.639701
O O2 0.643923 0.759119 0.559118
O O3 0.719378 0.737284 0.689977
O O4 0.679264 0.000000 0.632195
O O5 0.000422 0.210927 0.820511
O O6 0.956325 0.267641 0.916777
O O7 0.997025 0.000000 0.903462
O O8 0.101095 0.218475 0.944398
O O9 0.969157 0.500000 0.635396
O O10 0.997127 0.251471 0.704382
O O11 0.928060 0.248329 0.572206
O O12 0.306881 0.500000 0.983874
O O13 0.322567 0.738234 0.924168
O O14 0.250000 0.750000 0.000000
O O15 0.865381 0.241658 0.714552
O O16 0.944815 0.000000 0.727078
O O17 0.000000 0.169965 0.500000
O O18 0.888971 0.000000 0.502666
O O19 0.807297 0.500000 0.719340
O O20 0.822133 0.704270 0.810899
O O21 0.871227 0.500000 0.907783
#
# Coordination Sequence:
#
# PCOD8097437 Si02
#       8
#     8   8   8   8   8   8   8   8
#     4  10  20  34  54  80 109 142 180 222 268 317
#     4   9  20  38  58  79 105 141 181 220 264 318
#     4  10  20  34  53  79 110 141 177 221 267 316
#     4  11  23  38  56  81 113 144 177 221 270 316
#     4  10  20  36  57  79 106 140 179 221 267 319
#     4   9  17  31  52  77 105 140 181 220 263 317
#     4  10  21  37  56  79 109 142 178 221 267 318
#     4  10  21  37  58  82 107 140 181 221 264 319
#
# _framework density 18.807262000000001
#
# number of rings (size 3 to 8) (size 9 to 14) (size 15 to 20)
#    0.000    2.125    0.000    3.000    0.000    8.500 
#    0.000    4.375    0.000    0.000    0.000    0.000 
#    0.000    0.000    0.000    0.000    0.000    0.000 
#
# Total GULP energy -396951.071023 kJ/mol
# GULP energy per Si atom -12404.720969 kJ/mol
# Density = 1.876446 g / cm^3
# Si number density = 18.807262 Si / 1000 Ang^3
#
#
#
# Elastic Constant Matrix: (Units=GPa)
#
#
# Indices 1 2 3 4 5 6 
#
# 1 66.5581 33.7578 37.4990 0.0000 4.1635 0.0000
# 2 33.7578 91.4849 40.2942 0.0000 1.2034 0.0000
# 3 37.4990 40.2942 81.9495 0.0000 6.2942 0.0000
# 4 0.0000 0.0000 0.0000 36.5284 0.0000 -2.2515
# 5 4.1635 1.2034 6.2942 0.0000 26.3203 0.0000
# 6 0.0000 0.0000 0.0000 -2.2515 0.0000 35.5943
#
#
#
# Elastic Compliance Matrix: (Units=1/GPa)
#
#
# Indices 1 2 3 4 5 6 
#
# 1 0.021732 -0.004683 -0.007533 0.000000 -0.001422 0.000000
# 2 -0.004683 0.014988 -0.005329 0.000000 0.001330 0.000000
# 3 -0.007533 -0.005329 0.018499 0.000000 -0.002989 0.000000
# 4 0.000000 0.000000 0.000000 0.027483 0.000000 0.001738
# 5 -0.001422 0.001330 -0.002989 0.000000 0.038872 0.000000
# 6 0.000000 0.000000 0.000000 0.001738 0.000000 0.028204
#
#
# Mechanical properties :
#
#
# Convention : Reuss Voigt Hill
#
# Bulk Modulus (GPa) = 49.67463 51.45494 50.56479
# Shear Modulus (GPa) = 26.09880 28.25135 27.17507
#
# Velocity S-wave (km/s) = 3.72922 3.87996 3.80534
# Velocity P-wave (km/s) = 6.70914 6.89135 6.80085
#
# Compressibility (1/GPa) = 0.02013100
#
# Stress axis : x y z
#
# Youngs Moduli (GPa) = 46.01409 66.71833 54.05597
#
# Poissons Ratio (x) = 0.31243 0.40719
# Poissons Ratio (y) = 0.21547 0.28807
# Poissons Ratio (z) = 0.34661 0.35555
#
# Static dielectric constant tensor:
#      x y z
#    x 3.239120 0.000000 -0.020470 
#    y 0.000000 3.644850 0.000000 
#    z -0.020470 0.000000 3.571820 
# 
# 
# High freq. dielectric constant tensor:
#      x y z
#    x 1.711610 0.000000 -0.001370 
#    y 0.000000 1.747670 0.000000 
#    z -0.001370 0.000000 1.739480 
# 
# From -- ./inp_files/320030.got.cif
#   From: 2010.06.25/outbox.cif.g09.slc.cpg/sg12_161_cif.got.tgz:320030.got - 2010.06.28 00:19:55.
