data_PCOD8097688
_publ_section_title
;
Structure prediction by ZEFSAII (Michael W. Deem and Ramdas Pophale) SiO2 
 PCOD8097688
Probable space group: C 2/M
;
_chemical_formula_sum "Si O2"
_cell_formula_units_Z 48
_cell_length_a 18.084607
_cell_length_b 8.977402
_cell_length_c 20.521284
_cell_angle_alpha 90.000000
_cell_angle_beta 48.847342
_cell_angle_gamma 90.000000
_cell_volume 2508.623902
_symmetry_space_group_name_H-M "C 2/M"
_symmetry_group_IT_number 12
_symmetry_cell_setting 'monoclinic'
loop_
_space_group_symop_operation_xyz
x,y,z
-x,y,-z
-x,-y,-z
x,-y,z
1/2+x,1/2+y,z
1/2-x,1/2+y,-z
1/2-x,1/2-y,-z
1/2+x,1/2-y,z
loop_
_atom_site_type_symbol
_atom_site_label
_atom_site_fract_x
_atom_site_fract_y
_atom_site_fract_z
Si Si1 0.398541 0.676075 0.750370
Si Si2 0.228176 0.676669 0.754792
Si Si3 0.486392 0.828284 0.084334
Si Si4 0.228632 0.174441 0.414769
Si Si5 0.096363 0.325941 0.590973
Si Si6 0.147821 0.175848 0.076424
O O1 0.410509 0.500000 0.736892
O O2 0.305027 0.734865 0.763796
O O3 0.493850 0.751143 0.665667
O O4 0.384431 0.726206 0.832847
O O5 0.224455 0.500000 0.757944
O O6 0.120094 0.736754 0.834732
O O7 0.260208 0.734122 0.665123
O O8 0.566561 0.728347 0.072954
O O9 0.499046 0.000000 0.098954
O O10 0.500000 0.812072 0.000000
O O11 0.137887 0.260856 0.499419
O O12 0.329366 0.211933 0.393578
O O13 0.204858 0.000000 0.431292
O O14 0.080480 0.500000 0.591574
O O15 0.160922 0.000000 0.064645
O O16 0.250000 0.250000 0.000000
#
# Coordination Sequence:
#
# PCOD8097688 Si02
#       6
#     8   8   8   8   8   8
#     4  10  21  37  56  79 108 143 182 222 268 323
#     4   9  18  34  56  79 104 141 187 225 264 323
#     4  10  20  37  61  85 112 146 184 228 276 327
#     4   9  18  34  55  76 102 140 183 223 265 322
#     4  10  20  34  54  80 108 138 176 225 277 324
#     4  11  23  38  58  84 114 147 184 227 275 328
#
# _framework density 19.133996
#
# number of rings (size 3 to 8) (size 9 to 14) (size 15 to 20)
#    0.000    2.167    0.000    3.000    0.000    7.000 
#    0.000    5.833    0.000    0.000    0.000    0.000 
#    0.000    0.000    0.000    0.000    0.000    0.000 
#
# Total GULP energy -297685.706405 kJ/mol
# GULP energy per Si atom -12403.571100 kJ/mol
# Density = 1.909045 g / cm^3
# Si number density = 19.133996 Si / 1000 Ang^3
#
#
#
# Elastic Constant Matrix: (Units=GPa)
#
#
# Indices 1 2 3 4 5 6 
#
# 1 120.0218 36.2063 70.8385 0.0000 -10.8768 -0.0001
# 2 36.2063 40.5508 42.4894 0.0000 -5.9912 -0.0001
# 3 70.8385 42.4894 149.8115 0.0000 -15.3652 -0.0001
# 4 0.0000 0.0000 0.0000 26.2620 0.0000 -7.3536
# 5 -10.8768 -5.9912 -15.3652 0.0000 39.9762 0.0000
# 6 -0.0001 -0.0001 -0.0001 -7.3536 0.0000 27.3821
#
#
#
# Elastic Compliance Matrix: (Units=1/GPa)
#
#
# Indices 1 2 3 4 5 6 
#
# 1 0.012949 -0.007270 -0.003968 0.000000 0.000909 0.000000
# 2 -0.007270 0.039255 -0.007595 0.000000 0.000986 0.000000
# 3 -0.003968 -0.007595 0.010908 0.000000 0.001975 0.000000
# 4 0.000000 0.000000 0.000000 0.041174 0.000000 0.011057
# 5 0.000909 0.000986 0.001975 0.000000 0.026169 0.000000
# 6 0.000000 0.000000 0.000000 0.011057 0.000000 0.039490
#
#
# Mechanical properties :
#
#
# Convention : Reuss Voigt Hill
#
# Bulk Modulus (GPa) = 39.29781 67.71695 53.50738
# Shear Modulus (GPa) = 23.13829 29.44738 26.29284
#
# Velocity S-wave (km/s) = 3.48124 3.92728 3.71096
# Velocity P-wave (km/s) = 6.06148 7.48548 6.81080
#
# Compressibility (1/GPa) = 0.02544671
#
# Stress axis : x y z
#
# Youngs Moduli (GPa) = 77.22487 25.47452 91.67720
#
# Poissons Ratio (x) = 0.18520 0.36377
# Poissons Ratio (y) = 0.56142 0.69626
# Poissons Ratio (z) = 0.30642 0.19347
#
# Static dielectric constant tensor:
#      x y z
#    x 3.664920 0.000000 0.066930 
#    y 0.000000 3.310610 0.000000 
#    z 0.066930 0.000000 3.723660 
# 
# 
# High freq. dielectric constant tensor:
#      x y z
#    x 1.750910 0.000000 -0.000540 
#    y 0.000000 1.723510 0.000000 
#    z -0.000540 0.000000 1.763120 
# 
# From -- ./inp_files/313573.got.cif
#   From: 2010.06.25/outbox.cif.g09.slc.cpg/sg12_157_cif.got.tgz:313573.got - 2010.06.28 00:19:55.
