data_PCOD8097482
_publ_section_title
;
Structure prediction by ZEFSAII (Michael W. Deem and Ramdas Pophale) SiO2 
 PCOD8097482
Probable space group: C 2/M
;
_chemical_formula_sum "Si O2"
_cell_formula_units_Z 56
_cell_length_a 26.379551
_cell_length_b 9.074968
_cell_length_c 13.297324
_cell_angle_alpha 90.000000
_cell_angle_beta 64.588712
_cell_angle_gamma 90.000000
_cell_volume 2875.312767
_symmetry_space_group_name_H-M "C 2/M"
_symmetry_group_IT_number 12
_symmetry_cell_setting 'monoclinic'
loop_
_space_group_symop_operation_xyz
x,y,z
-x,y,-z
-x,-y,-z
x,-y,z
1/2+x,1/2+y,z
1/2-x,1/2+y,-z
1/2-x,1/2-y,-z
1/2+x,1/2-y,z
loop_
_atom_site_type_symbol
_atom_site_label
_atom_site_fract_x
_atom_site_fract_y
_atom_site_fract_z
Si Si1 0.940877 0.165967 0.657875
Si Si2 0.550664 0.174078 0.883716
Si Si3 0.279235 0.830546 0.763306
Si Si4 0.160920 0.831143 0.116062
Si Si5 0.845668 0.171391 0.104841
Si Si6 0.944734 0.169877 0.328515
Si Si7 0.379503 0.172984 0.542342
O O1 0.901246 0.191947 0.787429
O O2 0.926678 0.282229 0.583371
O O3 0.004365 0.189110 0.637367
O O4 0.932225 0.000000 0.622536
O O5 0.609407 0.231491 0.875760
O O6 0.539041 0.247067 0.786622
O O7 0.554005 0.000000 0.867616
O O8 0.500000 0.220766 0.000000
O O9 0.292924 0.749997 0.855925
O O10 0.214377 0.805395 0.789277
O O11 0.318685 0.776529 0.637566
O O12 0.292425 0.000000 0.773389
O O13 0.179516 0.000000 0.097878
O O14 0.159752 0.768722 0.004194
O O15 0.863971 0.000000 0.091224
O O16 0.890312 0.242595 0.428054
O O17 0.931978 0.000000 0.314466
O O18 0.382804 0.000000 0.518767
#
# Coordination Sequence:
#
# PCOD8097482 Si02
#       7
#     8   8   8   8   8   8   8
#     4   9  18  32  51  79 111 142 179 221 268 323
#     4  11  25  42  59  82 110 138 173 220 271 322
#     4   9  19  34  53  80 113 146 180 222 269 318
#     4   9  17  30  52  81 111 142 177 221 270 321
#     4  10  20  36  57  80 108 145 187 224 264 317
#     4  11  22  37  58  80 106 144 186 225 266 317
#     4  10  20  34  53  80 114 146 178 222 273 319
#
# _framework density 19.476140999999998
#
# number of rings (size 3 to 8) (size 9 to 14) (size 15 to 20)
#    0.000    2.143    0.000    3.000    0.000    6.857 
#    0.000    3.571    0.000    0.000    0.000    0.000 
#    0.000    0.000    0.000    0.000    0.000    0.000 
#
# Total GULP energy -347246.128829 kJ/mol
# GULP energy per Si atom -12401.647458 kJ/mol
# Density = 1.943181 g / cm^3
# Si number density = 19.476141 Si / 1000 Ang^3
#
#
#
# Elastic Constant Matrix: (Units=GPa)
#
#
# Indices 1 2 3 4 5 6 
#
# 1 69.2344 29.5965 24.4855 0.0000 -16.0810 0.0000
# 2 29.5965 74.1800 42.3576 0.0000 -5.8329 0.0000
# 3 24.4855 42.3576 113.3632 0.0000 -16.4639 0.0000
# 4 0.0000 0.0000 0.0000 33.0701 0.0000 3.3671
# 5 -16.0810 -5.8329 -16.4639 0.0000 19.1076 0.0000
# 6 0.0000 0.0000 0.0000 3.3671 0.0000 27.8357
#
#
#
# Elastic Compliance Matrix: (Units=1/GPa)
#
#
# Indices 1 2 3 4 5 6 
#
# 1 0.021174 -0.007507 0.000556 0.000000 0.016008 0.000000
# 2 -0.007507 0.019800 -0.006649 0.000000 -0.006002 0.000000
# 3 0.000556 -0.006649 0.012526 0.000000 0.009232 0.000000
# 4 0.000000 0.000000 0.000000 0.030616 0.000000 -0.003703
# 5 0.016008 -0.006002 0.009232 0.000000 0.071929 0.000000
# 6 0.000000 0.000000 0.000000 -0.003703 0.000000 0.036373
#
#
# Mechanical properties :
#
#
# Convention : Reuss Voigt Hill
#
# Bulk Modulus (GPa) = 38.01996 49.96188 43.99092
# Shear Modulus (GPa) = 21.89289 26.69189 24.29239
#
# Velocity S-wave (km/s) = 3.35638 3.70603 3.53553
# Velocity P-wave (km/s) = 5.88082 6.63487 6.26919
#
# Compressibility (1/GPa) = 0.02630197
#
# Stress axis : x y z
#
# Youngs Moduli (GPa) = 47.22725 50.50418 79.83443
#
# Poissons Ratio (x) = 0.37914 -0.04442
# Poissons Ratio (y) = 0.35454 0.53078
# Poissons Ratio (z) = -0.02628 0.33578
#
# Static dielectric constant tensor:
#      x y z
#    x 3.397250 0.000000 -0.253250 
#    y 0.000000 3.542780 0.000000 
#    z -0.253250 0.000000 3.742480 
# 
# 
# High freq. dielectric constant tensor:
#      x y z
#    x 1.741950 0.000000 -0.019720 
#    y 0.000000 1.756350 0.000000 
#    z -0.019720 0.000000 1.768680 
# 
# From -- ./inp_files/180720.got.cif
#   From: 2010.06.25/outbox.cif.g09.slc.cpg/sg12_91_cif.got.tgz:180720.got - 2010.06.28 00:19:55.
