data_PCOD8097524
_publ_section_title
;
Structure prediction by ZEFSAII (Michael W. Deem and Ramdas Pophale) SiO2 
 PCOD8097524
Probable space group: C 2/M
;
_chemical_formula_sum "Si O2"
_cell_formula_units_Z 56
_cell_length_a 20.017521
_cell_length_b 8.806385
_cell_length_c 19.326959
_cell_angle_alpha 90.000000
_cell_angle_beta 56.876292
_cell_angle_gamma 90.000000
_cell_volume 2853.333299
_symmetry_space_group_name_H-M "C 2/M"
_symmetry_group_IT_number 12
_symmetry_cell_setting 'monoclinic'
loop_
_space_group_symop_operation_xyz
x,y,z
-x,y,-z
-x,-y,-z
x,-y,z
1/2+x,1/2+y,z
1/2-x,1/2+y,-z
1/2-x,1/2-y,-z
1/2+x,1/2-y,z
loop_
_atom_site_type_symbol
_atom_site_label
_atom_site_fract_x
_atom_site_fract_y
_atom_site_fract_z
Si Si1 0.664458 0.679571 0.561887
Si Si2 0.917221 0.179306 0.016398
Si Si3 0.053740 0.676805 0.140139
Si Si4 0.284902 0.680133 0.199710
Si Si5 0.389296 0.819638 0.744917
Si Si6 0.524357 0.178449 0.563913
Si Si7 0.873830 0.677289 0.272108
O O1 0.671856 0.500000 0.557381
O O2 0.750000 0.750000 0.500000
O O3 0.605622 0.733249 0.534344
O O4 0.629489 0.735143 0.654170
O O5 0.845186 0.233716 0.105733
O O6 0.920818 0.000000 0.009688
O O7 0.902267 0.242398 0.948253
O O8 0.000000 0.244899 0.000000
O O9 0.072275 0.500000 0.124407
O O10 0.089619 0.744069 0.191014
O O11 0.959550 0.709927 0.189643
O O12 0.288279 0.500000 0.209010
O O13 0.197594 0.738568 0.228108
O O14 0.306166 0.760577 0.259505
O O15 0.454389 0.760398 0.653470
O O16 0.391172 0.000000 0.745183
O O17 0.500000 0.217217 0.500000
O O18 0.539429 0.000000 0.566104
O O19 0.860567 0.500000 0.294064
#
# Coordination Sequence:
#
# PCOD8097524 Si02
#       7
#     8   8   8   8   8   8   8
#     4  12  26  43  65  93 125 160 202 250 302 360
#     4  10  20  34  53  84 121 154 200 253 300 351
#     4  10  20  36  60  83 113 156 200 244 299 360
#     4  10  21  37  59  86 119 162 204 246 300 362
#     4   9  19  38  59  84 118 158 199 240 298 368
#     4  10  21  40  65  92 124 161 201 246 305 370
#     4  11  22  39  62  89 120 155 199 251 300 359
#
# _framework density 19.626169000000001
#
# number of rings (size 3 to 8) (size 9 to 14) (size 15 to 20)
#    0.000    1.714    2.857    1.714    2.000    2.286 
#    0.000    1.429    0.000    0.000    0.000    0.000 
#    0.000    0.000    0.000    0.000    0.000    0.000 
#
# Total GULP energy -347322.403456 kJ/mol
# GULP energy per Si atom -12404.371552 kJ/mol
# Density = 1.958150 g / cm^3
# Si number density = 19.626169 Si / 1000 Ang^3
#
#
#
# Elastic Constant Matrix: (Units=GPa)
#
#
# Indices 1 2 3 4 5 6 
#
# 1 152.4095 40.9951 49.8238 0.0000 4.7000 0.0001
# 2 40.9951 65.8419 35.7450 0.0000 0.9248 0.0006
# 3 49.8238 35.7450 104.4261 -0.0001 11.2387 0.0001
# 4 0.0000 0.0000 -0.0001 28.9852 0.0000 6.6326
# 5 4.7000 0.9248 11.2387 0.0000 39.8431 -0.0001
# 6 0.0001 0.0006 0.0001 6.6326 -0.0001 28.3297
#
#
#
# Elastic Compliance Matrix: (Units=1/GPa)
#
#
# Indices 1 2 3 4 5 6 
#
# 1 0.008479 -0.003795 -0.002732 0.000000 -0.000142 0.000000
# 2 -0.003795 0.020430 -0.005342 0.000000 0.001480 0.000000
# 3 -0.002732 -0.005342 0.013056 0.000000 -0.003237 0.000000
# 4 0.000000 0.000000 0.000000 0.036453 0.000000 -0.008535
# 5 -0.000142 0.001480 -0.003237 0.000000 0.025994 0.000000
# 6 0.000000 0.000000 0.000000 -0.008535 0.000000 0.037297
#
#
# Mechanical properties :
#
#
# Convention : Reuss Voigt Hill
#
# Bulk Modulus (GPa) = 54.85665 63.97836 59.41751
# Shear Modulus (GPa) = 29.15083 32.50582 30.82833
#
# Velocity S-wave (km/s) = 3.85815 4.07412 3.96760
# Velocity P-wave (km/s) = 6.91798 7.40274 7.16446
#
# Compressibility (1/GPa) = 0.01822933
#
# Stress axis : x y z
#
# Youngs Moduli (GPa) = 117.93508 48.94815 76.59133
#
# Poissons Ratio (x) = 0.18573 0.20921
# Poissons Ratio (y) = 0.44751 0.40915
# Poissons Ratio (z) = 0.32214 0.26148
#
# Static dielectric constant tensor:
#      x y z
#    x 3.751680 0.000000 0.030890 
#    y 0.000000 3.361200 0.000000 
#    z 0.030890 0.000000 3.718390 
# 
# 
# High freq. dielectric constant tensor:
#      x y z
#    x 1.774020 0.000000 0.005170 
#    y 0.000000 1.741360 0.000000 
#    z 0.005170 0.000000 1.775400 
# 
# From -- ./inp_files/280986.got.cif
#   From: 2010.06.25/outbox.cif.g09.slc.cpg/sg12_141_cif.got.tgz:280986.got - 2010.06.28 00:19:55.
