data_PCOD8097005
_publ_section_title
;
Structure prediction by ZEFSAII (Michael W. Deem and Ramdas Pophale) SiO2 
 PCOD8097005
Probable space group: C 2/M
;
_chemical_formula_sum "Si O2"
_cell_formula_units_Z 64
_cell_length_a 20.323516
_cell_length_b 8.927429
_cell_length_c 22.182621
_cell_angle_alpha 90.000000
_cell_angle_beta 62.821518
_cell_angle_gamma 90.000000
_cell_volume 3580.362610
_symmetry_space_group_name_H-M "C 2/M"
_symmetry_group_IT_number 12
_symmetry_cell_setting 'monoclinic'
loop_
_space_group_symop_operation_xyz
x,y,z
-x,y,-z
-x,-y,-z
x,-y,z
1/2+x,1/2+y,z
1/2-x,1/2+y,-z
1/2-x,1/2-y,-z
1/2+x,1/2-y,z
loop_
_atom_site_type_symbol
_atom_site_label
_atom_site_fract_x
_atom_site_fract_y
_atom_site_fract_z
Si Si1 0.828129 0.823058 0.953986
Si Si2 0.842027 0.176187 0.701600
Si Si3 0.708379 0.675513 0.699983
Si Si4 0.030058 0.675460 0.053586
Si Si5 0.096603 0.824616 0.200276
Si Si6 0.782405 0.676152 0.545412
Si Si7 0.583236 0.324579 0.453259
Si Si8 0.546413 0.322260 0.805929
O O1 0.890774 0.755481 0.971403
O O2 0.847095 0.783657 0.876831
O O3 0.824773 0.000000 0.966376
O O4 0.750000 0.750000 0.000000
O O5 0.761303 0.245467 0.725942
O O6 0.876391 0.248094 0.748172
O O7 0.896279 0.217695 0.623873
O O8 0.831328 0.000000 0.711949
O O9 0.717445 0.500000 0.705320
O O10 0.730034 0.722790 0.623170
O O11 0.625233 0.728815 0.747403
O O12 0.040524 0.500000 0.060983
O O13 0.968911 0.741129 0.124579
O O14 0.000000 0.709664 0.000000
O O15 0.014582 0.767894 0.217247
O O16 0.093016 0.000000 0.212010
O O17 0.785412 0.500000 0.534961
O O18 0.750000 0.750000 0.500000
O O19 0.864919 0.736244 0.522022
O O20 0.500000 0.271779 0.500000
O O21 0.593413 0.500000 0.461563
O O22 0.541113 0.500000 0.818892
#
# Coordination Sequence:
#
# PCOD8097005 Si02
#       8
#     8   8   8   8   8   8   8   8
#     4  10  20  35  54  75 102 134 170 211 255 304
#     4   9  17  31  51  72  97 129 163 200 243 296
#     4   9  19  34  51  73 101 131 163 205 254 300
#     4  10  21  36  53  75 104 136 171 211 254 301
#     4   8  16  31  50  71  94 124 161 200 242 290
#     4  10  20  34  52  74 103 136 170 210 254 301
#     4   9  18  32  51  75 101 131 168 207 248 298
#     4   9  18  34  54  74  98 130 169 209 251 300
#
# _framework density 17.875284000000001
#
# number of rings (size 3 to 8) (size 9 to 14) (size 15 to 20)
#    0.000    2.750    0.000    1.875    0.000    4.250 
#    0.000   10.625    0.000    0.000    0.000    0.000 
#    0.000    0.000    0.000    0.000    0.000    0.000 
#
# Total GULP energy -396800.737247 kJ/mol
# GULP energy per Si atom -12400.023039 kJ/mol
# Density = 1.783460 g / cm^3
# Si number density = 17.875284 Si / 1000 Ang^3
#
#
#
# Elastic Constant Matrix: (Units=GPa)
#
#
# Indices 1 2 3 4 5 6 
#
# 1 170.2975 60.5801 110.3161 -0.0001 -0.9492 -0.0006
# 2 60.5801 53.3631 44.7351 -0.0005 0.6451 -0.0025
# 3 110.3161 44.7351 112.7117 0.0000 -0.8011 -0.0001
# 4 -0.0001 -0.0005 0.0000 24.4748 0.0001 -1.1099
# 5 -0.9492 0.6451 -0.8011 0.0001 43.0226 -0.0001
# 6 -0.0006 -0.0025 -0.0001 -1.1099 -0.0001 32.9557
#
#
#
# Elastic Compliance Matrix: (Units=1/GPa)
#
#
# Indices 1 2 3 4 5 6 
#
# 1 0.018384 -0.008679 -0.014547 0.000000 0.000265 0.000000
# 2 -0.008679 0.032198 -0.004290 0.000001 -0.000754 0.000002
# 3 -0.014547 -0.004290 0.024814 0.000000 0.000205 0.000000
# 4 0.000000 0.000001 0.000000 0.040921 0.000000 0.001378
# 5 0.000265 -0.000754 0.000205 0.000000 0.023265 0.000000
# 6 0.000000 0.000002 0.000000 0.001378 0.000000 0.030390
#
#
# Mechanical properties :
#
#
# Convention : Reuss Voigt Hill
#
# Bulk Modulus (GPa) = 49.10590 85.29277 67.19933
# Shear Modulus (GPa) = 21.57108 28.14003 24.85555
#
# Velocity S-wave (km/s) = 3.47761 3.97198 3.73298
# Velocity P-wave (km/s) = 6.60727 8.29786 7.50035
#
# Compressibility (1/GPa) = 0.02036415
#
# Stress axis : x y z
#
# Youngs Moduli (GPa) = 54.39474 31.05799 40.29948
#
# Poissons Ratio (x) = 0.26954 0.58623
# Poissons Ratio (y) = 0.47208 0.17290
# Poissons Ratio (z) = 0.79128 0.13325
#
# Static dielectric constant tensor:
#      x y z
#    x 3.665780 0.000000 -0.027260 
#    y 0.000000 3.204800 0.000000 
#    z -0.027260 0.000000 3.463410 
# 
# 
# High freq. dielectric constant tensor:
#      x y z
#    x 1.699920 0.000000 0.000420 
#    y 0.000000 1.681650 0.000000 
#    z 0.000420 0.000000 1.691360 
# 
# From -- ./inp_files/319962.got.cif
#   From: 2010.06.25/outbox.cif.g09.slc.cpg/sg12_160_cif.got.tgz:319962.got - 2010.06.28 00:19:55.
