data_PCOD8097002
_publ_section_title
;
Structure prediction by ZEFSAII (Michael W. Deem and Ramdas Pophale) SiO2 
 PCOD8097002
Probable space group: C 2/M
;
_chemical_formula_sum "Si O2"
_cell_formula_units_Z 56
_cell_length_a 18.917421
_cell_length_b 9.116409
_cell_length_c 24.068975
_cell_angle_alpha 90.000000
_cell_angle_beta 43.469487
_cell_angle_gamma 90.000000
_cell_volume 2855.694050
_symmetry_space_group_name_H-M "C 2/M"
_symmetry_group_IT_number 12
_symmetry_cell_setting 'monoclinic'
loop_
_space_group_symop_operation_xyz
x,y,z
-x,y,-z
-x,-y,-z
x,-y,z
1/2+x,1/2+y,z
1/2-x,1/2+y,-z
1/2-x,1/2-y,-z
1/2+x,1/2-y,z
loop_
_atom_site_type_symbol
_atom_site_label
_atom_site_fract_x
_atom_site_fract_y
_atom_site_fract_z
Si Si1 0.642134 0.831047 0.565240
Si Si2 0.239388 0.336852 0.683680
Si Si3 0.462108 0.330737 0.193367
Si Si4 0.210087 0.169121 0.222936
Si Si5 0.078226 0.833269 0.500298
Si Si6 0.422691 0.329408 0.092414
Si Si7 0.462916 0.829947 0.748519
O O1 0.750000 0.750000 0.500000
O O2 0.568710 0.768895 0.559074
O O3 0.578687 0.807422 0.658381
O O4 0.665624 0.000000 0.541401
O O5 0.188268 0.500000 0.715606
O O6 0.154864 0.211927 0.726658
O O7 0.307218 0.313208 0.700811
O O8 0.307730 0.326565 0.589804
O O9 0.478336 0.500000 0.198683
O O10 0.481256 0.297377 0.117330
O O11 0.539424 0.238181 0.188157
O O12 0.320734 0.233941 0.143512
O O13 0.120366 0.253421 0.242684
O O14 0.207088 0.000000 0.206363
O O15 0.000000 0.769408 0.500000
O O16 0.048747 0.000000 0.533588
O O17 0.391554 0.500000 0.106506
O O18 0.500000 0.282654 0.000000
O O19 0.433987 0.000000 0.768592
#
# Coordination Sequence:
#
# PCOD8097002 Si02
#       7
#     8   8   8   8   8   8   8
#     4  11  24  38  53  75 105 144 187 231 277 323
#     4   9  18  33  52  75 104 138 176 220 271 322
#     4  10  20  34  56  82 105 136 178 217 257 314
#     4  10  20  35  58  85 111 142 182 225 267 317
#     4  10  20  34  52  74 102 137 177 223 275 324
#     4   9  19  38  62  87 116 145 172 210 264 323
#     4  11  23  38  54  76 110 147 183 225 274 323
#
# _framework density 19.609943000000001
#
# number of rings (size 3 to 8) (size 9 to 14) (size 15 to 20)
#    0.000    2.000    0.000    3.429    0.000    9.143 
#    0.000    0.714    0.000    0.000    0.000    0.000 
#    0.000    0.000    0.000    0.000    0.000    0.000 
#
# Total GULP energy -347222.906081 kJ/mol
# GULP energy per Si atom -12400.818074 kJ/mol
# Density = 1.956531 g / cm^3
# Si number density = 19.609943 Si / 1000 Ang^3
#
#
#
# Elastic Constant Matrix: (Units=GPa)
#
#
# Indices 1 2 3 4 5 6 
#
# 1 87.8812 52.1382 12.8505 0.0000 12.3346 0.0000
# 2 52.1382 117.2908 37.9859 0.0000 7.5055 -0.0001
# 3 12.8505 37.9859 62.6252 0.0000 12.9019 0.0000
# 4 0.0000 0.0000 0.0000 23.5176 0.0000 -1.5360
# 5 12.3346 7.5055 12.9019 0.0000 24.6810 0.0000
# 6 0.0000 -0.0001 0.0000 -1.5360 0.0000 39.7476
#
#
#
# Elastic Compliance Matrix: (Units=1/GPa)
#
#
# Indices 1 2 3 4 5 6 
#
# 1 0.016670 -0.007869 0.002886 0.000000 -0.007447 0.000000
# 2 -0.007869 0.014325 -0.007830 0.000000 0.003669 0.000000
# 3 0.002886 -0.007830 0.022337 0.000000 -0.010738 0.000000
# 4 0.000000 0.000000 0.000000 0.042629 0.000000 0.001647
# 5 -0.007447 0.003669 -0.010738 0.000000 0.048736 0.000000
# 6 0.000000 0.000000 0.000000 0.001647 0.000000 0.025222
#
#
# Mechanical properties :
#
#
# Convention : Reuss Voigt Hill
#
# Bulk Modulus (GPa) = 36.09097 52.63849 44.36473
# Shear Modulus (GPa) = 24.41634 28.57740 26.49687
#
# Velocity S-wave (km/s) = 3.53243 3.82159 3.67985
# Velocity P-wave (km/s) = 5.92298 6.80983 6.38183
#
# Compressibility (1/GPa) = 0.02770776
#
# Stress axis : x y z
#
# Youngs Moduli (GPa) = 59.98630 69.80997 44.76792
#
# Poissons Ratio (x) = 0.54930 -0.12921
# Poissons Ratio (y) = 0.47201 0.35054
# Poissons Ratio (z) = -0.17314 0.54662
#
# Static dielectric constant tensor:
#      x y z
#    x 3.631740 0.000000 0.235130 
#    y 0.000000 3.635090 0.000000 
#    z 0.235130 0.000000 3.444150 
# 
# 
# High freq. dielectric constant tensor:
#      x y z
#    x 1.773090 0.000000 0.013860 
#    y 0.000000 1.768350 0.000000 
#    z 0.013860 0.000000 1.742490 
# 
# From -- ./inp_files/342231.got.cif
#   From: 2010.06.25/outbox.cif.g09.slc.cpg/sg12_172_cif.got.tgz:342231.got - 2010.06.28 00:19:55.
