data_PCOD8097145
_publ_section_title
;
Structure prediction by ZEFSAII (Michael W. Deem and Ramdas Pophale) SiO2 
 PCOD8097145
Probable space group: C 2/M
;
_chemical_formula_sum "Si O2"
_cell_formula_units_Z 44
_cell_length_a 23.331297
_cell_length_b 14.921449
_cell_length_c 19.476780
_cell_angle_alpha 90.000000
_cell_angle_beta 19.646921
_cell_angle_gamma 90.000000
_cell_volume 2279.787517
_symmetry_space_group_name_H-M "C 2/M"
_symmetry_group_IT_number 12
_symmetry_cell_setting 'monoclinic'
loop_
_space_group_symop_operation_xyz
x,y,z
-x,y,-z
-x,-y,-z
x,-y,z
1/2+x,1/2+y,z
1/2-x,1/2+y,-z
1/2-x,1/2-y,-z
1/2+x,1/2-y,z
loop_
_atom_site_type_symbol
_atom_site_label
_atom_site_fract_x
_atom_site_fract_y
_atom_site_fract_z
Si Si1 0.187529 0.000000 0.566029
Si Si2 0.746585 0.500000 0.338304
Si Si3 0.860438 0.000000 0.749859
Si Si4 0.804960 0.000000 0.974329
Si Si5 0.000000 0.354076 0.000000
Si Si6 0.375582 0.174139 0.382793
Si Si7 0.672964 0.821217 0.937268
Si Si8 0.346116 0.192435 0.834686
O O1 0.267951 0.915193 0.512535
O O2 0.986804 0.000000 0.806189
O O3 0.225239 0.000000 0.443443
O O4 0.563201 0.500000 0.507486
O O5 0.849977 0.412139 0.202196
O O6 0.821546 0.000000 0.874164
O O7 0.776815 0.913224 0.809009
O O8 0.707518 0.911137 0.108323
O O9 0.917517 0.294022 0.032443
O O10 0.250000 0.250000 0.500000
O O11 0.454007 0.197556 0.369665
O O12 0.530528 0.161194 0.155381
O O13 0.803783 0.741261 0.810283
O O14 0.250000 0.250000 0.000000
#
# Coordination Sequence:
#
# PCOD8097145 Si02
#       8
#     4   4   4   4   4   8   8   8
#     4  11  19  32  53  82 110 145 173 222 277 328
#     4  10  22  33  55  82 113 156 182 225 265 344
#     4  11  20  34  56  82 117 148 187 216 285 334
#     4  11  19  34  56  79 115 144 175 228 281 337
#     4  11  22  38  52  77 116 150 196 223 278 317
#     4  11  21  33  53  81 109 142 183 226 278 328
#     4  11  22  36  53  77 112 151 183 232 266 341
#     4  10  20  34  52  78 105 146 179 224 282 328
#
# _framework density 19.300042999999999
#
# number of rings (size 3 to 8) (size 9 to 14) (size 15 to 20)
#    0.000    1.273    5.455    4.364    2.545    1.455 
#    0.000    0.000    0.000    0.545    0.000    0.000 
#    0.000    7.273    0.000    0.000    0.000    1.091 
#
# Total GULP energy -272754.047331 kJ/mol
# GULP energy per Si atom -12397.911242 kJ/mol
# Density = 1.925612 g / cm^3
# Si number density = 19.300043 Si / 1000 Ang^3
#
#
#
# Elastic Constant Matrix: (Units=GPa)
#
#
# Indices 1 2 3 4 5 6 
#
# 1 134.6177 52.0604 36.0860 -0.0077 -49.7105 -0.0508
# 2 52.0604 148.8356 39.9184 0.0113 -32.6559 -0.0414
# 3 36.0860 39.9184 88.2167 0.0050 -37.8869 -0.0647
# 4 -0.0077 0.0113 0.0050 27.2608 -0.0019 -11.6347
# 5 -49.7105 -32.6559 -37.8869 -0.0019 40.1341 0.0148
# 6 -0.0508 -0.0414 -0.0647 -11.6347 0.0148 45.4283
#
#
#
# Elastic Compliance Matrix: (Units=1/GPa)
#
#
# Indices 1 2 3 4 5 6 
#
# 1 0.014431 -0.001613 0.003262 0.000012 0.019641 0.000016
# 2 -0.001613 0.008466 -0.001801 -0.000003 0.003191 0.000002
# 3 0.003262 -0.001801 0.020052 0.000011 0.021505 0.000026
# 4 0.000012 -0.000003 0.000011 0.041185 0.000021 0.010548
# 5 0.019641 0.003191 0.021505 0.000021 0.072141 0.000038
# 6 0.000016 0.000002 0.000026 0.010548 0.000038 0.024714
#
#
# Mechanical properties :
#
#
# Convention : Reuss Voigt Hill
#
# Bulk Modulus (GPa) = 23.44925 69.75552 46.60239
# Shear Modulus (GPa) = 25.57463 38.80499 32.18981
#
# Velocity S-wave (km/s) = 3.64415 4.48885 4.08838
# Velocity P-wave (km/s) = 5.46650 7.94277 6.81800
#
# Compressibility (1/GPa) = 0.04264529
#
# Stress axis : x y z
#
# Youngs Moduli (GPa) = 69.29680 118.11811 49.87085
#
# Poissons Ratio (x) = 0.19054 -0.16269
# Poissons Ratio (y) = 0.11179 0.08981
# Poissons Ratio (z) = -0.22607 0.21271
#
# Static dielectric constant tensor:
#      x y z
#    x 3.918880 0.008530 -0.646890 
#    y 0.008530 -2.938400 -0.001700 
#    z -0.646890 -0.001700 3.730620 
# 
# 
# High freq. dielectric constant tensor:
#      x y z
#    x 1.743940 0.000000 -0.047910 
#    y 0.000000 1.740760 0.000000 
#    z -0.047910 0.000000 1.738420 
# 
# From -- ./inp_files/325832.got.cif
#   From: 2010.06.25/outbox.cif.g09.slc.cpg/sg12_163_cif.got.tgz:325832.got - 2010.06.28 00:19:55.
