data_PCOD8097053
_publ_section_title
;
Structure prediction by ZEFSAII (Michael W. Deem and Ramdas Pophale) SiO2 
 PCOD8097053
Probable space group: C 2/M
;
_chemical_formula_sum "Si O2"
_cell_formula_units_Z 56
_cell_length_a 8.478380
_cell_length_b 11.091758
_cell_length_c 31.773718
_cell_angle_alpha 90.000000
_cell_angle_beta 66.646063
_cell_angle_gamma 90.000000
_cell_volume 2743.208431
_symmetry_space_group_name_H-M "C 2/M"
_symmetry_group_IT_number 12
_symmetry_cell_setting 'monoclinic'
loop_
_space_group_symop_operation_xyz
x,y,z
-x,y,-z
-x,-y,-z
x,-y,z
1/2+x,1/2+y,z
1/2-x,1/2+y,-z
1/2-x,1/2-y,-z
1/2+x,1/2-y,z
loop_
_atom_site_type_symbol
_atom_site_label
_atom_site_fract_x
_atom_site_fract_y
_atom_site_fract_z
Si Si1 0.390754 0.290482 0.391931
Si Si2 0.741729 0.133058 0.666158
Si Si3 0.957291 0.137785 0.809289
Si Si4 0.722596 0.130150 0.911481
Si Si5 0.022931 0.634908 0.451314
Si Si6 0.306720 0.138282 0.232618
Si Si7 0.576766 0.688370 0.032735
O O1 0.374924 0.216893 0.350347
O O2 0.560465 0.370554 0.369886
O O3 0.221810 0.370226 0.416224
O O4 0.405848 0.204829 0.430687
O O5 0.727290 0.174693 0.715764
O O6 0.665820 0.000000 0.669062
O O7 0.812044 0.169419 0.858861
O O8 0.874852 0.137960 0.771795
O O9 0.086713 0.250787 0.798876
O O10 0.033803 0.000000 0.809252
O O11 0.569133 0.217402 0.939051
O O12 0.871631 0.113746 0.931547
O O13 0.635806 0.000000 0.914534
O O14 0.949802 0.500000 0.460236
O O15 0.000000 0.694227 0.500000
O O16 0.386472 0.000000 0.220227
O O17 0.500000 0.615238 0.000000
O O18 0.750000 0.750000 0.000000
#
# Coordination Sequence:
#
# PCOD8097053 Si02
#       7
#     8   8   8   8   8   8   8
#     4  10  20  34  53  76 103 136 173 214 260 313
#     4  10  20  35  54  77 105 137 174 216 264 316
#     4  10  21  37  57  82 111 145 184 224 270 326
#     4  10  20  36  56  76 106 143 176 218 269 318
#     4  10  20  34  52  75 103 135 172 214 260 310
#     4  10  21  37  57  81 110 143 180 225 273 322
#     4   9  19  34  53  79 106 135 176 218 259 316
#
# _framework density 20.414051000000001
#
# number of rings (size 3 to 8) (size 9 to 14) (size 15 to 20)
#    0.000    2.143    0.000    3.000    0.000    3.429 
#    0.000    6.429    0.000    6.857    0.000    0.000 
#    0.000    0.000    0.000    0.000    0.000    0.000 
#
# Total GULP energy -346878.658305 kJ/mol
# GULP energy per Si atom -12388.523511 kJ/mol
# Density = 2.036759 g / cm^3
# Si number density = 20.414051 Si / 1000 Ang^3
#
#
#
# Elastic Constant Matrix: (Units=GPa)
#
#
# Indices 1 2 3 4 5 6 
#
# 1 56.6422 11.9608 7.6760 0.0000 9.6377 0.0000
# 2 11.9608 89.0003 17.7606 0.0000 -9.1766 0.0000
# 3 7.6760 17.7606 79.4169 0.0000 14.6830 0.0000
# 4 0.0000 0.0000 0.0000 22.7532 0.0000 7.2844
# 5 9.6377 -9.1766 14.6830 0.0000 38.6556 0.0000
# 6 0.0000 0.0000 0.0000 7.2844 0.0000 2.7750
#
#
#
# Elastic Compliance Matrix: (Units=1/GPa)
#
#
# Indices 1 2 3 4 5 6 
#
# 1 0.019269 -0.003126 -0.000148 0.000000 -0.005490 0.000000
# 2 -0.003126 0.012897 -0.003541 0.000000 0.005186 0.000000
# 3 -0.000148 -0.003541 0.014570 0.000000 -0.006338 0.000000
# 4 0.000000 0.000000 0.000000 0.275399 0.000000 -0.722939
# 5 -0.005490 0.005186 -0.006338 0.000000 0.030877 0.000000
# 6 0.000000 0.000000 0.000000 -0.722939 0.000000 2.258128
#
#
# Mechanical properties :
#
#
# Convention : Reuss Voigt Hill
#
# Bulk Modulus (GPa) = 30.20656 33.31713 31.76184
# Shear Modulus (GPa) = 1.89695 25.34755 13.62225
#
# Velocity S-wave (km/s) = 0.96502 3.52756 2.58601
# Velocity P-wave (km/s) = 4.00883 5.74001 4.95068
#
# Compressibility (1/GPa) = 0.03310540
#
# Stress axis : x y z
#
# Youngs Moduli (GPa) = 51.89680 77.53511 68.63512
#
# Poissons Ratio (x) = 0.24238 0.01018
# Poissons Ratio (y) = 0.16223 0.24304
# Poissons Ratio (z) = 0.00770 0.27455
#
# Static dielectric constant tensor:
#      x y z
#    x 3.787930 0.000000 0.361010 
#    y 0.000000 3.596160 0.000000 
#    z 0.361010 0.000000 3.877460 
# 
# 
# High freq. dielectric constant tensor:
#      x y z
#    x 1.789450 0.000000 0.019100 
#    y 0.000000 1.791040 0.000000 
#    z 0.019100 0.000000 1.811330 
# 
# From -- ./inp_files/355765.got.cif
#   From: 2010.06.25/outbox.cif.g09.slc.cpg/sg12_178_cif.got.tgz:355765.got - 2010.06.28 00:19:55.
