data_PCOD8097309
_publ_section_title
;
Structure prediction by ZEFSAII (Michael W. Deem and Ramdas Pophale) SiO2 
 PCOD8097309
Probable space group: C 2/M
;
_chemical_formula_sum "Si O2"
_cell_formula_units_Z 64
_cell_length_a 18.177653
_cell_length_b 9.109414
_cell_length_c 30.478998
_cell_angle_alpha 90.000000
_cell_angle_beta 138.257317
_cell_angle_gamma 90.000000
_cell_volume 3360.190069
_symmetry_space_group_name_H-M "C 2/M"
_symmetry_group_IT_number 12
_symmetry_cell_setting 'monoclinic'
loop_
_space_group_symop_operation_xyz
x,y,z
-x,y,-z
-x,-y,-z
x,-y,z
1/2+x,1/2+y,z
1/2-x,1/2+y,-z
1/2-x,1/2-y,-z
1/2+x,1/2-y,z
loop_
_atom_site_type_symbol
_atom_site_label
_atom_site_fract_x
_atom_site_fract_y
_atom_site_fract_z
Si Si1 0.575820 0.329106 0.422141
Si Si2 0.270963 0.172583 0.184988
Si Si3 0.364684 0.826678 0.059860
Si Si4 0.310785 0.171086 0.689636
Si Si5 0.271206 0.831824 0.573389
Si Si6 0.849537 0.672274 0.316664
Si Si7 0.559281 0.173729 0.811572
Si Si8 0.541497 0.172710 0.066000
O O1 0.552055 0.500000 0.405301
O O2 0.631855 0.268681 0.402869
O O3 0.654854 0.297006 0.498702
O O4 0.462373 0.247855 0.381866
O O5 0.324734 0.211680 0.255409
O O6 0.353169 0.236834 0.184498
O O7 0.154165 0.249402 0.128476
O O8 0.252361 0.000000 0.171363
O O9 0.410720 0.768944 0.126732
O O10 0.450199 0.778692 0.060520
O O11 0.346053 0.000000 0.051797
O O12 0.250000 0.750000 0.000000
O O13 0.256558 0.200527 0.618182
O O14 0.249286 0.266858 0.698124
O O15 0.436972 0.226819 0.744556
O O16 0.303205 0.000000 0.699438
O O17 0.307363 0.000000 0.581391
O O18 0.860651 0.500000 0.329192
O O19 0.563766 0.000000 0.811681
O O20 0.562751 0.000000 0.076565
O O21 0.500000 0.225069 0.000000
#
# Coordination Sequence:
#
# PCOD8097309 Si02
#       8
#     8   8   8   8   8   8   8   8
#     4  10  20  35  57  83 110 144 184 222 270 332
#     4  10  21  37  57  79 104 139 182 225 269 319
#     4  10  20  34  53  77 105 137 174 213 256 311
#     4  10  20  37  59  79 106 144 181 221 274 332
#     4   9  19  36  58  83 110 141 180 227 274 325
#     4  11  23  37  53  78 112 144 181 231 279 323
#     4   9  18  34  56  78 100 133 177 219 262 316
#     4  10  21  36  54  80 113 143 173 217 272 324
#
# _framework density 19.046541000000001
#
# number of rings (size 3 to 8) (size 9 to 14) (size 15 to 20)
#    0.000    2.125    0.000    3.000    0.000    6.250 
#    0.000    3.750    0.000    0.000    0.000    0.000 
#    0.000    0.000    0.000    0.000    0.000    0.000 
#
# Total GULP energy -396934.639760 kJ/mol
# GULP energy per Si atom -12404.207492 kJ/mol
# Density = 1.900319 g / cm^3
# Si number density = 19.046541 Si / 1000 Ang^3
#
#
#
# Elastic Constant Matrix: (Units=GPa)
#
#
# Indices 1 2 3 4 5 6 
#
# 1 164.3293 50.9389 74.9446 0.0000 3.2275 0.0000
# 2 50.9389 57.6737 47.0768 0.0001 5.3610 -0.0001
# 3 74.9446 47.0768 119.6182 0.0000 7.1925 0.0000
# 4 0.0000 0.0001 0.0000 30.1028 0.0000 6.4667
# 5 3.2275 5.3610 7.1925 0.0000 38.7767 0.0000
# 6 0.0000 -0.0001 0.0000 6.4667 0.0000 32.3137
#
#
#
# Elastic Compliance Matrix: (Units=1/GPa)
#
#
# Indices 1 2 3 4 5 6 
#
# 1 0.009484 -0.005238 -0.003920 0.000000 0.000662 0.000000
# 2 -0.005238 0.028548 -0.007830 0.000000 -0.002059 0.000000
# 3 -0.003920 -0.007830 0.013969 0.000000 -0.001182 0.000000
# 4 0.000000 0.000000 0.000000 0.034712 0.000000 -0.006947
# 5 0.000662 -0.002059 -0.001182 0.000000 0.026237 0.000000
# 6 0.000000 0.000000 0.000000 -0.006947 0.000000 0.032337
#
#
# Mechanical properties :
#
#
# Convention : Reuss Voigt Hill
#
# Bulk Modulus (GPa) = 55.48062 76.39352 65.93707
# Shear Modulus (GPa) = 26.98762 31.48269 29.23515
#
# Velocity S-wave (km/s) = 3.76830 4.07004 3.92207
# Velocity P-wave (km/s) = 6.93726 7.89195 7.42996
#
# Compressibility (1/GPa) = 0.01802431
#
# Stress axis : x y z
#
# Youngs Moduli (GPa) = 105.44149 35.02926 71.58888
#
# Poissons Ratio (x) = 0.18348 0.28065
# Poissons Ratio (y) = 0.55230 0.56051
# Poissons Ratio (z) = 0.41337 0.27427
#
# Static dielectric constant tensor:
#      x y z
#    x 3.661660 0.000000 -0.134270 
#    y 0.000000 3.338080 0.000000 
#    z -0.134270 0.000000 3.656620 
# 
# 
# High freq. dielectric constant tensor:
#      x y z
#    x 1.750760 0.000000 -0.000860 
#    y 0.000000 1.723610 0.000000 
#    z -0.000860 0.000000 1.754990 
# 
# From -- ./inp_files/378322.got.cif
#   From: 2010.06.25/outbox.cif.g09.slc.cpg/sg12_190_cif.got.tgz:378322.got - 2010.06.28 00:19:55.
