data_PCOD8097302
_publ_section_title
;
Structure prediction by ZEFSAII (Michael W. Deem and Ramdas Pophale) SiO2 
 PCOD8097302
Probable space group: C 2/M
;
_chemical_formula_sum "Si O2"
_cell_formula_units_Z 64
_cell_length_a 20.257970
_cell_length_b 8.861866
_cell_length_c 22.120722
_cell_angle_alpha 90.000000
_cell_angle_beta 62.666214
_cell_angle_gamma 90.000000
_cell_volume 3527.791066
_symmetry_space_group_name_H-M "C 2/M"
_symmetry_group_IT_number 12
_symmetry_cell_setting 'monoclinic'
loop_
_space_group_symop_operation_xyz
x,y,z
-x,y,-z
-x,-y,-z
x,-y,z
1/2+x,1/2+y,z
1/2-x,1/2+y,-z
1/2-x,1/2-y,-z
1/2+x,1/2-y,z
loop_
_atom_site_type_symbol
_atom_site_label
_atom_site_fract_x
_atom_site_fract_y
_atom_site_fract_z
Si Si1 0.825822 0.678328 0.946395
Si Si2 0.836841 0.174509 0.702299
Si Si3 0.701069 0.675963 0.702945
Si Si4 0.025771 0.677512 0.052550
Si Si5 0.095558 0.822015 0.197769
Si Si6 0.782218 0.675671 0.545541
Si Si7 0.582678 0.324426 0.453760
Si Si8 0.545363 0.178929 0.794862
O O1 0.817114 0.500000 0.943056
O O2 0.888912 0.720243 0.969152
O O3 0.847607 0.746433 0.872752
O O4 0.750000 0.750000 0.000000
O O5 0.762799 0.273853 0.725555
O O6 0.876160 0.220263 0.747697
O O7 0.895324 0.209558 0.624586
O O8 0.812662 0.000000 0.711971
O O9 0.684123 0.500000 0.718504
O O10 0.729364 0.715195 0.624081
O O11 0.627474 0.771568 0.743925
O O12 0.016871 0.500000 0.050953
O O13 0.973360 0.734606 0.129146
O O14 0.000000 0.753555 0.000000
O O15 0.012790 0.755887 0.226346
O O16 0.093750 0.000000 0.187422
O O17 0.787836 0.500000 0.532073
O O18 0.750000 0.750000 0.500000
O O19 0.864425 0.737425 0.522347
O O20 0.500000 0.263678 0.500000
O O21 0.588851 0.500000 0.466790
O O22 0.536719 0.000000 0.792531
#
# Coordination Sequence:
#
# PCOD8097302 Si02
#       8
#     8   8   8   8   8   8   8   8
#     4  10  20  34  53  77 104 135 173 218 268 318
#     4   9  19  35  54  76 103 138 177 215 260 313
#     4  10  21  36  54  77 106 138 173 217 265 311
#     4   8  16  32  52  73  98 130 169 210 251 300
#     4  10  20  35  54  76 106 142 179 219 263 312
#     4  10  21  36  54  77 105 138 175 215 261 312
#     4   9  18  34  55  78 105 136 172 216 263 312
#     4  10  20  34  54  79 106 138 176 217 263 314
#
# _framework density 18.141663999999999
#
# number of rings (size 3 to 8) (size 9 to 14) (size 15 to 20)
#    0.000    2.500    0.000    2.625    0.000    4.750 
#    0.000    5.000    0.000   12.750    0.000    0.000 
#    0.000    0.000    0.000    0.000    0.000    0.000 
#
# Total GULP energy -396846.569295 kJ/mol
# GULP energy per Si atom -12401.455290 kJ/mol
# Density = 1.810037 g / cm^3
# Si number density = 18.141664 Si / 1000 Ang^3
#
#
#
# Elastic Constant Matrix: (Units=GPa)
#
#
# Indices 1 2 3 4 5 6 
#
# 1 158.5479 63.8649 96.9617 0.0001 3.9371 -0.0002
# 2 63.8649 76.1854 50.4696 -0.0001 1.0226 -0.0012
# 3 96.9617 50.4696 96.3459 0.0000 3.1807 0.0000
# 4 0.0001 -0.0001 0.0000 28.0936 0.0001 -2.4506
# 5 3.9371 1.0226 3.1807 0.0001 42.7089 0.0001
# 6 -0.0002 -0.0012 0.0000 -2.4506 0.0001 35.3905
#
#
#
# Elastic Compliance Matrix: (Units=1/GPa)
#
#
# Indices 1 2 3 4 5 6 
#
# 1 0.017388 -0.004574 -0.015091 0.000000 -0.000370 0.000000
# 2 -0.004574 0.021309 -0.006572 0.000000 0.000401 0.000001
# 3 -0.015091 -0.006572 0.029029 0.000000 -0.000613 0.000000
# 4 0.000000 0.000000 0.000000 0.035812 0.000000 0.002480
# 5 -0.000370 0.000401 -0.000613 0.000000 0.023484 0.000000
# 6 0.000000 0.000001 0.000000 0.002480 0.000000 0.028428
#
#
# Mechanical properties :
#
#
# Convention : Reuss Voigt Hill
#
# Bulk Modulus (GPa) = 65.56527 83.74130 74.65328
# Shear Modulus (GPa) = 23.47335 29.22413 26.34874
#
# Velocity S-wave (km/s) = 3.60097 4.01794 3.81516
# Velocity P-wave (km/s) = 7.31495 8.23316 7.78760
#
# Compressibility (1/GPa) = 0.01525198
#
# Stress axis : x y z
#
# Youngs Moduli (GPa) = 57.51188 46.92936 34.44777
#
# Poissons Ratio (x) = 0.21465 0.51984
# Poissons Ratio (y) = 0.26306 0.22640
# Poissons Ratio (z) = 0.86789 0.30843
#
# Static dielectric constant tensor:
#      x y z
#    x 3.472900 0.000000 0.080440 
#    y 0.000000 3.334210 0.000000 
#    z 0.080440 0.000000 3.422840 
# 
# 
# High freq. dielectric constant tensor:
#      x y z
#    x 1.710100 0.000000 0.000150 
#    y 0.000000 1.701290 0.000000 
#    z 0.000150 0.000000 1.702680 
# 
# From -- ./inp_files/319964.got.cif
#   From: 2010.06.25/outbox.cif.g09.slc.cpg/sg12_160_cif.got.tgz:319964.got - 2010.06.28 00:19:55.
