data_PCOD8097538
_publ_section_title
;
Structure prediction by ZEFSAII (Michael W. Deem and Ramdas Pophale) SiO2 
 PCOD8097538
Probable space group: C 2/M
;
_chemical_formula_sum "Si O2"
_cell_formula_units_Z 56
_cell_length_a 9.002793
_cell_length_b 10.438529
_cell_length_c 34.714758
_cell_angle_alpha 90.000000
_cell_angle_beta 121.243215
_cell_angle_gamma 90.000000
_cell_volume 2789.223144
_symmetry_space_group_name_H-M "C 2/M"
_symmetry_group_IT_number 12
_symmetry_cell_setting 'monoclinic'
loop_
_space_group_symop_operation_xyz
x,y,z
-x,y,-z
-x,-y,-z
x,-y,z
1/2+x,1/2+y,z
1/2-x,1/2+y,-z
1/2-x,1/2-y,-z
1/2+x,1/2-y,z
loop_
_atom_site_type_symbol
_atom_site_label
_atom_site_fract_x
_atom_site_fract_y
_atom_site_fract_z
Si Si1 0.972480 0.352889 0.402885
Si Si2 0.639061 0.852889 0.902885
Si Si3 0.033028 0.250000 0.250000
Si Si4 0.867380 0.855321 0.448577
Si Si5 0.837691 0.357282 0.807667
Si Si6 0.573070 0.855321 0.051423
Si Si7 0.892977 0.642718 0.307667
O O1 0.901364 0.500000 0.398241
O O2 0.175309 0.350622 0.440323
O O3 0.875467 0.253090 0.417177
O O4 0.937037 0.297953 0.355148
O O5 0.483555 0.797953 0.855148
O O6 0.585984 0.850622 0.940323
O O7 0.793240 0.753090 0.917177
O O8 0.691600 0.000000 0.898241
O O9 0.102659 0.355708 0.229116
O O10 0.186194 0.144292 0.270884
O O11 0.847446 0.206793 0.209173
O O12 0.010753 0.293207 0.290827
O O13 0.000000 0.819112 0.500000
O O14 0.905701 0.000000 0.437774
O O15 0.809559 0.500000 0.817612
O O16 0.654603 0.000000 0.062226
O O17 0.500000 0.819113 0.000000
O O18 0.960886 0.500000 0.317611
#
# Coordination Sequence:
#
# PCOD8097538 Si02
#       7
#     8   8   8   8   8   8   8
#     4  10  21  36  55  80 109 140 178 223 267 317
#     4  10  21  36  55  80 109 140 178 223 267 317
#     4  10  20  34  54  76 102 138 174 212 264 318
#     4  10  21  37  56  80 110 143 180 222 269 321
#     4  10  20  35  53  76 105 136 174 218 263 313
#     4  10  21  37  56  80 110 143 180 222 269 321
#     4  10  20  35  53  76 105 136 174 218 263 313
#
# _framework density 20.077276000000001
#
# number of rings (size 3 to 8) (size 9 to 14) (size 15 to 20)
#    0.000    2.000    0.000    3.429    0.000    1.714 
#    0.000    7.143    0.000    0.000    0.000    0.000 
#    0.000    0.000    0.000    0.000    0.000    0.000 
#
# Total GULP energy -347020.972807 kJ/mol
# GULP energy per Si atom -12393.606172 kJ/mol
# Density = 2.003158 g / cm^3
# Si number density = 20.077276 Si / 1000 Ang^3
#
#
#
# Elastic Constant Matrix: (Units=GPa)
#
#
# Indices 1 2 3 4 5 6 
#
# 1 67.8228 19.9160 2.8638 0.0000 0.7375 0.0000
# 2 19.9160 69.1893 13.6911 0.0000 -0.3365 0.0000
# 3 2.8638 13.6911 69.4446 0.0000 -0.6499 0.0000
# 4 0.0000 0.0000 0.0000 31.0270 0.0000 0.4810
# 5 0.7375 -0.3365 -0.6499 0.0000 39.2251 0.0000
# 6 0.0000 0.0000 0.0000 0.4810 0.0000 22.1293
#
#
#
# Elastic Compliance Matrix: (Units=1/GPa)
#
#
# Indices 1 2 3 4 5 6 
#
# 1 0.016115 -0.004691 0.000257 0.000000 -0.000339 0.000000
# 2 -0.004691 0.016406 -0.003039 0.000000 0.000179 0.000000
# 3 0.000257 -0.003039 0.014991 0.000000 0.000217 0.000000
# 4 0.000000 0.000000 0.000000 0.032241 0.000000 -0.000701
# 5 -0.000339 0.000179 0.000217 0.000000 0.025505 0.000000
# 6 0.000000 0.000000 0.000000 -0.000701 0.000000 0.045204
#
#
# Mechanical properties :
#
#
# Convention : Reuss Voigt Hill
#
# Bulk Modulus (GPa) = 30.70830 31.04427 30.87629
# Shear Modulus (GPa) = 28.36676 29.80868 29.08772
#
# Velocity S-wave (km/s) = 3.76291 3.85736 3.81042
# Velocity P-wave (km/s) = 5.84872 5.94432 5.89671
#
# Compressibility (1/GPa) = 0.03256448
#
# Stress axis : x y z
#
# Youngs Moduli (GPa) = 62.05527 60.95441 66.70850
#
# Poissons Ratio (x) = 0.28594 -0.01715
# Poissons Ratio (y) = 0.29111 0.20275
# Poissons Ratio (z) = -0.01596 0.18526
#
# Static dielectric constant tensor:
#      x y z
#    x 3.492890 0.000000 0.022120 
#    y 0.000000 3.631820 0.000000 
#    z 0.022120 0.000000 3.902140 
# 
# 
# High freq. dielectric constant tensor:
#      x y z
#    x 1.776540 0.000000 0.001090 
#    y 0.000000 1.774700 0.000000 
#    z 0.001090 0.000000 1.796710 
# 
# From -- ./inp_files/355854.got.cif
#   From: 2010.06.25/outbox.cif.g09.slc.cpg/sg12_178_cif.got.tgz:355854.got - 2010.06.28 00:19:55.
