data_PCOD8097840
_publ_section_title
;
Structure prediction by ZEFSAII (Michael W. Deem and Ramdas Pophale) SiO2 
 PCOD8097840
Probable space group: C 2/M
;
_chemical_formula_sum "Si O2"
_cell_formula_units_Z 56
_cell_length_a 14.477444
_cell_length_b 13.967719
_cell_length_c 25.344467
_cell_angle_alpha 90.000000
_cell_angle_beta 30.183541
_cell_angle_gamma 90.000000
_cell_volume 2576.744320
_symmetry_space_group_name_H-M "C 2/M"
_symmetry_group_IT_number 12
_symmetry_cell_setting 'monoclinic'
loop_
_space_group_symop_operation_xyz
x,y,z
-x,y,-z
-x,-y,-z
x,-y,z
1/2+x,1/2+y,z
1/2-x,1/2+y,-z
1/2-x,1/2-y,-z
1/2+x,1/2-y,z
loop_
_atom_site_type_symbol
_atom_site_label
_atom_site_fract_x
_atom_site_fract_y
_atom_site_fract_z
Si Si1 0.187662 0.788282 0.922377
Si Si2 0.518717 0.766253 0.305782
Si Si3 0.811295 0.612726 0.696112
Si Si4 0.104638 0.396642 0.010117
Si Si5 0.248541 0.614000 0.748554
Si Si6 0.697663 0.267771 0.382327
Si Si7 0.917690 0.104575 0.932726
O O1 0.352741 0.811624 0.802960
O O2 0.141210 0.674887 0.943472
O O3 0.214222 0.823613 0.968985
O O4 0.000000 0.845425 0.000000
O O5 0.519906 0.845242 0.352165
O O6 0.592293 0.666324 0.294809
O O7 0.323161 0.759214 0.373267
O O8 0.832020 0.500000 0.677906
O O9 0.811685 0.661881 0.638554
O O10 0.622678 0.643119 0.819143
O O11 0.046009 0.500000 0.016557
O O12 0.948624 0.361573 0.128256
O O13 0.307780 0.404854 0.933313
O O14 0.288312 0.500000 0.726851
O O15 0.238835 0.655809 0.693600
O O16 0.500000 0.301609 0.500000
O O17 0.931634 0.000000 0.953087
#
# Coordination Sequence:
#
# PCOD8097840 Si02
#       7
#     8   8   8   8   8   8   8
#     4  12  19  31  55  85 116 154 186 226 279 339
#     4  11  23  40  61  91 123 157 200 248 293 351
#     4  10  22  41  62  89 123 157 197 247 299 354
#     4  10  20  34  54  82 118 157 193 231 280 344
#     4  10  22  41  62  89 123 157 197 247 299 354
#     4  11  25  44  65  87 115 154 203 255 308 358
#     4  10  20  34  54  82 118 157 193 231 280 344
#
# _framework density 21.732851
#
# number of rings (size 3 to 8) (size 9 to 14) (size 15 to 20)
#    0.000    1.429    2.857    3.000    0.000    5.714 
#    0.000    1.429    0.000    0.000    0.000    0.000 
#    0.000    0.000    0.000    0.000    0.000    0.000 
#
# Total GULP energy -346870.337177 kJ/mol
# GULP energy per Si atom -12388.226328 kJ/mol
# Density = 2.168339 g / cm^3
# Si number density = 21.732851 Si / 1000 Ang^3
#
#
#
# Elastic Constant Matrix: (Units=GPa)
#
#
# Indices 1 2 3 4 5 6 
#
# 1 142.2684 37.0967 22.9145 -0.0135 -18.7430 -0.0142
# 2 37.0967 76.6900 5.3143 0.0325 3.0342 0.0266
# 3 22.9145 5.3143 58.0516 0.1550 -8.1767 0.1364
# 4 -0.0135 0.0325 0.1550 652.0659 -0.0051 601.9897
# 5 -18.7430 3.0342 -8.1767 -0.0051 26.8335 -0.0035
# 6 -0.0142 0.0266 0.1364 601.9897 -0.0035 586.2064
#
#
#
# Elastic Compliance Matrix: (Units=1/GPa)
#
#
# Indices 1 2 3 4 5 6 
#
# 1 0.009481 -0.004673 -0.002411 0.000002 0.006416 -0.000001
# 2 -0.004673 0.015523 -0.000296 -0.000002 -0.005110 0.000002
# 3 -0.002411 -0.000296 0.018778 -0.000008 0.004072 0.000004
# 4 0.000002 -0.000002 -0.000008 0.029526 0.000001 -0.030321
# 5 0.006416 -0.005110 0.004072 0.000001 0.043567 -0.000001
# 6 -0.000001 0.000002 0.000004 -0.030321 -0.000001 0.032844
#
#
# Mechanical properties :
#
#
# Convention : Reuss Voigt Hill
#
# Bulk Modulus (GPa) = 34.45669 45.29565 39.87617
# Shear Modulus (GPa) = 28.71035 267.13346 147.92190
#
# Velocity S-wave (km/s) = 3.63858 11.09882 8.25903
# Velocity P-wave (km/s) = 5.79150 13.60633 10.45643
#
# Compressibility (1/GPa) = 0.02902194
#
# Stress axis : x y z
#
# Youngs Moduli (GPa) = 105.47327 64.42205 53.25291
#
# Poissons Ratio (x) = 0.30104 0.12839
# Poissons Ratio (y) = 0.49288 0.01577
# Poissons Ratio (z) = 0.25429 0.01908
#
# Static dielectric constant tensor:
#      x y z
#    x 4.072650 0.000000 0.006410 
#    y 0.000000 4.073100 0.000000 
#    z 0.006410 0.000000 3.616810 
# 
# 
# High freq. dielectric constant tensor:
#      x y z
#    x 1.870250 0.000000 0.003500 
#    y 0.000000 1.854790 0.000000 
#    z 0.003500 0.000000 1.823670 
# 
# From -- ./inp_files/246626.got.cif
#   From: 2010.06.25/outbox.cif.g09.slc.cpg/sg12_124_cif.got.tgz:246626.got - 2010.06.28 00:19:55.
