data_PCOD8097369
_publ_section_title
;
Structure prediction by ZEFSAII (Michael W. Deem and Ramdas Pophale) SiO2 
 PCOD8097369
Probable space group: C 2/M
;
_chemical_formula_sum "Si O2"
_cell_formula_units_Z 48
_cell_length_a 23.569771
_cell_length_b 8.559910
_cell_length_c 13.771959
_cell_angle_alpha 90.000000
_cell_angle_beta 71.491186
_cell_angle_gamma 90.000000
_cell_volume 2634.841570
_symmetry_space_group_name_H-M "C 2/M"
_symmetry_group_IT_number 12
_symmetry_cell_setting 'monoclinic'
loop_
_space_group_symop_operation_xyz
x,y,z
-x,y,-z
-x,-y,-z
x,-y,z
1/2+x,1/2+y,z
1/2-x,1/2+y,-z
1/2-x,1/2-y,-z
1/2+x,1/2-y,z
loop_
_atom_site_type_symbol
_atom_site_label
_atom_site_fract_x
_atom_site_fract_y
_atom_site_fract_z
Si Si1 0.558311 0.179881 0.079892
Si Si2 0.743450 0.819930 0.896439
Si Si3 0.979697 0.317453 0.615859
Si Si4 0.546017 0.678105 0.751114
Si Si5 0.627335 0.681395 0.872804
Si Si6 0.124648 0.820871 0.211228
O O1 0.503556 0.289754 0.139776
O O2 0.612877 0.213451 0.123709
O O3 0.538578 0.000000 0.096818
O O4 0.580212 0.218391 0.960482
O O5 0.694853 0.732143 0.857236
O O6 0.805302 0.801380 0.802592
O O7 0.724666 0.000000 0.917247
O O8 0.750000 0.750000 0.000000
O O9 0.966348 0.500000 0.620776
O O10 0.917812 0.231544 0.677063
O O11 0.000000 0.255198 0.500000
O O12 0.033035 0.284463 0.664054
O O13 0.541565 0.500000 0.718719
O O14 0.610207 0.710882 0.768263
O O15 0.619907 0.500000 0.903640
O O16 0.109961 0.000000 0.193260
#
# Coordination Sequence:
#
# PCOD8097369 Si02
#       6
#     8   8   8   8   8   8
#     4  11  20  30  49  74 104 142 178 216 261 310
#     4  11  22  34  52  76 107 147 184 218 257 305
#     4  10  21  37  59  84 106 131 168 219 274 322
#     4  10  21  35  52  75 104 138 175 218 266 316
#     4  11  22  34  49  72 106 145 181 216 257 309
#     4  10  20  34  53  78 107 139 178 219 260 311
#
# _framework density 18.217413000000001
#
# number of rings (size 3 to 8) (size 9 to 14) (size 15 to 20)
#    0.000    1.500    1.667    6.500    0.000    8.000 
#    0.000    0.000    0.000    1.000    0.000    0.000 
#    0.000    0.000    0.000    0.000    0.000    0.000 
#
# Total GULP energy -297548.424447 kJ/mol
# GULP energy per Si atom -12397.851019 kJ/mol
# Density = 1.817595 g / cm^3
# Si number density = 18.217413 Si / 1000 Ang^3
#
#
#
# Elastic Constant Matrix: (Units=GPa)
#
#
# Indices 1 2 3 4 5 6 
#
# 1 107.6113 18.2053 43.2990 0.0000 15.5888 0.0000
# 2 18.2053 68.9303 23.3782 0.0000 2.3809 0.0000
# 3 43.2990 23.3782 97.9334 0.0000 6.4591 0.0000
# 4 0.0000 0.0000 0.0000 24.7706 0.0000 -0.1543
# 5 15.5888 2.3809 6.4591 0.0000 13.1909 0.0000
# 6 0.0000 0.0000 0.0000 -0.1543 0.0000 29.7497
#
#
#
# Elastic Compliance Matrix: (Units=1/GPa)
#
#
# Indices 1 2 3 4 5 6 
#
# 1 0.013336 -0.001482 -0.004672 0.000000 -0.013205 0.000000
# 2 -0.001482 0.015964 -0.003184 0.000000 0.000429 0.000000
# 3 -0.004672 -0.003184 0.013056 0.000000 -0.000298 0.000000
# 4 0.000000 0.000000 0.000000 0.040372 0.000000 0.000209
# 5 -0.013205 0.000429 -0.000298 0.000000 0.091484 0.000000
# 6 0.000000 0.000000 0.000000 0.000209 0.000000 0.033615
#
#
# Mechanical properties :
#
#
# Convention : Reuss Voigt Hill
#
# Bulk Modulus (GPa) = 42.22708 49.36002 45.79355
# Shear Modulus (GPa) = 21.33151 26.18174 23.75662
#
# Velocity S-wave (km/s) = 3.42561 3.79513 3.61510
# Velocity P-wave (km/s) = 6.23508 6.80866 6.52817
#
# Compressibility (1/GPa) = 0.02368148
#
# Stress axis : x y z
#
# Youngs Moduli (GPa) = 74.98512 62.64174 76.59231
#
# Poissons Ratio (x) = 0.09281 0.35781
# Poissons Ratio (y) = 0.11110 0.24387
# Poissons Ratio (z) = 0.35030 0.19945
#
# Static dielectric constant tensor:
#      x y z
#    x 3.544450 0.000000 0.065700 
#    y 0.000000 3.512610 0.000000 
#    z 0.065700 0.000000 3.139130 
# 
# 
# High freq. dielectric constant tensor:
#      x y z
#    x 1.708630 0.000000 0.006670 
#    y 0.000000 1.723000 0.000000 
#    z 0.006670 0.000000 1.665260 
# 
# From -- ./inp_files/236595.got.cif
#   From: 2010.06.25/outbox.cif.g09.slc.cpg/sg12_119_cif.got.tgz:236595.got - 2010.06.28 00:19:55.
