data_PCOD8097651
_publ_section_title
;
Structure prediction by ZEFSAII (Michael W. Deem and Ramdas Pophale) SiO2 
 PCOD8097651
Probable space group: C 2/M
;
_chemical_formula_sum "Si O2"
_cell_formula_units_Z 48
_cell_length_a 31.740604
_cell_length_b 8.443814
_cell_length_c 15.821786
_cell_angle_alpha 90.000000
_cell_angle_beta 36.757444
_cell_angle_gamma 90.000000
_cell_volume 2537.591798
_symmetry_space_group_name_H-M "C 2/M"
_symmetry_group_IT_number 12
_symmetry_cell_setting 'monoclinic'
loop_
_space_group_symop_operation_xyz
x,y,z
-x,y,-z
-x,-y,-z
x,-y,z
1/2+x,1/2+y,z
1/2-x,1/2+y,-z
1/2-x,1/2-y,-z
1/2+x,1/2-y,z
loop_
_atom_site_type_symbol
_atom_site_label
_atom_site_fract_x
_atom_site_fract_y
_atom_site_fract_z
Si Si1 0.739977 0.313968 0.254900
Si Si2 0.092347 0.184084 0.415655
Si Si3 0.279989 0.312465 0.364921
Si Si4 0.068528 0.812806 0.934351
Si Si5 0.383116 0.314961 0.962870
Si Si6 0.551575 0.182256 0.308314
O O1 0.752864 0.500000 0.222535
O O2 0.666950 0.258206 0.331122
O O3 0.737194 0.269659 0.358085
O O4 0.800764 0.218536 0.108783
O O5 0.089182 0.215123 0.320499
O O6 0.031163 0.277509 0.563377
O O7 0.080881 0.000000 0.452156
O O8 0.271449 0.500000 0.370658
O O9 0.250000 0.250000 0.500000
O O10 0.361755 0.260503 0.228341
O O11 0.061998 0.000000 0.943050
O O12 0.074231 0.757530 0.022517
O O13 0.000000 0.734940 0.000000
O O14 0.394090 0.500000 0.927671
O O15 0.411998 0.215367 0.838928
O O16 0.561227 0.000000 0.316546
#
# Coordination Sequence:
#
# PCOD8097651 Si02
#       6
#     8   8   8   8   8   8
#     4  10  21  37  57  80 107 141 181 226 272 319
#     4  10  21  38  58  79 106 141 181 223 270 324
#     4  10  20  34  54  79 108 142 178 221 270 320
#     4   8  16  32  53  76 101 133 175 217 257 305
#     4  10  20  35  56  80 109 144 179 220 269 321
#     4  11  22  36  56  81 110 141 176 222 271 321
#
# _framework density 18.915572999999998
#
# number of rings (size 3 to 8) (size 9 to 14) (size 15 to 20)
#    0.000    2.167    0.000    5.500    0.000    4.667 
#    0.000    3.333    0.000   17.000    0.000    0.000 
#    0.000    0.000    0.000    0.000    0.000    0.000 
#
# Total GULP energy -297644.074276 kJ/mol
# GULP energy per Si atom -12401.836428 kJ/mol
# Density = 1.887252 g / cm^3
# Si number density = 18.915573 Si / 1000 Ang^3
#
#
#
# Elastic Constant Matrix: (Units=GPa)
#
#
# Indices 1 2 3 4 5 6 
#
# 1 135.7699 10.5204 73.1335 -0.0002 -20.7124 0.0000
# 2 10.5204 43.0136 8.1680 -0.0018 -6.1750 0.0002
# 3 73.1335 8.1680 113.9837 -0.0009 12.9352 0.0001
# 4 -0.0002 -0.0018 -0.0009 32.7790 0.0001 2.4093
# 5 -20.7124 -6.1750 12.9352 0.0001 32.6830 0.0000
# 6 0.0000 0.0002 0.0001 2.4093 0.0000 26.6949
#
#
#
# Elastic Compliance Matrix: (Units=1/GPa)
#
#
# Indices 1 2 3 4 5 6 
#
# 1 0.016171 0.000523 -0.012132 0.000000 0.015149 0.000000
# 2 0.000523 0.024519 -0.002781 0.000001 0.006065 0.000000
# 3 -0.012132 -0.002781 0.018521 0.000000 -0.015544 0.000000
# 4 0.000000 0.000001 0.000000 0.030711 0.000000 -0.002772
# 5 0.015149 0.006065 -0.015544 0.000000 0.047495 0.000000
# 6 0.000000 0.000000 0.000000 -0.002772 0.000000 0.037710
#
#
# Mechanical properties :
#
#
# Convention : Reuss Voigt Hill
#
# Bulk Modulus (GPa) = 32.86112 52.93454 42.89783
# Shear Modulus (GPa) = 23.35898 31.82774 27.59336
#
# Velocity S-wave (km/s) = 3.51794 4.10643 3.82352
# Velocity P-wave (km/s) = 5.82335 7.10838 6.49771
#
# Compressibility (1/GPa) = 0.03043110
#
# Stress axis : x y z
#
# Youngs Moduli (GPa) = 61.83966 40.78428 53.99407
#
# Poissons Ratio (x) = -0.02135 0.65506
# Poissons Ratio (y) = -0.03237 0.15016
# Poissons Ratio (z) = 0.75024 0.11343
#
# Static dielectric constant tensor:
#      x y z
#    x 3.668430 0.000000 -0.044090 
#    y 0.000000 3.434060 0.000000 
#    z -0.044090 0.000000 3.337540 
# 
# 
# High freq. dielectric constant tensor:
#      x y z
#    x 1.738130 0.000000 -0.000170 
#    y 0.000000 1.732870 0.000000 
#    z -0.000170 0.000000 1.736660 
# 
# From -- ./inp_files/248821.got.cif
#   From: 2010.06.25/outbox.cif.g09.slc.cpg/sg12_125_cif.got.tgz:248821.got - 2010.06.28 00:19:55.
