data_PCOD8097024
_publ_section_title
;
Structure prediction by ZEFSAII (Michael W. Deem and Ramdas Pophale) SiO2 
 PCOD8097024
Probable space group: C 2/M
;
_chemical_formula_sum "Si O2"
_cell_formula_units_Z 64
_cell_length_a 14.135812
_cell_length_b 9.193720
_cell_length_c 26.106723
_cell_angle_alpha 90.000000
_cell_angle_beta 88.389281
_cell_angle_gamma 90.000000
_cell_volume 3391.507328
_symmetry_space_group_name_H-M "C 2/M"
_symmetry_group_IT_number 12
_symmetry_cell_setting 'monoclinic'
loop_
_space_group_symop_operation_xyz
x,y,z
-x,y,-z
-x,-y,-z
x,-y,z
1/2+x,1/2+y,z
1/2-x,1/2+y,-z
1/2-x,1/2-y,-z
1/2+x,1/2-y,z
loop_
_atom_site_type_symbol
_atom_site_label
_atom_site_fract_x
_atom_site_fract_y
_atom_site_fract_z
Si Si1 0.386871 0.168600 0.359965
Si Si2 0.099653 0.330399 0.376290
Si Si3 0.416712 0.669898 0.893387
Si Si4 0.888531 0.664569 0.992788
Si Si5 0.746445 0.668524 0.709854
Si Si6 0.633436 0.666981 0.908928
Si Si7 0.766178 0.829577 0.552710
Si Si8 0.711837 0.829745 0.176644
O O1 0.493117 0.223676 0.368218
O O2 0.344284 0.250374 0.311721
O O3 0.325473 0.201871 0.411233
O O4 0.386337 0.000000 0.345997
O O5 0.102906 0.500000 0.391618
O O6 0.159469 0.299256 0.324245
O O7 0.140641 0.236943 0.422442
O O8 0.393754 0.500000 0.896374
O O9 0.527675 0.702521 0.892608
O O10 0.378123 0.738703 0.841450
O O11 0.363590 0.748675 0.941485
O O12 0.851783 0.500000 0.987343
O O13 0.836857 0.738918 0.041933
O O14 0.000000 0.670842 0.000000
O O15 0.720417 0.500000 0.710315
O O16 0.764416 0.725137 0.766833
O O17 0.643125 0.500000 0.925328
O O18 0.699081 0.707425 0.860366
O O19 0.750000 0.750000 0.500000
O O20 0.782220 0.000000 0.543371
O O21 0.686250 0.000000 0.176451
#
# Coordination Sequence:
#
# PCOD8097024 Si02
#       8
#     8   8   8   8   8   8   8   8
#     4   9  19  35  55  77 103 137 175 212 254 301
#     4   9  18  35  56  77 103 138 176 212 253 301
#     4  10  20  34  52  74  99 130 166 203 247 301
#     4   9  17  31  52  75  98 126 162 204 248 297
#     4   9  19  35  54  75 101 132 169 213 256 298
#     4   9  19  35  52  71 100 133 163 199 247 303
#     4  10  20  34  52  78 111 143 174 212 254 297
#     4  10  21  36  52  74 103 133 165 205 254 303
#
# _framework density 18.870664999999999
#
# number of rings (size 3 to 8) (size 9 to 14) (size 15 to 20)
#    0.000    2.625    0.000    1.125    0.000    6.000 
#    0.000    2.500    0.000    0.000    0.000    0.000 
#    0.000    0.000    0.000    0.000    0.000    0.000 
#
# Total GULP energy -396908.163817 kJ/mol
# GULP energy per Si atom -12403.380119 kJ/mol
# Density = 1.882771 g / cm^3
# Si number density = 18.870665 Si / 1000 Ang^3
#
#
#
# Elastic Constant Matrix: (Units=GPa)
#
#
# Indices 1 2 3 4 5 6 
#
# 1 95.0724 36.0760 43.5484 0.0000 17.4161 0.0000
# 2 36.0760 77.9495 54.9346 0.0000 13.9411 0.0000
# 3 43.5484 54.9346 138.9760 0.0000 24.6252 0.0000
# 4 0.0000 0.0000 0.0000 34.7330 0.0000 7.7143
# 5 17.4161 13.9411 24.6252 0.0000 24.4449 0.0000
# 6 0.0000 0.0000 0.0000 7.7143 0.0000 26.9452
#
#
#
# Elastic Compliance Matrix: (Units=1/GPa)
#
#
# Indices 1 2 3 4 5 6 
#
# 1 0.013962 -0.004245 -0.001660 0.000000 -0.005854 0.000000
# 2 -0.004245 0.019356 -0.005966 0.000000 -0.002005 0.000000
# 3 -0.001660 -0.005966 0.011274 0.000000 -0.006772 0.000000
# 4 0.000000 0.000000 0.000000 0.030746 0.000000 -0.008803
# 5 -0.005854 -0.002005 -0.006772 0.000000 0.053045 0.000000
# 6 0.000000 0.000000 0.000000 -0.008803 0.000000 0.039633
#
#
# Mechanical properties :
#
#
# Convention : Reuss Voigt Hill
#
# Bulk Modulus (GPa) = 47.95944 64.56843 56.26394
# Shear Modulus (GPa) = 25.16275 29.05388 27.10831
#
# Velocity S-wave (km/s) = 3.65558 3.92807 3.79427
# Velocity P-wave (km/s) = 6.57934 7.40699 7.00540
#
# Compressibility (1/GPa) = 0.02085095
#
# Stress axis : x y z
#
# Youngs Moduli (GPa) = 71.62420 51.66251 88.70256
#
# Poissons Ratio (x) = 0.21931 0.14721
# Poissons Ratio (y) = 0.30404 0.52918
# Poissons Ratio (z) = 0.11887 0.30821
#
# Static dielectric constant tensor:
#      x y z
#    x 3.497860 0.000000 0.052110 
#    y 0.000000 3.459270 0.000000 
#    z 0.052110 0.000000 3.493980 
# 
# 
# High freq. dielectric constant tensor:
#      x y z
#    x 1.734870 0.000000 0.006020 
#    y 0.000000 1.732090 0.000000 
#    z 0.006020 0.000000 1.730990 
# 
# From -- ./inp_files/338797.got.cif
#   From: 2010.06.25/outbox.cif.g09.slc.cpg/sg12_170_cif.got.tgz:338797.got - 2010.06.28 00:19:55.
