data_PCOD8097824
_publ_section_title
;
Structure prediction by ZEFSAII (Michael W. Deem and Ramdas Pophale) SiO2 
 PCOD8097824
Probable space group: C 2/M
;
_chemical_formula_sum "Si O2"
_cell_formula_units_Z 56
_cell_length_a 23.256842
_cell_length_b 8.497404
_cell_length_c 14.873156
_cell_angle_alpha 90.000000
_cell_angle_beta 70.509395
_cell_angle_gamma 90.000000
_cell_volume 2770.842914
_symmetry_space_group_name_H-M "C 2/M"
_symmetry_group_IT_number 12
_symmetry_cell_setting 'monoclinic'
loop_
_space_group_symop_operation_xyz
x,y,z
-x,y,-z
-x,-y,-z
x,-y,z
1/2+x,1/2+y,z
1/2-x,1/2+y,-z
1/2-x,1/2-y,-z
1/2+x,1/2-y,z
loop_
_atom_site_type_symbol
_atom_site_label
_atom_site_fract_x
_atom_site_fract_y
_atom_site_fract_z
Si Si1 0.096145 0.315242 0.740565
Si Si2 0.568899 0.317366 0.375635
Si Si3 0.322968 0.815945 0.794950
Si Si4 0.489804 0.319741 0.906246
Si Si5 0.062712 0.684359 0.565331
Si Si6 0.697144 0.814263 0.823579
Si Si7 0.848890 0.181794 0.967836
O O1 0.101163 0.500000 0.741581
O O2 0.099018 0.258073 0.635445
O O3 0.151755 0.245904 0.770400
O O4 0.030581 0.270807 0.813872
O O5 0.552519 0.500000 0.375763
O O6 0.621854 0.277094 0.278755
O O7 0.590267 0.278162 0.466205
O O8 0.508995 0.217417 0.384035
O O9 0.260735 0.775371 0.775442
O O10 0.313790 0.757825 0.902059
O O11 0.336533 0.000000 0.784009
O O12 0.511341 0.500000 0.896020
O O13 0.420501 0.301275 0.911456
O O14 0.500000 0.246667 0.000000
O O15 0.071820 0.500000 0.543687
O O16 0.707883 0.000000 0.809324
O O17 0.667889 0.777219 0.934893
O O18 0.829341 0.000000 0.989623
#
# Coordination Sequence:
#
# PCOD8097824 Si02
#       7
#     8   8   8   8   8   8   8
#     4  10  22  37  58  86 118 154 192 234 286 342
#     4  11  22  39  62  91 119 149 189 238 289 341
#     4  12  25  41  60  83 112 152 197 243 290 341
#     4  10  20  34  54  82 116 151 188 232 280 335
#     4  10  20  38  63  92 121 152 187 232 288 345
#     4  11  23  40  58  82 116 155 196 240 284 340
#     4  11  22  38  59  85 116 154 195 239 288 341
#
# _framework density 20.210456000000001
#
# number of rings (size 3 to 8) (size 9 to 14) (size 15 to 20)
#    0.000    1.286    1.429    6.000    0.000    5.429 
#    0.000    0.714    0.000    0.000    0.000    0.000 
#    0.000    0.000    0.000    0.000    0.000    0.000 
#
# Total GULP energy -347316.502811 kJ/mol
# GULP energy per Si atom -12404.160815 kJ/mol
# Density = 2.016446 g / cm^3
# Si number density = 20.210456 Si / 1000 Ang^3
#
#
#
# Elastic Constant Matrix: (Units=GPa)
#
#
# Indices 1 2 3 4 5 6 
#
# 1 72.6735 11.9787 23.9178 0.0000 15.3726 0.0000
# 2 11.9787 48.3290 18.1590 0.0000 10.0282 0.0000
# 3 23.9178 18.1590 88.9866 0.0000 19.7781 0.0000
# 4 0.0000 0.0000 0.0000 30.6125 0.0000 -6.7815
# 5 15.3726 10.0282 19.7781 0.0000 28.1169 0.0000
# 6 0.0000 0.0000 0.0000 -6.7815 0.0000 20.9227
#
#
#
# Elastic Compliance Matrix: (Units=1/GPa)
#
#
# Indices 1 2 3 4 5 6 
#
# 1 0.016260 -0.001719 -0.002584 0.000000 -0.006459 0.000000
# 2 -0.001719 0.023378 -0.003158 0.000000 -0.005177 0.000000
# 3 -0.002584 -0.003158 0.014238 0.000000 -0.007476 0.000000
# 4 0.000000 0.000000 0.000000 0.035193 0.000000 0.011407
# 5 -0.006459 -0.005177 -0.007476 0.000000 0.046203 0.000000
# 6 0.000000 0.000000 0.000000 0.011407 0.000000 0.051492
#
#
# Mechanical properties :
#
#
# Convention : Reuss Voigt Hill
#
# Bulk Modulus (GPa) = 25.67075 35.34446 30.50760
# Shear Modulus (GPa) = 23.29131 26.32599 24.80865
#
# Velocity S-wave (km/s) = 3.39844 3.61306 3.50739
# Velocity P-wave (km/s) = 5.30363 5.91031 5.61517
#
# Compressibility (1/GPa) = 0.03895484
#
# Stress axis : x y z
#
# Youngs Moduli (GPa) = 61.49956 42.77462 70.23291
#
# Poissons Ratio (x) = 0.07353 0.18148
# Poissons Ratio (y) = 0.10572 0.22180
# Poissons Ratio (z) = 0.15891 0.13508
#
# Static dielectric constant tensor:
#      x y z
#    x 3.858820 0.000000 0.306980 
#    y 0.000000 3.622770 0.000000 
#    z 0.306980 0.000000 3.769720 
# 
# 
# High freq. dielectric constant tensor:
#      x y z
#    x 1.788880 0.000000 0.012440 
#    y 0.000000 1.790820 0.000000 
#    z 0.012440 0.000000 1.788380 
# 
# From -- ./inp_files/237353.got.cif
#   From: 2010.06.25/outbox.cif.g09.slc.cpg/sg12_119_cif.got.tgz:237353.got - 2010.06.28 00:19:55.
