data_PCOD8097190
_publ_section_title
;
Structure prediction by ZEFSAII (Michael W. Deem and Ramdas Pophale) SiO2 
 PCOD8097190
Probable space group: C 2/M
;
_chemical_formula_sum "Si O2"
_cell_formula_units_Z 64
_cell_length_a 16.767952
_cell_length_b 27.222434
_cell_length_c 11.859984
_cell_angle_alpha 90.000000
_cell_angle_beta 142.818888
_cell_angle_gamma 90.000000
_cell_volume 3271.673103
_symmetry_space_group_name_H-M "C 2/M"
_symmetry_group_IT_number 12
_symmetry_cell_setting 'monoclinic'
loop_
_space_group_symop_operation_xyz
x,y,z
-x,y,-z
-x,-y,-z
x,-y,z
1/2+x,1/2+y,z
1/2-x,1/2+y,-z
1/2-x,1/2-y,-z
1/2+x,1/2-y,z
loop_
_atom_site_type_symbol
_atom_site_label
_atom_site_fract_x
_atom_site_fract_y
_atom_site_fract_z
Si Si1 0.362663 0.556427 0.787744
Si Si2 0.833962 0.358102 0.095198
Si Si3 0.363480 0.943339 0.289398
Si Si4 0.132827 0.775062 0.197709
Si Si5 0.563871 0.830416 0.188806
Si Si6 0.056325 0.168208 0.678193
Si Si7 0.186342 0.736119 0.809454
Si Si8 0.326216 0.356722 0.585141
O O1 0.357825 0.500000 0.742158
O O2 0.250453 0.568582 0.750807
O O3 0.343097 0.589410 0.655654
O O4 0.500000 0.569742 0.000000
O O5 0.838793 0.413256 0.147224
O O6 0.843762 0.321816 0.215228
O O7 0.963685 0.346464 0.171515
O O8 0.702224 0.351987 0.871420
O O9 0.500000 0.927618 0.500000
O O10 0.364252 0.000000 0.253728
O O11 0.090121 0.728040 0.223760
O O12 0.221986 0.755088 0.195847
O O13 0.205685 0.815630 0.355531
O O14 0.000000 0.800418 0.000000
O O15 0.702699 0.858433 0.361300
O O16 0.500000 0.847194 0.000000
O O17 0.062179 0.227092 0.660610
O O18 0.000000 0.143139 0.500000
O O19 0.960298 0.157719 0.673523
O O20 0.250000 0.750000 0.000000
#
# Coordination Sequence:
#
# PCOD8097190 Si02
#       8
#     8   8   8   8   8   8   8   8
#     4  10  21  38  60  88 117 141 173 227 291 342
#     4  11  21  37  58  80 110 148 187 224 275 334
#     4  10  21  38  60  87 114 140 176 226 285 340
#     4  11  20  34  55  83 117 148 187 231 276 331
#     4  11  23  38  53  77 114 153 190 231 278 325
#     4  11  22  37  55  79 112 151 191 230 274 324
#     4  10  20  34  52  80 116 151 183 221 273 333
#     4  12  22  36  59  84 110 148 194 231 275 334
#
# _framework density 19.561858000000001
#
# number of rings (size 3 to 8) (size 9 to 14) (size 15 to 20)
#    0.000    1.250    0.000    9.750    0.000    1.500 
#    0.000    0.000    0.000    4.500    0.000    0.000 
#    0.000    0.000    0.000    0.000    0.000    0.000 
#
# Total GULP energy -396812.240735 kJ/mol
# GULP energy per Si atom -12400.382523 kJ/mol
# Density = 1.951733 g / cm^3
# Si number density = 19.561858 Si / 1000 Ang^3
#
#
#
# Elastic Constant Matrix: (Units=GPa)
#
#
# Indices 1 2 3 4 5 6 
#
# 1 84.1406 42.8339 29.6025 0.0000 5.9695 0.0000
# 2 42.8339 101.2765 47.3676 0.0000 -9.2961 0.0000
# 3 29.6025 47.3676 103.6196 0.0000 4.8922 0.0000
# 4 0.0000 0.0000 0.0000 25.9937 0.0000 -3.7775
# 5 5.9695 -9.2961 4.8922 0.0000 34.5937 0.0000
# 6 0.0000 0.0000 0.0000 -3.7775 0.0000 14.8485
#
#
#
# Elastic Compliance Matrix: (Units=1/GPa)
#
#
# Indices 1 2 3 4 5 6 
#
# 1 0.015994 -0.006511 -0.001389 0.000000 -0.004313 0.000000
# 2 -0.006511 0.015851 -0.005678 0.000000 0.006186 0.000000
# 3 -0.001389 -0.005678 0.012789 0.000000 -0.003095 0.000000
# 4 0.000000 0.000000 0.000000 0.039948 0.000000 0.010163
# 5 -0.004313 0.006186 -0.003095 0.000000 0.031751 0.000000
# 6 0.000000 0.000000 0.000000 0.010163 0.000000 0.069932
#
#
# Mechanical properties :
#
#
# Convention : Reuss Voigt Hill
#
# Bulk Modulus (GPa) = 57.21389 58.73829 57.97609
# Shear Modulus (GPa) = 22.80523 26.36935 24.58729
#
# Velocity S-wave (km/s) = 3.41809 3.67549 3.54912
# Velocity P-wave (km/s) = 6.69992 6.93574 6.81885
#
# Compressibility (1/GPa) = 0.01747827
#
# Stress axis : x y z
#
# Youngs Moduli (GPa) = 62.52314 63.08749 78.19010
#
# Poissons Ratio (x) = 0.41074 0.10864
# Poissons Ratio (y) = 0.40706 0.44397
# Poissons Ratio (z) = 0.08687 0.35821
#
# Static dielectric constant tensor:
#      x y z
#    x 3.585020 0.000000 0.063730 
#    y 0.000000 3.613870 0.000000 
#    z 0.063730 0.000000 3.741810 
# 
# 
# High freq. dielectric constant tensor:
#      x y z
#    x 1.768940 0.000000 0.009810 
#    y 0.000000 1.740700 0.000000 
#    z 0.009810 0.000000 1.772010 
# 
# From -- ./inp_files/149793.got.cif
#   From: 2010.06.25/outbox.cif.g09.slc.cpg/sg12_75_cif.got.tgz:149793.got - 2010.06.28 00:19:55.
