data_PCOD8097890
_publ_section_title
;
Structure prediction by ZEFSAII (Michael W. Deem and Ramdas Pophale) SiO2 
 PCOD8097890
Probable space group: C 2/M
;
_chemical_formula_sum "Si O2"
_cell_formula_units_Z 64
_cell_length_a 12.083590
_cell_length_b 18.442364
_cell_length_c 15.366514
_cell_angle_alpha 90.000000
_cell_angle_beta 106.992845
_cell_angle_gamma 90.000000
_cell_volume 3274.920935
_symmetry_space_group_name_H-M "C 2/M"
_symmetry_group_IT_number 12
_symmetry_cell_setting 'monoclinic'
loop_
_space_group_symop_operation_xyz
x,y,z
-x,y,-z
-x,-y,-z
x,-y,z
1/2+x,1/2+y,z
1/2-x,1/2+y,-z
1/2-x,1/2-y,-z
1/2+x,1/2-y,z
loop_
_atom_site_type_symbol
_atom_site_label
_atom_site_fract_x
_atom_site_fract_y
_atom_site_fract_z
Si Si1 0.154603 0.414743 0.482405
Si Si2 0.079166 0.355684 0.641361
Si Si3 0.418668 0.286289 0.105223
Si Si4 0.143166 0.798090 0.720313
Si Si5 0.068580 0.418656 0.820848
Si Si6 0.382878 0.812876 0.859156
Si Si7 0.281940 0.848361 0.017377
Si Si8 0.619232 0.416103 0.573346
O O1 0.125897 0.500000 0.472129
O O2 0.158564 0.387888 0.582885
O O3 0.277318 0.396021 0.468354
O O4 0.055785 0.371136 0.408086
O O5 0.098751 0.269556 0.653406
O O6 0.117635 0.394666 0.738873
O O7 0.432423 0.308321 0.209317
O O8 0.542330 0.259166 0.098064
O O9 0.320646 0.222722 0.080887
O O10 0.357923 0.349193 0.031839
O O11 0.277732 0.787995 0.774936
O O12 0.128914 0.871485 0.663723
O O13 0.020742 0.500000 0.805462
O O14 0.174923 0.415759 0.914683
O O15 0.963280 0.366907 0.823120
O O16 0.345585 0.852266 0.938735
O O17 0.500000 0.395694 0.500000
O O18 0.623984 0.500000 0.601235
#
# Coordination Sequence:
#
# PCOD8097890 Si02
#       8
#     8   8   8   8   8   8   8   8
#     4  10  22  41  62  84 117 157 196 239 299 357
#     4  11  21  36  57  92 118 151 196 241 300 340
#     4   9  17  34  51  74 120 143 184 231 285 348
#     4  11  22  34  58  88 115 143 196 244 278 347
#     4  11  20  34  56  84 122 153 192 244 290 342
#     4  10  20  34  54  85 116 155 190 235 298 340
#     4   9  18  32  52  80 114 154 189 228 291 345
#     4  10  24  44  62  82 117 160 192 235 303 358
#
# _framework density 19.542456000000001
#
# number of rings (size 3 to 8) (size 9 to 14) (size 15 to 20)
#    0.000    1.875    2.500    3.750    1.750    4.000 
#    0.000    1.875    0.000    0.000    0.000    3.500 
#    0.000    0.000    0.000    0.000    0.000    0.000 
#
# Total GULP energy -396730.886578 kJ/mol
# GULP energy per Si atom -12397.840206 kJ/mol
# Density = 1.949798 g / cm^3
# Si number density = 19.542456 Si / 1000 Ang^3
#
#
#
# Elastic Constant Matrix: (Units=GPa)
#
#
# Indices 1 2 3 4 5 6 
#
# 1 73.8442 34.3106 45.7922 0.0000 17.8225 0.0000
# 2 34.3106 67.5856 45.4630 0.0000 3.4954 0.0000
# 3 45.7922 45.4630 127.8646 0.0000 -0.5312 0.0000
# 4 0.0000 0.0000 0.0000 26.4024 0.0000 3.0948
# 5 17.8225 3.4954 -0.5312 0.0000 29.2352 0.0000
# 6 0.0000 0.0000 0.0000 3.0948 0.0000 21.8623
#
#
#
# Elastic Compliance Matrix: (Units=1/GPa)
#
#
# Indices 1 2 3 4 5 6 
#
# 1 0.024113 -0.007457 -0.006042 0.000000 -0.013918 0.000000
# 2 -0.007457 0.021931 -0.005119 0.000000 0.001831 0.000000
# 3 -0.006042 -0.005119 0.011824 0.000000 0.004510 0.000000
# 4 0.000000 0.000000 0.000000 0.038514 0.000000 -0.005452
# 5 -0.013918 0.001831 0.004510 0.000000 0.042553 0.000000
# 6 0.000000 0.000000 0.000000 -0.005452 0.000000 0.046513
#
#
# Mechanical properties :
#
#
# Convention : Reuss Voigt Hill
#
# Bulk Modulus (GPa) = 48.47262 57.82511 53.14887
# Shear Modulus (GPa) = 21.78077 25.08190 23.43134
#
# Velocity S-wave (km/s) = 3.34209 3.58642 3.46641
# Velocity P-wave (km/s) = 6.30479 6.84132 6.57852
#
# Compressibility (1/GPa) = 0.02063020
#
# Stress axis : x y z
#
# Youngs Moduli (GPa) = 41.47197 45.59820 84.57713
#
# Poissons Ratio (x) = 0.34003 0.51101
# Poissons Ratio (y) = 0.30926 0.43298
# Poissons Ratio (z) = 0.25057 0.23343
#
# Static dielectric constant tensor:
#      x y z
#    x 3.627300 0.000000 0.098620 
#    y 0.000000 3.442850 0.000000 
#    z 0.098620 0.000000 3.825940 
# 
# 
# High freq. dielectric constant tensor:
#      x y z
#    x 1.752750 0.000000 -0.002000 
#    y 0.000000 1.732690 0.000000 
#    z -0.002000 0.000000 1.779990 
# 
# From -- ./inp_files/207712.got.cif
#   From: 2010.06.25/outbox.cif.g09.slc.cpg/sg12_104_cif.got.tgz:207712.got - 2010.06.28 00:19:55.
