data_PCOD8097906
_publ_section_title
;
Structure prediction by ZEFSAII (Michael W. Deem and Ramdas Pophale) SiO2 
 PCOD8097906
Probable space group: C 2/M
;
_chemical_formula_sum "Si O2"
_cell_formula_units_Z 64
_cell_length_a 22.719105
_cell_length_b 17.462326
_cell_length_c 16.666486
_cell_angle_alpha 90.000000
_cell_angle_beta 32.405768
_cell_angle_gamma 90.000000
_cell_volume 3543.485540
_symmetry_space_group_name_H-M "C 2/M"
_symmetry_group_IT_number 12
_symmetry_cell_setting 'monoclinic'
loop_
_space_group_symop_operation_xyz
x,y,z
-x,y,-z
-x,-y,-z
x,-y,z
1/2+x,1/2+y,z
1/2-x,1/2+y,-z
1/2-x,1/2-y,-z
1/2+x,1/2-y,z
loop_
_atom_site_type_symbol
_atom_site_label
_atom_site_fract_x
_atom_site_fract_y
_atom_site_fract_z
Si Si1 0.670796 0.591002 0.825244
Si Si2 0.863859 0.409455 0.319274
Si Si3 0.929142 0.154534 0.907786
Si Si4 0.613209 0.089069 0.342202
Si Si5 0.628014 0.083926 0.865961
Si Si6 0.598055 0.165845 0.058407
Si Si7 0.775702 0.588627 0.947633
Si Si8 0.654797 0.409298 0.660843
O O1 0.662632 0.500000 0.843125
O O2 0.787654 0.624185 0.720366
O O3 0.656008 0.617989 0.751565
O O4 0.579672 0.626003 0.989617
O O5 0.883888 0.500000 0.301974
O O6 0.824566 0.386574 0.274162
O O7 0.767859 0.381906 0.489382
O O8 0.978707 0.370698 0.211717
O O9 0.911511 0.244192 0.923562
O O10 0.051414 0.131983 0.737475
O O11 0.843178 0.113261 0.948074
O O12 0.500000 0.129392 0.500000
O O13 0.632440 0.102724 0.226096
O O14 0.607816 0.000000 0.369531
O O15 0.677571 0.000000 0.831430
O O16 0.500000 0.073957 0.000000
O O17 0.649143 0.143954 0.912817
O O18 0.688015 0.137868 0.018349
O O19 0.769956 0.500000 0.978792
O O20 0.641428 0.500000 0.667971
#
# Coordination Sequence:
#
# PCOD8097906 Si02
#       8
#     8   8   8   8   8   8   8   8
#     4   9  18  32  51  76 104 140 182 211 244 310
#     4   9  19  34  54  81 105 132 175 224 268 302
#     4  11  22  35  49  75 111 145 172 209 262 313
#     4   8  15  27  47  75 104 128 158 212 264 294
#     4   8  15  31  52  74 101 129 166 216 265 307
#     4  11  21  33  54  79 105 136 172 218 266 318
#     4  10  20  35  56  76 100 135 180 220 255 308
#     4  10  20  34  55  77 105 142 181 217 251 310
#
# _framework density 18.061312999999998
#
# number of rings (size 3 to 8) (size 9 to 14) (size 15 to 20)
#    0.000    2.500    0.000    4.500    1.750    4.500 
#    0.000    0.000    0.000    0.750    0.000    3.500 
#    0.000    0.000    0.000    0.000    0.000    0.000 
#
# Total GULP energy -396684.708981 kJ/mol
# GULP energy per Si atom -12396.397156 kJ/mol
# Density = 1.802020 g / cm^3
# Si number density = 18.061313 Si / 1000 Ang^3
#
#
#
# Elastic Constant Matrix: (Units=GPa)
#
#
# Indices 1 2 3 4 5 6 
#
# 1 92.9273 32.2043 42.4938 0.0000 10.9403 0.0000
# 2 32.2043 62.2519 18.8563 0.0000 6.4772 0.0000
# 3 42.4938 18.8563 86.8559 0.0000 1.1264 0.0000
# 4 0.0000 0.0000 0.0000 13.6680 0.0000 -3.3073
# 5 10.9403 6.4772 1.1264 0.0000 16.5981 0.0000
# 6 0.0000 0.0000 0.0000 -3.3073 0.0000 20.3477
#
#
#
# Elastic Compliance Matrix: (Units=1/GPa)
#
#
# Indices 1 2 3 4 5 6 
#
# 1 0.016918 -0.005781 -0.006912 0.000000 -0.008426 0.000000
# 2 -0.005781 0.019892 -0.001440 0.000000 -0.003854 0.000000
# 3 -0.006912 -0.001440 0.015155 0.000000 0.004090 0.000000
# 4 0.000000 0.000000 0.000000 0.076159 0.000000 0.012379
# 5 -0.008426 -0.003854 0.004090 0.000000 0.067028 0.000000
# 6 0.000000 0.000000 0.000000 0.012379 0.000000 0.051158
#
#
# Mechanical properties :
#
#
# Convention : Reuss Voigt Hill
#
# Bulk Modulus (GPa) = 42.20024 47.68266 44.94145
# Shear Modulus (GPa) = 17.70071 20.02149 18.86110
#
# Velocity S-wave (km/s) = 3.13395 3.33307 3.23504
# Velocity P-wave (km/s) = 6.04245 6.42419 6.23624
#
# Compressibility (1/GPa) = 0.02369655
#
# Stress axis : x y z
#
# Youngs Moduli (GPa) = 59.11038 50.27199 65.98581
#
# Poissons Ratio (x) = 0.29064 0.45612
# Poissons Ratio (y) = 0.34174 0.09502
# Poissons Ratio (z) = 0.40860 0.07239
#
# Static dielectric constant tensor:
#      x y z
#    x 3.442630 0.000000 0.128370 
#    y 0.000000 3.106330 0.000000 
#    z 0.128370 0.000000 3.606770 
# 
# 
# High freq. dielectric constant tensor:
#      x y z
#    x 1.697840 0.000000 0.002790 
#    y 0.000000 1.675480 0.000000 
#    z 0.002790 0.000000 1.691740 
# 
# From -- ./inp_files/290074.got.cif
#   From: 2010.06.25/outbox.cif.g09.slc.cpg/sg12_146_cif.got.tgz:290074.got - 2010.06.28 00:19:55.
