data_PCOD8097027
_publ_section_title
;
Structure prediction by ZEFSAII (Michael W. Deem and Ramdas Pophale) SiO2 
 PCOD8097027
Probable space group: C 2/M
;
_chemical_formula_sum "Si O2"
_cell_formula_units_Z 64
_cell_length_a 20.680917
_cell_length_b 13.389097
_cell_length_c 26.902952
_cell_angle_alpha 90.000000
_cell_angle_beta 151.444070
_cell_angle_gamma 90.000000
_cell_volume 3560.933097
_symmetry_space_group_name_H-M "C 2/M"
_symmetry_group_IT_number 12
_symmetry_cell_setting 'monoclinic'
loop_
_space_group_symop_operation_xyz
x,y,z
-x,y,-z
-x,-y,-z
x,-y,z
1/2+x,1/2+y,z
1/2-x,1/2+y,-z
1/2-x,1/2-y,-z
1/2+x,1/2-y,z
loop_
_atom_site_type_symbol
_atom_site_label
_atom_site_fract_x
_atom_site_fract_y
_atom_site_fract_z
Si Si1 0.137920 0.115354 0.915739
Si Si2 0.986309 0.113589 0.714317
Si Si3 0.120715 0.290078 0.976638
Si Si4 0.698566 0.886102 0.551160
Si Si5 0.649130 0.239510 0.611590
Si Si6 0.170762 0.617727 0.205701
Si Si7 0.287218 0.717756 0.188560
Si Si8 0.600691 0.114091 0.673506
O O1 0.098977 0.181656 0.937188
O O2 0.030021 0.140454 0.800002
O O3 0.133285 0.000000 0.928937
O O4 0.287805 0.141198 0.997222
O O5 0.825685 0.132633 0.600369
O O6 0.065264 0.178320 0.727355
O O7 0.026195 0.000000 0.730057
O O8 0.981437 0.346269 0.890589
O O9 0.187213 0.274183 0.075024
O O10 0.713624 0.808627 0.606256
O O11 0.560315 0.869717 0.427133
O O12 0.703156 0.000000 0.574986
O O13 0.500000 0.282602 0.500000
O O14 0.738675 0.331545 0.690583
O O15 0.640714 0.151154 0.645994
O O16 0.179107 0.500000 0.218814
O O17 0.223662 0.645073 0.186714
O O18 0.312317 0.827788 0.226856
O O19 0.643299 0.000000 0.707543
#
# Coordination Sequence:
#
# PCOD8097027 Si02
#       8
#     8   8   8   8   8   8   8   8
#     4   9  18  33  53  76 101 127 159 206 256 297
#     4   9  17  30  49  72  96 125 165 208 248 290
#     4  10  20  34  52  75 100 130 170 205 245 298
#     4   9  16  29  53  78  99 128 165 205 248 295
#     4   9  18  33  53  77 103 128 159 204 253 298
#     4  11  22  35  53  74  98 131 169 206 245 295
#     4  10  21  34  48  69 100 135 168 206 245 287
#     4   9  18  32  50  74 102 133 167 201 245 299
#
# _framework density 17.972816999999999
#
# number of rings (size 3 to 8) (size 9 to 14) (size 15 to 20)
#    0.000    2.500    0.000    2.250    0.000    4.750 
#    0.000    2.500    0.000    4.500    0.000    0.000 
#    0.000    0.000    0.000    0.000    0.000    0.000 
#
# Total GULP energy -396816.516453 kJ/mol
# GULP energy per Si atom -12400.516139 kJ/mol
# Density = 1.793191 g / cm^3
# Si number density = 17.972817 Si / 1000 Ang^3
#
#
#
# Elastic Constant Matrix: (Units=GPa)
#
#
# Indices 1 2 3 4 5 6 
#
# 1 62.3891 41.7535 25.9771 0.0019 7.2296 0.0020
# 2 41.7535 120.6012 46.8709 0.0016 2.0179 -0.0006
# 3 25.9771 46.8709 75.8059 -0.0001 8.6946 -0.0027
# 4 0.0019 0.0016 -0.0001 22.9324 -0.0006 4.5803
# 5 7.2296 2.0179 8.6946 -0.0006 28.4987 -0.0004
# 6 0.0020 -0.0006 -0.0027 4.5803 -0.0004 20.4984
#
#
#
# Elastic Compliance Matrix: (Units=1/GPa)
#
#
# Indices 1 2 3 4 5 6 
#
# 1 0.022076 -0.006344 -0.003162 -0.000001 -0.004186 -0.000003
# 2 -0.006344 0.012787 -0.006024 0.000000 0.002542 0.000000
# 3 -0.003162 -0.006024 0.018506 0.000000 -0.004417 0.000002
# 4 -0.000001 0.000000 0.000000 0.045644 0.000001 -0.010199
# 5 -0.004186 0.002542 -0.004417 0.000001 0.037319 0.000000
# 6 -0.000003 0.000000 0.000002 -0.010199 0.000000 0.051063
#
#
# Mechanical properties :
#
#
# Convention : Reuss Voigt Hill
#
# Bulk Modulus (GPa) = 44.82471 54.22214 49.52343
# Shear Modulus (GPa) = 22.13462 23.99888 23.06675
#
# Velocity S-wave (km/s) = 3.51317 3.65812 3.58638
# Velocity P-wave (km/s) = 6.43824 6.93375 6.69058
#
# Compressibility (1/GPa) = 0.02230912
#
# Stress axis : x y z
#
# Youngs Moduli (GPa) = 45.29846 78.20684 54.03557
#
# Poissons Ratio (x) = 0.49613 0.17088
# Poissons Ratio (y) = 0.28736 0.32549
# Poissons Ratio (z) = 0.14325 0.47109
#
# Static dielectric constant tensor:
#      x y z
#    x 3.251220 0.000000 0.126240 
#    y 0.000000 3.245020 0.000000 
#    z 0.126240 0.000000 3.380550 
# 
# 
# High freq. dielectric constant tensor:
#      x y z
#    x 1.690750 0.000000 0.013420 
#    y 0.000000 1.691750 0.000000 
#    z 0.013420 0.000000 1.698020 
# 
# From -- ./inp_files/366048.got.cif
#   From: 2010.06.25/outbox.cif.g09.slc.cpg/sg12_184_cif.got.tgz:366048.got - 2010.06.28 00:19:55.
