data_PCOD8097716
_publ_section_title
;
Structure prediction by ZEFSAII (Michael W. Deem and Ramdas Pophale) SiO2 
 PCOD8097716
Probable space group: C 2/M
;
_chemical_formula_sum "Si O2"
_cell_formula_units_Z 48
_cell_length_a 18.901362
_cell_length_b 8.532005
_cell_length_c 18.079577
_cell_angle_alpha 90.000000
_cell_angle_beta 58.301878
_cell_angle_gamma 90.000000
_cell_volume 2480.700932
_symmetry_space_group_name_H-M "C 2/M"
_symmetry_group_IT_number 12
_symmetry_cell_setting 'monoclinic'
loop_
_space_group_symop_operation_xyz
x,y,z
-x,y,-z
-x,-y,-z
x,-y,z
1/2+x,1/2+y,z
1/2-x,1/2+y,-z
1/2-x,1/2-y,-z
1/2+x,1/2-y,z
loop_
_atom_site_type_symbol
_atom_site_label
_atom_site_fract_x
_atom_site_fract_y
_atom_site_fract_z
Si Si1 0.744608 0.184215 0.921071
Si Si2 0.069165 0.316848 0.764399
Si Si3 0.413593 0.813156 0.081711
Si Si4 0.495561 0.683138 0.418247
Si Si5 0.161885 0.315982 0.570036
Si Si6 0.409550 0.184314 0.764943
O O1 0.663180 0.253391 0.924235
O O2 0.824829 0.227836 0.829527
O O3 0.736532 0.000000 0.931590
O O4 0.750000 0.250000 0.000000
O O5 0.055456 0.500000 0.781828
O O6 0.091426 0.243714 0.831955
O O7 0.144390 0.281997 0.666396
O O8 0.982122 0.250699 0.779602
O O9 0.409798 0.000000 0.084760
O O10 0.500000 0.753168 0.000000
O O11 0.500000 0.739301 0.500000
O O12 0.514576 0.500000 0.399479
O O13 0.403300 0.721258 0.442598
O O14 0.564131 0.777965 0.333570
O O15 0.154321 0.500000 0.557124
O O16 0.250000 0.250000 0.500000
O O17 0.396069 0.000000 0.781799
#
# Coordination Sequence:
#
# PCOD8097716 Si02
#       6
#     8   8   8   8   8   8
#     4  11  22  35  55  81 109 142 179 222 271 325
#     4   8  16  32  53  76 101 133 175 220 264 313
#     4   9  17  31  53  78 101 131 174 217 259 314
#     4  10  21  37  57  81 111 148 189 231 276 331
#     4  10  20  34  54  80 111 146 184 229 279 330
#     4  10  20  36  58  81 108 141 178 225 278 330
#
# _framework density 19.349371000000001
#
# number of rings (size 3 to 8) (size 9 to 14) (size 15 to 20)
#    0.000    2.333    0.000    4.000    0.000    5.333 
#    0.000    3.333    0.000   18.000    0.000    0.000 
#    0.000    0.000    0.000    0.000    0.000    0.000 
#
# Total GULP energy -297580.417230 kJ/mol
# GULP energy per Si atom -12399.184051 kJ/mol
# Density = 1.930533 g / cm^3
# Si number density = 19.349371 Si / 1000 Ang^3
#
#
#
# Elastic Constant Matrix: (Units=GPa)
#
#
# Indices 1 2 3 4 5 6 
#
# 1 135.3808 16.9168 95.4185 0.0000 2.8526 -0.0006
# 2 16.9168 31.1796 15.6252 0.0001 5.2527 -0.0010
# 3 95.4185 15.6252 153.7339 0.0001 5.6705 -0.0001
# 4 0.0000 0.0001 0.0001 30.5628 0.0000 -2.9901
# 5 2.8526 5.2527 5.6705 0.0000 45.7553 0.0000
# 6 -0.0006 -0.0010 -0.0001 -2.9901 0.0000 26.6299
#
#
#
# Elastic Compliance Matrix: (Units=1/GPa)
#
#
# Indices 1 2 3 4 5 6 
#
# 1 0.013455 -0.003368 -0.008029 0.000000 0.000543 0.000000
# 2 -0.003368 0.035194 -0.001352 0.000000 -0.003663 0.000001
# 3 -0.008029 -0.001352 0.011654 0.000000 -0.000789 0.000000
# 4 0.000000 0.000000 0.000000 0.033083 0.000000 0.003715
# 5 0.000543 -0.003663 -0.000789 0.000000 0.022340 0.000000
# 6 0.000000 0.000001 0.000000 0.003715 0.000000 0.037969
#
#
# Mechanical properties :
#
#
# Convention : Reuss Voigt Hill
#
# Bulk Modulus (GPa) = 28.73011 64.02392 46.37702
# Shear Modulus (GPa) = 26.20635 33.41184 29.80910
#
# Velocity S-wave (km/s) = 3.68418 4.15995 3.92927
# Velocity P-wave (km/s) = 5.74264 7.49892 6.67876
#
# Compressibility (1/GPa) = 0.03480669
#
# Stress axis : x y z
#
# Youngs Moduli (GPa) = 74.32324 28.41396 85.80445
#
# Poissons Ratio (x) = 0.09570 0.68890
# Poissons Ratio (y) = 0.25032 0.11597
# Poissons Ratio (z) = 0.59672 0.03840
#
# Static dielectric constant tensor:
#      x y z
#    x 4.529030 0.000000 -0.259050 
#    y 0.000000 3.329520 0.000000 
#    z -0.259050 0.000000 3.908730 
# 
# 
# High freq. dielectric constant tensor:
#      x y z
#    x 1.753830 0.000000 0.001080 
#    y 0.000000 1.728500 0.000000 
#    z 0.001080 0.000000 1.768720 
# 
# From -- ./inp_files/274097.got.cif
#   From: 2010.06.25/outbox.cif.g09.slc.cpg/sg12_138_cif.got.tgz:274097.got - 2010.06.28 00:19:55.
