data_PCOD8097813
_publ_section_title
;
Structure prediction by ZEFSAII (Michael W. Deem and Ramdas Pophale) SiO2 
 PCOD8097813
Probable space group: C 2/M
;
_chemical_formula_sum "Si O2"
_cell_formula_units_Z 56
_cell_length_a 24.738297
_cell_length_b 8.570723
_cell_length_c 16.638366
_cell_angle_alpha 90.000000
_cell_angle_beta 120.243875
_cell_angle_gamma 90.000000
_cell_volume 3047.586591
_symmetry_space_group_name_H-M "C 2/M"
_symmetry_group_IT_number 12
_symmetry_cell_setting 'monoclinic'
loop_
_space_group_symop_operation_xyz
x,y,z
-x,y,-z
-x,-y,-z
x,-y,z
1/2+x,1/2+y,z
1/2-x,1/2+y,-z
1/2-x,1/2-y,-z
1/2+x,1/2-y,z
loop_
_atom_site_type_symbol
_atom_site_label
_atom_site_fract_x
_atom_site_fract_y
_atom_site_fract_z
Si Si1 0.227561 0.181557 0.100192
Si Si2 0.653850 0.680229 0.890809
Si Si3 0.734009 0.817112 0.270871
Si Si4 0.559132 0.820696 0.710798
Si Si5 0.916536 0.320252 0.585716
Si Si6 0.377976 0.318754 0.394602
Si Si7 0.195211 0.182215 0.404687
O O1 0.288603 0.281937 0.125088
O O2 0.205212 0.228410 0.172286
O O3 0.245282 0.000000 0.108066
O O4 0.171964 0.221648 0.996112
O O5 0.636867 0.500000 0.867951
O O6 0.593527 0.781339 0.820531
O O7 0.805867 0.766555 0.336666
O O8 0.694186 0.765494 0.317842
O O9 0.727054 0.000000 0.252024
O O10 0.486318 0.784093 0.667868
O O11 0.588272 0.712048 0.664092
O O12 0.569918 0.000000 0.694922
O O13 0.898334 0.500000 0.585918
O O14 0.912207 0.281654 0.488273
O O15 0.870865 0.210909 0.602396
O O16 0.383434 0.500000 0.420846
O O17 0.250000 0.250000 0.500000
O O18 0.206611 0.000000 0.401771
#
# Coordination Sequence:
#
# PCOD8097813 Si02
#       7
#     8   8   8   8   8   8   8
#     4  10  20  34  55  83 113 146 184 228 279 331
#     4  10  20  34  54  82 114 147 184 227 277 332
#     4  11  22  36  57  85 115 147 184 229 280 329
#     4  11  23  37  56  82 114 152 188 227 278 332
#     4  11  24  40  57  80 112 150 191 231 275 331
#     4  11  22  35  55  83 114 150 188 227 276 330
#     4  12  24  39  60  83 109 146 188 233 279 324
#
# _framework density 18.375195000000001
#
# number of rings (size 3 to 8) (size 9 to 14) (size 15 to 20)
#    0.000    1.143    2.857    4.286    0.000    6.857 
#    0.000    0.000    0.000    0.857    0.000    6.000 
#    0.000    0.000    0.000    0.000    0.000    0.000 
#
# Total GULP energy -347389.370821 kJ/mol
# GULP energy per Si atom -12406.763244 kJ/mol
# Density = 1.833337 g / cm^3
# Si number density = 18.375195 Si / 1000 Ang^3
#
#
#
# Elastic Constant Matrix: (Units=GPa)
#
#
# Indices 1 2 3 4 5 6 
#
# 1 74.1164 22.2923 44.1644 0.0000 5.6057 0.0000
# 2 22.2923 54.4920 30.5169 0.0000 7.3513 0.0000
# 3 44.1644 30.5169 132.1370 0.0000 -0.2951 0.0000
# 4 0.0000 0.0000 0.0000 32.5503 0.0000 -2.6175
# 5 5.6057 7.3513 -0.2951 0.0000 27.9898 0.0000
# 6 0.0000 0.0000 0.0000 -2.6175 0.0000 28.1977
#
#
#
# Elastic Compliance Matrix: (Units=1/GPa)
#
#
# Indices 1 2 3 4 5 6 
#
# 1 0.017943 -0.004175 -0.005039 0.000000 -0.002550 0.000000
# 2 -0.004175 0.022960 -0.003919 0.000000 -0.005236 0.000000
# 3 -0.005039 -0.003919 0.010162 0.000000 0.002146 0.000000
# 4 0.000000 0.000000 0.000000 0.030953 0.000000 0.002873
# 5 -0.002550 -0.005236 0.002146 0.000000 0.037636 0.000000
# 6 0.000000 0.000000 0.000000 0.002873 0.000000 0.035731
#
#
# Mechanical properties :
#
#
# Convention : Reuss Voigt Hill
#
# Bulk Modulus (GPa) = 40.32166 50.52139 45.42153
# Shear Modulus (GPa) = 26.32741 28.66570 27.49656
#
# Velocity S-wave (km/s) = 3.78930 3.95400 3.87252
# Velocity P-wave (km/s) = 6.41375 6.95697 6.69088
#
# Compressibility (1/GPa) = 0.02480057
#
# Stress axis : x y z
#
# Youngs Moduli (GPa) = 55.73108 43.55373 98.40662
#
# Poissons Ratio (x) = 0.18182 0.49585
# Poissons Ratio (y) = 0.23265 0.38566
# Poissons Ratio (z) = 0.28082 0.17069
#
# Static dielectric constant tensor:
#      x y z
#    x 3.194600 0.000000 0.016470 
#    y 0.000000 3.455140 0.000000 
#    z 0.016470 0.000000 3.551580 
# 
# 
# High freq. dielectric constant tensor:
#      x y z
#    x 1.684140 0.000000 -0.002730 
#    y 0.000000 1.728710 0.000000 
#    z -0.002730 0.000000 1.718260 
# 
# From -- ./inp_files/238249.got.cif
#   From: 2010.06.25/outbox.cif.g09.slc.cpg/sg12_120_cif.got.tgz:238249.got - 2010.06.28 00:19:55.
