data_PCOD8097312
_publ_section_title
;
Structure prediction by ZEFSAII (Michael W. Deem and Ramdas Pophale) SiO2 
 PCOD8097312
Probable space group: C 2/M
;
_chemical_formula_sum "Si O2"
_cell_formula_units_Z 40
_cell_length_a 19.163421
_cell_length_b 8.812606
_cell_length_c 27.256287
_cell_angle_alpha 90.000000
_cell_angle_beta 27.794910
_cell_angle_gamma 90.000000
_cell_volume 2146.431362
_symmetry_space_group_name_H-M "C 2/M"
_symmetry_group_IT_number 12
_symmetry_cell_setting 'monoclinic'
loop_
_space_group_symop_operation_xyz
x,y,z
-x,y,-z
-x,-y,-z
x,-y,z
1/2+x,1/2+y,z
1/2-x,1/2+y,-z
1/2-x,1/2-y,-z
1/2+x,1/2-y,z
loop_
_atom_site_type_symbol
_atom_site_label
_atom_site_fract_x
_atom_site_fract_y
_atom_site_fract_z
Si Si1 0.097058 0.820910 0.181613
Si Si2 0.195968 0.820635 0.583647
Si Si3 0.429222 0.179482 0.992037
Si Si4 0.072493 0.179816 0.808866
Si Si5 0.328613 0.326133 0.593259
O O1 0.972841 0.765063 0.298145
O O2 0.048816 0.768685 0.156882
O O3 0.104849 0.000000 0.178525
O O4 0.259571 0.755509 0.094778
O O5 0.250000 0.750000 0.500000
O O6 0.306964 0.766819 0.556951
O O7 0.203121 0.000000 0.575146
O O8 0.525090 0.261536 0.891156
O O9 0.434805 0.000000 0.979606
O O10 0.500000 0.224098 0.000000
O O11 0.231858 0.254053 0.697269
O O12 0.091110 0.000000 0.797848
O O13 0.500000 0.311955 0.500000
O O14 0.280016 0.500000 0.615642
#
# Coordination Sequence:
#
# PCOD8097312 Si02
#       5
#     8   8   8   8   8
#     4   8  17  34  53  74 102 138 178 216 255 306
#     4  10  20  35  55  80 111 145 182 223 267 316
#     4  10  20  34  53  77 105 138 175 216 263 313
#     4  10  20  35  55  77 104 138 175 218 265 317
#     4  10  21  37  57  80 106 139 180 224 270 322
#
# _framework density 18.635583
#
# number of rings (size 3 to 8) (size 9 to 14) (size 15 to 20)
#    0.000    2.400    0.000    3.600    0.000    3.600 
#    0.000    9.000    0.000    0.000    0.000    0.000 
#    0.000    0.000    0.000    0.000    0.000    0.000 
#
# Total GULP energy -247993.363198 kJ/mol
# GULP energy per Si atom -12399.668160 kJ/mol
# Density = 1.859317 g / cm^3
# Si number density = 18.635583 Si / 1000 Ang^3
#
#
#
# Elastic Constant Matrix: (Units=GPa)
#
#
# Indices 1 2 3 4 5 6 
#
# 1 99.9573 42.1400 84.6180 0.0021 8.5309 -0.0016
# 2 42.1400 73.6483 53.9201 0.0027 3.4970 -0.0035
# 3 84.6180 53.9201 139.8058 0.0036 13.2817 -0.0020
# 4 0.0021 0.0027 0.0036 30.8736 0.0000 6.5505
# 5 8.5309 3.4970 13.2817 0.0000 35.9740 0.0013
# 6 -0.0016 -0.0035 -0.0020 6.5505 0.0013 28.8286
#
#
#
# Elastic Compliance Matrix: (Units=1/GPa)
#
#
# Indices 1 2 3 4 5 6 
#
# 1 0.021270 -0.003840 -0.011347 0.000000 -0.000481 0.000000
# 2 -0.003840 0.019641 -0.005344 -0.000001 0.000974 0.000002
# 3 -0.011347 -0.005344 0.016350 -0.000001 -0.002826 0.000000
# 4 0.000000 -0.000001 -0.000001 0.034031 0.000001 -0.007733
# 5 -0.000481 0.000974 -0.002826 0.000001 0.028861 -0.000002
# 6 0.000000 0.000002 0.000000 -0.007733 -0.000002 0.036445
#
#
# Mechanical properties :
#
#
# Convention : Reuss Voigt Hill
#
# Bulk Modulus (GPa) = 61.72821 74.97418 68.35120
# Shear Modulus (GPa) = 24.62349 27.98413 26.30381
#
# Velocity S-wave (km/s) = 3.63893 3.87932 3.76105
# Velocity P-wave (km/s) = 7.13103 7.77075 7.45775
#
# Compressibility (1/GPa) = 0.01620005
#
# Stress axis : x y z
#
# Youngs Moduli (GPa) = 47.01490 50.91371 61.16213
#
# Poissons Ratio (x) = 0.19550 0.69401
# Poissons Ratio (y) = 0.18053 0.32683
# Poissons Ratio (z) = 0.53348 0.27206
#
# Static dielectric constant tensor:
#      x y z
#    x 3.443820 0.000000 -0.096360 
#    y 0.000000 3.392150 0.000000 
#    z -0.096360 0.000000 3.702010 
# 
# 
# High freq. dielectric constant tensor:
#      x y z
#    x 1.719470 0.000000 0.001990 
#    y 0.000000 1.715520 0.000000 
#    z 0.001990 0.000000 1.735400 
# 
# From -- ./inp_files/151735.got.cif
#   From: 2010.06.25/outbox.cif.g09.slc.cpg/sg12_76_cif.got.tgz:151735.got - 2010.06.28 00:19:55.
