data_PCOD8097842
_publ_section_title
;
Structure prediction by ZEFSAII (Michael W. Deem and Ramdas Pophale) SiO2 
 PCOD8097842
Probable space group: C 2/M
;
_chemical_formula_sum "Si O2"
_cell_formula_units_Z 64
_cell_length_a 14.696879
_cell_length_b 8.814345
_cell_length_c 25.638484
_cell_angle_alpha 90.000000
_cell_angle_beta 90.705247
_cell_angle_gamma 90.000000
_cell_volume 3321.043813
_symmetry_space_group_name_H-M "C 2/M"
_symmetry_group_IT_number 12
_symmetry_cell_setting 'monoclinic'
loop_
_space_group_symop_operation_xyz
x,y,z
-x,y,-z
-x,-y,-z
x,-y,z
1/2+x,1/2+y,z
1/2-x,1/2+y,-z
1/2-x,1/2-y,-z
1/2+x,1/2-y,z
loop_
_atom_site_type_symbol
_atom_site_label
_atom_site_fract_x
_atom_site_fract_y
_atom_site_fract_z
Si Si1 0.585618 0.321144 0.394403
Si Si2 0.261211 0.176564 0.944355
Si Si3 0.248642 0.176645 0.215090
Si Si4 0.598213 0.676259 0.128905
Si Si5 0.111266 0.177758 0.858939
Si Si6 0.096396 0.325299 0.613297
Si Si7 0.261082 0.820828 0.673738
Si Si8 0.346569 0.173536 0.503702
O O1 0.595409 0.500000 0.396751
O O2 0.491111 0.267718 0.369856
O O3 0.656595 0.255627 0.354921
O O4 0.593826 0.257406 0.452833
O O5 0.353053 0.238337 0.918246
O O6 0.169287 0.212700 0.911374
O O7 0.275258 0.000000 0.951647
O O8 0.250000 0.250000 0.000000
O O9 0.157436 0.207844 0.181054
O O10 0.340990 0.229155 0.187074
O O11 0.237587 0.275756 0.266249
O O12 0.258201 0.000000 0.229068
O O13 0.597666 0.500000 0.114481
O O14 0.493662 0.733021 0.135297
O O15 0.114213 0.000000 0.844856
O O16 0.090676 0.500000 0.630832
O O17 0.173752 0.241467 0.644625
O O18 0.105521 0.312927 0.551337
O O19 0.266475 0.000000 0.668150
O O20 0.250000 0.250000 0.500000
O O21 0.334754 0.000000 0.520898
#
# Coordination Sequence:
#
# PCOD8097842 Si02
#       8
#     8   8   8   8   8   8   8   8
#     4  12  25  41  62  89 121 156 195 239 290 355
#     4  10  20  34  54  82 119 156 193 239 286 340
#     4  10  21  38  60  85 114 146 187 242 296 347
#     4   9  19  37  60  83 111 150 194 238 285 341
#     4   9  19  37  59  83 112 151 197 239 287 346
#     4  11  24  42  63  89 119 152 194 242 292 351
#     4  12  25  42  63  86 118 156 196 243 295 352
#     4  11  22  38  63  89 119 155 194 239 290 348
#
# _framework density 19.271051
#
# number of rings (size 3 to 8) (size 9 to 14) (size 15 to 20)
#    0.000    1.500    1.250    4.125    0.000    6.000 
#    0.000    6.250    0.000    0.000    0.000    0.000 
#    0.000    0.000    0.000    0.000    0.000    0.000 
#
# Total GULP energy -396851.520751 kJ/mol
# GULP energy per Si atom -12401.610023 kJ/mol
# Density = 1.922719 g / cm^3
# Si number density = 19.271051 Si / 1000 Ang^3
#
#
#
# Elastic Constant Matrix: (Units=GPa)
#
#
# Indices 1 2 3 4 5 6 
#
# 1 167.6039 63.5447 50.6358 0.0000 -6.9534 0.0000
# 2 63.5447 146.6734 63.1477 0.0000 -7.6385 0.0000
# 3 50.6358 63.1477 111.2688 0.0000 -6.0641 0.0000
# 4 0.0000 0.0000 0.0000 43.2802 0.0000 -4.8104
# 5 -6.9534 -7.6385 -6.0641 0.0000 24.2683 0.0000
# 6 0.0000 0.0000 0.0000 -4.8104 0.0000 36.6625
#
#
#
# Elastic Compliance Matrix: (Units=1/GPa)
#
#
# Indices 1 2 3 4 5 6 
#
# 1 0.007503 -0.002322 -0.002047 0.000000 0.000907 0.000000
# 2 -0.002322 0.009801 -0.004434 0.000000 0.001312 0.000000
# 3 -0.002047 -0.004434 0.012498 0.000000 0.001141 0.000000
# 4 0.000000 0.000000 0.000000 0.023447 0.000000 0.003076
# 5 0.000907 0.001312 0.001141 0.000000 0.042164 0.000000
# 6 0.000000 0.000000 0.000000 0.003076 0.000000 0.027679
#
#
# Mechanical properties :
#
#
# Convention : Reuss Voigt Hill
#
# Bulk Modulus (GPa) = 82.00138 86.68917 84.34528
# Shear Modulus (GPa) = 34.53893 37.39004 35.96448
#
# Velocity S-wave (km/s) = 4.23811 4.40957 4.32469
# Velocity P-wave (km/s) = 8.16044 8.42660 8.29459
#
# Compressibility (1/GPa) = 0.01219492
#
# Stress axis : x y z
#
# Youngs Moduli (GPa) = 133.28169 102.02796 80.01530
#
# Poissons Ratio (x) = 0.23690 0.16381
# Poissons Ratio (y) = 0.30947 0.35481
# Poissons Ratio (z) = 0.27285 0.45242
#
# Static dielectric constant tensor:
#      x y z
#    x 3.655010 0.000000 0.007400 
#    y 0.000000 3.673400 0.000000 
#    z 0.007400 0.000000 3.581150 
# 
# 
# High freq. dielectric constant tensor:
#      x y z
#    x 1.763030 0.000000 -0.000300 
#    y 0.000000 1.762630 0.000000 
#    z -0.000300 0.000000 1.748200 
# 
# From -- ./inp_files/338694.got.cif
#   From: 2010.06.25/outbox.cif.g09.slc.cpg/sg12_170_cif.got.tgz:338694.got - 2010.06.28 00:19:55.
