data_PCOD8097466
_publ_section_title
;
Structure prediction by ZEFSAII (Michael W. Deem and Ramdas Pophale) SiO2 
 PCOD8097466
Probable space group: C 2/M
;
_chemical_formula_sum "Si O2"
_cell_formula_units_Z 64
_cell_length_a 19.157784
_cell_length_b 8.851430
_cell_length_c 18.826455
_cell_angle_alpha 90.000000
_cell_angle_beta 96.132225
_cell_angle_gamma 90.000000
_cell_volume 3174.205948
_symmetry_space_group_name_H-M "C 2/M"
_symmetry_group_IT_number 12
_symmetry_cell_setting 'monoclinic'
loop_
_space_group_symop_operation_xyz
x,y,z
-x,y,-z
-x,-y,-z
x,-y,z
1/2+x,1/2+y,z
1/2-x,1/2+y,-z
1/2-x,1/2-y,-z
1/2+x,1/2-y,z
loop_
_atom_site_type_symbol
_atom_site_label
_atom_site_fract_x
_atom_site_fract_y
_atom_site_fract_z
Si Si1 0.093196 0.830458 0.037540
Si Si2 0.148980 0.327311 0.298406
Si Si3 0.134150 0.675093 0.661280
Si Si4 0.251907 0.328399 0.925585
Si Si5 0.273865 0.673133 0.215221
Si Si6 0.760397 0.179413 0.424881
Si Si7 0.993386 0.322017 0.260545
Si Si8 0.035705 0.178250 0.888846
O O1 0.166362 0.825400 0.085928
O O2 0.036740 0.757125 0.084523
O O3 0.066210 0.000000 0.023174
O O4 0.093901 0.767749 0.955036
O O5 0.135462 0.500000 0.316823
O O6 0.192289 0.311675 0.229601
O O7 0.197164 0.259115 0.367369
O O8 0.071711 0.250963 0.281820
O O9 0.141363 0.500000 0.642562
O O10 0.181135 0.712354 0.734162
O O11 0.163394 0.770285 0.597613
O O12 0.053825 0.715432 0.674645
O O13 0.222635 0.500000 0.924098
O O14 0.212978 0.224643 0.864018
O O15 0.250000 0.250000 0.000000
O O16 0.299470 0.500000 0.227410
O O17 0.750000 0.250000 0.500000
O O18 0.760017 0.000000 0.429032
O O19 0.998073 0.500000 0.248850
O O20 0.954955 0.255399 0.186676
O O21 0.037135 0.000000 0.873649
#
# Coordination Sequence:
#
# PCOD8097466 Si02
#       8
#     8   8   8   8   8   8   8   8
#     4   8  17  33  49  68  95 130 176 223 274 332
#     4   8  17  35  58  82 108 141 181 219 263 318
#     4  10  21  36  56  84 116 147 180 222 269 325
#     4  11  22  34  48  70 100 137 180 229 281 332
#     4  10  20  36  56  76 103 143 187 232 277 327
#     4  10  20  38  64  89 115 149 184 220 260 313
#     4  10  20  34  53  80 111 139 176 224 272 320
#     4   9  17  32  53  72  95 133 175 219 273 331
#
# _framework density 20.162521999999999
#
# number of rings (size 3 to 8) (size 9 to 14) (size 15 to 20)
#    0.000    2.500    0.000    3.750    1.750    1.000 
#    0.000    6.250    0.000    3.750    0.000    0.000 
#    0.000    0.000    0.000    0.000    0.000    0.000 
#
# Total GULP energy -396452.215229 kJ/mol
# GULP energy per Si atom -12389.131726 kJ/mol
# Density = 2.011663 g / cm^3
# Si number density = 20.162522 Si / 1000 Ang^3
#
#
#
# Elastic Constant Matrix: (Units=GPa)
#
#
# Indices 1 2 3 4 5 6 
#
# 1 43.6029 14.5299 4.9779 0.0000 -10.8947 0.0000
# 2 14.5299 59.2698 30.0902 0.0000 -7.6721 0.0000
# 3 4.9779 30.0902 113.0185 0.0000 -18.6549 0.0000
# 4 0.0000 0.0000 0.0000 33.9760 0.0000 -2.9914
# 5 -10.8947 -7.6721 -18.6549 0.0000 26.3330 0.0000
# 6 0.0000 0.0000 0.0000 -2.9914 0.0000 19.7647
#
#
#
# Elastic Compliance Matrix: (Units=1/GPa)
#
#
# Indices 1 2 3 4 5 6 
#
# 1 0.027641 -0.006529 0.002372 0.000000 0.011214 0.000000
# 2 -0.006529 0.021172 -0.005409 0.000000 -0.000365 0.000000
# 3 0.002372 -0.005409 0.011421 0.000000 0.007496 0.000000
# 4 0.000000 0.000000 0.000000 0.029830 0.000000 0.004515
# 5 0.011214 -0.000365 0.007496 0.000000 0.047819 0.000000
# 6 0.000000 0.000000 0.000000 0.004515 0.000000 0.051279
#
#
# Mechanical properties :
#
#
# Convention : Reuss Voigt Hill
#
# Bulk Modulus (GPa) = 24.33031 35.00969 29.67000
# Shear Modulus (GPa) = 22.52312 27.10096 24.81204
#
# Velocity S-wave (km/s) = 3.34590 3.67021 3.51180
# Velocity P-wave (km/s) = 5.19808 5.94660 5.58489
#
# Compressibility (1/GPa) = 0.04110099
#
# Stress axis : x y z
#
# Youngs Moduli (GPa) = 36.17816 47.23327 87.55654
#
# Poissons Ratio (x) = 0.30837 -0.20766
# Poissons Ratio (y) = 0.23620 0.47363
# Poissons Ratio (z) = -0.08580 0.25550
#
# Static dielectric constant tensor:
#      x y z
#    x 4.950590 0.000000 0.092810 
#    y 0.000000 3.443060 0.000000 
#    z 0.092810 0.000000 3.626240 
# 
# 
# High freq. dielectric constant tensor:
#      x y z
#    x 1.791880 0.000000 -0.012310 
#    y 0.000000 1.761770 0.000000 
#    z -0.012310 0.000000 1.775680 
# 
# From -- ./inp_files/281335.got.cif
#   From: 2010.06.25/outbox.cif.g09.slc.cpg/sg12_141_cif.got.tgz:281335.got - 2010.06.28 00:19:55.
