data_PCOD8097484
_publ_section_title
;
Structure prediction by ZEFSAII (Michael W. Deem and Ramdas Pophale) SiO2 
 PCOD8097484
Probable space group: C 2/M
;
_chemical_formula_sum "Si O2"
_cell_formula_units_Z 64
_cell_length_a 14.954762
_cell_length_b 9.254848
_cell_length_c 32.950238
_cell_angle_alpha 90.000000
_cell_angle_beta 132.631838
_cell_angle_gamma 90.000000
_cell_volume 3355.215466
_symmetry_space_group_name_H-M "C 2/M"
_symmetry_group_IT_number 12
_symmetry_cell_setting 'monoclinic'
loop_
_space_group_symop_operation_xyz
x,y,z
-x,y,-z
-x,-y,-z
x,-y,z
1/2+x,1/2+y,z
1/2-x,1/2+y,-z
1/2-x,1/2-y,-z
1/2+x,1/2-y,z
loop_
_atom_site_type_symbol
_atom_site_label
_atom_site_fract_x
_atom_site_fract_y
_atom_site_fract_z
Si Si1 0.683854 0.837907 0.444673
Si Si2 0.271254 0.168056 0.260354
Si Si3 0.384805 0.831689 0.938865
Si Si4 0.690804 0.332664 0.944938
Si Si5 0.387862 0.340350 0.441443
Si Si6 0.980361 0.828784 0.662872
Si Si7 0.916175 0.168840 0.866578
Si Si8 0.727047 0.665821 0.338061
O O1 0.750000 0.750000 0.500000
O O2 0.773545 0.852578 0.435066
O O3 0.567578 0.748004 0.393082
O O4 0.645835 0.000000 0.447681
O O5 0.387278 0.266787 0.286902
O O6 0.169963 0.213116 0.196877
O O7 0.211480 0.200364 0.285826
O O8 0.308740 0.000000 0.268194
O O9 0.261824 0.798131 0.925436
O O10 0.372051 0.749633 0.892926
O O11 0.401963 0.000000 0.934708
O O12 0.500000 0.774037 0.000000
O O13 0.700764 0.500000 0.959003
O O14 0.552139 0.283254 0.896295
O O15 0.750000 0.250000 0.000000
O O16 0.500000 0.265751 0.500000
O O17 0.429121 0.500000 0.439303
O O18 0.348161 0.248387 0.390368
O O19 0.895030 0.789789 0.675274
O O20 0.986523 0.000000 0.657345
O O21 0.909566 0.000000 0.873663
O O22 0.755391 0.500000 0.355061
#
# Coordination Sequence:
#
# PCOD8097484 Si02
#       8
#     8   8   8   8   8   8   8   8
#     4  10  20  34  53  80 114 147 180 229 286 341
#     4  10  22  40  59  82 113 150 192 235 282 334
#     4  10  20  35  57  86 119 152 187 234 284 330
#     4  10  20  35  57  84 116 154 188 230 283 334
#     4   9  19  34  52  78 110 141 175 225 281 332
#     4  10  21  38  59  83 110 147 192 235 285 342
#     4  10  22  38  57  84 116 152 193 232 277 339
#     4   9  20  38  58  80 108 145 187 232 280 337
#
# _framework density 19.074780000000001
#
# number of rings (size 3 to 8) (size 9 to 14) (size 15 to 20)
#    0.000    2.250    1.250    0.750    1.750    4.000 
#    0.000    2.500    0.000    0.000    0.000    0.000 
#    0.000    0.000    0.000    0.000    0.000    0.000 
#
# Total GULP energy -396816.577029 kJ/mol
# GULP energy per Si atom -12400.518032 kJ/mol
# Density = 1.903136 g / cm^3
# Si number density = 19.074780 Si / 1000 Ang^3
#
#
#
# Elastic Constant Matrix: (Units=GPa)
#
#
# Indices 1 2 3 4 5 6 
#
# 1 100.9403 51.2369 72.1259 0.0000 5.9726 0.0000
# 2 51.2369 84.2401 73.5950 0.0000 0.8939 0.0000
# 3 72.1259 73.5950 178.4276 0.0000 2.1894 0.0000
# 4 0.0000 0.0000 0.0000 33.7235 0.0000 -0.6005
# 5 5.9726 0.8939 2.1894 0.0000 34.0018 0.0000
# 6 0.0000 0.0000 0.0000 -0.6005 0.0000 26.4973
#
#
#
# Elastic Compliance Matrix: (Units=1/GPa)
#
#
# Indices 1 2 3 4 5 6 
#
# 1 0.016012 -0.006385 -0.003809 0.000000 -0.002399 0.000000
# 2 -0.006385 0.021105 -0.006136 0.000000 0.000962 0.000000
# 3 -0.003809 -0.006136 0.009672 0.000000 0.000208 0.000000
# 4 0.000000 0.000000 0.000000 0.029665 0.000000 0.000672
# 5 -0.002399 0.000962 0.000208 0.000000 0.029793 0.000000
# 6 0.000000 0.000000 0.000000 0.000672 0.000000 0.037755
#
#
# Mechanical properties :
#
#
# Convention : Reuss Voigt Hill
#
# Bulk Modulus (GPa) = 70.77892 84.16931 77.47411
# Shear Modulus (GPa) = 27.56765 29.95452 28.76108
#
# Velocity S-wave (km/s) = 3.80576 3.96709 3.88726
# Velocity P-wave (km/s) = 7.51653 8.07499 7.80076
#
# Compressibility (1/GPa) = 0.01412850
#
# Stress axis : x y z
#
# Youngs Moduli (GPa) = 62.45330 47.38297 103.38604
#
# Poissons Ratio (x) = 0.30256 0.39383
# Poissons Ratio (y) = 0.39879 0.63433
# Poissons Ratio (z) = 0.23790 0.29072
#
# Static dielectric constant tensor:
#      x y z
#    x 3.639310 0.000000 0.046940 
#    y 0.000000 3.633610 0.000000 
#    z 0.046940 0.000000 3.526280 
# 
# 
# High freq. dielectric constant tensor:
#      x y z
#    x 1.745130 0.000000 0.002470 
#    y 0.000000 1.739320 0.000000 
#    z 0.002470 0.000000 1.739360 
# 
# From -- ./inp_files/375572.got.cif
#   From: 2010.06.25/outbox.cif.g09.slc.cpg/sg12_188_cif.got.tgz:375572.got - 2010.06.28 00:19:55.
