data_PCOD8097244
_publ_section_title
;
Structure prediction by ZEFSAII (Michael W. Deem and Ramdas Pophale) SiO2 
 PCOD8097244
Probable space group: C 2/M
;
_chemical_formula_sum "Si O2"
_cell_formula_units_Z 48
_cell_length_a 32.151030
_cell_length_b 9.422035
_cell_length_c 16.075234
_cell_angle_alpha 90.000000
_cell_angle_beta 32.675806
_cell_angle_gamma 90.000000
_cell_volume 2629.045569
_symmetry_space_group_name_H-M "C 2/M"
_symmetry_group_IT_number 12
_symmetry_cell_setting 'monoclinic'
loop_
_space_group_symop_operation_xyz
x,y,z
-x,y,-z
-x,-y,-z
x,-y,z
1/2+x,1/2+y,z
1/2-x,1/2+y,-z
1/2-x,1/2-y,-z
1/2+x,1/2-y,z
loop_
_atom_site_type_symbol
_atom_site_label
_atom_site_fract_x
_atom_site_fract_y
_atom_site_fract_z
Si Si1 0.687413 0.835116 0.210082
Si Si2 0.513183 0.331832 0.221797
Si Si3 0.362506 0.835525 0.522310
Si Si4 0.728707 0.334443 0.617659
Si Si5 0.063656 0.168600 0.956503
Si Si6 0.643301 0.665271 0.131366
O O1 0.661060 0.788600 0.345599
O O2 0.636743 0.749258 0.228836
O O3 0.672493 0.000000 0.219051
O O4 0.777473 0.797613 0.049229
O O5 0.501088 0.500000 0.240941
O O6 0.432332 0.259511 0.374754
O O7 0.573615 0.285231 0.190357
O O8 0.544883 0.275683 0.080298
O O9 0.290510 0.804431 0.584733
O O10 0.386513 0.000000 0.478898
O O11 0.723810 0.500000 0.603289
O O12 0.750000 0.250000 0.500000
O O13 0.647196 0.275933 0.788216
O O14 0.063121 0.000000 0.957252
O O15 0.000000 0.229313 0.000000
O O16 0.638023 0.500000 0.161217
#
# Coordination Sequence:
#
# PCOD8097244 Si02
#       6
#     8   8   8   8   8   8
#     4   9  18  34  54  74 100 135 171 207 253 306
#     4  10  20  34  53  76 102 133 171 213 252 294
#     4  10  21  35  51  74 105 137 167 204 252 304
#     4  10  20  35  55  78 104 133 167 207 251 299
#     4   9  17  31  53  77  99 128 167 206 245 294
#     4   9  18  33  53  76 100 129 170 216 255 294
#
# _framework density 18.257576
#
# number of rings (size 3 to 8) (size 9 to 14) (size 15 to 20)
#    0.000    2.500    0.000    2.000    0.000    8.000 
#    0.000    4.167    0.000    7.000    0.000    0.000 
#    0.000    0.000    0.000    0.000    0.000    0.000 
#
# Total GULP energy -297660.606469 kJ/mol
# GULP energy per Si atom -12402.525270 kJ/mol
# Density = 1.821602 g / cm^3
# Si number density = 18.257576 Si / 1000 Ang^3
#
#
#
# Elastic Constant Matrix: (Units=GPa)
#
#
# Indices 1 2 3 4 5 6 
#
# 1 163.8116 51.5647 92.2195 0.0000 5.9579 0.0000
# 2 51.5647 38.0610 48.6171 0.0001 3.6486 0.0000
# 3 92.2195 48.6171 154.0872 0.0000 8.0319 0.0000
# 4 0.0000 0.0001 0.0000 30.8965 0.0000 -1.2948
# 5 5.9579 3.6486 8.0319 0.0000 39.2078 0.0000
# 6 0.0000 0.0000 0.0000 -1.2948 0.0000 27.0426
#
#
#
# Elastic Compliance Matrix: (Units=1/GPa)
#
#
# Indices 1 2 3 4 5 6 
#
# 1 0.011574 -0.011444 -0.003315 0.000000 -0.000015 0.000000
# 2 -0.011444 0.055389 -0.010562 0.000000 -0.001252 0.000000
# 3 -0.003315 -0.010562 0.011856 0.000000 -0.000942 0.000000
# 4 0.000000 0.000000 0.000000 0.032431 0.000000 0.001553
# 5 -0.000015 -0.001252 -0.000942 0.000000 0.025817 0.000000
# 6 0.000000 0.000000 0.000000 0.001553 0.000000 0.037053
#
#
# Mechanical properties :
#
#
# Convention : Reuss Voigt Hill
#
# Bulk Modulus (GPa) = 35.49099 82.30690 58.89894
# Shear Modulus (GPa) = 21.35353 30.33327 25.84340
#
# Velocity S-wave (km/s) = 3.42361 4.08046 3.76638
# Velocity P-wave (km/s) = 5.92532 8.20847 7.15851
#
# Compressibility (1/GPa) = 0.02817617
#
# Stress axis : x y z
#
# Youngs Moduli (GPa) = 86.40207 18.05418 84.34889
#
# Poissons Ratio (x) = 0.20661 0.27964
# Poissons Ratio (y) = 0.98878 0.89088
# Poissons Ratio (z) = 0.28645 0.19068
#
# Static dielectric constant tensor:
#      x y z
#    x 3.605210 0.000000 0.041270 
#    y 0.000000 3.128670 0.000000 
#    z 0.041270 0.000000 3.473560 
# 
# 
# High freq. dielectric constant tensor:
#      x y z
#    x 1.724590 0.000000 0.001640 
#    y 0.000000 1.680590 0.000000 
#    z 0.001640 0.000000 1.715480 
# 
# From -- ./inp_files/153574.got.cif
#   From: 2010.06.25/outbox.cif.g09.slc.cpg/sg12_77_cif.got.tgz:153574.got - 2010.06.28 00:19:55.
