data_PCOD8097093
_publ_section_title
;
Structure prediction by ZEFSAII (Michael W. Deem and Ramdas Pophale) SiO2 
 PCOD8097093
Probable space group: C 2/M
;
_chemical_formula_sum "Si O2"
_cell_formula_units_Z 64
_cell_length_a 20.764979
_cell_length_b 8.852201
_cell_length_c 23.260981
_cell_angle_alpha 90.000000
_cell_angle_beta 128.703801
_cell_angle_gamma 90.000000
_cell_volume 3336.736314
_symmetry_space_group_name_H-M "C 2/M"
_symmetry_group_IT_number 12
_symmetry_cell_setting 'monoclinic'
loop_
_space_group_symop_operation_xyz
x,y,z
-x,y,-z
-x,-y,-z
x,-y,z
1/2+x,1/2+y,z
1/2-x,1/2+y,-z
1/2-x,1/2-y,-z
1/2+x,1/2-y,z
loop_
_atom_site_type_symbol
_atom_site_label
_atom_site_fract_x
_atom_site_fract_y
_atom_site_fract_z
Si Si1 0.925364 0.834291 0.500079
Si Si2 0.275277 0.674995 0.341953
Si Si3 0.102356 0.331583 0.295461
Si Si4 0.035932 0.824494 0.844269
Si Si5 0.776843 0.821132 0.803997
Si Si6 0.863042 0.179767 0.205808
Si Si7 0.965108 0.180373 0.920589
Si Si8 0.492660 0.828798 0.646225
O O1 0.851389 0.761766 0.421497
O O2 0.952844 0.721994 0.564849
O O3 0.000000 0.859690 0.500000
O O4 0.899092 0.000000 0.510184
O O5 0.288515 0.500000 0.332057
O O6 0.198049 0.699072 0.340441
O O7 0.266000 0.769727 0.278696
O O8 0.077682 0.500000 0.259621
O O9 0.082492 0.315463 0.351268
O O10 0.053068 0.205976 0.232780
O O11 0.106990 0.758167 0.841034
O O12 0.027800 0.760100 0.905085
O O13 0.052136 0.000000 0.856932
O O14 0.725604 0.751899 0.829047
O O15 0.871290 0.760735 0.859239
O O16 0.773828 0.000000 0.807537
O O17 0.929915 0.226923 0.291269
O O18 0.855804 0.000000 0.201934
O O19 0.964093 0.000000 0.919715
O O20 0.000000 0.244372 0.000000
O O21 0.525235 0.000000 0.658887
#
# Coordination Sequence:
#
# PCOD8097093 Si02
#       8
#     8   8   8   8   8   8   8   8
#     4  10  21  35  49  68  99 141 182 220 270 325
#     4  10  20  34  53  75 105 143 180 219 270 323
#     4   9  18  32  51  76 105 137 172 221 274 315
#     4   9  17  33  56  80 105 141 185 218 255 317
#     4  11  21  34  56  84 110 137 180 228 266 314
#     4  10  20  34  55  79 108 145 182 222 267 318
#     4   9  18  34  57  84 112 141 175 218 267 317
#     4  10  20  34  52  76 105 136 178 226 273 317
#
# _framework density 19.180418
#
# number of rings (size 3 to 8) (size 9 to 14) (size 15 to 20)
#    0.000    2.250    1.250    1.875    0.000    3.250 
#    0.000    0.625    0.000    3.375    0.000    0.000 
#    0.000    0.000    0.000    0.000    0.000    0.000 
#
# Total GULP energy -396613.837395 kJ/mol
# GULP energy per Si atom -12394.182419 kJ/mol
# Density = 1.913676 g / cm^3
# Si number density = 19.180418 Si / 1000 Ang^3
#
#
#
# Elastic Constant Matrix: (Units=GPa)
#
#
# Indices 1 2 3 4 5 6 
#
# 1 124.5142 29.2648 41.4449 0.0000 -10.0209 0.0000
# 2 29.2648 46.1632 16.8087 0.0000 -6.2810 0.0000
# 3 41.4449 16.8087 81.0126 0.0000 -20.3087 0.0000
# 4 0.0000 0.0000 0.0000 18.6367 0.0000 -1.2374
# 5 -10.0209 -6.2810 -20.3087 0.0000 27.7045 0.0000
# 6 0.0000 0.0000 0.0000 -1.2374 0.0000 31.2007
#
#
#
# Elastic Compliance Matrix: (Units=1/GPa)
#
#
# Indices 1 2 3 4 5 6 
#
# 1 0.010727 -0.005226 -0.004567 0.000000 -0.000653 0.000000
# 2 -0.005226 0.026083 -0.002119 0.000000 0.002470 0.000000
# 3 -0.004567 -0.002119 0.017869 0.000000 0.010966 0.000000
# 4 0.000000 0.000000 0.000000 0.053799 0.000000 0.002134
# 5 -0.000653 0.002470 0.010966 0.000000 0.044458 0.000000
# 6 0.000000 0.000000 0.000000 0.002134 0.000000 0.032135
#
#
# Mechanical properties :
#
#
# Convention : Reuss Voigt Hill
#
# Bulk Modulus (GPa) = 32.41023 47.41407 39.91215
# Shear Modulus (GPa) = 22.81219 26.45316 24.63268
#
# Velocity S-wave (km/s) = 3.45243 3.71775 3.58755
# Velocity P-wave (km/s) = 5.72945 6.57287 6.16560
#
# Compressibility (1/GPa) = 0.03085446
#
# Stress axis : x y z
#
# Youngs Moduli (GPa) = 93.22086 38.33918 55.96277
#
# Poissons Ratio (x) = 0.20037 0.25559
# Poissons Ratio (y) = 0.48720 0.11858
# Poissons Ratio (z) = 0.42575 0.08124
#
# Static dielectric constant tensor:
#      x y z
#    x 4.169180 0.000000 -0.141880 
#    y 0.000000 3.400680 0.000000 
#    z -0.141880 0.000000 3.374090 
# 
# 
# High freq. dielectric constant tensor:
#      x y z
#    x 1.764780 0.000000 -0.007840 
#    y 0.000000 1.728940 0.000000 
#    z -0.007840 0.000000 1.720970 
# 
# From -- ./inp_files/346279.got.cif
#   From: 2010.06.25/outbox.cif.g09.slc.cpg/sg12_174_cif.got.tgz:346279.got - 2010.06.28 00:19:55.
