data_PCOD8097363
_publ_section_title
;
Structure prediction by ZEFSAII (Michael W. Deem and Ramdas Pophale) SiO2 
 PCOD8097363
Probable space group: C 2/M
;
_chemical_formula_sum "Si O2"
_cell_formula_units_Z 64
_cell_length_a 20.192228
_cell_length_b 9.053112
_cell_length_c 19.500705
_cell_angle_alpha 90.000000
_cell_angle_beta 89.852016
_cell_angle_gamma 90.000000
_cell_volume 3564.765767
_symmetry_space_group_name_H-M "C 2/M"
_symmetry_group_IT_number 12
_symmetry_cell_setting 'monoclinic'
loop_
_space_group_symop_operation_xyz
x,y,z
-x,y,-z
-x,-y,-z
x,-y,z
1/2+x,1/2+y,z
1/2-x,1/2+y,-z
1/2-x,1/2-y,-z
1/2+x,1/2-y,z
loop_
_atom_site_type_symbol
_atom_site_label
_atom_site_fract_x
_atom_site_fract_y
_atom_site_fract_z
Si Si1 0.696244 0.671512 0.203550
Si Si2 0.448749 0.672119 0.441871
Si Si3 0.557883 0.173927 0.698841
Si Si4 0.805733 0.824823 0.293543
Si Si5 0.560935 0.829159 0.045438
Si Si6 0.562507 0.830002 0.203173
Si Si7 0.201030 0.170086 0.550854
Si Si8 0.194572 0.828971 0.043683
O O1 0.701752 0.500000 0.222981
O O2 0.751038 0.763707 0.242948
O O3 0.624059 0.729189 0.225707
O O4 0.708421 0.699956 0.123462
O O5 0.500000 0.720213 0.500000
O O6 0.455765 0.500000 0.422137
O O7 0.464675 0.768367 0.375236
O O8 0.374822 0.705337 0.469305
O O9 0.623810 0.253803 0.725549
O O10 0.500227 0.215415 0.751757
O O11 0.571047 0.000000 0.695455
O O12 0.786251 0.779163 0.371047
O O13 0.812009 0.000000 0.285979
O O14 0.542979 0.800899 0.124575
O O15 0.624023 0.735782 0.022054
O O16 0.576845 0.000000 0.031015
O O17 0.500000 0.773435 0.000000
O O18 0.582769 0.000000 0.215029
O O19 0.250000 0.250000 0.500000
O O20 0.217133 0.000000 0.542635
O O21 0.195111 0.000000 0.025340
O O22 0.250000 0.750000 0.000000
#
# Coordination Sequence:
#
# PCOD8097363 Si02
#       8
#     8   8   8   8   8   8   8   8
#     4  10  21  36  55  79 105 136 177 219 257 306
#     4   9  19  36  54  73 100 134 173 216 261 309
#     4  10  20  34  53  78 107 138 175 217 258 307
#     4  10  21  37  55  77 107 140 174 214 263 314
#     4   9  18  34  55  77 104 139 174 211 258 307
#     4   9  19  35  53  76 107 138 170 212 260 307
#     4   9  19  34  52  75 102 133 169 210 255 305
#     4  10  21  36  54  78 107 138 175 217 259 308
#
# _framework density 17.953493999999999
#
# number of rings (size 3 to 8) (size 9 to 14) (size 15 to 20)
#    0.000    2.500    0.000    2.250    0.000    7.500 
#    0.000    5.000    0.000    0.000    0.000    0.000 
#    0.000    0.000    0.000    0.000    0.000    0.000 
#
# Total GULP energy -396885.991206 kJ/mol
# GULP energy per Si atom -12402.687225 kJ/mol
# Density = 1.791263 g / cm^3
# Si number density = 17.953494 Si / 1000 Ang^3
#
#
#
# Elastic Constant Matrix: (Units=GPa)
#
#
# Indices 1 2 3 4 5 6 
#
# 1 152.9839 74.6391 88.7913 0.0000 -0.2318 0.0000
# 2 74.6391 89.2304 53.3026 0.0000 -3.8414 0.0000
# 3 88.7913 53.3026 83.2948 0.0000 -1.3039 0.0000
# 4 0.0000 0.0000 0.0000 30.4599 0.0000 -0.0425
# 5 -0.2318 -3.8414 -1.3039 0.0000 42.6677 0.0000
# 6 0.0000 0.0000 0.0000 -0.0425 0.0000 36.4107
#
#
#
# Elastic Compliance Matrix: (Units=1/GPa)
#
#
# Indices 1 2 3 4 5 6 
#
# 1 0.019060 -0.006214 -0.016356 0.000000 -0.000956 0.000000
# 2 -0.006214 0.020238 -0.006302 0.000000 0.001596 0.000000
# 3 -0.016356 -0.006302 0.033480 0.000000 0.000367 0.000000
# 4 0.000000 0.000000 0.000000 0.032830 0.000000 0.000038
# 5 -0.000956 0.001596 0.000367 0.000000 0.023587 0.000000
# 6 0.000000 0.000000 0.000000 0.000038 0.000000 0.027464
#
#
# Mechanical properties :
#
#
# Convention : Reuss Voigt Hill
#
# Bulk Modulus (GPa) = 66.51828 84.33055 75.42442
# Shear Modulus (GPa) = 22.78801 29.15941 25.97371
#
# Velocity S-wave (km/s) = 3.56656 4.03446 3.80771
# Velocity P-wave (km/s) = 7.35467 8.29314 7.83796
#
# Compressibility (1/GPa) = 0.01503346
#
# Stress axis : x y z
#
# Youngs Moduli (GPa) = 52.46616 49.41244 29.86888
#
# Poissons Ratio (x) = 0.30704 0.48854
# Poissons Ratio (y) = 0.32601 0.18823
# Poissons Ratio (z) = 0.85815 0.31140
#
# Static dielectric constant tensor:
#      x y z
#    x 3.402480 0.000000 0.032500 
#    y 0.000000 3.379550 0.000000 
#    z 0.032500 0.000000 3.326360 
# 
# 
# High freq. dielectric constant tensor:
#      x y z
#    x 1.702020 0.000000 0.001370 
#    y 0.000000 1.701490 0.000000 
#    z 0.001370 0.000000 1.692590 
# 
# From -- ./inp_files/314118.got.cif
#   From: 2010.06.25/outbox.cif.g09.slc.cpg/sg12_158_cif.got.tgz:314118.got - 2010.06.28 00:19:55.
