data_PCOD8097139
_publ_section_title
;
Structure prediction by ZEFSAII (Michael W. Deem and Ramdas Pophale) SiO2 
 PCOD8097139
Probable space group: C 2/M
;
_chemical_formula_sum "Si O2"
_cell_formula_units_Z 64
_cell_length_a 26.459186
_cell_length_b 14.263424
_cell_length_c 9.534628
_cell_angle_alpha 90.000000
_cell_angle_beta 78.643901
_cell_angle_gamma 90.000000
_cell_volume 3527.907759
_symmetry_space_group_name_H-M "C 2/M"
_symmetry_group_IT_number 12
_symmetry_cell_setting 'monoclinic'
loop_
_space_group_symop_operation_xyz
x,y,z
-x,y,-z
-x,-y,-z
x,-y,z
1/2+x,1/2+y,z
1/2-x,1/2+y,-z
1/2-x,1/2-y,-z
1/2+x,1/2-y,z
loop_
_atom_site_type_symbol
_atom_site_label
_atom_site_fract_x
_atom_site_fract_y
_atom_site_fract_z
Si Si1 0.300424 0.898496 0.813528
Si Si2 0.251295 0.841246 0.095544
Si Si3 0.132671 0.774913 0.584881
Si Si4 0.354952 0.715045 0.750338
Si Si5 0.730206 0.605970 0.601885
Si Si6 0.686383 0.891962 0.677976
Si Si7 0.944734 0.892751 0.203400
Si Si8 0.564624 0.606793 0.111933
O O1 0.345270 0.821615 0.809603
O O2 0.264553 0.855043 0.710915
O O3 0.323273 0.000000 0.753668
O O4 0.266569 0.919137 0.971869
O O5 0.194977 0.852414 0.197249
O O6 0.296955 0.844817 0.184792
O O7 0.250000 0.750000 0.000000
O O8 0.129351 0.783749 0.420231
O O9 0.180911 0.829889 0.620399
O O10 0.139787 0.666871 0.631730
O O11 0.081156 0.819693 0.676298
O O12 0.402293 0.676811 0.813111
O O13 0.712397 0.500000 0.642985
O O14 0.762645 0.612698 0.443402
O O15 0.668186 0.000000 0.706901
O O16 0.005270 0.873371 0.177522
O O17 0.932768 0.000000 0.255021
O O18 0.923802 0.874999 0.058003
O O19 0.578732 0.500000 0.143242
#
# Coordination Sequence:
#
# PCOD8097139 Si02
#       8
#     8   8   8   8   8   8   8   8
#     4  10  21  36  52  77 114 151 185 220 260 316
#     4  10  21  35  51  78 113 148 185 226 266 312
#     4  12  21  34  56  82 109 144 186 225 265 326
#     4  11  22  34  54  82 111 143 184 224 274 321
#     4  10  20  34  52  77 112 150 183 220 264 314
#     4  11  22  36  53  78 117 155 183 218 265 318
#     4   9  21  41  61  81 104 137 179 225 281 336
#     4   9  21  41  60  80 108 136 173 229 283 330
#
# _framework density 18.141062999999999
#
# number of rings (size 3 to 8) (size 9 to 14) (size 15 to 20)
#    0.000    1.750    2.500    3.375    5.250    2.500 
#    0.000    1.250    0.000    0.750    0.000    3.500 
#    0.000    0.000    0.000    0.000    0.000    0.000 
#
# Total GULP energy -396653.631890 kJ/mol
# GULP energy per Si atom -12395.425997 kJ/mol
# Density = 1.809977 g / cm^3
# Si number density = 18.141063 Si / 1000 Ang^3
#
#
#
# Elastic Constant Matrix: (Units=GPa)
#
#
# Indices 1 2 3 4 5 6 
#
# 1 72.9035 52.9714 42.8437 0.0000 9.7941 0.0000
# 2 52.9714 104.3138 46.0467 0.0000 2.6910 0.0000
# 3 42.8437 46.0467 119.0902 0.0000 6.7217 0.0000
# 4 0.0000 0.0000 0.0000 24.5452 0.0000 -0.9569
# 5 9.7941 2.6910 6.7217 0.0000 32.6438 0.0000
# 6 0.0000 0.0000 0.0000 -0.9569 0.0000 13.4427
#
#
#
# Elastic Compliance Matrix: (Units=1/GPa)
#
#
# Indices 1 2 3 4 5 6 
#
# 1 0.024691 -0.010385 -0.004551 0.000000 -0.005615 0.000000
# 2 -0.010385 0.015927 -0.002554 0.000000 0.002329 0.000000
# 3 -0.004551 -0.002554 0.011061 0.000000 -0.000702 0.000000
# 4 0.000000 0.000000 0.000000 0.040855 0.000000 0.002908
# 5 -0.005615 0.002329 -0.000702 0.000000 0.032271 0.000000
# 6 0.000000 0.000000 0.000000 0.002908 0.000000 0.074597
#
#
# Mechanical properties :
#
#
# Convention : Reuss Voigt Hill
#
# Bulk Modulus (GPa) = 59.87611 64.44793 62.16202
# Shear Modulus (GPa) = 20.83802 24.42271 22.63037
#
# Velocity S-wave (km/s) = 3.39287 3.67313 3.53578
# Velocity P-wave (km/s) = 6.95890 7.32068 7.14208
#
# Compressibility (1/GPa) = 0.01670115
#
# Stress axis : x y z
#
# Youngs Moduli (GPa) = 40.50102 62.78621 90.40676
#
# Poissons Ratio (x) = 0.65201 0.41140
# Poissons Ratio (y) = 0.42059 0.23088
# Poissons Ratio (z) = 0.18430 0.16034
#
# Static dielectric constant tensor:
#      x y z
#    x 3.012590 0.000000 -0.020020 
#    y 0.000000 3.658970 0.000000 
#    z -0.020020 0.000000 3.640390 
# 
# 
# High freq. dielectric constant tensor:
#      x y z
#    x 1.663120 0.000000 0.008920 
#    y 0.000000 1.706270 0.000000 
#    z 0.008920 0.000000 1.720940 
# 
# From -- ./inp_files/104594.got.cif
#   From: 2010.06.25/outbox.cif.g09.slc.cpg/sg12_53_cif.got.tgz:104594.got - 2010.06.28 00:19:55.
