data_PCOD8097936
_publ_section_title
;
Structure prediction by ZEFSAII (Michael W. Deem and Ramdas Pophale) SiO2 
 PCOD8097936
Probable space group: C 2/M
;
_chemical_formula_sum "Si O2"
_cell_formula_units_Z 64
_cell_length_a 29.355817
_cell_length_b 13.527987
_cell_length_c 8.635565
_cell_angle_alpha 90.000000
_cell_angle_beta 79.325453
_cell_angle_gamma 90.000000
_cell_volume 3370.054562
_symmetry_space_group_name_H-M "C 2/M"
_symmetry_group_IT_number 12
_symmetry_cell_setting 'monoclinic'
loop_
_space_group_symop_operation_xyz
x,y,z
-x,y,-z
-x,-y,-z
x,-y,z
1/2+x,1/2+y,z
1/2-x,1/2+y,-z
1/2-x,1/2-y,-z
1/2+x,1/2-y,z
loop_
_atom_site_type_symbol
_atom_site_label
_atom_site_fract_x
_atom_site_fract_y
_atom_site_fract_z
Si Si1 0.409561 0.391316 0.368157
Si Si2 0.759664 0.282829 0.248875
Si Si3 0.577137 0.609352 0.286197
Si Si4 0.323132 0.274484 0.480223
Si Si5 0.006728 0.793923 0.819910
Si Si6 0.473998 0.112296 0.672984
Si Si7 0.783154 0.384516 0.923269
Si Si8 0.626365 0.194244 0.275074
O O1 0.413666 0.500000 0.291161
O O2 0.429891 0.390254 0.526804
O O3 0.355503 0.362889 0.401088
O O4 0.439576 0.314002 0.251263
O O5 0.716060 0.318148 0.379771
O O6 0.802720 0.276634 0.339616
O O7 0.749453 0.176752 0.174457
O O8 0.769823 0.363200 0.110029
O O9 0.593920 0.500000 0.218870
O O10 0.526547 0.632529 0.252505
O O11 0.614467 0.694775 0.218633
O O12 0.353445 0.196987 0.562335
O O13 0.994404 0.679913 0.795875
O O14 0.000000 0.818732 0.000000
O O15 0.500000 0.143369 0.500000
O O16 0.419121 0.127168 0.688954
O O17 0.484578 0.000000 0.711531
O O18 0.775972 0.500000 0.893002
O O19 0.836721 0.353685 0.865199
#
# Coordination Sequence:
#
# PCOD8097936 Si02
#       8
#     8   8   8   8   8   8   8   8
#     4  10  20  34  55  80 105 139 181 220 263 315
#     4   9  20  37  55  80 108 137 176 219 267 321
#     4   9  18  34  55  76 104 144 182 216 257 308
#     4   9  18  35  57  78 107 136 171 226 270 305
#     4  11  22  34  50  76 113 145 173 216 265 314
#     4  10  20  36  58  79 102 140 185 221 257 306
#     4  10  20  36  56  77 108 145 175 210 264 323
#     4   9  18  34  55  81 109 136 175 220 263 313
#
# _framework density 18.990791000000002
#
# number of rings (size 3 to 8) (size 9 to 14) (size 15 to 20)
#    0.000    2.375    0.000    3.375    0.000    5.250 
#    0.000   11.875    0.000    3.750    0.000    0.000 
#    0.000    0.000    0.000    0.000    0.000    0.000 
#
# Total GULP energy -396730.535288 kJ/mol
# GULP energy per Si atom -12397.829228 kJ/mol
# Density = 1.894757 g / cm^3
# Si number density = 18.990791 Si / 1000 Ang^3
#
#
#
# Elastic Constant Matrix: (Units=GPa)
#
#
# Indices 1 2 3 4 5 6 
#
# 1 103.4785 36.4465 45.0363 0.0000 -6.6119 0.0000
# 2 36.4465 108.5615 25.6728 0.0000 -4.9214 0.0000
# 3 45.0363 25.6728 74.2341 0.0000 -7.4961 0.0000
# 4 0.0000 0.0000 0.0000 17.3492 0.0000 -6.0165
# 5 -6.6119 -4.9214 -7.4961 0.0000 19.7632 0.0000
# 6 0.0000 0.0000 0.0000 -6.0165 0.0000 19.0925
#
#
#
# Elastic Compliance Matrix: (Units=1/GPa)
#
#
# Indices 1 2 3 4 5 6 
#
# 1 0.013956 -0.002895 -0.007348 0.000000 0.001161 0.000000
# 2 -0.002895 0.010661 -0.001831 0.000000 0.000992 0.000000
# 3 -0.007348 -0.001831 0.018995 0.000000 0.004291 0.000000
# 4 0.000000 0.000000 0.000000 0.064711 0.000000 0.020392
# 5 0.001161 0.000992 0.004291 0.000000 0.052862 0.000000
# 6 0.000000 0.000000 0.000000 0.020392 0.000000 0.058803
#
#
# Mechanical properties :
#
#
# Convention : Reuss Voigt Hill
#
# Bulk Modulus (GPa) = 51.37508 55.62058 53.49783
# Shear Modulus (GPa) = 19.95024 23.18222 21.56623
#
# Velocity S-wave (km/s) = 3.24469 3.49765 3.37354
# Velocity P-wave (km/s) = 6.41473 6.75746 6.58832
#
# Compressibility (1/GPa) = 0.01946469
#
# Stress axis : x y z
#
# Youngs Moduli (GPa) = 71.65475 93.79883 52.64462
#
# Poissons Ratio (x) = 0.27154 0.38685
# Poissons Ratio (y) = 0.20743 0.09637
# Poissons Ratio (z) = 0.52654 0.17170
#
# Static dielectric constant tensor:
#      x y z
#    x 3.574170 0.000000 -0.024810 
#    y 0.000000 3.461930 0.000000 
#    z -0.024810 0.000000 3.372340 
# 
# 
# High freq. dielectric constant tensor:
#      x y z
#    x 1.743440 0.000000 -0.005490 
#    y 0.000000 1.726380 0.000000 
#    z -0.005490 0.000000 1.727420 
# 
# From -- ./inp_files/104589.got.cif
#   From: 2010.06.25/outbox.cif.g09.slc.cpg/sg12_53_cif.got.tgz:104589.got - 2010.06.28 00:19:55.
