data_PCOD8097408
_publ_section_title
;
Structure prediction by ZEFSAII (Michael W. Deem and Ramdas Pophale) SiO2 
 PCOD8097408
Probable space group: C 2/M
;
_chemical_formula_sum "Si O2"
_cell_formula_units_Z 64
_cell_length_a 20.751586
_cell_length_b 8.839127
_cell_length_c 24.684731
_cell_angle_alpha 90.000000
_cell_angle_beta 47.332172
_cell_angle_gamma 90.000000
_cell_volume 3329.283973
_symmetry_space_group_name_H-M "C 2/M"
_symmetry_group_IT_number 12
_symmetry_cell_setting 'monoclinic'
loop_
_space_group_symop_operation_xyz
x,y,z
-x,y,-z
-x,-y,-z
x,-y,z
1/2+x,1/2+y,z
1/2-x,1/2+y,-z
1/2-x,1/2-y,-z
1/2+x,1/2-y,z
loop_
_atom_site_type_symbol
_atom_site_label
_atom_site_fract_x
_atom_site_fract_y
_atom_site_fract_z
Si Si1 0.395098 0.329339 0.321200
Si Si2 0.186934 0.678581 0.192448
Si Si3 0.186707 0.820617 0.787811
Si Si4 0.327602 0.179408 0.921885
Si Si5 0.262608 0.322816 0.640713
Si Si6 0.494971 0.328747 0.155359
Si Si7 0.437499 0.333554 0.486200
Si Si8 0.505665 0.177037 0.346343
O O1 0.358870 0.500000 0.347762
O O2 0.317973 0.214251 0.352089
O O3 0.467845 0.322199 0.233225
O O4 0.435857 0.274081 0.353393
O O5 0.187111 0.500000 0.187878
O O6 0.274873 0.730391 0.175308
O O7 0.182275 0.744261 0.134022
O O8 0.102835 0.732370 0.274682
O O9 0.251375 0.757430 0.705031
O O10 0.085647 0.765605 0.836348
O O11 0.187973 0.000000 0.780071
O O12 0.418738 0.226244 0.898830
O O13 0.321080 0.000000 0.926521
O O14 0.250000 0.250000 0.000000
O O15 0.269537 0.500000 0.647934
O O16 0.347489 0.262785 0.560365
O O17 0.518475 0.500000 0.124387
O O18 0.500000 0.360029 0.500000
O O19 0.421472 0.500000 0.468027
O O20 0.485259 0.214603 0.419897
O O21 0.493995 0.000000 0.341182
#
# Coordination Sequence:
#
# PCOD8097408 Si02
#       8
#     8   8   8   8   8   8   8   8
#     4  10  20  35  56  80 108 144 185 229 278 333
#     4   9  19  36  58  85 113 144 184 233 278 327
#     4   9  18  35  59  84 112 147 189 230 276 332
#     4  11  22  38  60  85 116 148 182 226 275 330
#     4  10  20  34  53  78 110 145 186 231 279 330
#     4   9  18  34  57  84 111 144 183 223 271 332
#     4  10  22  38  52  72 107 148 186 229 285 341
#     4  11  21  34  56  83 108 140 187 237 284 330
#
# _framework density 19.223352999999999
#
# number of rings (size 3 to 8) (size 9 to 14) (size 15 to 20)
#    0.000    2.125    1.250    3.000    0.000    3.750 
#    0.000    2.500    0.000    3.750    0.000    0.000 
#    0.000    0.000    0.000    0.000    0.000    0.000 
#
# Total GULP energy -396685.527671 kJ/mol
# GULP energy per Si atom -12396.422740 kJ/mol
# Density = 1.917960 g / cm^3
# Si number density = 19.223353 Si / 1000 Ang^3
#
#
#
# Elastic Constant Matrix: (Units=GPa)
#
#
# Indices 1 2 3 4 5 6 
#
# 1 120.4939 23.9303 61.0699 -0.0001 -2.2725 -0.0002
# 2 23.9303 47.0325 32.2016 0.0004 -6.0475 0.0001
# 3 61.0699 32.2016 113.0441 0.0001 -16.4806 0.0000
# 4 -0.0001 0.0004 0.0001 30.2568 0.0000 -2.3951
# 5 -2.2725 -6.0475 -16.4806 0.0000 24.2448 0.0001
# 6 -0.0002 0.0001 0.0000 -2.3951 0.0001 25.2489
#
#
#
# Elastic Compliance Matrix: (Units=1/GPa)
#
#
# Indices 1 2 3 4 5 6 
#
# 1 0.011875 -0.002183 -0.006339 0.000000 -0.003740 0.000000
# 2 -0.002183 0.026873 -0.006136 0.000000 0.002327 0.000000
# 3 -0.006339 -0.006136 0.015217 0.000000 0.008219 0.000000
# 4 0.000000 0.000000 0.000000 0.033300 0.000000 0.003159
# 5 -0.003740 0.002327 0.008219 0.000000 0.047063 0.000000
# 6 0.000000 0.000000 0.000000 0.003159 0.000000 0.039905
#
#
# Mechanical properties :
#
#
# Convention : Reuss Voigt Hill
#
# Bulk Modulus (GPa) = 40.57024 57.21934 48.89479
# Shear Modulus (GPa) = 23.61102 26.84133 25.22617
#
# Velocity S-wave (km/s) = 3.50844 3.74075 3.62645
# Velocity P-wave (km/s) = 6.12884 6.96331 6.55936
#
# Compressibility (1/GPa) = 0.02464861
#
# Stress axis : x y z
#
# Youngs Moduli (GPa) = 84.21234 37.21161 65.71767
#
# Poissons Ratio (x) = 0.08123 0.41655
# Poissons Ratio (y) = 0.18384 0.40327
# Poissons Ratio (z) = 0.53378 0.22835
#
# Static dielectric constant tensor:
#      x y z
#    x 3.936220 0.000000 -0.206220 
#    y 0.000000 3.401280 0.000000 
#    z -0.206220 0.000000 3.589100 
# 
# 
# High freq. dielectric constant tensor:
#      x y z
#    x 1.759390 0.000000 -0.005520 
#    y 0.000000 1.735360 0.000000 
#    z -0.005520 0.000000 1.729770 
# 
# From -- ./inp_files/345992.got.cif
#   From: 2010.06.25/outbox.cif.g09.slc.cpg/sg12_173_cif.got.tgz:345992.got - 2010.06.28 00:19:55.
