data_PCOD8097191
_publ_section_title
;
Structure prediction by ZEFSAII (Michael W. Deem and Ramdas Pophale) SiO2 
 PCOD8097191
Probable space group: C 2/M
;
_chemical_formula_sum "Si O2"
_cell_formula_units_Z 56
_cell_length_a 27.726443
_cell_length_b 8.991726
_cell_length_c 11.742091
_cell_angle_alpha 90.000000
_cell_angle_beta 70.853196
_cell_angle_gamma 90.000000
_cell_volume 2765.463824
_symmetry_space_group_name_H-M "C 2/M"
_symmetry_group_IT_number 12
_symmetry_cell_setting 'monoclinic'
loop_
_space_group_symop_operation_xyz
x,y,z
-x,y,-z
-x,-y,-z
x,-y,z
1/2+x,1/2+y,z
1/2-x,1/2+y,-z
1/2-x,1/2-y,-z
1/2+x,1/2-y,z
loop_
_atom_site_type_symbol
_atom_site_label
_atom_site_fract_x
_atom_site_fract_y
_atom_site_fract_z
Si Si1 0.900824 0.326595 0.839271
Si Si2 0.339880 0.329214 0.704760
Si Si3 0.940784 0.176047 0.033339
Si Si4 0.900034 0.831552 0.438258
Si Si5 0.365910 0.829212 0.260493
Si Si6 0.497837 0.837393 0.368400
Si Si7 0.252945 0.827033 0.375339
O O1 0.891781 0.500000 0.868928
O O2 0.851278 0.261884 0.811783
O O3 0.911555 0.248180 0.950059
O O4 0.948109 0.289967 0.722009
O O5 0.332030 0.500000 0.746396
O O6 0.387365 0.311121 0.580964
O O7 0.289565 0.265697 0.679966
O O8 0.939310 0.000000 0.021835
O O9 0.907555 0.225760 0.167109
O O10 0.000000 0.230321 0.000000
O O11 0.865049 0.718818 0.393643
O O12 0.958446 0.790679 0.365158
O O13 0.890007 0.000000 0.406493
O O14 0.307181 0.803858 0.268622
O O15 0.382184 0.000000 0.232120
O O16 0.500000 0.851526 0.500000
O O17 0.481617 0.000000 0.330887
O O18 0.250000 0.750000 0.500000
O O19 0.242054 0.000000 0.407559
#
# Coordination Sequence:
#
# PCOD8097191 Si02
#       7
#     8   8   8   8   8   8   8
#     4  11  23  39  61  87 120 161 204 252 304 361
#     4  10  21  37  57  86 124 160 197 245 300 359
#     4  11  25  45  67  90 120 160 206 254 305 366
#     4  11  21  33  55  86 121 159 198 244 299 359
#     4  11  23  39  63  91 121 159 205 254 304 361
#     4  10  20  34  52  80 118 154 192 241 298 361
#     4  10  21  38  61  91 126 163 203 251 305 362
#
# _framework density 20.249768
#
# number of rings (size 3 to 8) (size 9 to 14) (size 15 to 20)
#    0.000    1.429    2.857    2.571    0.000    6.571 
#    0.000    0.714    0.000    0.000    0.000    0.000 
#    0.000    0.000    0.000    0.000    0.000    0.000 
#
# Total GULP energy -347115.451676 kJ/mol
# GULP energy per Si atom -12396.980417 kJ/mol
# Density = 2.020368 g / cm^3
# Si number density = 20.249768 Si / 1000 Ang^3
#
#
#
# Elastic Constant Matrix: (Units=GPa)
#
#
# Indices 1 2 3 4 5 6 
#
# 1 129.6371 51.7159 30.7002 0.0000 14.7199 0.0000
# 2 51.7159 83.8615 30.1250 0.0000 7.1119 0.0000
# 3 30.7002 30.1250 61.0030 0.0000 10.6512 0.0000
# 4 0.0000 0.0000 0.0000 31.8634 0.0000 6.5053
# 5 14.7199 7.1119 10.6512 0.0000 36.3478 0.0000
# 6 0.0000 0.0000 0.0000 6.5053 0.0000 30.3309
#
#
#
# Elastic Compliance Matrix: (Units=1/GPa)
#
#
# Indices 1 2 3 4 5 6 
#
# 1 0.010778 -0.005641 -0.002181 0.000000 -0.002622 0.000000
# 2 -0.005641 0.017469 -0.005891 0.000000 0.000593 0.000000
# 3 -0.002181 -0.005891 0.021125 0.000000 -0.004154 0.000000
# 4 0.000000 0.000000 0.000000 0.032821 0.000000 -0.007039
# 5 -0.002622 0.000593 -0.004154 0.000000 0.029675 0.000000
# 6 0.000000 0.000000 0.000000 -0.007039 0.000000 0.034479
#
#
# Mechanical properties :
#
#
# Convention : Reuss Voigt Hill
#
# Bulk Modulus (GPa) = 45.56637 55.50933 50.53785
# Shear Modulus (GPa) = 27.61054 30.50578 29.05816
#
# Velocity S-wave (km/s) = 3.69656 3.88555 3.79223
# Velocity P-wave (km/s) = 6.38518 6.89940 6.64726
#
# Compressibility (1/GPa) = 0.02194601
#
# Stress axis : x y z
#
# Youngs Moduli (GPa) = 92.77799 57.24343 47.33767
#
# Poissons Ratio (x) = 0.32292 0.10323
# Poissons Ratio (y) = 0.52337 0.27888
# Poissons Ratio (z) = 0.20232 0.33724
#
# Static dielectric constant tensor:
#      x y z
#    x 3.961990 0.000000 -0.091500 
#    y 0.000000 3.707400 0.000000 
#    z -0.091500 0.000000 3.720290 
# 
# 
# High freq. dielectric constant tensor:
#      x y z
#    x 1.798110 0.000000 0.004960 
#    y 0.000000 1.791590 0.000000 
#    z 0.004960 0.000000 1.772940 
# 
# From -- ./inp_files/180671.got.cif
#   From: 2010.06.25/outbox.cif.g09.slc.cpg/sg12_91_cif.got.tgz:180671.got - 2010.06.28 00:19:55.
