data_PCOD8097624
_publ_section_title
;
Structure prediction by ZEFSAII (Michael W. Deem and Ramdas Pophale) SiO2 
 PCOD8097624
Probable space group: C 2/M
;
_chemical_formula_sum "Si O2"
_cell_formula_units_Z 56
_cell_length_a 18.161321
_cell_length_b 9.175216
_cell_length_c 28.836912
_cell_angle_alpha 90.000000
_cell_angle_beta 38.480119
_cell_angle_gamma 90.000000
_cell_volume 2990.009260
_symmetry_space_group_name_H-M "C 2/M"
_symmetry_group_IT_number 12
_symmetry_cell_setting 'monoclinic'
loop_
_space_group_symop_operation_xyz
x,y,z
-x,y,-z
-x,-y,-z
x,-y,z
1/2+x,1/2+y,z
1/2-x,1/2+y,-z
1/2-x,1/2-y,-z
1/2+x,1/2-y,z
loop_
_atom_site_type_symbol
_atom_site_label
_atom_site_fract_x
_atom_site_fract_y
_atom_site_fract_z
Si Si1 0.079204 0.333227 0.005939
Si Si2 0.306308 0.830746 0.286970
Si Si3 0.155614 0.829907 0.140657
Si Si4 0.012282 0.829195 0.860673
Si Si5 0.526762 0.830297 0.711798
Si Si6 0.624792 0.827179 0.564385
Si Si7 0.533613 0.668227 0.430706
O O1 0.085104 0.500000 0.020613
O O2 0.022434 0.234004 0.072942
O O3 0.210090 0.274988 0.929580
O O4 0.000000 0.318002 0.000000
O O5 0.364231 0.740103 0.216700
O O6 0.366229 0.788330 0.306377
O O7 0.169621 0.788919 0.356729
O O8 0.325232 0.000000 0.266732
O O9 0.090315 0.788608 0.125135
O O10 0.093438 0.751095 0.214553
O O11 0.149529 0.000000 0.154230
O O12 0.030885 0.000000 0.856337
O O13 0.562812 0.780141 0.642830
O O14 0.498974 0.000000 0.727421
O O15 0.750000 0.750000 0.500000
O O16 0.544028 0.773921 0.562275
O O17 0.643054 0.000000 0.552587
O O18 0.500000 0.697661 0.500000
O O19 0.509307 0.500000 0.429303
#
# Coordination Sequence:
#
# PCOD8097624 Si02
#       7
#     8   8   8   8   8   8   8
#     4  10  21  36  53  75 105 140 178 218 262 318
#     4   9  18  35  58  79 104 141 179 217 266 323
#     4   9  19  35  55  79 105 136 176 220 265 317
#     4  10  20  34  54  79 106 136 174 221 267 314
#     4   9  19  36  57  80 106 139 179 221 266 320
#     4  11  23  38  57  83 114 147 185 227 272 323
#     4  10  21  38  59  82 110 145 185 227 273 328
#
# _framework density 18.729040000000001
#
# number of rings (size 3 to 8) (size 9 to 14) (size 15 to 20)
#    0.000    2.286    0.000    2.143    0.000    6.857 
#    0.000    7.143    0.000    0.000    0.000    0.000 
#    0.000    0.000    0.000    0.000    0.000    0.000 
#
# Total GULP energy -347317.894755 kJ/mol
# GULP energy per Si atom -12404.210527 kJ/mol
# Density = 1.868641 g / cm^3
# Si number density = 18.729040 Si / 1000 Ang^3
#
#
#
# Elastic Constant Matrix: (Units=GPa)
#
#
# Indices 1 2 3 4 5 6 
#
# 1 87.1059 44.2072 71.2942 -0.0004 -9.0161 -0.0011
# 2 44.2072 70.4174 70.5776 -0.0002 -0.1667 -0.0021
# 3 71.2942 70.5776 171.0468 -0.0002 -6.1009 -0.0002
# 4 -0.0004 -0.0002 -0.0002 -5.1731 -0.0003 -9.3980
# 5 -9.0161 -0.1667 -6.1009 -0.0003 31.7850 -0.0006
# 6 -0.0011 -0.0021 -0.0002 -9.3980 -0.0006 25.5757
#
#
#
# Elastic Compliance Matrix: (Units=1/GPa)
#
#
# Indices 1 2 3 4 5 6 
#
# 1 0.019845 -0.007370 -0.005066 -0.000001 0.004618 0.000000
# 2 -0.007370 0.027056 -0.008218 -0.000002 -0.003526 0.000001
# 3 -0.005066 -0.008218 0.011374 0.000001 0.000703 0.000000
# 4 -0.000001 -0.000002 0.000001 -0.115922 -0.000002 -0.042597
# 5 0.004618 -0.003526 0.000703 -0.000002 0.032888 0.000000
# 6 0.000000 0.000001 0.000000 -0.042597 0.000000 0.023447
#
#
# Mechanical properties :
#
#
# Convention : Reuss Voigt Hill
#
# Bulk Modulus (GPa) = 58.93675 77.85867 68.39771
# Shear Modulus (GPa) = 109.52732 19.93694 64.73213
#
# Velocity S-wave (km/s) = 7.65551 3.26620 5.88536
# Velocity P-wave (km/s) = 10.47277 7.47565 9.09847
#
# Compressibility (1/GPa) = 0.01696734
#
# Stress axis : x y z
#
# Youngs Moduli (GPa) = 50.39053 36.96041 87.92229
#
# Poissons Ratio (x) = 0.27241 0.44539
# Poissons Ratio (y) = 0.37139 0.72251
# Poissons Ratio (z) = 0.25527 0.30373
#
# Static dielectric constant tensor:
#      x y z
#    x 3.438360 0.000000 -0.063380 
#    y 0.000000 3.400990 0.000000 
#    z -0.063380 0.000000 3.612080 
# 
# 
# High freq. dielectric constant tensor:
#      x y z
#    x 1.724330 0.000000 -0.002930 
#    y 0.000000 1.724160 0.000000 
#    z -0.002930 0.000000 1.741720 
# 
# From -- ./inp_files/275164.got.cif
#   From: 2010.06.25/outbox.cif.g09.slc.cpg/sg12_138_cif.got.tgz:275164.got - 2010.06.28 00:19:55.
