data_PCOD8097279
_publ_section_title
;
Structure prediction by ZEFSAII (Michael W. Deem and Ramdas Pophale) SiO2 
 PCOD8097279
Probable space group: C 2/M
;
_chemical_formula_sum "Si O2"
_cell_formula_units_Z 48
_cell_length_a 28.053102
_cell_length_b 20.928129
_cell_length_c 9.901070
_cell_angle_alpha 90.000000
_cell_angle_beta 152.852046
_cell_angle_gamma 90.000000
_cell_volume 2652.370573
_symmetry_space_group_name_H-M "C 2/M"
_symmetry_group_IT_number 12
_symmetry_cell_setting 'monoclinic'
loop_
_space_group_symop_operation_xyz
x,y,z
-x,y,-z
-x,-y,-z
x,-y,z
1/2+x,1/2+y,z
1/2-x,1/2+y,-z
1/2-x,1/2-y,-z
1/2+x,1/2-y,z
loop_
_atom_site_type_symbol
_atom_site_label
_atom_site_fract_x
_atom_site_fract_y
_atom_site_fract_z
Si Si1 0.929264 0.721458 0.201453
Si Si2 0.908638 0.927455 0.176083
Si Si3 0.704879 0.675116 0.986023
Si Si4 0.882497 0.234919 0.478591
Si Si5 0.730421 0.307821 0.555920
Si Si6 0.097169 0.926378 0.147621
O O1 0.871363 0.780712 0.119907
O O2 0.000000 0.688758 0.500000
O O3 0.996981 0.749922 0.247782
O O4 0.838656 0.676503 0.909630
O O5 0.802126 0.893201 0.957621
O O6 0.000000 0.898427 0.500000
O O7 0.888182 0.000000 0.160948
O O8 0.940818 0.918126 0.101851
O O9 0.664047 0.676496 0.728638
O O10 0.823090 0.699404 0.288941
O O11 0.863545 0.216928 0.585516
O O12 0.750000 0.250000 0.500000
O O13 0.692676 0.376145 0.402960
O O14 0.135081 0.000000 0.268826
O O15 0.000000 0.909731 0.000000
#
# Coordination Sequence:
#
# PCOD8097279 Si02
#       6
#     8   8   8   8   8   8
#     4   9  18  34  52  76 107 139 181 234 284 325
#     4  10  20  34  53  76 105 143 184 223 265 331
#     4   9  17  30  51  79 104 138 178 222 280 320
#     4   9  18  31  51  76 108 140 173 230 279 318
#     4  11  23  33  54  85 110 149 193 230 280 339
#     4  10  23  39  55  80 118 154 181 227 293 342
#
# _framework density 18.097019
#
# number of rings (size 3 to 8) (size 9 to 14) (size 15 to 20)
#    0.000    2.333    0.000    4.500    7.000    0.000 
#    0.000    0.000    0.000    1.500    0.000    3.500 
#    0.000    0.000    0.000    0.000    0.000    0.000 
#
# Total GULP energy -297346.456910 kJ/mol
# GULP energy per Si atom -12389.435705 kJ/mol
# Density = 1.805583 g / cm^3
# Si number density = 18.097019 Si / 1000 Ang^3
#
#
#
# Elastic Constant Matrix: (Units=GPa)
#
#
# Indices 1 2 3 4 5 6 
#
# 1 103.5718 25.2769 19.2980 0.0000 -8.1584 0.0000
# 2 25.2769 80.4201 37.3159 0.0000 -7.5865 0.0000
# 3 19.2980 37.3159 90.2943 0.0000 -5.1080 0.0000
# 4 0.0000 0.0000 0.0000 21.3842 0.0000 0.7213
# 5 -8.1584 -7.5865 -5.1080 0.0000 24.8983 0.0000
# 6 0.0000 0.0000 0.0000 0.7213 0.0000 26.6748
#
#
#
# Elastic Compliance Matrix: (Units=1/GPa)
#
#
# Indices 1 2 3 4 5 6 
#
# 1 0.010691 -0.002637 -0.001055 0.000000 0.002483 0.000000
# 2 -0.002637 0.016329 -0.006022 0.000000 0.002876 0.000000
# 3 -0.001055 -0.006022 0.013826 0.000000 0.000656 0.000000
# 4 0.000000 0.000000 0.000000 0.046806 0.000000 -0.001266
# 5 0.002483 0.002876 0.000656 0.000000 0.041988 0.000000
# 6 0.000000 0.000000 0.000000 -0.001266 0.000000 0.037523
#
#
# Mechanical properties :
#
#
# Convention : Reuss Voigt Hill
#
# Bulk Modulus (GPa) = 46.68723 48.67420 47.68071
# Shear Modulus (GPa) = 25.80918 27.41782 26.61350
#
# Velocity S-wave (km/s) = 3.78055 3.89658 3.83900
# Velocity P-wave (km/s) = 6.70157 6.87016 6.78639
#
# Compressibility (1/GPa) = 0.02141913
#
# Stress axis : x y z
#
# Youngs Moduli (GPa) = 93.53904 61.24065 72.32657
#
# Poissons Ratio (x) = 0.16146 0.07629
# Poissons Ratio (y) = 0.24662 0.43556
# Poissons Ratio (z) = 0.09866 0.36880
#
# Static dielectric constant tensor:
#      x y z
#    x 3.660840 0.000000 -0.004360 
#    y 0.000000 3.239830 0.000000 
#    z -0.004360 0.000000 3.867510 
# 
# 
# High freq. dielectric constant tensor:
#      x y z
#    x 1.720150 0.000000 -0.011390 
#    y 0.000000 1.665660 0.000000 
#    z -0.011390 0.000000 1.688170 
# 
# From -- ./inp_files/106603.got.cif
#   From: 2010.06.25/outbox.cif.g09.slc.cpg/sg12_54_cif.got.tgz:106603.got - 2010.06.28 00:19:55.
