data_PCOD8097696
_publ_section_title
;
Structure prediction by ZEFSAII (Michael W. Deem and Ramdas Pophale) SiO2 
 PCOD8097696
Probable space group: C 2/M
;
_chemical_formula_sum "Si O2"
_cell_formula_units_Z 64
_cell_length_a 18.005254
_cell_length_b 9.145914
_cell_length_c 30.396578
_cell_angle_alpha 90.000000
_cell_angle_beta 42.373229
_cell_angle_gamma 90.000000
_cell_volume 3373.521066
_symmetry_space_group_name_H-M "C 2/M"
_symmetry_group_IT_number 12
_symmetry_cell_setting 'monoclinic'
loop_
_space_group_symop_operation_xyz
x,y,z
-x,y,-z
-x,-y,-z
x,-y,z
1/2+x,1/2+y,z
1/2-x,1/2+y,-z
1/2-x,1/2-y,-z
1/2+x,1/2-y,z
loop_
_atom_site_type_symbol
_atom_site_label
_atom_site_fract_x
_atom_site_fract_y
_atom_site_fract_z
Si Si1 0.316374 0.330402 0.816626
Si Si2 0.941275 0.173439 0.311268
Si Si3 0.243383 0.170859 0.934341
Si Si4 0.840803 0.331931 0.196286
Si Si5 0.413290 0.169451 0.934914
Si Si6 0.043811 0.169118 0.432527
Si Si7 0.231337 0.173413 0.685535
Si Si8 0.363122 0.327814 0.439933
O O1 0.319179 0.500000 0.829044
O O2 0.438707 0.266904 0.754883
O O3 0.258803 0.241249 0.880249
O O4 0.248396 0.305853 0.802181
O O5 0.852249 0.230770 0.315248
O O6 0.908795 0.232601 0.373588
O O7 0.946063 0.000000 0.310604
O O8 0.349520 0.207470 0.917780
O O9 0.225287 0.000000 0.936289
O O10 0.133987 0.236748 0.004229
O O11 0.840848 0.500000 0.212189
O O12 0.810879 0.228779 0.249471
O O13 0.960122 0.286387 0.126114
O O14 0.398879 0.000000 0.953436
O O15 0.148907 0.267030 0.377545
O O16 0.000000 0.203563 0.500000
O O17 0.950202 0.214499 0.439150
O O18 0.077048 0.000000 0.412375
O O19 0.236027 0.000000 0.684347
O O20 0.341519 0.500000 0.447739
O O21 0.250000 0.250000 0.500000
#
# Coordination Sequence:
#
# PCOD8097696 Si02
#       8
#     8   8   8   8   8   8   8   8
#     4  10  20  36  57  77 103 141 179 216 263 321
#     4   9  19  35  54  77 105 139 176 214 263 319
#     4  10  20  34  54  80 109 139 174 222 271 314
#     4  10  21  37  57  79 105 140 180 221 265 317
#     4   9  19  36  56  78 105 141 183 220 261 319
#     4  10  21  37  57  81 110 145 183 221 263 314
#     4  11  22  35  55  81 108 139 176 221 270 318
#     4  10  20  36  57  80 109 142 178 220 264 313
#
# _framework density 18.971278000000002
#
# number of rings (size 3 to 8) (size 9 to 14) (size 15 to 20)
#    0.000    2.125    0.000    3.000    0.000    4.750 
#    0.000    4.375    0.000    0.000    0.000    0.000 
#    0.000    0.000    0.000    0.000    0.000    0.000 
#
# Total GULP energy -396946.110620 kJ/mol
# GULP energy per Si atom -12404.565957 kJ/mol
# Density = 1.892810 g / cm^3
# Si number density = 18.971278 Si / 1000 Ang^3
#
#
#
# Elastic Constant Matrix: (Units=GPa)
#
#
# Indices 1 2 3 4 5 6 
#
# 1 130.3596 54.5565 86.0259 0.0001 -5.5143 0.0014
# 2 54.5565 66.6345 63.1543 0.0002 0.6757 0.0042
# 3 86.0259 63.1543 150.2099 0.0008 -1.4314 0.0010
# 4 0.0001 0.0002 0.0008 22.7779 0.0000 1.2379
# 5 -5.5143 0.6757 -1.4314 0.0000 39.3680 0.0003
# 6 0.0014 0.0042 0.0010 1.2379 0.0003 22.7089
#
#
#
# Elastic Compliance Matrix: (Units=1/GPa)
#
#
# Indices 1 2 3 4 5 6 
#
# 1 0.013899 -0.006436 -0.005236 0.000000 0.001867 0.000001
# 2 -0.006436 0.027955 -0.008083 0.000000 -0.001675 -0.000004
# 3 -0.005236 -0.008083 0.013054 0.000000 -0.000120 0.000001
# 4 0.000000 0.000000 0.000000 0.044033 0.000000 -0.002400
# 5 0.001867 -0.001675 -0.000120 0.000000 0.025687 0.000000
# 6 0.000001 -0.000004 0.000001 -0.002400 0.000000 0.044166
#
#
# Mechanical properties :
#
#
# Convention : Reuss Voigt Hill
#
# Bulk Modulus (GPa) = 64.95090 83.85303 74.40197
# Shear Modulus (GPa) = 23.42610 26.53546 24.98078
#
# Velocity S-wave (km/s) = 3.51781 3.74400 3.63267
# Velocity P-wave (km/s) = 7.12817 7.93637 7.54310
#
# Compressibility (1/GPa) = 0.01539625
#
# Stress axis : x y z
#
# Youngs Moduli (GPa) = 71.94743 35.77214 76.60647
#
# Poissons Ratio (x) = 0.23022 0.40114
# Poissons Ratio (y) = 0.46304 0.61925
# Poissons Ratio (z) = 0.37675 0.28916
#
# Static dielectric constant tensor:
#      x y z
#    x 3.997170 0.000020 0.947410 
#    y 0.000020 3.326010 0.000060 
#    z 0.947410 0.000060 6.003670 
# 
# 
# High freq. dielectric constant tensor:
#      x y z
#    x 1.748230 0.000000 -0.000700 
#    y 0.000000 1.721180 0.000000 
#    z -0.000700 0.000000 1.752670 
# 
# From -- ./inp_files/378118.got.cif
#   From: 2010.06.25/outbox.cif.g09.slc.cpg/sg12_190_cif.got.tgz:378118.got - 2010.06.28 00:19:55.
