data_PCOD8097161
_publ_section_title
;
Structure prediction by ZEFSAII (Michael W. Deem and Ramdas Pophale) SiO2 
 PCOD8097161
Probable space group: C 2/M
;
_chemical_formula_sum "Si O2"
_cell_formula_units_Z 56
_cell_length_a 19.428114
_cell_length_b 9.008026
_cell_length_c 28.036129
_cell_angle_alpha 90.000000
_cell_angle_beta 37.558094
_cell_angle_gamma 90.000000
_cell_volume 2990.878139
_symmetry_space_group_name_H-M "C 2/M"
_symmetry_group_IT_number 12
_symmetry_cell_setting 'monoclinic'
loop_
_space_group_symop_operation_xyz
x,y,z
-x,y,-z
-x,-y,-z
x,-y,z
1/2+x,1/2+y,z
1/2-x,1/2+y,-z
1/2-x,1/2-y,-z
1/2+x,1/2-y,z
loop_
_atom_site_type_symbol
_atom_site_label
_atom_site_fract_x
_atom_site_fract_y
_atom_site_fract_z
Si Si1 0.365807 0.674852 0.951050
Si Si2 0.515103 0.174381 0.634449
Si Si3 0.569359 0.323745 0.508012
Si Si4 0.617517 0.834180 0.961513
Si Si5 0.317579 0.167406 0.813144
Si Si6 0.509922 0.830595 0.196979
Si Si7 0.825007 0.676502 0.370606
O O1 0.352754 0.500000 0.954402
O O2 0.467566 0.728911 0.861213
O O3 0.250000 0.750000 0.000000
O O4 0.394386 0.719660 0.988916
O O5 0.511090 0.260171 0.587001
O O6 0.398684 0.212757 0.725079
O O7 0.619771 0.231594 0.609819
O O8 0.526515 0.000000 0.618427
O O9 0.500000 0.267787 0.500000
O O10 0.568173 0.500000 0.511652
O O11 0.697941 0.263342 0.434742
O O12 0.712363 0.778764 0.872176
O O13 0.649897 0.000000 0.961577
O O14 0.500000 0.838097 0.000000
O O15 0.383309 0.178713 0.826834
O O16 0.273487 0.000000 0.829988
O O17 0.398955 0.767504 0.285011
O O18 0.491193 0.000000 0.190395
O O19 0.831342 0.500000 0.367095
#
# Coordination Sequence:
#
# PCOD8097161 Si02
#       7
#     8   8   8   8   8   8   8
#     4  12  23  36  58  85 114 147 187 232 278 328
#     4   9  18  34  57  81 103 137 183 225 271 318
#     4  10  20  34  52  78 112 146 179 216 268 328
#     4  11  24  40  57  81 112 148 189 231 279 334
#     4   9  18  34  57  81 107 142 182 228 279 328
#     4   9  17  33  57  82 107 141 185 231 277 323
#     4   8  16  33  56  79 106 141 181 223 268 319
#
# _framework density 18.723597000000002
#
# number of rings (size 3 to 8) (size 9 to 14) (size 15 to 20)
#    0.000    2.286    1.429    3.857    0.000    2.000 
#    2.571    2.857    0.000    0.000    0.000    0.000 
#    0.000    0.000    0.000    0.000    0.000    0.000 
#
# Total GULP energy -347202.617053 kJ/mol
# GULP energy per Si atom -12400.093466 kJ/mol
# Density = 1.868098 g / cm^3
# Si number density = 18.723597 Si / 1000 Ang^3
#
#
#
# Elastic Constant Matrix: (Units=GPa)
#
#
# Indices 1 2 3 4 5 6 
#
# 1 94.7424 37.6475 63.2174 0.0001 7.5100 -0.0001
# 2 37.6475 81.4846 48.8577 0.0002 3.6538 -0.0001
# 3 63.2174 48.8577 133.4777 0.0000 8.9358 -0.0001
# 4 0.0001 0.0002 0.0000 31.2937 0.0000 6.7623
# 5 7.5100 3.6538 8.9358 0.0000 28.2532 0.0001
# 6 -0.0001 -0.0001 -0.0001 6.7623 0.0001 21.1657
#
#
#
# Elastic Compliance Matrix: (Units=1/GPa)
#
#
# Indices 1 2 3 4 5 6 
#
# 1 0.016360 -0.003720 -0.006260 0.000000 -0.001888 0.000000
# 2 -0.003720 0.016570 -0.004317 0.000000 0.000211 0.000000
# 3 -0.006260 -0.004317 0.012146 0.000000 -0.001619 0.000000
# 4 0.000000 0.000000 0.000000 0.034325 0.000000 -0.010967
# 5 -0.001888 0.000211 -0.001619 0.000000 0.036381 0.000000
# 6 0.000000 0.000000 0.000000 -0.010967 0.000000 0.050750
#
#
# Mechanical properties :
#
#
# Convention : Reuss Voigt Hill
#
# Bulk Modulus (GPa) = 60.68037 67.68333 64.18185
# Shear Modulus (GPa) = 24.92253 26.80798 25.86526
#
# Velocity S-wave (km/s) = 3.65235 3.78799 3.72079
# Velocity P-wave (km/s) = 7.08979 7.44036 7.26719
#
# Compressibility (1/GPa) = 0.01647979
#
# Stress axis : x y z
#
# Youngs Moduli (GPa) = 61.12411 60.34845 82.33437
#
# Poissons Ratio (x) = 0.22452 0.51544
# Poissons Ratio (y) = 0.22741 0.35548
# Poissons Ratio (z) = 0.38265 0.26055
#
# Static dielectric constant tensor:
#      x y z
#    x 3.058910 0.000000 -0.165140 
#    y 0.000000 3.362940 0.000000 
#    z -0.165140 0.000000 3.599920 
# 
# 
# High freq. dielectric constant tensor:
#      x y z
#    x 1.707330 0.000000 0.004250 
#    y 0.000000 1.709680 0.000000 
#    z 0.004250 0.000000 1.741600 
# 
# From -- ./inp_files/362878.got.cif
#   From: 2010.06.25/outbox.cif.g09.slc.cpg/sg12_182_cif.got.tgz:362878.got - 2010.06.28 00:19:55.
