data_PCOD8097588
_publ_section_title
;
Structure prediction by ZEFSAII (Michael W. Deem and Ramdas Pophale) SiO2 
 PCOD8097588
Probable space group: C 2/M
;
_chemical_formula_sum "Si O2"
_cell_formula_units_Z 56
_cell_length_a 9.161905
_cell_length_b 10.636068
_cell_length_c 35.521040
_cell_angle_alpha 90.000000
_cell_angle_beta 58.811968
_cell_angle_gamma 90.000000
_cell_volume 2961.137600
_symmetry_space_group_name_H-M "C 2/M"
_symmetry_group_IT_number 12
_symmetry_cell_setting 'monoclinic'
loop_
_space_group_symop_operation_xyz
x,y,z
-x,y,-z
-x,-y,-z
x,-y,z
1/2+x,1/2+y,z
1/2-x,1/2+y,-z
1/2-x,1/2-y,-z
1/2+x,1/2-y,z
loop_
_atom_site_type_symbol
_atom_site_label
_atom_site_fract_x
_atom_site_fract_y
_atom_site_fract_z
Si Si1 0.399807 0.640827 0.875712
Si Si2 0.411548 0.142712 0.378617
Si Si3 0.323642 0.143062 0.168102
Si Si4 0.354492 0.639780 0.732582
Si Si5 0.699644 0.859581 0.978624
Si Si6 0.700680 0.355115 0.476726
Si Si7 0.782759 0.239920 0.322360
O O1 0.484012 0.500000 0.866433
O O2 0.531745 0.752916 0.853714
O O3 0.277262 0.647023 0.856801
O O4 0.289459 0.667622 0.927226
O O5 0.283545 0.198923 0.426872
O O6 0.604018 0.187053 0.360440
O O7 0.343248 0.159294 0.345252
O O8 0.416076 0.000000 0.387225
O O9 0.199389 0.185389 0.218726
O O10 0.395383 0.000000 0.164749
O O11 0.293646 0.500000 0.734264
O O12 0.246187 0.712824 0.715933
O O13 0.559631 0.643102 0.700701
O O14 0.750226 0.000000 0.986865
O O15 0.500000 0.852911 0.000000
O O16 0.750000 0.750000 0.000000
O O17 0.500000 0.355280 0.500000
O O18 0.759341 0.500000 0.479027
O O19 0.750000 0.250000 0.500000
#
# Coordination Sequence:
#
# PCOD8097588 Si02
#       7
#     8   8   8   8   8   8   8
#     4  10  21  37  56  81 111 143 181 223 268 319
#     4  10  20  35  54  77 106 139 176 218 265 316
#     4  10  21  37  57  80 109 144 180 221 268 319
#     4  10  20  35  54  78 106 137 176 219 264 314
#     4  10  21  37  57  81 110 143 180 223 270 320
#     4  10  21  37  56  80 110 143 180 222 268 320
#     4  10  20  34  54  78 105 137 175 217 266 316
#
# _framework density 18.911652
#
# number of rings (size 3 to 8) (size 9 to 14) (size 15 to 20)
#    0.000    2.000    0.000    3.429    0.000    2.857 
#    0.000    7.143    0.000    0.000    0.000    0.000 
#    0.000    0.000    0.000    0.000    0.000    0.000 
#
# Total GULP energy -346898.268316 kJ/mol
# GULP energy per Si atom -12389.223868 kJ/mol
# Density = 1.886861 g / cm^3
# Si number density = 18.911652 Si / 1000 Ang^3
#
#
#
# Elastic Constant Matrix: (Units=GPa)
#
#
# Indices 1 2 3 4 5 6 
#
# 1 90.2410 49.3477 47.0746 0.0000 -1.2080 0.0000
# 2 49.3477 114.4391 59.5625 0.0000 -0.1015 0.0000
# 3 47.0746 59.5625 152.3355 0.0000 2.4991 0.0000
# 4 0.0000 0.0000 0.0000 32.9873 0.0000 -0.7983
# 5 -1.2080 -0.1015 2.4991 0.0000 40.3751 0.0000
# 6 0.0000 0.0000 0.0000 -0.7983 0.0000 29.0245
#
#
#
# Elastic Compliance Matrix: (Units=1/GPa)
#
#
# Indices 1 2 3 4 5 6 
#
# 1 0.015355 -0.005205 -0.002720 0.000000 0.000615 0.000000
# 2 -0.005205 0.012739 -0.003374 0.000000 0.000085 0.000000
# 3 -0.002720 -0.003374 0.008734 0.000000 -0.000630 0.000000
# 4 0.000000 0.000000 0.000000 0.030335 0.000000 0.000834
# 5 0.000615 0.000085 -0.000630 0.000000 0.024825 0.000000
# 6 0.000000 0.000000 0.000000 0.000834 0.000000 0.034477
#
#
# Mechanical properties :
#
#
# Convention : Reuss Voigt Hill
#
# Bulk Modulus (GPa) = 70.27058 74.33169 72.30114
# Shear Modulus (GPa) = 32.50851 33.87941 33.19396
#
# Velocity S-wave (km/s) = 4.15054 4.23715 4.19407
# Velocity P-wave (km/s) = 7.75933 7.95789 7.85924
#
# Compressibility (1/GPa) = 0.01423071
#
# Stress axis : x y z
#
# Youngs Moduli (GPa) = 65.12598 78.50047 114.48960
#
# Poissons Ratio (x) = 0.40860 0.31140
# Poissons Ratio (y) = 0.33898 0.38626
# Poissons Ratio (z) = 0.17713 0.26484
#
# Static dielectric constant tensor:
#      x y z
#    x 3.274530 0.000000 -0.035050 
#    y 0.000000 3.708350 0.000000 
#    z -0.035050 0.000000 3.748370 
# 
# 
# High freq. dielectric constant tensor:
#      x y z
#    x 1.728790 0.000000 -0.001390 
#    y 0.000000 1.737410 0.000000 
#    z -0.001390 0.000000 1.757330 
# 
# From -- ./inp_files/355759.got.cif
#   From: 2010.06.25/outbox.cif.g09.slc.cpg/sg12_178_cif.got.tgz:355759.got - 2010.06.28 00:19:55.
