data_PCOD8097792
_publ_section_title
;
Structure prediction by ZEFSAII (Michael W. Deem and Ramdas Pophale) SiO2 
 PCOD8097792
Probable space group: C 2/M
;
_chemical_formula_sum "Si O2"
_cell_formula_units_Z 48
_cell_length_a 19.815670
_cell_length_b 8.927427
_cell_length_c 14.559063
_cell_angle_alpha 90.000000
_cell_angle_beta 115.315644
_cell_angle_gamma 90.000000
_cell_volume 2328.201200
_symmetry_space_group_name_H-M "C 2/M"
_symmetry_group_IT_number 12
_symmetry_cell_setting 'monoclinic'
loop_
_space_group_symop_operation_xyz
x,y,z
-x,y,-z
-x,-y,-z
x,-y,z
1/2+x,1/2+y,z
1/2-x,1/2+y,-z
1/2-x,1/2-y,-z
1/2+x,1/2-y,z
loop_
_atom_site_type_symbol
_atom_site_label
_atom_site_fract_x
_atom_site_fract_y
_atom_site_fract_z
Si Si1 0.854049 0.332471 0.075760
Si Si2 0.750562 0.829641 0.147708
Si Si3 0.014997 0.672040 0.107712
Si Si4 0.233017 0.323663 0.654682
Si Si5 0.573712 0.822802 0.492649
Si Si6 0.623902 0.821938 0.324209
O O1 0.831118 0.500000 0.095192
O O2 0.820953 0.210314 0.125012
O O3 0.942327 0.313439 0.128760
O O4 0.824912 0.307501 0.954887
O O5 0.745963 0.718465 0.229726
O O6 0.758863 0.000000 0.187271
O O7 0.035624 0.500000 0.099563
O O8 0.081888 0.740872 0.208147
O O9 0.000000 0.752407 0.000000
O O10 0.237480 0.500000 0.642612
O O11 0.149748 0.263240 0.584585
O O12 0.293599 0.248439 0.622235
O O13 0.500000 0.753495 0.500000
O O14 0.576629 0.775704 0.387133
O O15 0.570534 0.000000 0.501221
O O16 0.631981 0.000000 0.324890
#
# Coordination Sequence:
#
# PCOD8097792 Si02
#       6
#     8   8   8   8   8   8
#     4   9  18  33  54  81 112 147 192 237 276 326
#     4  10  20  34  54  81 114 149 187 231 283 339
#     4   9  17  30  53  83 111 144 187 228 270 328
#     4  11  22  36  58  83 113 147 187 235 284 341
#     4   9  20  37  59  86 109 140 193 244 282 330
#     4  10  20  36  60  84 112 149 187 234 286 334
#
# _framework density 20.616775000000001
#
# number of rings (size 3 to 8) (size 9 to 14) (size 15 to 20)
#    0.000    2.333    0.000    2.500    2.333    3.333 
#    0.000    1.667    0.000    4.500    0.000    0.000 
#    0.000    0.000    0.000    0.000    0.000    0.000 
#
# Total GULP energy -297521.448479 kJ/mol
# GULP energy per Si atom -12396.727020 kJ/mol
# Density = 2.056985 g / cm^3
# Si number density = 20.616775 Si / 1000 Ang^3
#
#
#
# Elastic Constant Matrix: (Units=GPa)
#
#
# Indices 1 2 3 4 5 6 
#
# 1 141.4660 23.5160 64.3363 0.0000 7.4698 0.0000
# 2 23.5160 32.3099 25.2971 0.0000 2.7317 0.0000
# 3 64.3363 25.2971 103.2340 0.0000 -1.9607 0.0000
# 4 0.0000 0.0000 0.0000 16.3121 0.0000 -1.6333
# 5 7.4698 2.7317 -1.9607 0.0000 28.9523 0.0000
# 6 0.0000 0.0000 0.0000 -1.6333 0.0000 26.2357
#
#
#
# Elastic Compliance Matrix: (Units=1/GPa)
#
#
# Indices 1 2 3 4 5 6 
#
# 1 0.010312 -0.002717 -0.005814 0.000000 -0.002798 0.000000
# 2 -0.002717 0.039545 -0.008065 0.000000 -0.003576 0.000000
# 3 -0.005814 -0.008065 0.015349 0.000000 0.003300 0.000000
# 4 0.000000 0.000000 0.000000 0.061689 0.000000 0.003840
# 5 -0.002798 -0.003576 0.003300 0.000000 0.035822 0.000000
# 6 0.000000 0.000000 0.000000 0.003840 0.000000 0.038355
#
#
# Mechanical properties :
#
#
# Convention : Reuss Voigt Hill
#
# Bulk Modulus (GPa) = 31.23625 55.92318 43.57972
# Shear Modulus (GPa) = 20.41353 25.22406 22.81879
#
# Velocity S-wave (km/s) = 3.15007 3.50161 3.33048
# Velocity P-wave (km/s) = 5.33051 6.59791 5.99778
#
# Compressibility (1/GPa) = 0.03201409
#
# Stress axis : x y z
#
# Youngs Moduli (GPa) = 96.97083 25.28793 65.15022
#
# Poissons Ratio (x) = 0.06870 0.37879
# Poissons Ratio (y) = 0.26345 0.52544
# Poissons Ratio (z) = 0.56380 0.20395
#
# Static dielectric constant tensor:
#      x y z
#    x 3.897910 0.000000 0.071200 
#    y 0.000000 3.319200 0.000000 
#    z 0.071200 0.000000 3.877670 
# 
# 
# High freq. dielectric constant tensor:
#      x y z
#    x 1.817840 0.000000 0.000180 
#    y 0.000000 1.754860 0.000000 
#    z 0.000180 0.000000 1.813920 
# 
# From -- ./inp_files/164316.got.cif
#   From: 2010.06.25/outbox.cif.g09.slc.cpg/sg12_83_cif.got.tgz:164316.got - 2010.06.28 00:19:55.
