data_PCOD8097723
_publ_section_title
;
Structure prediction by ZEFSAII (Michael W. Deem and Ramdas Pophale) SiO2 
 PCOD8097723
Probable space group: C 2/M
;
_chemical_formula_sum "Si O2"
_cell_formula_units_Z 56
_cell_length_a 18.472340
_cell_length_b 8.883169
_cell_length_c 29.073987
_cell_angle_alpha 90.000000
_cell_angle_beta 37.538373
_cell_angle_gamma 90.000000
_cell_volume 2906.834823
_symmetry_space_group_name_H-M "C 2/M"
_symmetry_group_IT_number 12
_symmetry_cell_setting 'monoclinic'
loop_
_space_group_symop_operation_xyz
x,y,z
-x,y,-z
-x,-y,-z
x,-y,z
1/2+x,1/2+y,z
1/2-x,1/2+y,-z
1/2-x,1/2-y,-z
1/2+x,1/2-y,z
loop_
_atom_site_type_symbol
_atom_site_label
_atom_site_fract_x
_atom_site_fract_y
_atom_site_fract_z
Si Si1 0.217967 0.326521 0.063102
Si Si2 0.663220 0.326286 0.234435
Si Si3 0.363052 0.170251 0.063200
Si Si4 0.742036 0.674717 0.364984
Si Si5 0.905248 0.322011 0.640261
Si Si6 0.338216 0.323193 0.491820
Si Si7 0.985710 0.323231 0.768247
O O1 0.214902 0.500000 0.054022
O O2 0.320178 0.289483 0.047709
O O3 0.091581 0.274208 0.148262
O O4 0.250000 0.250000 0.000000
O O5 0.636330 0.500000 0.259082
O O6 0.792430 0.305488 0.146308
O O7 0.669971 0.232455 0.277978
O O8 0.558526 0.266023 0.254236
O O9 0.341593 0.000000 0.056078
O O10 0.500000 0.204831 0.000000
O O11 0.719325 0.500000 0.364894
O O12 0.661186 0.774545 0.372700
O O13 0.708135 0.712852 0.434044
O O14 0.879223 0.718950 0.288539
O O15 0.919695 0.500000 0.633674
O O16 0.033088 0.246760 0.579125
O O17 0.344623 0.500000 0.479231
O O18 0.250000 0.250000 0.500000
O O19 0.970963 0.500000 0.764918
#
# Coordination Sequence:
#
# PCOD8097723 Si02
#       7
#     8   8   8   8   8   8   8
#     4  10  20  34  54  80 112 148 186 230 278 333
#     4  10  20  36  59  83 110 146 188 233 280 336
#     4   9  19  36  57  81 110 145 185 231 285 341
#     4  10  22  40  60  83 112 145 183 230 282 331
#     4  12  25  39  57  83 117 152 187 230 276 327
#     4  11  23  40  64  90 116 148 186 229 278 334
#     4   9  19  37  59  82 110 145 185 231 284 338
#
# _framework density 19.264939999999999
#
# number of rings (size 3 to 8) (size 9 to 14) (size 15 to 20)
#    0.000    1.857    0.000    3.857    0.000    7.143 
#    0.000    5.714    0.000    0.000    0.000    0.000 
#    0.000    0.000    0.000    0.000    0.000    0.000 
#
# Total GULP energy -347283.423139 kJ/mol
# GULP energy per Si atom -12402.979398 kJ/mol
# Density = 1.922109 g / cm^3
# Si number density = 19.264940 Si / 1000 Ang^3
#
#
#
# Elastic Constant Matrix: (Units=GPa)
#
#
# Indices 1 2 3 4 5 6 
#
# 1 126.2516 62.4701 74.8856 -0.0002 -0.4049 -0.0015
# 2 62.4701 90.2219 52.8649 -0.0003 11.5025 -0.0040
# 3 74.8856 52.8649 125.4811 0.0000 1.7717 0.0003
# 4 -0.0002 -0.0003 0.0000 30.5310 0.0001 3.7806
# 5 -0.4049 11.5025 1.7717 0.0001 37.6273 0.0004
# 6 -0.0015 -0.0040 0.0003 3.7806 0.0004 39.4188
#
#
#
# Elastic Compliance Matrix: (Units=1/GPa)
#
#
# Indices 1 2 3 4 5 6 
#
# 1 0.015068 -0.007279 -0.005964 0.000000 0.002668 0.000000
# 2 -0.007279 0.018931 -0.003551 0.000000 -0.005698 0.000002
# 3 -0.005964 -0.003551 0.013019 0.000000 0.000408 -0.000001
# 4 0.000000 0.000000 0.000000 0.033147 0.000000 -0.003179
# 5 0.002668 -0.005698 0.000408 0.000000 0.028328 -0.000001
# 6 0.000000 0.000002 -0.000001 -0.003179 -0.000001 0.025673
#
#
# Mechanical properties :
#
#
# Convention : Reuss Voigt Hill
#
# Bulk Modulus (GPa) = 74.45784 80.26619 77.36201
# Shear Modulus (GPa) = 29.03076 31.63102 30.33089
#
# Velocity S-wave (km/s) = 3.88612 4.05643 3.97219
# Velocity P-wave (km/s) = 7.67263 7.98087 7.82827
#
# Compressibility (1/GPa) = 0.01343042
#
# Stress axis : x y z
#
# Youngs Moduli (GPa) = 66.36439 52.82291 76.81350
#
# Poissons Ratio (x) = 0.38451 0.45808
# Poissons Ratio (y) = 0.48309 0.27277
# Poissons Ratio (z) = 0.39577 0.18758
#
# Static dielectric constant tensor:
#      x y z
#    x 3.413400 0.000000 0.057810 
#    y 0.000000 3.610350 0.000010 
#    z 0.057810 0.000010 3.643080 
# 
# 
# High freq. dielectric constant tensor:
#      x y z
#    x 1.745750 0.000000 0.000620 
#    y 0.000000 1.754430 0.000000 
#    z 0.000620 0.000000 1.767600 
# 
# From -- ./inp_files/362941.got.cif
#   From: 2010.06.25/outbox.cif.g09.slc.cpg/sg12_182_cif.got.tgz:362941.got - 2010.06.28 00:19:55.
