data_PCOD8097939
_publ_section_title
;
Structure prediction by ZEFSAII (Michael W. Deem and Ramdas Pophale) SiO2 
 PCOD8097939
Probable space group: C 2/M
;
_chemical_formula_sum "Si O2"
_cell_formula_units_Z 56
_cell_length_a 24.954271
_cell_length_b 9.128047
_cell_length_c 16.240134
_cell_angle_alpha 90.000000
_cell_angle_beta 55.479523
_cell_angle_gamma 90.000000
_cell_volume 3047.890515
_symmetry_space_group_name_H-M "C 2/M"
_symmetry_group_IT_number 12
_symmetry_cell_setting 'monoclinic'
loop_
_space_group_symop_operation_xyz
x,y,z
-x,y,-z
-x,-y,-z
x,-y,z
1/2+x,1/2+y,z
1/2-x,1/2+y,-z
1/2-x,1/2-y,-z
1/2+x,1/2-y,z
loop_
_atom_site_type_symbol
_atom_site_label
_atom_site_fract_x
_atom_site_fract_y
_atom_site_fract_z
Si Si1 0.480091 0.672639 0.759092
Si Si2 0.253655 0.330091 0.871595
Si Si3 0.119301 0.168251 0.702955
Si Si4 0.350911 0.829974 0.898794
Si Si5 0.783187 0.671216 0.277035
Si Si6 0.341830 0.670666 0.511872
Si Si7 0.967434 0.667732 0.440599
O O1 0.468953 0.500000 0.759466
O O2 0.543179 0.706908 0.760028
O O3 0.418470 0.747089 0.855977
O O4 0.489471 0.739963 0.660597
O O5 0.274527 0.500000 0.851807
O O6 0.314545 0.237525 0.851440
O O7 0.236225 0.270382 0.796237
O O8 0.191060 0.305037 0.982962
O O9 0.149261 0.258608 0.752254
O O10 0.157044 0.208424 0.585833
O O11 0.129045 0.000000 0.716505
O O12 0.363988 0.000000 0.869672
O O13 0.795110 0.500000 0.262107
O O14 0.727544 0.714203 0.390594
O O15 0.358273 0.500000 0.511970
O O16 0.395513 0.766210 0.511795
O O17 0.963337 0.500000 0.414014
O O18 0.000000 0.680657 0.500000
#
# Coordination Sequence:
#
# PCOD8097939 Si02
#       7
#     8   8   8   8   8   8   8
#     4  10  21  37  57  77 104 143 181 216 267 325
#     4   9  20  37  55  81 111 140 176 220 270 326
#     4   9  19  35  52  76 107 140 179 222 265 315
#     4  10  20  36  58  81 108 139 177 223 272 320
#     4  10  20  34  55  80 106 140 182 221 263 316
#     4   9  19  34  51  75 107 145 182 212 260 319
#     4  10  21  34  49  77 111 138 176 222 262 311
#
# _framework density 18.373363999999999
#
# number of rings (size 3 to 8) (size 9 to 14) (size 15 to 20)
#    0.000    2.429    0.000    2.571    2.000    5.714 
#    0.000    0.714    0.000    4.286    0.000    0.000 
#    0.000    0.000    0.000    0.000    0.000    0.000 
#
# Total GULP energy -347277.340263 kJ/mol
# GULP energy per Si atom -12402.762152 kJ/mol
# Density = 1.833155 g / cm^3
# Si number density = 18.373364 Si / 1000 Ang^3
#
#
#
# Elastic Constant Matrix: (Units=GPa)
#
#
# Indices 1 2 3 4 5 6 
#
# 1 123.8797 60.3518 55.6374 0.0000 3.0731 0.0000
# 2 60.3518 84.3910 35.7005 0.0002 -2.2411 0.0003
# 3 55.6374 35.7005 62.8436 0.0000 1.3167 0.0000
# 4 0.0000 0.0002 0.0000 26.8907 0.0000 -1.2322
# 5 3.0731 -2.2411 1.3167 0.0000 27.4230 0.0000
# 6 0.0000 0.0003 0.0000 -1.2322 0.0000 38.0406
#
#
#
# Elastic Compliance Matrix: (Units=1/GPa)
#
#
# Indices 1 2 3 4 5 6 
#
# 1 0.016301 -0.007399 -0.010187 0.000000 -0.001942 0.000000
# 2 -0.007399 0.019037 -0.004318 0.000000 0.002592 0.000000
# 3 -0.010187 -0.004318 0.027396 0.000000 -0.000527 0.000000
# 4 0.000000 0.000000 0.000000 0.037243 0.000000 0.001206
# 5 -0.001942 0.002592 -0.000527 0.000000 0.036921 0.000000
# 6 0.000000 0.000000 0.000000 0.001206 0.000000 0.026327
#
#
# Mechanical properties :
#
#
# Convention : Reuss Voigt Hill
#
# Bulk Modulus (GPa) = 52.84335 63.83262 58.33798
# Shear Modulus (GPa) = 23.43669 26.43249 24.93459
#
# Velocity S-wave (km/s) = 3.57540 3.79704 3.68789
# Velocity P-wave (km/s) = 6.77259 7.35124 7.06784
#
# Compressibility (1/GPa) = 0.01892386
#
# Stress axis : x y z
#
# Youngs Moduli (GPa) = 61.34685 52.53025 36.50200
#
# Poissons Ratio (x) = 0.38869 0.37186
# Poissons Ratio (y) = 0.45392 0.15761
# Poissons Ratio (z) = 0.62497 0.22682
#
# Static dielectric constant tensor:
#      x y z
#    x 3.395890 0.000000 -0.087040 
#    y 0.000000 3.434560 0.000000 
#    z -0.087040 0.000000 3.310020 
# 
# 
# High freq. dielectric constant tensor:
#      x y z
#    x 1.715810 0.000000 -0.004160 
#    y 0.000000 1.716710 0.000000 
#    z -0.004160 0.000000 1.699170 
# 
# From -- ./inp_files/243597.got.cif
#   From: 2010.06.25/outbox.cif.g09.slc.cpg/sg12_122_cif.got.tgz:243597.got - 2010.06.28 00:19:55.
