data_PCOD8097203
_publ_section_title
;
Structure prediction by ZEFSAII (Michael W. Deem and Ramdas Pophale) SiO2 
 PCOD8097203
Probable space group: C 2/M
;
_chemical_formula_sum "Si O2"
_cell_formula_units_Z 56
_cell_length_a 13.709257
_cell_length_b 10.356020
_cell_length_c 26.067075
_cell_angle_alpha 90.000000
_cell_angle_beta 127.419282
_cell_angle_gamma 90.000000
_cell_volume 2939.236590
_symmetry_space_group_name_H-M "C 2/M"
_symmetry_group_IT_number 12
_symmetry_cell_setting 'monoclinic'
loop_
_space_group_symop_operation_xyz
x,y,z
-x,y,-z
-x,-y,-z
x,-y,z
1/2+x,1/2+y,z
1/2-x,1/2+y,-z
1/2-x,1/2-y,-z
1/2+x,1/2-y,z
loop_
_atom_site_type_symbol
_atom_site_label
_atom_site_fract_x
_atom_site_fract_y
_atom_site_fract_z
Si Si1 0.533601 0.148963 0.268046
Si Si2 0.253459 0.145243 0.165245
Si Si3 0.365831 0.206624 0.964249
Si Si4 0.093444 0.147373 0.484554
Si Si5 0.412033 0.351139 0.793009
Si Si6 0.375605 0.146136 0.589477
Si Si7 0.879429 0.861983 0.070178
O O1 0.393847 0.188497 0.212141
O O2 0.614715 0.252354 0.262153
O O3 0.560691 0.169807 0.336080
O O4 0.562067 0.000000 0.261182
O O5 0.173416 0.234009 0.102350
O O6 0.204697 0.156191 0.207403
O O7 0.242932 0.000000 0.140903
O O8 0.257266 0.115920 0.950286
O O9 0.500000 0.137916 0.000000
O O10 0.378852 0.312334 0.012545
O O11 0.230294 0.167187 0.549779
O O12 0.067101 0.249089 0.430869
O O13 0.000000 0.179702 0.500000
O O14 0.074466 0.000000 0.458603
O O15 0.432237 0.500000 0.780052
O O16 0.531069 0.289652 0.861264
O O17 0.402623 0.000000 0.578334
O O18 0.944308 0.000000 0.085742
#
# Coordination Sequence:
#
# PCOD8097203 Si02
#       7
#     8   8   8   8   8   8   8
#     4  10  21  38  55  76 109 144 177 215 262 313
#     4  10  20  34  53  74 101 136 176 216 264 322
#     4  11  20  33  53  73  97 128 172 218 270 323
#     4   9  18  34  57  84 113 143 176 215 256 303
#     4  10  20  36  54  75 102 135 177 221 263 314
#     4   9  19  35  55  80 111 145 178 215 256 304
#     4  10  21  34  50  73  99 127 167 220 271 320
#
# _framework density 19.052567
#
# number of rings (size 3 to 8) (size 9 to 14) (size 15 to 20)
#    0.000    2.143    2.857    0.429    0.000    2.857 
#    0.000    1.429    0.000    0.000    0.000    0.000 
#    0.000    0.000    0.000    0.000    0.000    0.000 
#
# Total GULP energy -346956.844995 kJ/mol
# GULP energy per Si atom -12391.315893 kJ/mol
# Density = 1.900920 g / cm^3
# Si number density = 19.052567 Si / 1000 Ang^3
#
#
#
# Elastic Constant Matrix: (Units=GPa)
#
#
# Indices 1 2 3 4 5 6 
#
# 1 83.2455 35.1187 15.5490 0.0000 -14.8550 0.0000
# 2 35.1187 102.1370 52.1672 0.0000 -23.4228 0.0000
# 3 15.5490 52.1672 76.2772 0.0000 -17.3817 0.0000
# 4 0.0000 0.0000 0.0000 5.4790 0.0000 30.4510
# 5 -14.8550 -23.4228 -17.3817 0.0000 22.8687 0.0000
# 6 0.0000 0.0000 0.0000 30.4510 0.0000 -46.8931
#
#
#
# Elastic Compliance Matrix: (Units=1/GPa)
#
#
# Indices 1 2 3 4 5 6 
#
# 1 0.014683 -0.004345 0.001376 0.000000 0.006134 0.000000
# 2 -0.004345 0.018115 -0.009577 0.000000 0.008452 0.000000
# 3 0.001376 -0.009577 0.020982 0.000000 0.007032 0.000000
# 4 0.000000 0.000000 0.000000 0.039599 0.000000 0.025715
# 5 0.006134 0.008452 0.007032 0.000000 0.061714 0.000000
# 6 0.000000 0.000000 0.000000 0.025715 0.000000 -0.004627
#
#
# Mechanical properties :
#
#
# Convention : Reuss Voigt Hill
#
# Bulk Modulus (GPa) = 34.85800 51.92549 43.39174
# Shear Modulus (GPa) = 27.00944 6.87925 16.94434
#
# Velocity S-wave (km/s) = 3.76922 1.90224 2.98543
# Velocity P-wave (km/s) = 6.10558 5.66901 5.89134
#
# Compressibility (1/GPa) = 0.02868782
#
# Stress axis : x y z
#
# Youngs Moduli (GPa) = 68.10534 55.20422 47.65977
#
# Poissons Ratio (x) = 0.23986 -0.06558
# Poissons Ratio (y) = 0.29591 0.45645
# Poissons Ratio (z) = -0.09372 0.52870
#
# Static dielectric constant tensor:
#      x y z
#    x 3.533330 0.000000 0.115100 
#    y 0.000000 3.419390 0.000000 
#    z 0.115100 0.000000 3.384970 
# 
# 
# High freq. dielectric constant tensor:
#      x y z
#    x 1.743640 0.000000 0.004350 
#    y 0.000000 1.730230 0.000000 
#    z 0.004350 0.000000 1.733670 
# 
# From -- ./inp_files/304185.got.cif
#   From: 2010.06.25/outbox.cif.g09.slc.cpg/sg12_153_cif.got.tgz:304185.got - 2010.06.28 00:19:55.
