data_PCOD8097778
_publ_section_title
;
Structure prediction by ZEFSAII (Michael W. Deem and Ramdas Pophale) SiO2 
 PCOD8097778
Probable space group: C 2/M
;
_chemical_formula_sum "Si O2"
_cell_formula_units_Z 64
_cell_length_a 30.201761
_cell_length_b 9.501692
_cell_length_c 14.764933
_cell_angle_alpha 90.000000
_cell_angle_beta 50.677268
_cell_angle_gamma 90.000000
_cell_volume 3277.743014
_symmetry_space_group_name_H-M "C 2/M"
_symmetry_group_IT_number 12
_symmetry_cell_setting 'monoclinic'
loop_
_space_group_symop_operation_xyz
x,y,z
-x,y,-z
-x,-y,-z
x,-y,z
1/2+x,1/2+y,z
1/2-x,1/2+y,-z
1/2-x,1/2-y,-z
1/2+x,1/2-y,z
loop_
_atom_site_type_symbol
_atom_site_label
_atom_site_fract_x
_atom_site_fract_y
_atom_site_fract_z
Si Si1 0.837947 0.338119 0.225105
Si Si2 0.803577 0.844932 0.948517
Si Si3 0.947113 0.350166 0.630114
Si Si4 0.356857 0.653253 0.684733
Si Si5 0.292273 0.336451 0.594110
Si Si6 0.889322 0.830740 0.993833
Si Si7 0.616980 0.160569 0.636925
Si Si8 0.013428 0.667944 0.226236
O O1 0.837554 0.500000 0.189000
O O2 0.773390 0.289574 0.333720
O O3 0.864774 0.231072 0.118509
O O4 0.876503 0.325676 0.263972
O O5 0.837527 0.848793 0.812263
O O6 0.781961 0.000000 0.004090
O O7 0.750000 0.750000 0.000000
O O8 0.844670 0.785630 0.973407
O O9 0.916155 0.500000 0.690727
O O10 0.909163 0.258095 0.612385
O O11 0.964620 0.281987 0.703406
O O12 0.000000 0.383186 0.500000
O O13 0.379611 0.500000 0.626225
O O14 0.307115 0.698184 0.679774
O O15 0.299409 0.500000 0.560756
O O16 0.334827 0.252354 0.474275
O O17 0.897142 0.000000 0.989750
O O18 0.950014 0.755574 0.894757
O O19 0.553046 0.212192 0.695745
O O20 0.625897 0.000000 0.593626
O O21 0.020532 0.500000 0.201305
#
# Coordination Sequence:
#
# PCOD8097778 Si02
#       8
#     8   8   8   8   8   8   8   8
#     4  10  22  41  63  86 116 156 198 245 304 360
#     4  10  21  36  55  81 114 150 190 232 278 337
#     4  10  20  34  54  81 112 147 189 234 278 331
#     4  10  20  35  53  79 114 148 183 223 275 340
#     4  10  21  37  60  89 120 154 191 240 302 359
#     4  11  23  39  60  87 119 156 200 248 293 347
#     4  10  22  40  63  88 115 153 200 249 299 354
#     4  10  21  38  59  84 118 158 198 244 297 352
#
# _framework density 19.525628999999999
#
# number of rings (size 3 to 8) (size 9 to 14) (size 15 to 20)
#    0.000    1.875    1.250    2.250    0.000    6.250 
#    0.000    2.500    0.000    0.000    0.000    0.000 
#    0.000    0.000    0.000    0.000    0.000    0.000 
#
# Total GULP energy -396688.468561 kJ/mol
# GULP energy per Si atom -12396.514643 kJ/mol
# Density = 1.948119 g / cm^3
# Si number density = 19.525629 Si / 1000 Ang^3
#
#
#
# Elastic Constant Matrix: (Units=GPa)
#
#
# Indices 1 2 3 4 5 6 
#
# 1 89.2128 31.0105 18.3693 0.0000 -5.3370 0.0000
# 2 31.0105 71.4851 42.4035 0.0001 -10.0974 -0.0002
# 3 18.3693 42.4035 91.5214 0.0000 -6.9389 0.0000
# 4 0.0000 0.0001 0.0000 34.1780 0.0000 -11.3869
# 5 -5.3370 -10.0974 -6.9389 0.0000 33.6860 0.0000
# 6 0.0000 -0.0002 0.0000 -11.3869 0.0000 106.6546
#
#
#
# Elastic Compliance Matrix: (Units=1/GPa)
#
#
# Indices 1 2 3 4 5 6 
#
# 1 0.013204 -0.005679 0.000011 0.000000 0.000392 0.000000
# 2 -0.005679 0.022280 -0.008883 0.000000 0.003949 0.000000
# 3 0.000011 -0.008883 0.015074 0.000000 0.000444 0.000000
# 4 0.000000 0.000000 0.000000 0.030338 0.000000 0.003239
# 5 0.000392 0.003949 0.000444 0.000000 0.031023 0.000000
# 6 0.000000 0.000000 0.000000 0.003239 0.000000 0.009722
#
#
# Mechanical properties :
#
#
# Convention : Reuss Voigt Hill
#
# Bulk Modulus (GPa) = 46.61061 48.42065 47.51563
# Shear Modulus (GPa) = 31.66647 45.59945 38.63296
#
# Velocity S-wave (km/s) = 4.03151 4.83780 4.45295
# Velocity P-wave (km/s) = 6.75234 7.48720 7.12924
#
# Compressibility (1/GPa) = 0.02145434
#
# Stress axis : x y z
#
# Youngs Moduli (GPa) = 75.73192 44.88378 66.34050
#
# Poissons Ratio (x) = 0.25490 -0.00071
# Poissons Ratio (y) = 0.43009 0.58933
# Poissons Ratio (z) = -0.00081 0.39872
#
# Static dielectric constant tensor:
#      x y z
#    x 3.737580 0.000000 0.087660 
#    y 0.000000 3.957640 0.000000 
#    z 0.087660 0.000000 3.396910 
# 
# 
# High freq. dielectric constant tensor:
#      x y z
#    x 1.770330 0.000000 0.003440 
#    y 0.000000 1.758310 0.000000 
#    z 0.003440 0.000000 1.755480 
# 
# From -- ./inp_files/249809.got.cif
#   From: 2010.06.25/outbox.cif.g09.slc.cpg/sg12_125_cif.got.tgz:249809.got - 2010.06.28 00:19:55.
