data_PCOD8097819
_publ_section_title
;
Structure prediction by ZEFSAII (Michael W. Deem and Ramdas Pophale) SiO2 
 PCOD8097819
Probable space group: C 2/M
;
_chemical_formula_sum "Si O2"
_cell_formula_units_Z 64
_cell_length_a 20.125717
_cell_length_b 8.948469
_cell_length_c 21.723939
_cell_angle_alpha 90.000000
_cell_angle_beta 119.909698
_cell_angle_gamma 90.000000
_cell_volume 3391.280949
_symmetry_space_group_name_H-M "C 2/M"
_symmetry_group_IT_number 12
_symmetry_cell_setting 'monoclinic'
loop_
_space_group_symop_operation_xyz
x,y,z
-x,y,-z
-x,-y,-z
x,-y,z
1/2+x,1/2+y,z
1/2-x,1/2+y,-z
1/2-x,1/2-y,-z
1/2+x,1/2-y,z
loop_
_atom_site_type_symbol
_atom_site_label
_atom_site_fract_x
_atom_site_fract_y
_atom_site_fract_z
Si Si1 0.524517 0.826741 0.274960
Si Si2 0.712779 0.176812 0.692601
Si Si3 0.731992 0.674966 0.055918
Si Si4 0.128763 0.326812 0.208339
Si Si5 0.647241 0.823050 0.789789
Si Si6 0.704198 0.672939 0.567687
Si Si7 0.915873 0.173234 0.936990
Si Si8 0.354830 0.326433 0.590068
O O1 0.560622 0.798436 0.225017
O O2 0.437271 0.769582 0.230552
O O3 0.564626 0.730738 0.346941
O O4 0.528815 0.000000 0.296243
O O5 0.799989 0.230723 0.735889
O O6 0.667287 0.237101 0.731028
O O7 0.671734 0.243287 0.612865
O O8 0.711650 0.000000 0.687883
O O9 0.744602 0.500000 0.053412
O O10 0.791214 0.741897 0.133492
O O11 0.645574 0.711154 0.038057
O O12 0.750000 0.750000 0.000000
O O13 0.152098 0.500000 0.216130
O O14 0.099961 0.274802 0.128924
O O15 0.654125 0.000000 0.793041
O O16 0.713193 0.500000 0.587592
O O17 0.646704 0.700769 0.484240
O O18 0.788409 0.733108 0.591653
O O19 0.908756 0.000000 0.914204
O O20 0.000000 0.212635 0.000000
O O21 0.342321 0.500000 0.599812
#
# Coordination Sequence:
#
# PCOD8097819 Si02
#       8
#     8   8   8   8   8   8   8   8
#     4  10  21  37  57  82 114 149 187 235 282 331
#     4  11  20  36  61  84 110 149 193 233 279 335
#     4  10  21  39  59  81 111 147 185 226 276 332
#     4  11  22  35  57  86 114 145 187 237 285 329
#     4   9  20  39  59  79 111 152 188 226 278 338
#     4  10  20  34  54  83 116 147 186 234 283 335
#     4  10  22  40  60  83 114 149 186 233 283 333
#     4  10  20  34  54  82 115 150 186 230 284 337
#
# _framework density 18.871925999999998
#
# number of rings (size 3 to 8) (size 9 to 14) (size 15 to 20)
#    0.000    1.875    2.500    1.500    1.750    2.750 
#    0.000    2.500    0.000    3.750    0.000    0.000 
#    0.000    0.000    0.000    0.000    0.000    0.000 
#
# Total GULP energy -396878.551696 kJ/mol
# GULP energy per Si atom -12402.454740 kJ/mol
# Density = 1.882897 g / cm^3
# Si number density = 18.871926 Si / 1000 Ang^3
#
#
#
# Elastic Constant Matrix: (Units=GPa)
#
#
# Indices 1 2 3 4 5 6 
#
# 1 122.8459 37.6850 59.0092 0.0000 -10.2559 0.0000
# 2 37.6850 70.1014 46.8744 0.0000 -11.5294 0.0000
# 3 59.0092 46.8744 124.9278 0.0000 -19.3620 0.0000
# 4 0.0000 0.0000 0.0000 36.8793 0.0000 -4.2615
# 5 -10.2559 -11.5294 -19.3620 0.0000 35.1446 0.0000
# 6 0.0000 0.0000 0.0000 -4.2615 0.0000 22.7084
#
#
#
# Elastic Compliance Matrix: (Units=1/GPa)
#
#
# Indices 1 2 3 4 5 6 
#
# 1 0.011065 -0.003280 -0.004004 0.000000 -0.000053 0.000000
# 2 -0.003280 0.020222 -0.005640 0.000000 0.002570 0.000000
# 3 -0.004004 -0.005640 0.012622 0.000000 0.003935 0.000000
# 4 0.000000 0.000000 0.000000 0.027717 0.000000 0.005201
# 5 -0.000053 0.002570 0.003935 0.000000 0.031449 0.000000
# 6 0.000000 0.000000 0.000000 0.005201 0.000000 0.045013
#
#
# Mechanical properties :
#
#
# Convention : Reuss Voigt Hill
#
# Bulk Modulus (GPa) = 55.36681 67.22360 61.29520
# Shear Modulus (GPa) = 27.78439 30.56690 29.17564
#
# Velocity S-wave (km/s) = 3.84117 4.02892 3.93616
# Velocity P-wave (km/s) = 7.00533 7.57240 7.29438
#
# Compressibility (1/GPa) = 0.01806136
#
# Stress axis : x y z
#
# Youngs Moduli (GPa) = 90.37134 49.45073 79.22548
#
# Poissons Ratio (x) = 0.16218 0.31725
# Poissons Ratio (y) = 0.29639 0.44685
# Poissons Ratio (z) = 0.36188 0.27891
#
# Static dielectric constant tensor:
#      x y z
#    x 3.469830 0.000000 -0.054480 
#    y 0.000000 3.373000 0.000000 
#    z -0.054480 0.000000 3.758010 
# 
# 
# High freq. dielectric constant tensor:
#      x y z
#    x 1.724140 0.000000 -0.008700 
#    y 0.000000 1.725370 0.000000 
#    z -0.008700 0.000000 1.744690 
# 
# From -- ./inp_files/320048.got.cif
#   From: 2010.06.25/outbox.cif.g09.slc.cpg/sg12_161_cif.got.tgz:320048.got - 2010.06.28 00:19:55.
