data_PCOD8097586
_publ_section_title
;
Structure prediction by ZEFSAII (Michael W. Deem and Ramdas Pophale) SiO2 
 PCOD8097586
Probable space group: C 2/M
;
_chemical_formula_sum "Si O2"
_cell_formula_units_Z 64
_cell_length_a 9.155371
_cell_length_b 10.506569
_cell_length_c 34.474939
_cell_angle_alpha 90.000000
_cell_angle_beta 93.919296
_cell_angle_gamma 90.000000
_cell_volume 3308.441838
_symmetry_space_group_name_H-M "C 2/M"
_symmetry_group_IT_number 12
_symmetry_cell_setting 'monoclinic'
loop_
_space_group_symop_operation_xyz
x,y,z
-x,y,-z
-x,-y,-z
x,-y,z
1/2+x,1/2+y,z
1/2-x,1/2+y,-z
1/2-x,1/2-y,-z
1/2+x,1/2-y,z
loop_
_atom_site_type_symbol
_atom_site_label
_atom_site_fract_x
_atom_site_fract_y
_atom_site_fract_z
Si Si1 0.545570 0.145322 0.208711
Si Si2 0.351508 0.644673 0.520563
Si Si3 0.046732 0.355264 0.044236
Si Si4 0.345978 0.358405 0.607873
Si Si5 0.638158 0.642550 0.920282
Si Si6 0.107736 0.245364 0.656683
Si Si7 0.122637 0.643218 0.293764
Si Si8 0.654627 0.359172 0.831135
O O1 0.569816 0.204448 0.252358
O O2 0.440562 0.242527 0.185344
O O3 0.694803 0.144942 0.188496
O O4 0.480769 0.000000 0.208792
O O5 0.500000 0.646264 0.500000
O O6 0.285405 0.500000 0.517690
O O7 0.250000 0.750000 0.500000
O O8 0.380916 0.690409 0.565241
O O9 0.998446 0.500000 0.054717
O O10 0.220930 0.341608 0.049909
O O11 0.977283 0.251876 0.071697
O O12 0.000000 0.321942 0.000000
O O13 0.290378 0.500000 0.604858
O O14 0.491503 0.354939 0.637209
O O15 0.204423 0.288579 0.622243
O O16 0.570947 0.500000 0.925253
O O17 0.687404 0.660954 0.876924
O O18 0.003461 0.349079 0.675604
O O19 0.219656 0.196366 0.690936
O O20 0.156694 0.500000 0.284553
O O21 0.581661 0.500000 0.823121
#
# Coordination Sequence:
#
# PCOD8097586 Si02
#       8
#     8   8   8   8   8   8   8   8
#     4  10  21  37  57  80 109 143 179 222 269 318
#     4  10  21  37  56  80 109 141 180 223 267 319
#     4  10  21  37  57  82 111 143 180 222 269 321
#     4  10  20  35  54  77 106 138 174 218 265 314
#     4  10  21  36  55  80 110 142 179 223 267 317
#     4  10  20  34  54  78 105 137 174 214 265 318
#     4  10  20  35  54  78 106 137 175 217 263 316
#     4  10  21  37  55  79 109 141 180 223 267 316
#
# _framework density 19.344453000000001
#
# number of rings (size 3 to 8) (size 9 to 14) (size 15 to 20)
#    0.000    2.000    0.000    3.375    0.000    3.000 
#    0.000    6.250    0.000    0.000    0.000    0.000 
#    0.000    0.000    0.000    0.000    0.000    0.000 
#
# Total GULP energy -396550.984262 kJ/mol
# GULP energy per Si atom -12392.218258 kJ/mol
# Density = 1.930042 g / cm^3
# Si number density = 19.344453 Si / 1000 Ang^3
#
#
#
# Elastic Constant Matrix: (Units=GPa)
#
#
# Indices 1 2 3 4 5 6 
#
# 1 78.1729 41.0685 20.9668 0.0000 2.5903 0.0000
# 2 41.0685 103.1479 38.6931 0.0000 5.6672 0.0000
# 3 20.9668 38.6931 89.6143 0.0000 0.9939 0.0000
# 4 0.0000 0.0000 0.0000 31.1845 0.0000 2.2199
# 5 2.5903 5.6672 0.9939 0.0000 39.2424 0.0000
# 6 0.0000 0.0000 0.0000 2.2199 0.0000 28.9125
#
#
#
# Elastic Compliance Matrix: (Units=1/GPa)
#
#
# Indices 1 2 3 4 5 6 
#
# 1 0.016285 -0.006021 -0.001209 0.000000 -0.000175 0.000000
# 2 -0.006021 0.013889 -0.004572 0.000000 -0.001493 0.000000
# 3 -0.001209 -0.004572 0.013411 0.000000 0.000400 0.000000
# 4 0.000000 0.000000 0.000000 0.032243 0.000000 -0.002476
# 5 -0.000175 -0.001493 0.000400 0.000000 0.025700 0.000000
# 6 0.000000 0.000000 0.000000 -0.002476 0.000000 0.034777
#
#
# Mechanical properties :
#
#
# Convention : Reuss Voigt Hill
#
# Bulk Modulus (GPa) = 50.04253 52.48799 51.26526
# Shear Modulus (GPa) = 30.01755 31.21498 30.61627
#
# Velocity S-wave (km/s) = 3.94349 4.02137 3.98262
# Velocity P-wave (km/s) = 6.83082 6.98242 6.90704
#
# Compressibility (1/GPa) = 0.01998300
#
# Stress axis : x y z
#
# Youngs Moduli (GPa) = 61.40512 71.99925 74.56476
#
# Poissons Ratio (x) = 0.43351 0.09012
# Poissons Ratio (y) = 0.36972 0.34088
# Poissons Ratio (z) = 0.07421 0.32915
#
# Static dielectric constant tensor:
#      x y z
#    x 3.326780 0.000000 0.100480 
#    y 0.000000 3.340400 0.000000 
#    z 0.100480 0.000000 3.916750 
# 
# 
# High freq. dielectric constant tensor:
#      x y z
#    x 1.744320 0.000000 -0.001510 
#    y 0.000000 1.753050 0.000000 
#    z -0.001510 0.000000 1.770750 
# 
# From -- ./inp_files/372164.got.cif
#   From: 2010.06.25/outbox.cif.g09.slc.cpg/sg12_187_cif.got.tgz:372164.got - 2010.06.28 00:19:55.
