data_PCOD8097481
_publ_section_title
;
Structure prediction by ZEFSAII (Michael W. Deem and Ramdas Pophale) SiO2 
 PCOD8097481
Probable space group: C 2/M
;
_chemical_formula_sum "Si O2"
_cell_formula_units_Z 64
_cell_length_a 24.576418
_cell_length_b 15.999895
_cell_length_c 22.659732
_cell_angle_alpha 90.000000
_cell_angle_beta 159.097609
_cell_angle_gamma 90.000000
_cell_volume 3178.976494
_symmetry_space_group_name_H-M "C 2/M"
_symmetry_group_IT_number 12
_symmetry_cell_setting 'monoclinic'
loop_
_space_group_symop_operation_xyz
x,y,z
-x,y,-z
-x,-y,-z
x,-y,z
1/2+x,1/2+y,z
1/2-x,1/2+y,-z
1/2-x,1/2-y,-z
1/2+x,1/2-y,z
loop_
_atom_site_type_symbol
_atom_site_label
_atom_site_fract_x
_atom_site_fract_y
_atom_site_fract_z
Si Si1 0.155147 0.091852 0.688389
Si Si2 0.848786 0.869135 0.182144
Si Si3 0.312468 0.595360 0.489847
Si Si4 0.176561 0.248297 0.171223
Si Si5 0.685900 0.092439 0.901001
Si Si6 0.683169 0.261147 0.306540
Si Si7 0.172713 0.788646 0.041914
Si Si8 0.156250 0.404410 0.456486
O O1 0.143395 0.084124 0.747316
O O2 0.287325 0.154859 0.804484
O O3 0.000000 0.123902 0.500000
O O4 0.195547 0.000000 0.704640
O O5 0.790940 0.775661 0.132720
O O6 0.015623 0.875282 0.322454
O O7 0.733654 0.908888 0.018025
O O8 0.307065 0.500000 0.457231
O O9 0.240122 0.666497 0.374990
O O10 0.219980 0.595333 0.455845
O O11 0.243043 0.216663 0.300896
O O12 0.228382 0.193983 0.166284
O O13 0.000000 0.240853 0.000000
O O14 0.811733 0.133022 0.985370
O O15 0.516610 0.130171 0.721741
O O16 0.676766 0.000000 0.867692
O O17 0.750206 0.336001 0.412603
O O18 0.501156 0.257382 0.131778
O O19 0.169499 0.500000 0.495590
#
# Coordination Sequence:
#
# PCOD8097481 Si02
#       8
#     8   8   8   8   8   8   8   8
#     4  10  20  34  53  80 113 147 186 230 274 326
#     4  11  21  36  57  83 115 152 190 227 277 338
#     4  11  22  36  57  86 118 152 190 230 280 340
#     4   9  21  38  55  78 107 145 190 231 277 336
#     4  11  22  38  59  84 114 145 186 238 288 342
#     4  11  21  39  62  82 114 153 191 237 286 339
#     4  10  22  39  59  83 112 150 191 234 286 339
#     4  10  23  40  59  86 116 148 189 238 290 342
#
# _framework density 20.132266000000001
#
# number of rings (size 3 to 8) (size 9 to 14) (size 15 to 20)
#    0.000    1.625    0.000    4.875    0.000    4.250 
#    0.000    7.500    0.000    3.750    0.000    0.000 
#    0.000    0.000    0.000    0.000    0.000    0.000 
#
# Total GULP energy -396463.148003 kJ/mol
# GULP energy per Si atom -12389.473375 kJ/mol
# Density = 2.008644 g / cm^3
# Si number density = 20.132266 Si / 1000 Ang^3
#
#
#
# Elastic Constant Matrix: (Units=GPa)
#
#
# Indices 1 2 3 4 5 6 
#
# 1 93.1925 40.9868 33.5041 0.0397 -13.1682 0.0220
# 2 40.9868 77.6238 41.0112 0.0865 -9.2520 0.0504
# 3 33.5041 41.0112 66.1627 0.0861 -12.9405 0.0540
# 4 0.0397 0.0865 0.0861 22.1668 0.0386 9.7568
# 5 -13.1682 -9.2520 -12.9405 0.0386 34.3819 0.0251
# 6 0.0220 0.0504 0.0540 9.7568 0.0251 10.4850
#
#
#
# Elastic Compliance Matrix: (Units=1/GPa)
#
#
# Indices 1 2 3 4 5 6 
#
# 1 0.014879 -0.005695 -0.003443 0.000001 0.002870 0.000006
# 2 -0.005695 0.021353 -0.010422 -0.000027 -0.000358 -0.000011
# 3 -0.003443 -0.010422 0.024300 -0.000036 0.005023 -0.000047
# 4 0.000001 -0.000027 -0.000036 0.076409 -0.000054 -0.071102
# 5 0.002870 -0.000358 0.005023 -0.000054 0.031979 -0.000056
# 6 0.000006 -0.000011 -0.000047 -0.071102 -0.000056 0.161539
#
#
# Mechanical properties :
#
#
# Convention : Reuss Voigt Hill
#
# Bulk Modulus (GPa) = 46.70187 51.99812 49.34999
# Shear Modulus (GPa) = 13.27258 21.50519 17.38888
#
# Velocity S-wave (km/s) = 2.57041 3.27187 2.94212
# Velocity P-wave (km/s) = 5.66191 6.33702 6.00895
#
# Compressibility (1/GPa) = 0.02141242
#
# Stress axis : x y z
#
# Youngs Moduli (GPa) = 67.21098 46.83082 41.15170
#
# Poissons Ratio (x) = 0.26671 0.14168
# Poissons Ratio (y) = 0.38277 0.42888
# Poissons Ratio (z) = 0.23140 0.48807
#
# Static dielectric constant tensor:
#      x y z
#    x 4.197480 -0.000070 -0.207930 
#    y -0.000070 3.636830 -0.000080 
#    z -0.207930 -0.000080 3.843540 
# 
# 
# High freq. dielectric constant tensor:
#      x y z
#    x 1.794700 0.000000 0.000760 
#    y 0.000000 1.774610 -0.000010 
#    z 0.000760 -0.000010 1.790210 
# 
# From -- ./inp_files/326148.got.cif
#   From: 2010.06.25/outbox.cif.g09.slc.cpg/sg12_164_cif.got.tgz:326148.got - 2010.06.28 00:19:55.
