data_PCOD8097773
_publ_section_title
;
Structure prediction by ZEFSAII (Michael W. Deem and Ramdas Pophale) SiO2 
 PCOD8097773
Probable space group: C 2/M
;
_chemical_formula_sum "Si O2"
_cell_formula_units_Z 64
_cell_length_a 25.778027
_cell_length_b 8.759615
_cell_length_c 15.456344
_cell_angle_alpha 90.000000
_cell_angle_beta 70.387710
_cell_angle_gamma 90.000000
_cell_volume 3287.650741
_symmetry_space_group_name_H-M "C 2/M"
_symmetry_group_IT_number 12
_symmetry_cell_setting 'monoclinic'
loop_
_space_group_symop_operation_xyz
x,y,z
-x,y,-z
-x,-y,-z
x,-y,z
1/2+x,1/2+y,z
1/2-x,1/2+y,-z
1/2-x,1/2-y,-z
1/2+x,1/2-y,z
loop_
_atom_site_type_symbol
_atom_site_label
_atom_site_fract_x
_atom_site_fract_y
_atom_site_fract_z
Si Si1 0.127618 0.818353 0.702693
Si Si2 0.194400 0.178139 0.996347
Si Si3 0.396436 0.322766 0.808815
Si Si4 0.489208 0.169660 0.245419
Si Si5 0.850814 0.826148 0.496756
Si Si6 0.698338 0.820051 0.814796
Si Si7 0.542300 0.168422 0.546905
Si Si8 0.320440 0.318729 0.697785
O O1 0.156061 0.753743 0.596509
O O2 0.165536 0.763532 0.758182
O O3 0.065508 0.759456 0.754109
O O4 0.124883 0.000000 0.699696
O O5 0.175831 0.260304 0.918519
O O6 0.203881 0.000000 0.974031
O O7 0.250000 0.250000 0.000000
O O8 0.146953 0.208050 0.091616
O O9 0.408697 0.500000 0.789408
O O10 0.452854 0.247067 0.810823
O O11 0.369519 0.257513 0.733614
O O12 0.491235 0.160825 0.346641
O O13 0.486909 0.000000 0.205411
O O14 0.915196 0.806859 0.478387
O O15 0.821817 0.749765 0.597920
O O16 0.832206 0.000000 0.502428
O O17 0.762364 0.773880 0.772141
O O18 0.689234 0.000000 0.811635
O O19 0.500000 0.219405 0.500000
O O20 0.568960 0.000000 0.513651
O O21 0.326515 0.500000 0.687726
#
# Coordination Sequence:
#
# PCOD8097773 Si02
#       8
#     8   8   8   8   8   8   8   8
#     4  10  21  38  57  81 113 153 197 238 279 332
#     4  11  22  39  62  89 118 149 185 229 285 343
#     4  10  20  36  58  85 117 149 182 229 286 339
#     4  10  20  34  54  81 111 149 190 232 281 334
#     4   9  18  32  52  76 107 148 193 232 270 329
#     4  11  22  39  61  84 113 152 191 237 288 339
#     4   9  17  29  45  70 108 145 182 230 281 327
#     4   9  18  34  55  83 116 150 188 232 285 338
#
# _framework density 19.466788000000001
#
# number of rings (size 3 to 8) (size 9 to 14) (size 15 to 20)
#    0.000    2.125    1.250    2.250    0.000    2.750 
#    0.000    1.875    0.000    3.750    0.000    0.000 
#    0.000    0.000    0.000    0.000    0.000    0.000 
#
# Total GULP energy -396451.531994 kJ/mol
# GULP energy per Si atom -12389.110375 kJ/mol
# Density = 1.942248 g / cm^3
# Si number density = 19.466788 Si / 1000 Ang^3
#
#
#
# Elastic Constant Matrix: (Units=GPa)
#
#
# Indices 1 2 3 4 5 6 
#
# 1 55.7218 18.0704 39.7641 0.0000 3.0187 0.0000
# 2 18.0704 50.6452 29.5530 0.0000 -4.6417 0.0000
# 3 39.7641 29.5530 89.9941 0.0000 13.0496 0.0000
# 4 0.0000 0.0000 0.0000 21.5775 0.0000 -1.0538
# 5 3.0187 -4.6417 13.0496 0.0000 33.8491 0.0000
# 6 0.0000 0.0000 0.0000 -1.0538 0.0000 30.7349
#
#
#
# Elastic Compliance Matrix: (Units=1/GPa)
#
#
# Indices 1 2 3 4 5 6 
#
# 1 0.026704 -0.002948 -0.011045 0.000000 0.001472 0.000000
# 2 -0.002948 0.026336 -0.008376 0.000000 0.007103 0.000000
# 3 -0.011045 -0.008376 0.019877 0.000000 -0.007827 0.000000
# 4 0.000000 0.000000 0.000000 0.046422 0.000000 0.001592
# 5 0.001472 0.007103 -0.007827 0.000000 0.033403 0.000000
# 6 0.000000 0.000000 0.000000 0.001592 0.000000 0.032591
#
#
# Mechanical properties :
#
#
# Convention : Reuss Voigt Hill
#
# Bulk Modulus (GPa) = 35.48609 41.23736 38.36173
# Shear Modulus (GPa) = 20.87993 24.49719 22.68856
#
# Velocity S-wave (km/s) = 3.27860 3.55125 3.41765
# Velocity P-wave (km/s) = 5.70972 6.16803 5.94330
#
# Compressibility (1/GPa) = 0.02818006
#
# Stress axis : x y z
#
# Youngs Moduli (GPa) = 37.44706 37.97132 50.30860
#
# Poissons Ratio (x) = 0.11196 0.55564
# Poissons Ratio (y) = 0.11041 0.42136
# Poissons Ratio (z) = 0.41359 0.31803
#
# Static dielectric constant tensor:
#      x y z
#    x 3.381860 0.000000 0.025010 
#    y 0.000000 3.536540 0.000000 
#    z 0.025010 0.000000 3.793920 
# 
# 
# High freq. dielectric constant tensor:
#      x y z
#    x 1.750090 0.000000 0.004510 
#    y 0.000000 1.744840 0.000000 
#    z 0.004510 0.000000 1.762740 
# 
# From -- ./inp_files/243859.got.cif
#   From: 2010.06.25/outbox.cif.g09.slc.cpg/sg12_122_cif.got.tgz:243859.got - 2010.06.28 00:19:55.
