data_PCOD8097615
_publ_section_title
;
Structure prediction by ZEFSAII (Michael W. Deem and Ramdas Pophale) SiO2 
 PCOD8097615
Probable space group: C 2/M
;
_chemical_formula_sum "Si O2"
_cell_formula_units_Z 64
_cell_length_a 15.543042
_cell_length_b 8.907442
_cell_length_c 24.994637
_cell_angle_alpha 90.000000
_cell_angle_beta 69.552121
_cell_angle_gamma 90.000000
_cell_volume 3242.432839
_symmetry_space_group_name_H-M "C 2/M"
_symmetry_group_IT_number 12
_symmetry_cell_setting 'monoclinic'
loop_
_space_group_symop_operation_xyz
x,y,z
-x,y,-z
-x,-y,-z
x,-y,z
1/2+x,1/2+y,z
1/2-x,1/2+y,-z
1/2-x,1/2-y,-z
1/2+x,1/2-y,z
loop_
_atom_site_type_symbol
_atom_site_label
_atom_site_fract_x
_atom_site_fract_y
_atom_site_fract_z
Si Si1 0.308311 0.675774 0.176170
Si Si2 0.212802 0.174128 0.427078
Si Si3 0.118328 0.825869 0.560684
Si Si4 0.390676 0.824962 0.752818
Si Si5 0.425168 0.824523 0.621840
Si Si6 0.623630 0.324274 0.067377
Si Si7 0.310275 0.674384 0.056730
Si Si8 0.010115 0.178885 0.814260
O O1 0.296648 0.500000 0.187224
O O2 0.208157 0.746897 0.209174
O O3 0.347037 0.710428 0.108066
O O4 0.384650 0.735152 0.201372
O O5 0.154252 0.198207 0.493157
O O6 0.314770 0.241984 0.412123
O O7 0.162202 0.260312 0.390508
O O8 0.222492 0.000000 0.410068
O O9 0.017238 0.757914 0.583843
O O10 0.114773 0.000000 0.577265
O O11 0.407931 0.792144 0.687433
O O12 0.470927 0.744419 0.768119
O O13 0.394761 0.000000 0.765629
O O14 0.435024 0.000000 0.607151
O O15 0.619177 0.500000 0.075641
O O16 0.719957 0.270191 0.068562
O O17 0.544130 0.255741 0.122002
O O18 0.615041 0.282483 0.005709
O O19 0.283465 0.500000 0.057030
O O20 0.005278 0.000000 0.812615
#
# Coordination Sequence:
#
# PCOD8097615 Si02
#       8
#     8   8   8   8   8   8   8   8
#     4   9  18  34  55  75 100 139 180 217 269 330
#     4  10  21  38  61  90 122 153 188 230 280 340
#     4  10  21  38  61  89 121 155 189 230 281 337
#     4  10  22  40  56  75 106 144 187 227 269 325
#     4  11  23  37  57  84 115 153 197 243 284 332
#     4   9  17  28  47  78 106 128 168 221 270 324
#     4   9  16  29  51  73 100 139 171 208 269 334
#     4  10  20  34  54  79 105 135 177 230 278 324
#
# _framework density 19.738265999999999
#
# number of rings (size 3 to 8) (size 9 to 14) (size 15 to 20)
#    0.000    2.250    1.250    1.500    0.000    5.500 
#    0.000    5.000    0.000    0.000    0.000    4.375 
#    0.000    0.000    0.000    0.000    0.000    0.000 
#
# Total GULP energy -396677.462203 kJ/mol
# GULP energy per Si atom -12396.170694 kJ/mol
# Density = 1.969334 g / cm^3
# Si number density = 19.738266 Si / 1000 Ang^3
#
#
#
# Elastic Constant Matrix: (Units=GPa)
#
#
# Indices 1 2 3 4 5 6 
#
# 1 102.6476 14.5113 22.3538 0.0000 23.4262 0.0000
# 2 14.5113 37.0627 25.5818 0.0000 5.9637 0.0000
# 3 22.3538 25.5818 47.2990 0.0000 14.3673 0.0000
# 4 0.0000 0.0000 0.0000 20.6293 0.0000 1.6729
# 5 23.4262 5.9637 14.3673 0.0000 21.4740 0.0000
# 6 0.0000 0.0000 0.0000 1.6729 0.0000 30.9784
#
#
#
# Elastic Compliance Matrix: (Units=1/GPa)
#
#
# Indices 1 2 3 4 5 6 
#
# 1 0.013307 -0.002413 -0.000976 0.000000 -0.013193 0.000000
# 2 -0.002413 0.043848 -0.024694 0.000000 0.006977 0.000000
# 3 -0.000976 -0.024694 0.040856 0.000000 -0.019412 0.000000
# 4 0.000000 0.000000 0.000000 0.048688 0.000000 -0.002629
# 5 -0.013193 0.006977 -0.019412 0.000000 0.072011 0.000000
# 6 0.000000 0.000000 0.000000 -0.002629 0.000000 0.032423
#
#
# Mechanical properties :
#
#
# Convention : Reuss Voigt Hill
#
# Bulk Modulus (GPa) = 23.89860 34.65587 29.27724
# Shear Modulus (GPa) = 15.56433 22.92051 19.24242
#
# Velocity S-wave (km/s) = 2.81113 3.41137 3.12569
# Velocity P-wave (km/s) = 4.76137 5.75434 5.28124
#
# Compressibility (1/GPa) = 0.04184346
#
# Stress axis : x y z
#
# Youngs Moduli (GPa) = 75.14979 22.80593 24.47628
#
# Poissons Ratio (x) = 0.05504 0.02389
# Poissons Ratio (y) = 0.18137 0.60442
# Poissons Ratio (z) = 0.07335 0.56317
#
# Static dielectric constant tensor:
#      x y z
#    x 3.546310 0.000000 0.034830 
#    y 0.000000 3.453890 0.000000 
#    z 0.034830 0.000000 3.694800 
# 
# 
# High freq. dielectric constant tensor:
#      x y z
#    x 1.772590 0.000000 0.003390 
#    y 0.000000 1.750590 0.000000 
#    z 0.003390 0.000000 1.772090 
# 
# From -- ./inp_files/359733.got.cif
#   From: 2010.06.25/outbox.cif.g09.slc.cpg/sg12_180_cif.got.tgz:359733.got - 2010.06.28 00:19:55.
