data_PCOD8097568
_publ_section_title
;
Structure prediction by ZEFSAII (Michael W. Deem and Ramdas Pophale) SiO2 
 PCOD8097568
Probable space group: C 2/M
;
_chemical_formula_sum "Si O2"
_cell_formula_units_Z 48
_cell_length_a 8.802627
_cell_length_b 10.640627
_cell_length_c 26.185833
_cell_angle_alpha 90.000000
_cell_angle_beta 78.179982
_cell_angle_gamma 90.000000
_cell_volume 2400.700852
_symmetry_space_group_name_H-M "C 2/M"
_symmetry_group_IT_number 12
_symmetry_cell_setting 'monoclinic'
loop_
_space_group_symop_operation_xyz
x,y,z
-x,y,-z
-x,-y,-z
x,-y,z
1/2+x,1/2+y,z
1/2-x,1/2+y,-z
1/2-x,1/2-y,-z
1/2+x,1/2-y,z
loop_
_atom_site_type_symbol
_atom_site_label
_atom_site_fract_x
_atom_site_fract_y
_atom_site_fract_z
Si Si1 0.813295 0.644615 0.893244
Si Si2 0.737556 0.709373 0.711382
Si Si3 0.859844 0.142070 0.471395
Si Si4 0.031131 0.361682 0.220993
Si Si5 0.506510 0.638371 0.643408
Si Si6 0.469528 0.640371 0.942664
O O1 0.863366 0.500000 0.903723
O O2 0.886374 0.693212 0.835056
O O3 0.628617 0.649758 0.900026
O O4 0.859496 0.745411 0.933228
O O5 0.846422 0.628557 0.740871
O O6 0.623581 0.787447 0.755336
O O7 0.630474 0.629120 0.680977
O O8 0.849545 0.791663 0.668545
O O9 0.750000 0.250000 0.500000
O O10 0.915249 0.195579 0.412613
O O11 0.000000 0.130081 0.500000
O O12 0.784526 0.000000 0.471391
O O13 0.972381 0.500000 0.212525
O O14 0.450387 0.500000 0.633147
O O15 0.396308 0.500000 0.938252
O O16 0.500000 0.658474 0.000000
#
# Coordination Sequence:
#
# PCOD8097568 Si02
#       6
#     8   8   8   8   8   8
#     4  10  21  36  55  80 109 141 179 222 268 320
#     4  10  20  34  54  77 103 137 175 214 264 317
#     4  10  21  37  56  80 110 142 178 222 269 318
#     4  10  20  35  53  76 106 137 173 218 265 314
#     4  10  20  35  54  77 105 137 176 218 262 315
#     4  10  21  37  56  80 110 143 181 224 269 318
#
# _framework density 19.994160999999998
#
# number of rings (size 3 to 8) (size 9 to 14) (size 15 to 20)
#    0.000    2.000    0.000    3.500    0.000    1.333 
#    0.000    8.333    0.000    0.000    0.000    0.000 
#    0.000    0.000    0.000    0.000    0.000    0.000 
#
# Total GULP energy -297434.384994 kJ/mol
# GULP energy per Si atom -12393.099375 kJ/mol
# Density = 1.994865 g / cm^3
# Si number density = 19.994161 Si / 1000 Ang^3
#
#
#
# Elastic Constant Matrix: (Units=GPa)
#
#
# Indices 1 2 3 4 5 6 
#
# 1 49.9439 21.5958 2.9873 0.0000 -9.0911 0.0000
# 2 21.5958 86.0662 20.9363 0.0000 -6.1638 0.0000
# 3 2.9873 20.9363 93.8166 0.0000 -17.6311 0.0000
# 4 0.0000 0.0000 0.0000 15.3271 0.0000 19.5175
# 5 -9.0911 -6.1638 -17.6311 0.0000 36.4697 0.0000
# 6 0.0000 0.0000 0.0000 19.5175 0.0000 -20.8190
#
#
#
# Elastic Compliance Matrix: (Units=1/GPa)
#
#
# Indices 1 2 3 4 5 6 
#
# 1 0.023499 -0.005888 0.001627 0.000000 0.005649 0.000000
# 2 -0.005888 0.013784 -0.002999 0.000000 -0.000588 0.000000
# 3 0.001627 -0.002999 0.012383 0.000000 0.005885 0.000000
# 4 0.000000 0.000000 0.000000 0.029740 0.000000 0.027881
# 5 0.005649 -0.000588 0.005885 0.000000 0.031574 0.000000
# 6 0.000000 0.000000 0.000000 0.027881 0.000000 -0.021895
#
#
# Mechanical properties :
#
#
# Convention : Reuss Voigt Hill
#
# Bulk Modulus (GPa) = 28.45207 35.65173 32.05190
# Shear Modulus (GPa) = 43.35789 18.48273 30.92031
#
# Velocity S-wave (km/s) = 4.66180 3.04370 3.93678
# Velocity P-wave (km/s) = 6.57553 5.49745 6.06051
#
# Compressibility (1/GPa) = 0.03514683
#
# Stress axis : x y z
#
# Youngs Moduli (GPa) = 42.55440 72.54919 80.75895
#
# Poissons Ratio (x) = 0.42715 -0.13143
# Poissons Ratio (y) = 0.25055 0.24220
# Poissons Ratio (z) = -0.06925 0.21758
#
# Static dielectric constant tensor:
#      x y z
#    x 3.407160 0.000000 -0.115950 
#    y 0.000000 3.548170 0.000000 
#    z -0.115950 0.000000 3.858050 
# 
# 
# High freq. dielectric constant tensor:
#      x y z
#    x 1.764700 0.000000 -0.008190 
#    y 0.000000 1.780400 0.000000 
#    z -0.008190 0.000000 1.799000 
# 
# From -- ./inp_files/331974.got.cif
#   From: 2010.06.25/outbox.cif.g09.slc.cpg/sg12_166_cif.got.tgz:331974.got - 2010.06.28 00:19:55.
