data_PCOD8097457
_publ_section_title
;
Structure prediction by ZEFSAII (Michael W. Deem and Ramdas Pophale) SiO2 
 PCOD8097457
Probable space group: C 2/M
;
_chemical_formula_sum "Si O2"
_cell_formula_units_Z 64
_cell_length_a 20.228715
_cell_length_b 8.696725
_cell_length_c 22.074536
_cell_angle_alpha 90.000000
_cell_angle_beta 59.384059
_cell_angle_gamma 90.000000
_cell_volume 3342.082325
_symmetry_space_group_name_H-M "C 2/M"
_symmetry_group_IT_number 12
_symmetry_cell_setting 'monoclinic'
loop_
_space_group_symop_operation_xyz
x,y,z
-x,y,-z
-x,-y,-z
x,-y,z
1/2+x,1/2+y,z
1/2-x,1/2+y,-z
1/2-x,1/2-y,-z
1/2+x,1/2-y,z
loop_
_atom_site_type_symbol
_atom_site_label
_atom_site_fract_x
_atom_site_fract_y
_atom_site_fract_z
Si Si1 0.413700 0.680501 0.053796
Si Si2 0.646732 0.317004 0.207621
Si Si3 0.699167 0.318922 0.438119
Si Si4 0.146883 0.820892 0.588569
Si Si5 0.792613 0.818810 0.695900
Si Si6 0.880358 0.679448 0.197396
Si Si7 0.477028 0.680246 0.257247
Si Si8 0.272840 0.817924 0.053427
O O1 0.404514 0.500000 0.047994
O O2 0.393976 0.722711 0.131304
O O3 0.357563 0.764357 0.032771
O O4 0.500000 0.735855 0.000000
O O5 0.648689 0.500000 0.209261
O O6 0.664103 0.246332 0.266275
O O7 0.563564 0.260028 0.225040
O O8 0.711421 0.256488 0.131343
O O9 0.700488 0.500000 0.431826
O O10 0.786045 0.269159 0.409538
O O11 0.642921 0.267173 0.519425
O O12 0.673157 0.253665 0.384102
O O13 0.066966 0.785043 0.659112
O O14 0.167694 0.000000 0.581845
O O15 0.702982 0.775913 0.738783
O O16 0.803666 0.000000 0.694385
O O17 0.886619 0.500000 0.178352
O O18 0.942641 0.723183 0.218474
O O19 0.472975 0.500000 0.243045
O O20 0.271274 0.000000 0.050131
O O21 0.250000 0.750000 0.000000
#
# Coordination Sequence:
#
# PCOD8097457 Si02
#       8
#     8   8   8   8   8   8   8   8
#     4  11  25  43  62  86 116 148 183 230 289 340
#     4   9  19  36  56  76 107 147 181 219 274 333
#     4   9  16  28  49  74 104 140 180 226 274 323
#     4   9  17  28  45  76 109 138 178 225 273 325
#     4   9  16  31  54  78 102 139 183 223 271 322
#     4  11  21  36  59  84 110 142 186 234 276 323
#     4  10  20  34  53  79 113 148 182 225 278 332
#     4  11  23  41  62  85 115 152 193 230 277 338
#
# _framework density 19.149736999999998
#
# number of rings (size 3 to 8) (size 9 to 14) (size 15 to 20)
#    0.000    2.125    2.500    1.125    1.750    1.000 
#    0.000    1.250    0.000    3.750    0.000    0.000 
#    0.000    5.000    0.000    0.000    0.000    0.000 
#
# Total GULP energy -396688.293292 kJ/mol
# GULP energy per Si atom -12396.509165 kJ/mol
# Density = 1.910615 g / cm^3
# Si number density = 19.149737 Si / 1000 Ang^3
#
#
#
# Elastic Constant Matrix: (Units=GPa)
#
#
# Indices 1 2 3 4 5 6 
#
# 1 132.0630 16.1662 55.3887 0.0000 15.1677 -0.0015
# 2 16.1662 21.9298 18.8727 0.0003 -1.3974 -0.0034
# 3 55.3887 18.8727 114.9728 0.0000 25.0082 0.0001
# 4 0.0000 0.0003 0.0000 20.8421 0.0001 1.9038
# 5 15.1677 -1.3974 25.0082 0.0001 36.4883 0.0001
# 6 -0.0015 -0.0034 0.0001 1.9038 0.0001 25.9302
#
#
#
# Elastic Compliance Matrix: (Units=1/GPa)
#
#
# Indices 1 2 3 4 5 6 
#
# 1 0.009822 -0.004195 -0.003667 0.000000 -0.001731 0.000000
# 2 -0.004195 0.057793 -0.009785 -0.000002 0.010664 0.000007
# 3 -0.003667 -0.009785 0.013891 0.000000 -0.008371 -0.000002
# 4 0.000000 -0.000002 0.000000 0.048304 0.000000 -0.003546
# 5 -0.001731 0.010664 -0.008371 0.000000 0.034271 0.000001
# 6 0.000000 0.000007 -0.000002 -0.003546 0.000001 0.038825
#
#
# Mechanical properties :
#
#
# Convention : Reuss Voigt Hill
#
# Bulk Modulus (GPa) = 21.63932 49.98010 35.80971
# Shear Modulus (GPa) = 19.71562 28.55467 24.13514
#
# Velocity S-wave (km/s) = 3.21214 3.86570 3.55398
# Velocity P-wave (km/s) = 5.00817 6.78831 5.96502
#
# Compressibility (1/GPa) = 0.04621218
#
# Stress axis : x y z
#
# Youngs Moduli (GPa) = 101.80798 17.30308 71.98733
#
# Poissons Ratio (x) = 0.07259 0.26397
# Poissons Ratio (y) = 0.42712 0.70440
# Poissons Ratio (z) = 0.37332 0.16931
#
# Static dielectric constant tensor:
#      x y z
#    x 3.916680 0.000000 0.386690 
#    y 0.000000 3.241180 0.000000 
#    z 0.386690 0.000000 4.126960 
# 
# 
# High freq. dielectric constant tensor:
#      x y z
#    x 1.735950 0.000000 0.012920 
#    y 0.000000 1.717500 0.000000 
#    z 0.012920 0.000000 1.763210 
# 
# From -- ./inp_files/319796.got.cif
#   From: 2010.06.25/outbox.cif.g09.slc.cpg/sg12_160_cif.got.tgz:319796.got - 2010.06.28 00:19:55.
