data_PCOD8097658
_publ_section_title
;
Structure prediction by ZEFSAII (Michael W. Deem and Ramdas Pophale) SiO2 
 PCOD8097658
Probable space group: C 2/M
;
_chemical_formula_sum "Si O2"
_cell_formula_units_Z 56
_cell_length_a 28.545467
_cell_length_b 8.676032
_cell_length_c 19.045273
_cell_angle_alpha 90.000000
_cell_angle_beta 138.664052
_cell_angle_gamma 90.000000
_cell_volume 3115.304451
_symmetry_space_group_name_H-M "C 2/M"
_symmetry_group_IT_number 12
_symmetry_cell_setting 'monoclinic'
loop_
_space_group_symop_operation_xyz
x,y,z
-x,y,-z
-x,-y,-z
x,-y,z
1/2+x,1/2+y,z
1/2-x,1/2+y,-z
1/2-x,1/2-y,-z
1/2+x,1/2-y,z
loop_
_atom_site_type_symbol
_atom_site_label
_atom_site_fract_x
_atom_site_fract_y
_atom_site_fract_z
Si Si1 0.645337 0.322723 0.876925
Si Si2 0.787677 0.820604 0.297594
Si Si3 0.245366 0.677906 0.882247
Si Si4 0.560956 0.179843 0.514228
Si Si5 0.735200 0.679186 0.377634
Si Si6 0.983341 0.821671 0.680102
Si Si7 0.637723 0.178984 0.376220
O O1 0.658975 0.500000 0.871244
O O2 0.675449 0.217386 0.848565
O O3 0.562929 0.286311 0.794323
O O4 0.684422 0.283886 0.993887
O O5 0.750762 0.781919 0.182451
O O6 0.869765 0.774321 0.386902
O O7 0.744945 0.728455 0.308659
O O8 0.781451 0.000000 0.307048
O O9 0.241067 0.500000 0.855240
O O10 0.500000 0.227355 0.500000
O O11 0.535550 0.218052 0.407753
O O12 0.579591 0.000000 0.539478
O O13 0.717458 0.500000 0.362651
O O14 0.669382 0.771218 0.336931
O O15 0.806980 0.719907 0.499920
O O16 0.933265 0.775405 0.688633
O O17 0.972700 0.000000 0.648433
O O18 0.618854 0.000000 0.353164
#
# Coordination Sequence:
#
# PCOD8097658 Si02
#       7
#     8   8   8   8   8   8   8
#     4   9  20  37  56  80 108 142 184 225 267 317
#     4  12  23  35  54  79 109 142 179 221 269 320
#     4  10  20  36  57  79 107 143 184 227 268 314
#     4  11  23  36  50  74 108 144 179 216 265 320
#     4  10  20  35  55  78 108 141 178 219 265 319
#     4  11  21  34  54  79 109 142 177 218 267 319
#     4  10  20  34  54  79 109 141 178 218 263 319
#
# _framework density 17.975770000000001
#
# number of rings (size 3 to 8) (size 9 to 14) (size 15 to 20)
#    0.000    1.571    1.429    4.286    0.000    6.286 
#    0.000    0.000    0.000    0.857    0.000    6.000 
#    0.000    0.000    0.000    0.000    0.000    0.000 
#
# Total GULP energy -347378.828921 kJ/mol
# GULP energy per Si atom -12406.386747 kJ/mol
# Density = 1.793486 g / cm^3
# Si number density = 17.975770 Si / 1000 Ang^3
#
#
#
# Elastic Constant Matrix: (Units=GPa)
#
#
# Indices 1 2 3 4 5 6 
#
# 1 105.6477 16.8125 40.1724 0.0000 -0.5010 0.0000
# 2 16.8125 44.4243 14.8686 0.0000 1.5031 0.0000
# 3 40.1724 14.8686 72.4105 0.0000 -4.1048 0.0000
# 4 0.0000 0.0000 0.0000 25.2674 0.0000 -2.0869
# 5 -0.5010 1.5031 -4.1048 0.0000 23.4719 0.0000
# 6 0.0000 0.0000 0.0000 -2.0869 0.0000 34.2980
#
#
#
# Elastic Compliance Matrix: (Units=1/GPa)
#
#
# Indices 1 2 3 4 5 6 
#
# 1 0.012268 -0.002500 -0.006331 0.000000 -0.000685 0.000000
# 2 -0.002500 0.024820 -0.003841 0.000000 -0.002314 0.000000
# 3 -0.006331 -0.003841 0.018299 0.000000 0.003311 0.000000
# 4 0.000000 0.000000 0.000000 0.039777 0.000000 0.002420
# 5 -0.000685 -0.002314 0.003311 0.000000 0.043317 0.000000
# 6 0.000000 0.000000 0.000000 0.002420 0.000000 0.029303
#
#
# Mechanical properties :
#
#
# Convention : Reuss Voigt Hill
#
# Bulk Modulus (GPa) = 33.28648 40.68773 36.98710
# Shear Modulus (GPa) = 24.61331 26.64940 25.63136
#
# Velocity S-wave (km/s) = 3.70435 3.85453 3.78018
# Velocity P-wave (km/s) = 6.07074 6.51872 6.29872
#
# Compressibility (1/GPa) = 0.03004223
#
# Stress axis : x y z
#
# Youngs Moduli (GPa) = 81.51585 40.28974 54.64783
#
# Poissons Ratio (x) = 0.10074 0.34599
# Poissons Ratio (y) = 0.20383 0.20988
# Poissons Ratio (z) = 0.51610 0.15473
#
# Static dielectric constant tensor:
#      x y z
#    x 3.382530 0.000000 0.044580 
#    y 0.000000 3.404200 0.000000 
#    z 0.044580 0.000000 3.229790 
# 
# 
# High freq. dielectric constant tensor:
#      x y z
#    x 1.698530 0.000000 -0.000720 
#    y 0.000000 1.710250 0.000000 
#    z -0.000720 0.000000 1.674140 
# 
# From -- ./inp_files/288160.got.cif
#   From: 2010.06.25/outbox.cif.g09.slc.cpg/sg12_145_cif.got.tgz:288160.got - 2010.06.28 00:19:55.
