data_PCOD8097937
_publ_section_title
;
Structure prediction by ZEFSAII (Michael W. Deem and Ramdas Pophale) SiO2 
 PCOD8097937
Probable space group: C 2/M
;
_chemical_formula_sum "Si O2"
_cell_formula_units_Z 56
_cell_length_a 20.352201
_cell_length_b 9.183727
_cell_length_c 22.761197
_cell_angle_alpha 90.000000
_cell_angle_beta 136.472941
_cell_angle_gamma 90.000000
_cell_volume 2929.905963
_symmetry_space_group_name_H-M "C 2/M"
_symmetry_group_IT_number 12
_symmetry_cell_setting 'monoclinic'
loop_
_space_group_symop_operation_xyz
x,y,z
-x,y,-z
-x,-y,-z
x,-y,z
1/2+x,1/2+y,z
1/2-x,1/2+y,-z
1/2-x,1/2-y,-z
1/2+x,1/2-y,z
loop_
_atom_site_type_symbol
_atom_site_label
_atom_site_fract_x
_atom_site_fract_y
_atom_site_fract_z
Si Si1 0.879958 0.165062 0.062174
Si Si2 0.393574 0.827942 0.296736
Si Si3 0.109223 0.329911 0.429306
Si Si4 0.949720 0.833528 0.911225
Si Si5 0.190803 0.671018 0.877541
Si Si6 0.270428 0.673057 0.726150
Si Si7 0.231620 0.330017 0.396899
O O1 0.879458 0.264543 0.119087
O O2 0.983185 0.181811 0.101453
O O3 0.858656 0.000000 0.067630
O O4 0.799880 0.214775 0.962858
O O5 0.501833 0.769494 0.368247
O O6 0.338359 0.762990 0.204387
O O7 0.334675 0.785083 0.317275
O O8 0.397063 0.000000 0.292937
O O9 0.117851 0.500000 0.451323
O O10 0.143776 0.303110 0.384783
O O11 0.172411 0.239105 0.515296
O O12 0.847198 0.771051 0.824774
O O13 0.932335 0.000000 0.918859
O O14 0.000000 0.753922 0.000000
O O15 0.175515 0.500000 0.867741
O O16 0.280783 0.500000 0.722600
O O17 0.292390 0.754093 0.679971
O O18 0.249162 0.500000 0.397835
#
# Coordination Sequence:
#
# PCOD8097937 Si02
#       7
#     8   8   8   8   8   8   8
#     4   9  17  29  46  72 101 133 171 213 257 300
#     4   9  18  33  54  78 100 134 179 217 252 301
#     4   9  19  37  59  78 101 136 176 216 257 310
#     4   9  17  30  50  75 104 138 176 216 255 296
#     4   9  17  30  49  71 100 134 172 212 253 302
#     4  10  20  34  55  80 106 138 178 219 257 305
#     4  10  21  37  56  80 108 135 168 214 267 319
#
# _framework density 19.113242
#
# number of rings (size 3 to 8) (size 9 to 14) (size 15 to 20)
#    0.000    2.714    0.000    1.286    2.000    4.571 
#    0.000    5.000    0.000    3.429    0.000    0.000 
#    0.000    0.000    0.000    0.000    0.000    0.000 
#
# Total GULP energy -347091.188647 kJ/mol
# GULP energy per Si atom -12396.113880 kJ/mol
# Density = 1.906974 g / cm^3
# Si number density = 19.113242 Si / 1000 Ang^3
#
#
#
# Elastic Constant Matrix: (Units=GPa)
#
#
# Indices 1 2 3 4 5 6 
#
# 1 93.5398 28.2018 61.7874 0.0000 10.7710 0.0000
# 2 28.2018 39.3837 33.9503 0.0000 -3.0187 0.0000
# 3 61.7874 33.9503 113.0762 0.0000 -1.3694 0.0000
# 4 0.0000 0.0000 0.0000 21.2310 0.0000 -6.2611
# 5 10.7710 -3.0187 -1.3694 0.0000 33.5583 0.0000
# 6 0.0000 0.0000 0.0000 -6.2611 0.0000 24.6545
#
#
#
# Elastic Compliance Matrix: (Units=1/GPa)
#
#
# Indices 1 2 3 4 5 6 
#
# 1 0.019236 -0.006998 -0.008497 0.000000 -0.007150 0.000000
# 2 -0.006998 0.037044 -0.007234 0.000000 0.005283 0.000000
# 3 -0.008497 -0.007234 0.015691 0.000000 0.002717 0.000000
# 4 0.000000 0.000000 0.000000 0.050914 0.000000 0.012930
# 5 -0.007150 0.005283 0.002717 0.000000 0.032680 0.000000
# 6 0.000000 0.000000 0.000000 0.012930 0.000000 0.043844
#
#
# Mechanical properties :
#
#
# Convention : Reuss Voigt Hill
#
# Bulk Modulus (GPa) = 37.71712 54.87539 46.29625
# Shear Modulus (GPa) = 19.70796 24.02612 21.86704
#
# Velocity S-wave (km/s) = 3.21458 3.54932 3.38609
# Velocity P-wave (km/s) = 5.79262 6.75055 6.28985
#
# Compressibility (1/GPa) = 0.02651316
#
# Stress axis : x y z
#
# Youngs Moduli (GPa) = 51.98491 26.99525 63.73021
#
# Poissons Ratio (x) = 0.18892 0.54149
# Poissons Ratio (y) = 0.36381 0.46102
# Poissons Ratio (z) = 0.44169 0.19528
#
# Static dielectric constant tensor:
#      x y z
#    x 3.593670 0.000000 0.062380 
#    y 0.000000 3.165160 0.000000 
#    z 0.062380 0.000000 3.617650 
# 
# 
# High freq. dielectric constant tensor:
#      x y z
#    x 1.750500 0.000000 0.002590 
#    y 0.000000 1.698340 0.000000 
#    z 0.002590 0.000000 1.747920 
# 
# From -- ./inp_files/315405.got.cif
#   From: 2010.06.25/outbox.cif.g09.slc.cpg/sg12_158_cif.got.tgz:315405.got - 2010.06.28 00:19:55.
