data_PCOD8097617
_publ_section_title
;
Structure prediction by ZEFSAII (Michael W. Deem and Ramdas Pophale) SiO2 
 PCOD8097617
Probable space group: C 2/M
;
_chemical_formula_sum "Si O2"
_cell_formula_units_Z 56
_cell_length_a 21.683488
_cell_length_b 9.226031
_cell_length_c 20.066781
_cell_angle_alpha 90.000000
_cell_angle_beta 49.958667
_cell_angle_gamma 90.000000
_cell_volume 3073.354445
_symmetry_space_group_name_H-M "C 2/M"
_symmetry_group_IT_number 12
_symmetry_cell_setting 'monoclinic'
loop_
_space_group_symop_operation_xyz
x,y,z
-x,y,-z
-x,-y,-z
x,-y,z
1/2+x,1/2+y,z
1/2-x,1/2+y,-z
1/2-x,1/2-y,-z
1/2+x,1/2-y,z
loop_
_atom_site_type_symbol
_atom_site_label
_atom_site_fract_x
_atom_site_fract_y
_atom_site_fract_z
Si Si1 0.878305 0.837119 0.543525
Si Si2 0.427323 0.670712 0.241399
Si Si3 0.950331 0.338655 0.758538
Si Si4 0.017455 0.328260 0.064741
Si Si5 0.741014 0.330844 0.575879
Si Si6 0.049987 0.162093 0.364372
Si Si7 0.670371 0.839573 0.040054
O O1 0.814530 0.714759 0.570971
O O2 0.895853 0.819001 0.608732
O O3 0.957064 0.808162 0.445149
O O4 0.846096 0.000000 0.551229
O O5 0.439493 0.500000 0.222847
O O6 0.483594 0.726634 0.261399
O O7 0.449403 0.750240 0.156658
O O8 0.337909 0.711081 0.327091
O O9 0.987422 0.500000 0.725192
O O10 0.919129 0.279741 0.709690
O O11 0.874497 0.344327 0.858984
O O12 0.009388 0.500000 0.082592
O O13 0.107635 0.278548 0.026770
O O14 0.000000 0.286819 0.000000
O O15 0.743048 0.500000 0.559016
O O16 0.750000 0.250000 0.500000
O O17 0.060222 0.000000 0.328475
O O18 0.697788 0.000000 0.998826
O O19 0.750000 0.750000 0.000000
#
# Coordination Sequence:
#
# PCOD8097617 Si02
#       7
#     8   8   8   8   8   8   8
#     4   9  19  35  53  74 104 138 176 219 261 310
#     4  10  21  36  54  79 109 141 180 223 265 319
#     4  10  20  34  54  79 105 136 175 217 262 314
#     4   9  19  38  61  83 109 142 183 229 276 329
#     4  11  23  36  52  77 109 142 180 223 267 315
#     4   9  18  34  54  76 102 136 176 217 262 313
#     4   9  19  35  54  79 108 137 173 219 268 319
#
# _framework density 18.221132999999998
#
# number of rings (size 3 to 8) (size 9 to 14) (size 15 to 20)
#    0.000    2.429    0.000    3.857    0.000   10.000 
#    2.571    1.429    0.000    0.000    0.000    0.000 
#    0.000    0.000    0.000    0.000    0.000    0.000 
#
# Total GULP energy -347091.546642 kJ/mol
# GULP energy per Si atom -12396.126666 kJ/mol
# Density = 1.817966 g / cm^3
# Si number density = 18.221133 Si / 1000 Ang^3
#
#
#
# Elastic Constant Matrix: (Units=GPa)
#
#
# Indices 1 2 3 4 5 6 
#
# 1 109.6098 52.8363 66.0678 -0.0001 -2.5663 0.0000
# 2 52.8363 80.4991 60.4914 -0.0004 0.8418 0.0000
# 3 66.0678 60.4914 88.2138 -0.0003 9.2347 0.0002
# 4 -0.0001 -0.0004 -0.0003 34.8647 0.0001 0.5690
# 5 -2.5663 0.8418 9.2347 0.0001 31.5050 -0.0001
# 6 0.0000 0.0000 0.0002 0.5690 -0.0001 34.6465
#
#
#
# Elastic Compliance Matrix: (Units=1/GPa)
#
#
# Indices 1 2 3 4 5 6 
#
# 1 0.017765 -0.002722 -0.011965 0.000000 0.005027 0.000000
# 2 -0.002722 0.026711 -0.016693 0.000000 0.003958 0.000000
# 3 -0.011965 -0.016693 0.032806 0.000000 -0.010145 0.000000
# 4 0.000000 0.000000 0.000000 0.028690 0.000000 -0.000471
# 5 0.005027 0.003958 -0.010145 0.000000 0.035018 0.000000
# 6 0.000000 0.000000 0.000000 -0.000471 0.000000 0.028871
#
#
# Mechanical properties :
#
#
# Convention : Reuss Voigt Hill
#
# Bulk Modulus (GPa) = 68.85389 70.79040 69.82214
# Shear Modulus (GPa) = 21.05605 26.79841 23.92723
#
# Velocity S-wave (km/s) = 3.40308 3.83917 3.62768
# Velocity P-wave (km/s) = 7.30145 7.65424 7.47993
#
# Compressibility (1/GPa) = 0.01452351
#
# Stress axis : x y z
#
# Youngs Moduli (GPa) = 56.29125 37.43710 30.48205
#
# Poissons Ratio (x) = 0.10189 0.36471
# Poissons Ratio (y) = 0.15320 0.50884
# Poissons Ratio (z) = 0.67352 0.62494
#
# Static dielectric constant tensor:
#      x y z
#    x 3.388930 0.000000 0.053660 
#    y 0.000000 4.073100 0.000000 
#    z 0.053660 0.000000 3.337180 
# 
# 
# High freq. dielectric constant tensor:
#      x y z
#    x 1.705790 0.000000 0.008220 
#    y 0.000000 1.710010 0.000000 
#    z 0.008220 0.000000 1.700380 
# 
# From -- ./inp_files/319660.got.cif
#   From: 2010.06.25/outbox.cif.g09.slc.cpg/sg12_160_cif.got.tgz:319660.got - 2010.06.28 00:19:55.
