data_PCOD8097264
_publ_section_title
;
Structure prediction by ZEFSAII (Michael W. Deem and Ramdas Pophale) SiO2 
 PCOD8097264
Probable space group: C 2/M
;
_chemical_formula_sum "Si O2"
_cell_formula_units_Z 64
_cell_length_a 16.673644
_cell_length_b 28.173869
_cell_length_c 14.111153
_cell_angle_alpha 90.000000
_cell_angle_beta 32.186835
_cell_angle_gamma 90.000000
_cell_volume 3531.078718
_symmetry_space_group_name_H-M "C 2/M"
_symmetry_group_IT_number 12
_symmetry_cell_setting 'monoclinic'
loop_
_space_group_symop_operation_xyz
x,y,z
-x,y,-z
-x,-y,-z
x,-y,z
1/2+x,1/2+y,z
1/2-x,1/2+y,-z
1/2-x,1/2-y,-z
1/2+x,1/2-y,z
loop_
_atom_site_type_symbol
_atom_site_label
_atom_site_fract_x
_atom_site_fract_y
_atom_site_fract_z
Si Si1 0.677293 0.369683 0.967814
Si Si2 0.174163 0.625718 0.671133
Si Si3 0.674166 0.874281 0.980540
Si Si4 0.329589 0.795882 0.170410
Si Si5 0.323342 0.197753 0.676657
Si Si6 0.820967 0.552952 0.179033
Si Si7 0.177295 0.869683 0.677596
Si Si8 0.177579 0.052510 0.822420
O O1 0.755421 0.325131 0.839431
O O2 0.728751 0.418401 0.864549
O O3 0.722995 0.371532 0.030666
O O4 0.499999 0.362343 0.135706
O O5 0.197706 0.673007 0.708707
O O6 0.231971 0.580528 0.673858
O O7 0.277002 0.628468 0.476661
O O8 0.999999 0.619871 0.816057
O O9 0.697713 0.826990 0.895880
O O10 0.731972 0.919470 0.862197
O O11 0.211909 0.753375 0.288094
O O12 0.500000 0.776082 0.000000
O O13 0.500000 0.189810 0.500000
O O14 0.255423 0.174869 0.649722
O O15 0.752204 0.500000 0.247794
O O16 0.000000 0.552317 0.000000
O O17 0.228752 0.918400 0.677949
O O18 0.253052 0.000000 0.746947
O O19 0.000000 0.046720 0.000000
#
# Coordination Sequence:
#
# PCOD8097264 Si02
#       8
#     8   8   8   8   8   8   8   8
#     4  10  20  34  53  76 104 136 167 206 255 303
#     4   9  18  33  53  76 103 136 172 210 250 296
#     4   9  18  33  53  76 103 136 172 210 250 296
#     4   9  19  36  54  73 101 135 170 208 252 299
#     4  11  22  36  55  76  99 129 168 213 255 301
#     4   8  15  30  52  77 106 139 173 210 252 296
#     4  10  20  34  53  76 104 136 167 206 255 303
#     4   8  16  32  51  71  98 133 169 202 243 296
#
# _framework density 18.124773000000001
#
# number of rings (size 3 to 8) (size 9 to 14) (size 15 to 20)
#    0.000    2.750    0.000    4.125    0.000    3.000 
#    0.000    1.875    0.000   13.500    0.000    0.000 
#    0.000    0.000    0.000    0.000    0.000    0.000 
#
# Total GULP energy -396772.910202 kJ/mol
# GULP energy per Si atom -12399.153444 kJ/mol
# Density = 1.808352 g / cm^3
# Si number density = 18.124773 Si / 1000 Ang^3
#
#
#
# Elastic Constant Matrix: (Units=GPa)
#
#
# Indices 1 2 3 4 5 6 
#
# 1 123.6001 51.0201 45.0907 -0.0081 13.1447 0.0028
# 2 51.0201 131.0947 45.3642 0.0010 5.7065 -0.0006
# 3 45.0907 45.3642 96.6147 -0.0195 14.1014 0.0139
# 4 -0.0081 0.0010 -0.0195 16.4907 0.0133 -2.5863
# 5 13.1447 5.7065 14.1014 0.0133 31.7763 -0.0070
# 6 0.0028 -0.0006 0.0139 -2.5863 -0.0070 13.9294
#
#
#
# Elastic Compliance Matrix: (Units=1/GPa)
#
#
# Indices 1 2 3 4 5 6 
#
# 1 0.010767 -0.002948 -0.003281 0.000004 -0.002469 0.000000
# 2 -0.002948 0.009917 -0.003420 -0.000006 0.000956 0.000004
# 3 -0.003281 -0.003420 0.014114 0.000017 -0.004292 -0.000013
# 4 0.000004 -0.000006 0.000017 0.062459 -0.000031 0.011597
# 5 -0.002469 0.000956 -0.004292 -0.000031 0.034224 0.000016
# 6 0.000000 0.000004 -0.000013 0.011597 0.000016 0.073944
#
#
# Mechanical properties :
#
#
# Convention : Reuss Voigt Hill
#
# Bulk Modulus (GPa) = 64.51329 70.47330 67.49329
# Shear Modulus (GPa) = 21.74965 26.42824 24.08894
#
# Velocity S-wave (km/s) = 3.46785 3.82269 3.64959
# Velocity P-wave (km/s) = 7.19068 7.64530 7.42147
#
# Compressibility (1/GPa) = 0.01550068
#
# Stress axis : x y z
#
# Youngs Moduli (GPa) = 92.87963 100.83493 70.85210
#
# Poissons Ratio (x) = 0.29722 0.23243
# Poissons Ratio (y) = 0.27377 0.24234
# Poissons Ratio (z) = 0.30470 0.34490
#
# Static dielectric constant tensor:
#      x y z
#    x 3.238720 -0.000010 0.102680 
#    y -0.000010 3.590330 0.000020 
#    z 0.102680 0.000020 3.136990 
# 
# 
# High freq. dielectric constant tensor:
#      x y z
#    x 1.698210 0.000000 0.010980 
#    y 0.000000 1.706580 0.000000 
#    z 0.010980 0.000000 1.687340 
# 
# From -- ./inp_files/228497.got.cif
#   From: 2010.06.25/outbox.cif.g09.slc.cpg/sg12_115_cif.got.tgz:228497.got - 2010.06.28 00:19:55.
