data_PCOD8097372
_publ_section_title
;
Structure prediction by ZEFSAII (Michael W. Deem and Ramdas Pophale) SiO2 
 PCOD8097372
Probable space group: C 2/M
;
_chemical_formula_sum "Si O2"
_cell_formula_units_Z 48
_cell_length_a 26.894097
_cell_length_b 9.137218
_cell_length_c 10.196291
_cell_angle_alpha 90.000000
_cell_angle_beta 101.307849
_cell_angle_gamma 90.000000
_cell_volume 2456.968925
_symmetry_space_group_name_H-M "C 2/M"
_symmetry_group_IT_number 12
_symmetry_cell_setting 'monoclinic'
loop_
_space_group_symop_operation_xyz
x,y,z
-x,y,-z
-x,-y,-z
x,-y,z
1/2+x,1/2+y,z
1/2-x,1/2+y,-z
1/2-x,1/2-y,-z
1/2+x,1/2-y,z
loop_
_atom_site_type_symbol
_atom_site_label
_atom_site_fract_x
_atom_site_fract_y
_atom_site_fract_z
Si Si1 0.351955 0.326294 0.531730
Si Si2 0.295026 0.327783 0.245967
Si Si3 0.033329 0.172638 0.392514
Si Si4 0.626280 0.668625 0.936459
Si Si5 0.521804 0.172213 0.870163
Si Si6 0.308027 0.330036 0.781636
O O1 0.351663 0.500000 0.532007
O O2 0.320409 0.265472 0.392102
O O3 0.409720 0.272143 0.550342
O O4 0.326276 0.266416 0.651334
O O5 0.286632 0.500000 0.251033
O O6 0.241122 0.254345 0.194369
O O7 0.330223 0.285373 0.142506
O O8 0.000000 0.217711 0.500000
O O9 0.014056 0.254098 0.254632
O O10 0.030732 0.000000 0.364434
O O11 0.610358 0.500000 0.906397
O O12 0.646329 0.695643 0.093302
O O13 0.578502 0.769512 0.884445
O O14 0.522055 0.000000 0.847525
O O15 0.500000 0.215858 0.000000
O O16 0.293890 0.500000 0.765164
#
# Coordination Sequence:
#
# PCOD8097372 Si02
#       6
#     8   8   8   8   8   8
#     4   9  18  33  53  78 107 139 178 221 264 321
#     4  10  20  35  55  79 107 138 176 222 270 322
#     4  10  20  37  62  86 110 147 192 233 276 329
#     4  10  21  37  57  79 105 142 185 226 270 325
#     4  11  24  39  56  83 117 149 184 230 283 335
#     4  10  20  34  53  78 107 140 179 221 268 322
#
# _framework density 19.536266999999999
#
# number of rings (size 3 to 8) (size 9 to 14) (size 15 to 20)
#    0.000    2.000    0.000    3.500    0.000    7.000 
#    0.000    1.667    0.000    0.000    0.000    0.000 
#    0.000    0.000    0.000    0.000    0.000    0.000 
#
# Total GULP energy -297712.659397 kJ/mol
# GULP energy per Si atom -12404.694142 kJ/mol
# Density = 1.949180 g / cm^3
# Si number density = 19.536267 Si / 1000 Ang^3
#
#
#
# Elastic Constant Matrix: (Units=GPa)
#
#
# Indices 1 2 3 4 5 6 
#
# 1 86.3084 21.7995 -2.4087 0.0000 -3.4737 0.0000
# 2 21.7995 36.0132 18.4113 0.0000 -1.4005 0.0000
# 3 -2.4087 18.4113 83.2237 0.0000 -5.3667 0.0000
# 4 0.0000 0.0000 0.0000 16.7799 0.0000 -3.3765
# 5 -3.4737 -1.4005 -5.3667 0.0000 33.9895 0.0000
# 6 0.0000 0.0000 0.0000 -3.3765 0.0000 5.5725
#
#
#
# Elastic Compliance Matrix: (Units=1/GPa)
#
#
# Indices 1 2 3 4 5 6 
#
# 1 0.014232 -0.009941 0.002706 0.000000 0.001472 0.000000
# 2 -0.009941 0.038254 -0.008804 0.000000 -0.000830 0.000000
# 3 0.002706 -0.008804 0.014181 0.000000 0.002153 0.000000
# 4 0.000000 0.000000 0.000000 0.067870 0.000000 0.041125
# 5 0.001472 -0.000830 0.002153 0.000000 0.029877 0.000000
# 6 0.000000 0.000000 0.000000 0.041125 0.000000 0.204373
#
#
# Mechanical properties :
#
#
# Convention : Reuss Voigt Hill
#
# Bulk Modulus (GPa) = 28.91142 31.23883 30.07512
# Shear Modulus (GPa) = 12.12431 22.45124 17.28778
#
# Velocity S-wave (km/s) = 2.49390 3.39368 2.97797
# Velocity P-wave (km/s) = 4.80871 5.60187 5.22037
#
# Compressibility (1/GPa) = 0.03458841
#
# Stress axis : x y z
#
# Youngs Moduli (GPa) = 70.26400 26.14114 70.51871
#
# Poissons Ratio (x) = 0.25987 -0.19083
# Poissons Ratio (y) = 0.69850 0.62085
# Poissons Ratio (z) = -0.19014 0.23015
#
# Static dielectric constant tensor:
#      x y z
#    x 3.651670 0.000000 -0.040070 
#    y 0.000000 3.271230 0.000000 
#    z -0.040070 0.000000 3.831440 
# 
# 
# High freq. dielectric constant tensor:
#      x y z
#    x 1.774070 0.000000 -0.001310 
#    y 0.000000 1.731720 0.000000 
#    z -0.001310 0.000000 1.780470 
# 
# From -- ./inp_files/108657.got.cif
#   From: 2010.06.25/outbox.cif.g09.slc.cpg/sg12_55_cif.got.tgz:108657.got - 2010.06.28 00:19:55.
