data_PCOD8097262
_publ_section_title
;
Structure prediction by ZEFSAII (Michael W. Deem and Ramdas Pophale) SiO2 
 PCOD8097262
Probable space group: C 2/M
;
_chemical_formula_sum "Si O2"
_cell_formula_units_Z 64
_cell_length_a 20.070058
_cell_length_b 9.159677
_cell_length_c 19.534621
_cell_angle_alpha 90.000000
_cell_angle_beta 90.140365
_cell_angle_gamma 90.000000
_cell_volume 3591.141132
_symmetry_space_group_name_H-M "C 2/M"
_symmetry_group_IT_number 12
_symmetry_cell_setting 'monoclinic'
loop_
_space_group_symop_operation_xyz
x,y,z
-x,y,-z
-x,-y,-z
x,-y,z
1/2+x,1/2+y,z
1/2-x,1/2+y,-z
1/2-x,1/2-y,-z
1/2+x,1/2-y,z
loop_
_atom_site_type_symbol
_atom_site_label
_atom_site_fract_x
_atom_site_fract_y
_atom_site_fract_z
Si Si1 0.307818 0.670398 0.702554
Si Si2 0.799513 0.170284 0.050304
Si Si3 0.558029 0.169026 0.296767
Si Si4 0.447848 0.673539 0.054179
Si Si5 0.703264 0.667114 0.792513
Si Si6 0.805214 0.829656 0.543854
Si Si7 0.937465 0.668080 0.544556
Si Si8 0.048116 0.830816 0.792117
O O1 0.318048 0.500000 0.715695
O O2 0.374860 0.750558 0.727338
O O3 0.245411 0.725724 0.745521
O O4 0.292669 0.704702 0.623424
O O5 0.873930 0.231900 0.036868
O O6 0.779408 0.200935 0.128611
O O7 0.796480 0.000000 0.034064
O O8 0.750000 0.250000 0.000000
O O9 0.544725 0.194750 0.376592
O O10 0.494168 0.232366 0.258637
O O11 0.566076 0.000000 0.278446
O O12 0.446112 0.500000 0.050148
O O13 0.469240 0.719309 0.130634
O O14 0.500000 0.740736 0.000000
O O15 0.721209 0.500000 0.774893
O O16 0.625768 0.696501 0.777467
O O17 0.750000 0.750000 0.500000
O O18 0.876463 0.768214 0.520891
O O19 0.802882 0.000000 0.527650
O O20 0.918411 0.500000 0.530649
O O21 0.000000 0.717766 0.500000
O O22 0.029888 0.000000 0.780857
#
# Coordination Sequence:
#
# PCOD8097262 Si02
#       8
#     8   8   8   8   8   8   8   8
#     4  10  21  36  54  76 101 132 174 216 251 300
#     4   9  18  32  50  74 103 133 167 208 252 299
#     4  10  20  34  53  76 104 135 165 205 256 303
#     4   8  15  30  51  72  95 127 166 203 241 289
#     4   9  19  35  52  73 105 140 172 211 258 303
#     4  10  21  36  54  77 104 133 168 211 256 304
#     4   9  19  36  55  75 102 135 169 206 249 298
#     4   9  18  33  52  74 102 134 168 207 248 297
#
# _framework density 17.821632999999999
#
# number of rings (size 3 to 8) (size 9 to 14) (size 15 to 20)
#    0.000    2.750    0.000    2.625    0.000    5.250 
#    0.000    6.875    0.000    0.750    0.000    0.000 
#    0.000    0.000    0.000    0.000    0.000    0.000 
#
# Total GULP energy -396831.923315 kJ/mol
# GULP energy per Si atom -12400.997604 kJ/mol
# Density = 1.778107 g / cm^3
# Si number density = 17.821633 Si / 1000 Ang^3
#
#
#
# Elastic Constant Matrix: (Units=GPa)
#
#
# Indices 1 2 3 4 5 6 
#
# 1 127.0708 69.6855 79.2659 0.0000 2.8978 0.0000
# 2 69.6855 90.2036 56.6270 0.0000 7.0459 0.0000
# 3 79.2659 56.6270 85.4071 0.0000 1.4202 0.0000
# 4 0.0000 0.0000 0.0000 30.3759 0.0000 5.0086
# 5 2.8978 7.0459 1.4202 0.0000 40.0755 0.0000
# 6 0.0000 0.0000 0.0000 5.0086 0.0000 36.3358
#
#
#
# Elastic Compliance Matrix: (Units=1/GPa)
#
#
# Indices 1 2 3 4 5 6 
#
# 1 0.020865 -0.006812 -0.014851 0.000000 0.000215 0.000000
# 2 -0.006812 0.021556 -0.007919 0.000000 -0.003017 0.000000
# 3 -0.014851 -0.007919 0.030720 0.000000 0.001378 0.000000
# 4 0.000000 0.000000 0.000000 0.033687 0.000000 -0.004643
# 5 0.000215 -0.003017 0.001378 0.000000 0.025419 0.000000
# 6 0.000000 0.000000 0.000000 -0.004643 0.000000 0.028161
#
#
# Mechanical properties :
#
#
# Convention : Reuss Voigt Hill
#
# Bulk Modulus (GPa) = 71.55918 79.31535 75.43726
# Shear Modulus (GPa) = 22.29835 27.83097 25.06466
#
# Velocity S-wave (km/s) = 3.54106 3.95605 3.75429
# Velocity P-wave (km/s) = 7.54712 8.09128 7.82393
#
# Compressibility (1/GPa) = 0.01397445
#
# Stress axis : x y z
#
# Youngs Moduli (GPa) = 47.92768 46.39059 32.55215
#
# Poissons Ratio (x) = 0.31603 0.48344
# Poissons Ratio (y) = 0.32650 0.25780
# Poissons Ratio (z) = 0.71179 0.36739
#
# Static dielectric constant tensor:
#      x y z
#    x 3.423550 0.000000 -0.081120 
#    y 0.000000 3.183610 0.000000 
#    z -0.081120 0.000000 3.294320 
# 
# 
# High freq. dielectric constant tensor:
#      x y z
#    x 1.695900 0.000000 -0.000350 
#    y 0.000000 1.680200 0.000000 
#    z -0.000350 0.000000 1.689070 
# 
# From -- ./inp_files/314163.got.cif
#   From: 2010.06.25/outbox.cif.g09.slc.cpg/sg12_158_cif.got.tgz:314163.got - 2010.06.28 00:19:55.
