data_PCOD8097695
_publ_section_title
;
Structure prediction by ZEFSAII (Michael W. Deem and Ramdas Pophale) SiO2 
 PCOD8097695
Probable space group: C 2/M
;
_chemical_formula_sum "Si O2"
_cell_formula_units_Z 56
_cell_length_a 20.538057
_cell_length_b 8.868741
_cell_length_c 16.081183
_cell_angle_alpha 90.000000
_cell_angle_beta 71.091687
_cell_angle_gamma 90.000000
_cell_volume 2771.073619
_symmetry_space_group_name_H-M "C 2/M"
_symmetry_group_IT_number 12
_symmetry_cell_setting 'monoclinic'
loop_
_space_group_symop_operation_xyz
x,y,z
-x,y,-z
-x,-y,-z
x,-y,z
1/2+x,1/2+y,z
1/2-x,1/2+y,-z
1/2-x,1/2-y,-z
1/2+x,1/2-y,z
loop_
_atom_site_type_symbol
_atom_site_label
_atom_site_fract_x
_atom_site_fract_y
_atom_site_fract_z
Si Si1 0.809576 0.675316 0.583910
Si Si2 0.519038 0.176648 0.732414
Si Si3 0.460491 0.163136 0.933210
Si Si4 0.208138 0.669893 0.145107
Si Si5 0.669444 0.175430 0.617390
Si Si6 0.332195 0.669247 0.999686
Si Si7 0.891497 0.177345 0.691712
O O1 0.808785 0.500000 0.606859
O O2 0.733149 0.739403 0.635541
O O3 0.828985 0.707529 0.481177
O O4 0.869892 0.754548 0.611903
O O5 0.504724 0.215134 0.834796
O O6 0.596079 0.236694 0.681040
O O7 0.462869 0.255267 0.696091
O O8 0.515373 0.000000 0.714256
O O9 0.411795 0.300008 0.981030
O O10 0.425984 0.000000 0.923572
O O11 0.500000 0.130992 0.000000
O O12 0.186765 0.500000 0.179956
O O13 0.187377 0.702660 0.058768
O O14 0.171930 0.787171 0.220459
O O15 0.291248 0.689512 0.104776
O O16 0.678795 0.000000 0.633880
O O17 0.320630 0.500000 0.969973
O O18 0.900662 0.000000 0.679481
#
# Coordination Sequence:
#
# PCOD8097695 Si02
#       7
#     8   8   8   8   8   8   8
#     4  10  21  39  63  89 120 156 196 245 299 355
#     4  10  21  39  61  85 119 159 198 245 300 357
#     4  10  21  36  55  80 113 155 196 235 286 348
#     4  10  20  35  55  79 110 147 185 232 288 342
#     4   9  20  40  64  89 118 157 201 242 293 360
#     4  10  20  34  54  80 108 143 188 236 284 335
#     4  12  24  37  58  89 122 155 200 250 298 354
#
# _framework density 20.208773000000001
#
# number of rings (size 3 to 8) (size 9 to 14) (size 15 to 20)
#    0.000    1.857    1.429    2.571    0.000    4.857 
#    0.000    4.286    0.000    0.000    0.000    0.000 
#    0.000    0.000    0.000    0.000    0.000    0.000 
#
# Total GULP energy -346953.494495 kJ/mol
# GULP energy per Si atom -12391.196232 kJ/mol
# Density = 2.016278 g / cm^3
# Si number density = 20.208773 Si / 1000 Ang^3
#
#
#
# Elastic Constant Matrix: (Units=GPa)
#
#
# Indices 1 2 3 4 5 6 
#
# 1 113.6065 48.0455 54.8118 0.0000 -12.4109 0.0000
# 2 48.0455 84.8277 28.5124 0.0000 -8.5450 0.0000
# 3 54.8118 28.5124 59.0886 0.0000 -12.4017 0.0000
# 4 0.0000 0.0000 0.0000 24.6327 0.0000 -1.7049
# 5 -12.4109 -8.5450 -12.4017 0.0000 37.8933 0.0000
# 6 0.0000 0.0000 0.0000 -1.7049 0.0000 35.0671
#
#
#
# Elastic Compliance Matrix: (Units=1/GPa)
#
#
# Indices 1 2 3 4 5 6 
#
# 1 0.017794 -0.005405 -0.013884 0.000000 0.000065 0.000000
# 2 -0.005405 0.015749 -0.002375 0.000000 0.001004 0.000000
# 3 -0.013884 -0.002375 0.032087 0.000000 0.005418 0.000000
# 4 0.000000 0.000000 0.000000 0.040734 0.000000 0.001980
# 5 0.000065 0.001004 0.005418 0.000000 0.028411 0.000000
# 6 0.000000 0.000000 0.000000 0.001980 0.000000 0.028613
#
#
# Mechanical properties :
#
#
# Convention : Reuss Voigt Hill
#
# Bulk Modulus (GPa) = 44.84138 57.80691 51.32415
# Shear Modulus (GPa) = 23.34810 27.92882 25.63846
#
# Velocity S-wave (km/s) = 3.40272 3.72158 3.56572
# Velocity P-wave (km/s) = 6.13802 6.86541 6.51188
#
# Compressibility (1/GPa) = 0.02230083
#
# Stress axis : x y z
#
# Youngs Moduli (GPa) = 56.19851 63.49450 31.16572
#
# Poissons Ratio (x) = 0.34318 0.43272
# Poissons Ratio (y) = 0.30375 0.07403
# Poissons Ratio (z) = 0.78028 0.15081
#
# Static dielectric constant tensor:
#      x y z
#    x 3.517710 0.000000 -0.061040 
#    y 0.000000 3.753920 0.000000 
#    z -0.061040 0.000000 3.556540 
# 
# 
# High freq. dielectric constant tensor:
#      x y z
#    x 1.784410 0.000000 -0.010930 
#    y 0.000000 1.790390 0.000000 
#    z -0.010930 0.000000 1.784240 
# 
# From -- ./inp_files/275248.got.cif
#   From: 2010.06.25/outbox.cif.g09.slc.cpg/sg12_138_cif.got.tgz:275248.got - 2010.06.28 00:19:55.
