data_PCOD8097211
_publ_section_title
;
Structure prediction by ZEFSAII (Michael W. Deem and Ramdas Pophale) SiO2 
 PCOD8097211
Probable space group: C 2/M
;
_chemical_formula_sum "Si O2"
_cell_formula_units_Z 40
_cell_length_a 17.926461
_cell_length_b 9.252423
_cell_length_c 25.823974
_cell_angle_alpha 90.000000
_cell_angle_beta 30.000032
_cell_angle_gamma 90.000000
_cell_volume 2141.625555
_symmetry_space_group_name_H-M "C 2/M"
_symmetry_group_IT_number 12
_symmetry_cell_setting 'monoclinic'
loop_
_space_group_symop_operation_xyz
x,y,z
-x,y,-z
-x,-y,-z
x,-y,z
1/2+x,1/2+y,z
1/2-x,1/2+y,-z
1/2-x,1/2-y,-z
1/2+x,1/2-y,z
loop_
_atom_site_type_symbol
_atom_site_label
_atom_site_fract_x
_atom_site_fract_y
_atom_site_fract_z
Si Si1 0.327030 0.670186 0.207605
Si Si2 0.327076 0.329640 0.000751
Si Si3 0.830722 0.671352 0.800876
Si Si4 0.670057 0.169909 0.594354
Si Si5 0.671880 0.331298 0.394207
O O1 0.302589 0.500000 0.227466
O O2 0.250708 0.731282 0.201341
O O3 0.251795 0.744356 0.301418
O O4 0.499912 0.711324 0.101875
O O5 0.301692 0.500000 0.009602
O O6 0.253629 0.270078 0.097712
O O7 0.250000 0.250000 0.000000
O O8 0.822739 0.500000 0.805842
O O9 0.000618 0.725968 0.699669
O O10 0.750000 0.250000 0.500000
O O11 0.752182 0.212233 0.597701
O O12 0.677308 0.000000 0.579229
O O13 0.500000 0.285171 0.500000
O O14 0.690285 0.500000 0.371229
#
# Coordination Sequence:
#
# PCOD8097211 Si02
#       5
#     8   8   8   8   8
#     4  10  20  34  55  80 102 132 176 219 255 297
#     4  10  20  35  55  78 105 136 171 212 258 309
#     4   9  18  34  54  75 102 136 172 211 256 303
#     4  10  20  34  53  75 101 136 173 210 255 304
#     4  10  21  36  53  76 108 142 171 206 260 315
#
# _framework density 18.677402000000001
#
# number of rings (size 3 to 8) (size 9 to 14) (size 15 to 20)
#    0.000    2.200    0.000    3.000    0.000    6.000 
#    0.000    2.000    0.000    2.400    0.000    0.000 
#    0.000    0.000    0.000    0.000    0.000    0.000 
#
# Total GULP energy -248066.060101 kJ/mol
# GULP energy per Si atom -12403.303005 kJ/mol
# Density = 1.863489 g / cm^3
# Si number density = 18.677402 Si / 1000 Ang^3
#
#
#
# Elastic Constant Matrix: (Units=GPa)
#
#
# Indices 1 2 3 4 5 6 
#
# 1 203.1562 51.7462 122.4100 0.0006 -3.0259 -0.0034
# 2 51.7462 31.2072 54.8420 0.0000 3.3702 -0.0079
# 3 122.4100 54.8420 206.3232 -0.0057 5.6577 -0.0026
# 4 0.0006 0.0000 -0.0057 29.2658 -0.0007 6.6938
# 5 -3.0259 3.3702 5.6577 -0.0007 42.9392 0.0022
# 6 -0.0034 -0.0079 -0.0026 6.6938 0.0022 26.6535
#
#
#
# Elastic Compliance Matrix: (Units=1/GPa)
#
#
# Indices 1 2 3 4 5 6 
#
# 1 0.009378 -0.011044 -0.002680 0.000000 0.001881 -0.000002
# 2 -0.011044 0.073434 -0.012834 -0.000007 -0.004851 0.000021
# 3 -0.002680 -0.012834 0.009861 0.000003 -0.000481 -0.000004
# 4 0.000000 -0.000007 0.000003 0.036252 0.000001 -0.009104
# 5 0.001881 -0.004851 -0.000481 0.000001 0.023865 -0.000004
# 6 -0.000002 0.000021 -0.000004 -0.009104 -0.000004 0.039805
#
#
# Mechanical properties :
#
#
# Convention : Reuss Voigt Hill
#
# Bulk Modulus (GPa) = 25.27948 99.85365 62.56657
# Shear Modulus (GPa) = 19.31269 33.88425 26.59847
#
# Velocity S-wave (km/s) = 3.21910 4.26395 3.77782
# Velocity P-wave (km/s) = 5.23268 8.82156 7.25262
#
# Compressibility (1/GPa) = 0.03955778
#
# Stress axis : x y z
#
# Youngs Moduli (GPa) = 106.63094 13.61773 101.40560
#
# Poissons Ratio (x) = 0.15039 0.27178
# Poissons Ratio (y) = 1.17759 1.30144
# Poissons Ratio (z) = 0.28578 0.17477
#
# Static dielectric constant tensor:
#      x y z
#    x 3.677490 0.000000 -0.082970 
#    y 0.000000 3.133520 0.000000 
#    z -0.082970 0.000000 3.615230 
# 
# 
# High freq. dielectric constant tensor:
#      x y z
#    x 1.746570 0.000000 -0.002830 
#    y 0.000000 1.693820 0.000000 
#    z -0.002830 0.000000 1.745090 
# 
# From -- ./inp_files/71206.got.cif
#   From: 2010.06.25/outbox.cif.g09.slc.cpg/sg12_36_cif.got.tgz:71206.got - 2010.06.28 00:19:55.
