data_PCOD8097267
_publ_section_title
;
Structure prediction by ZEFSAII (Michael W. Deem and Ramdas Pophale) SiO2 
 PCOD8097267
Probable space group: C 2/M
;
_chemical_formula_sum "Si O2"
_cell_formula_units_Z 56
_cell_length_a 32.719121
_cell_length_b 9.122855
_cell_length_c 21.652231
_cell_angle_alpha 90.000000
_cell_angle_beta 153.481932
_cell_angle_gamma 90.000000
_cell_volume 2885.606225
_symmetry_space_group_name_H-M "C 2/M"
_symmetry_group_IT_number 12
_symmetry_cell_setting 'monoclinic'
loop_
_space_group_symop_operation_xyz
x,y,z
-x,y,-z
-x,-y,-z
x,-y,z
1/2+x,1/2+y,z
1/2-x,1/2+y,-z
1/2-x,1/2-y,-z
1/2+x,1/2-y,z
loop_
_atom_site_type_symbol
_atom_site_label
_atom_site_fract_x
_atom_site_fract_y
_atom_site_fract_z
Si Si1 0.828148 0.661243 0.027671
Si Si2 0.515037 0.173550 0.120081
Si Si3 0.986719 0.824826 0.753881
Si Si4 0.334719 0.159655 0.177403
Si Si5 0.506760 0.671497 0.439165
Si Si6 0.356570 0.826806 0.817572
Si Si7 0.847196 0.172550 0.459941
O O1 0.836347 0.500000 0.006385
O O2 0.802886 0.635671 0.064532
O O3 0.918792 0.754167 0.139915
O O4 0.740358 0.751416 0.883113
O O5 0.537420 0.265845 0.211134
O O6 0.592338 0.221348 0.175712
O O7 0.518449 0.000000 0.138680
O O8 0.415670 0.220144 0.957772
O O9 0.906456 0.771775 0.598680
O O10 0.996790 0.000000 0.767565
O O11 0.428371 0.246713 0.296525
O O12 0.348584 0.000000 0.227516
O O13 0.500000 0.726815 0.500000
O O14 0.487634 0.500000 0.407977
O O15 0.602770 0.713695 0.536863
O O16 0.254516 0.756035 0.679765
O O17 0.349756 0.000000 0.809368
O O18 0.837258 0.000000 0.452842
#
# Coordination Sequence:
#
# PCOD8097267 Si02
#       7
#     8   8   8   8   8   8   8
#     4  10  20  34  54  76 102 139 180 220 265 326
#     4   9  18  34  58  83 107 139 185 233 272 326
#     4  11  21  33  53  81 114 145 177 225 283 333
#     4  10  20  34  53  76 104 137 176 226 278 320
#     4  10  20  34  53  77 106 146 192 230 268 325
#     4   8  16  34  57  79 106 145 187 227 273 323
#     4   9  18  33  53  77 108 144 183 228 274 325
#
# _framework density 19.406666999999999
#
# number of rings (size 3 to 8) (size 9 to 14) (size 15 to 20)
#    0.000    2.429    1.429    2.143    0.000    3.143 
#    0.000    4.286    0.000    4.286    0.000    0.000 
#    0.000    0.000    0.000    0.000    0.000    0.000 
#
# Total GULP energy -347000.271905 kJ/mol
# GULP energy per Si atom -12392.866854 kJ/mol
# Density = 1.936250 g / cm^3
# Si number density = 19.406667 Si / 1000 Ang^3
#
#
#
# Elastic Constant Matrix: (Units=GPa)
#
#
# Indices 1 2 3 4 5 6 
#
# 1 107.9004 34.5217 63.5091 0.0000 3.2320 0.0000
# 2 34.5217 55.4000 32.0423 0.0000 6.6475 0.0000
# 3 63.5091 32.0423 111.8778 0.0000 30.7316 0.0000
# 4 0.0000 0.0000 0.0000 17.7308 0.0000 -1.8698
# 5 3.2320 6.6475 30.7316 0.0000 34.6335 0.0000
# 6 0.0000 0.0000 0.0000 -1.8698 0.0000 23.9328
#
#
#
# Elastic Compliance Matrix: (Units=1/GPa)
#
#
# Indices 1 2 3 4 5 6 
#
# 1 0.016908 -0.005568 -0.010398 0.000000 0.008718 0.000000
# 2 -0.005568 0.023551 -0.003286 0.000000 -0.001085 0.000000
# 3 -0.010398 -0.003286 0.020287 0.000000 -0.016401 0.000000
# 4 0.000000 0.000000 0.000000 0.056868 0.000000 0.004443
# 5 0.008718 -0.001085 -0.016401 0.000000 0.042821 0.000000
# 6 0.000000 0.000000 0.000000 0.004443 0.000000 0.042131
#
#
# Mechanical properties :
#
#
# Convention : Reuss Voigt Hill
#
# Bulk Modulus (GPa) = 44.96110 59.48049 52.22079
# Shear Modulus (GPa) = 20.12187 24.93309 22.52748
#
# Velocity S-wave (km/s) = 3.22351 3.58826 3.41076
# Velocity P-wave (km/s) = 6.08875 6.91979 6.51753
#
# Compressibility (1/GPa) = 0.02224145
#
# Stress axis : x y z
#
# Youngs Moduli (GPa) = 59.14196 42.46074 49.29186
#
# Poissons Ratio (x) = 0.23643 0.51255
# Poissons Ratio (y) = 0.32931 0.16199
# Poissons Ratio (z) = 0.61497 0.13954
#
# Static dielectric constant tensor:
#      x y z
#    x 3.569790 0.000000 0.173500 
#    y 0.000000 3.483250 0.000000 
#    z 0.173500 0.000000 3.826900 
# 
# 
# High freq. dielectric constant tensor:
#      x y z
#    x 1.749770 0.000000 0.010730 
#    y 0.000000 1.730080 0.000000 
#    z 0.010730 0.000000 1.755100 
# 
# From -- ./inp_files/319724.got.cif
#   From: 2010.06.25/outbox.cif.g09.slc.cpg/sg12_160_cif.got.tgz:319724.got - 2010.06.28 00:19:55.
