data_PCOD8097562
_publ_section_title
;
Structure prediction by ZEFSAII (Michael W. Deem and Ramdas Pophale) SiO2 
 PCOD8097562
Probable space group: C 2/M
;
_chemical_formula_sum "Si O2"
_cell_formula_units_Z 48
_cell_length_a 18.488742
_cell_length_b 8.944366
_cell_length_c 15.138124
_cell_angle_alpha 90.000000
_cell_angle_beta 89.864839
_cell_angle_gamma 90.000000
_cell_volume 2503.385741
_symmetry_space_group_name_H-M "C 2/M"
_symmetry_group_IT_number 12
_symmetry_cell_setting 'monoclinic'
loop_
_space_group_symop_operation_xyz
x,y,z
-x,y,-z
-x,-y,-z
x,-y,z
1/2+x,1/2+y,z
1/2-x,1/2+y,-z
1/2-x,1/2-y,-z
1/2+x,1/2-y,z
loop_
_atom_site_type_symbol
_atom_site_label
_atom_site_fract_x
_atom_site_fract_y
_atom_site_fract_z
Si Si1 0.676966 0.173179 0.471314
Si Si2 0.084922 0.164641 0.984181
Si Si3 0.697254 0.325545 0.300783
Si Si4 0.958627 0.824409 0.201029
Si Si5 0.864007 0.330230 0.339950
Si Si6 0.608564 0.823700 0.156058
O O1 0.750000 0.250000 0.500000
O O2 0.650144 0.254621 0.381933
O O3 0.622313 0.190400 0.554583
O O4 0.691263 0.000000 0.450430
O O5 0.120376 0.279616 0.053085
O O6 0.119510 0.000000 0.998620
O O7 0.093759 0.217311 0.882158
O O8 0.000000 0.155117 0.000000
O O9 0.679813 0.500000 0.296689
O O10 0.781581 0.291823 0.315199
O O11 0.674383 0.247442 0.210105
O O12 0.917749 0.781086 0.290381
O O13 0.033572 0.736348 0.195302
O O14 0.976461 0.000000 0.200488
O O15 0.881592 0.500000 0.311694
O O16 0.610631 0.000000 0.164725
#
# Coordination Sequence:
#
# PCOD8097562 Si02
#       6
#     8   8   8   8   8   8
#     4   9  17  31  51  75 102 134 171 208 249 299
#     4   8  16  32  51  72  99 132 169 207 249 298
#     4  10  20  35  54  76 104 136 170 211 256 300
#     4  10  20  34  54  77 103 135 169 208 252 301
#     4   9  19  34  53  77 104 133 166 209 254 297
#     4  11  21  33  53  78 103 133 170 211 253 302
#
# _framework density 19.174030999999999
#
# number of rings (size 3 to 8) (size 9 to 14) (size 15 to 20)
#    0.000    2.500    0.000    5.000    0.000    7.667 
#    0.000    1.667    0.000    5.000    0.000    0.000 
#    0.000    0.000    0.000    0.000    0.000    0.000 
#
# Total GULP energy -297487.201830 kJ/mol
# GULP energy per Si atom -12395.300076 kJ/mol
# Density = 1.913039 g / cm^3
# Si number density = 19.174031 Si / 1000 Ang^3
#
#
#
# Elastic Constant Matrix: (Units=GPa)
#
#
# Indices 1 2 3 4 5 6 
#
# 1 17.3535 8.4648 -7.5323 0.0000 0.1017 0.0000
# 2 8.4648 100.4630 4.6988 0.0000 2.2714 0.0000
# 3 -7.5323 4.6988 28.3951 0.0000 -0.7479 0.0000
# 4 0.0000 0.0000 0.0000 37.3901 0.0000 0.9603
# 5 0.1017 2.2714 -0.7479 0.0000 27.2751 0.0000
# 6 0.0000 0.0000 0.0000 0.9603 0.0000 25.5296
#
#
#
# Elastic Compliance Matrix: (Units=1/GPa)
#
#
# Indices 1 2 3 4 5 6 
#
# 1 0.069418 -0.006783 0.019559 0.000000 0.000842 0.000000
# 2 -0.006783 0.010716 -0.003598 0.000000 -0.000966 0.000000
# 3 0.019559 -0.003598 0.041037 0.000000 0.001352 0.000000
# 4 0.000000 0.000000 0.000000 0.026771 0.000000 -0.001007
# 5 0.000842 -0.000966 0.001352 0.000000 0.036778 0.000000
# 6 0.000000 0.000000 0.000000 -0.001007 0.000000 0.039208
#
#
# Mechanical properties :
#
#
# Convention : Reuss Voigt Hill
#
# Bulk Modulus (GPa) = 7.16706 17.49715 12.33210
# Shear Modulus (GPa) = 19.83495 27.41098 23.62297
#
# Velocity S-wave (km/s) = 3.21981 3.78509 3.51384
# Velocity P-wave (km/s) = 4.19153 5.31487 4.78627
#
# Compressibility (1/GPa) = 0.13952724
#
# Stress axis : x y z
#
# Youngs Moduli (GPa) = 14.40539 93.32238 24.36839
#
# Poissons Ratio (x) = 0.63300 -0.47662
# Poissons Ratio (y) = 0.09771 0.08768
# Poissons Ratio (z) = -0.28176 0.33577
#
# Static dielectric constant tensor:
#      x y z
#    x 3.002950 0.000000 0.018680 
#    y 0.000000 3.602620 0.000000 
#    z 0.018680 0.000000 4.159580 
# 
# 
# High freq. dielectric constant tensor:
#      x y z
#    x 1.694050 0.000000 0.003260 
#    y 0.000000 1.754220 0.000000 
#    z 0.003260 0.000000 1.763240 
# 
# From -- ./inp_files/221659.got.cif
#   From: 2010.06.25/outbox.cif.g09.slc.cpg/sg12_111_cif.got.tgz:221659.got - 2010.06.28 00:19:55.
