data_PCOD8097594
_publ_section_title
;
Structure prediction by ZEFSAII (Michael W. Deem and Ramdas Pophale) SiO2 
 PCOD8097594
Probable space group: C 2/M
;
_chemical_formula_sum "Si O2"
_cell_formula_units_Z 44
_cell_length_a 9.301580
_cell_length_b 10.345278
_cell_length_c 27.768363
_cell_angle_alpha 90.000000
_cell_angle_beta 59.794297
_cell_angle_gamma 90.000000
_cell_volume 2309.276087
_symmetry_space_group_name_H-M "C 2/M"
_symmetry_group_IT_number 12
_symmetry_cell_setting 'monoclinic'
loop_
_space_group_symop_operation_xyz
x,y,z
-x,y,-z
-x,-y,-z
x,-y,z
1/2+x,1/2+y,z
1/2-x,1/2+y,-z
1/2-x,1/2-y,-z
1/2+x,1/2-y,z
loop_
_atom_site_type_symbol
_atom_site_label
_atom_site_fract_x
_atom_site_fract_y
_atom_site_fract_z
Si Si1 0.000000 0.714378 0.000000
Si Si2 0.364073 0.357867 0.929795
Si Si3 0.874093 0.146919 0.750702
Si Si4 0.471603 0.355393 0.378058
Si Si5 0.419854 0.145383 0.563908
Si Si6 0.589335 0.351187 0.805843
O O1 0.836396 0.635930 0.043544
O O2 0.067456 0.791178 0.034252
O O3 0.431572 0.500000 0.925387
O O4 0.446052 0.303111 0.867100
O O5 0.944907 0.179429 0.686543
O O6 0.739274 0.252705 0.787918
O O7 0.024680 0.161094 0.762556
O O8 0.801393 0.000000 0.765285
O O9 0.526109 0.500000 0.385569
O O10 0.524662 0.248162 0.406531
O O11 0.276006 0.350059 0.406211
O O12 0.500000 0.186990 0.500000
O O13 0.479195 0.000000 0.568176
O O14 0.645670 0.500000 0.806112
#
# Coordination Sequence:
#
# PCOD8097594 Si02
#       6
#     4   8   8   8   8   8
#     4  10  20  34  54  78 106 138 174 216 266 318
#     4  10  20  35  54  78 106 138 176 218 265 317
#     4  10  21  37  55  79 109 141 180 224 268 318
#     4  10  21  36  55  80 110 142 179 223 268 318
#     4  10  21  37  57  82 111 143 180 222 268 319
#     4  10  21  37  57  80 109 143 180 223 270 320
#
# _framework density 19.053591000000001
#
# number of rings (size 3 to 8) (size 9 to 14) (size 15 to 20)
#    0.000    2.000    0.000    3.273    0.000    4.000 
#    0.000    4.545    0.000    0.000    0.000    0.000 
#    0.000    0.000    0.000    0.000    0.000    0.000 
#
# Total GULP energy -272655.691529 kJ/mol
# GULP energy per Si atom -12393.440524 kJ/mol
# Density = 1.901022 g / cm^3
# Si number density = 19.053591 Si / 1000 Ang^3
#
#
#
# Elastic Constant Matrix: (Units=GPa)
#
#
# Indices 1 2 3 4 5 6 
#
# 1 67.9392 38.6685 23.6770 0.0000 4.1429 0.0000
# 2 38.6685 86.6332 40.1885 0.0000 3.8646 0.0000
# 3 23.6770 40.1885 102.6060 0.0000 -2.6674 0.0000
# 4 0.0000 0.0000 0.0000 31.2451 0.0000 -3.9359
# 5 4.1429 3.8646 -2.6674 0.0000 35.9444 0.0000
# 6 0.0000 0.0000 0.0000 -3.9359 0.0000 36.9375
#
#
#
# Elastic Compliance Matrix: (Units=1/GPa)
#
#
# Indices 1 2 3 4 5 6 
#
# 1 0.019969 -0.008174 -0.001446 0.000000 -0.001530 0.000000
# 2 -0.008174 0.017587 -0.005037 0.000000 -0.001322 0.000000
# 3 -0.001446 -0.005037 0.012094 0.000000 0.001606 0.000000
# 4 0.000000 0.000000 0.000000 0.032440 0.000000 0.003457
# 5 -0.001530 -0.001322 0.001606 0.000000 0.028258 0.000000
# 6 0.000000 0.000000 0.000000 0.003457 0.000000 0.027441
#
#
# Mechanical properties :
#
#
# Convention : Reuss Voigt Hill
#
# Bulk Modulus (GPa) = 49.17287 51.36072 50.26679
# Shear Modulus (GPa) = 28.75526 31.13501 29.94514
#
# Velocity S-wave (km/s) = 3.88903 4.04676 3.96868
# Velocity P-wave (km/s) = 6.78452 6.98924 6.88764
#
# Compressibility (1/GPa) = 0.02033642
#
# Stress axis : x y z
#
# Youngs Moduli (GPa) = 50.07873 56.86120 82.68449
#
# Poissons Ratio (x) = 0.46477 0.11958
# Poissons Ratio (y) = 0.40933 0.41644
# Poissons Ratio (z) = 0.07242 0.28638
#
# Static dielectric constant tensor:
#      x y z
#    x 3.340090 0.000000 -0.103620 
#    y 0.000000 3.681110 0.000000 
#    z -0.103620 0.000000 3.823560 
# 
# 
# High freq. dielectric constant tensor:
#      x y z
#    x 1.731660 0.000000 -0.000170 
#    y 0.000000 1.744870 0.000000 
#    z -0.000170 0.000000 1.762790 
# 
# From -- ./inp_files/299340.got.cif
#   From: 2010.06.25/outbox.cif.g09.slc.cpg/sg12_150_cif.got.tgz:299340.got - 2010.06.28 00:19:55.
