data_PCOD8097498
_publ_section_title
;
Structure prediction by ZEFSAII (Michael W. Deem and Ramdas Pophale) SiO2 
 PCOD8097498
Probable space group: C 2/M
;
_chemical_formula_sum "Si O2"
_cell_formula_units_Z 56
_cell_length_a 23.192857
_cell_length_b 9.390553
_cell_length_c 15.548121
_cell_angle_alpha 90.000000
_cell_angle_beta 122.946908
_cell_angle_gamma 90.000000
_cell_volume 2841.684176
_symmetry_space_group_name_H-M "C 2/M"
_symmetry_group_IT_number 12
_symmetry_cell_setting 'monoclinic'
loop_
_space_group_symop_operation_xyz
x,y,z
-x,y,-z
-x,-y,-z
x,-y,z
1/2+x,1/2+y,z
1/2-x,1/2+y,-z
1/2-x,1/2-y,-z
1/2+x,1/2-y,z
loop_
_atom_site_type_symbol
_atom_site_label
_atom_site_fract_x
_atom_site_fract_y
_atom_site_fract_z
Si Si1 0.946790 0.834949 0.385781
Si Si2 0.460098 0.663759 0.201712
Si Si3 0.674933 0.163130 0.646875
Si Si4 0.325945 0.333364 0.824789
Si Si5 0.312750 0.335460 0.012166
Si Si6 0.318020 0.837120 0.541611
Si Si7 0.419322 0.831225 0.774262
O O1 0.977316 0.808668 0.315826
O O2 0.874367 0.755204 0.333338
O O3 0.000000 0.774926 0.500000
O O4 0.931781 0.000000 0.390587
O O5 0.475336 0.500000 0.188884
O O6 0.505333 0.765989 0.178452
O O7 0.380710 0.700942 0.121206
O O8 0.753511 0.211144 0.723743
O O9 0.653064 0.187607 0.530473
O O10 0.666458 0.000000 0.668554
O O11 0.341721 0.500000 0.822445
O O12 0.325164 0.292460 0.923804
O O13 0.385552 0.239558 0.830399
O O14 0.293025 0.500000 0.003199
O O15 0.250000 0.250000 0.000000
O O16 0.250000 0.750000 0.500000
O O17 0.375683 0.787723 0.655027
O O18 0.297680 0.000000 0.540221
O O19 0.424916 0.000000 0.792156
#
# Coordination Sequence:
#
# PCOD8097498 Si02
#       7
#     8   8   8   8   8   8   8
#     4  10  21  36  55  81 111 147 188 228 278 337
#     4  10  22  40  59  81 115 154 189 232 287 343
#     4  10  20  34  55  82 111 145 184 230 282 333
#     4  10  21  38  59  83 113 149 189 232 285 344
#     4  10  22  40  63  88 112 147 192 237 288 342
#     4  10  20  34  53  81 115 150 188 228 277 335
#     4  11  23  37  57  87 117 149 193 237 282 336
#
# _framework density 19.706621999999999
#
# number of rings (size 3 to 8) (size 9 to 14) (size 15 to 20)
#    0.000    1.857    1.429    2.143    0.000    4.286 
#    0.000    2.857    0.000    0.000    0.000    0.000 
#    0.000    0.000    0.000    0.000    0.000    0.000 
#
# Total GULP energy -347336.410158 kJ/mol
# GULP energy per Si atom -12404.871791 kJ/mol
# Density = 1.966177 g / cm^3
# Si number density = 19.706622 Si / 1000 Ang^3
#
#
#
# Elastic Constant Matrix: (Units=GPa)
#
#
# Indices 1 2 3 4 5 6 
#
# 1 142.1603 77.1240 42.7034 0.0000 -1.9461 0.0000
# 2 77.1240 81.3479 35.0997 0.0000 -1.5745 0.0000
# 3 42.7034 35.0997 104.9847 0.0000 -7.5158 0.0000
# 4 0.0000 0.0000 0.0000 22.2972 0.0000 1.4741
# 5 -1.9461 -1.5745 -7.5158 0.0000 21.6507 0.0000
# 6 0.0000 0.0000 0.0000 1.4741 0.0000 45.6793
#
#
#
# Elastic Compliance Matrix: (Units=1/GPa)
#
#
# Indices 1 2 3 4 5 6 
#
# 1 0.014695 -0.013265 -0.001556 0.000000 -0.000184 0.000000
# 2 -0.013265 0.026347 -0.003447 0.000000 -0.000473 0.000000
# 3 -0.001556 -0.003447 0.011570 0.000000 0.003626 0.000000
# 4 0.000000 0.000000 0.000000 0.044945 0.000000 -0.001450
# 5 -0.000184 -0.000473 0.003626 0.000000 0.047396 0.000000
# 6 0.000000 0.000000 0.000000 -0.001450 0.000000 0.021939
#
#
# Mechanical properties :
#
#
# Convention : Reuss Voigt Hill
#
# Bulk Modulus (GPa) = 62.19876 70.92744 66.56310
# Shear Modulus (GPa) = 23.94807 29.49648 26.72227
#
# Velocity S-wave (km/s) = 3.48980 3.87302 3.68639
# Velocity P-wave (km/s) = 6.91875 7.48800 7.20900
#
# Compressibility (1/GPa) = 0.01607749
#
# Stress axis : x y z
#
# Youngs Moduli (GPa) = 68.04858 37.95524 86.43003
#
# Poissons Ratio (x) = 0.50346 0.13447
# Poissons Ratio (y) = 0.90264 0.29792
# Poissons Ratio (z) = 0.10587 0.13083
#
# Static dielectric constant tensor:
#      x y z
#    x 3.429360 0.000000 0.074200 
#    y 0.000000 3.580800 0.000000 
#    z 0.074200 0.000000 4.156730 
# 
# 
# High freq. dielectric constant tensor:
#      x y z
#    x 1.768390 0.000000 -0.003080 
#    y 0.000000 1.761240 0.000000 
#    z -0.003080 0.000000 1.775930 
# 
# From -- ./inp_files/238975.got.cif
#   From: 2010.06.25/outbox.cif.g09.slc.cpg/sg12_120_cif.got.tgz:238975.got - 2010.06.28 00:19:55.
