data_PCOD8097342
_publ_section_title
;
Structure prediction by ZEFSAII (Michael W. Deem and Ramdas Pophale) SiO2 
 PCOD8097342
Probable space group: C 2/M
;
_chemical_formula_sum "Si O2"
_cell_formula_units_Z 56
_cell_length_a 33.406210
_cell_length_b 9.178542
_cell_length_c 23.065816
_cell_angle_alpha 90.000000
_cell_angle_beta 24.277493
_cell_angle_gamma 90.000000
_cell_volume 2907.881387
_symmetry_space_group_name_H-M "C 2/M"
_symmetry_group_IT_number 12
_symmetry_cell_setting 'monoclinic'
loop_
_space_group_symop_operation_xyz
x,y,z
-x,y,-z
-x,-y,-z
x,-y,z
1/2+x,1/2+y,z
1/2-x,1/2+y,-z
1/2-x,1/2-y,-z
1/2+x,1/2-y,z
loop_
_atom_site_type_symbol
_atom_site_label
_atom_site_fract_x
_atom_site_fract_y
_atom_site_fract_z
Si Si1 0.604486 0.330647 0.198179
Si Si2 0.614306 0.671902 0.488325
Si Si3 0.607758 0.668619 0.712686
Si Si4 0.534199 0.168756 0.018356
Si Si5 0.761095 0.668602 0.201073
Si Si6 0.282042 0.171357 0.045097
Si Si7 0.314986 0.831009 0.494709
O O1 0.607997 0.500000 0.178206
O O2 0.498865 0.284333 0.361561
O O3 0.680665 0.289688 0.147705
O O4 0.628608 0.245190 0.107176
O O5 0.629766 0.500000 0.478108
O O6 0.662459 0.721540 0.363504
O O7 0.672969 0.758201 0.459322
O O8 0.590230 0.500000 0.722143
O O9 0.612739 0.752965 0.645491
O O10 0.704113 0.694837 0.622856
O O11 0.517357 0.731477 0.866611
O O12 0.648865 0.197986 0.874531
O O13 0.507183 0.000000 0.064944
O O14 0.500000 0.218335 0.000000
O O15 0.749867 0.500000 0.202161
O O16 0.775916 0.740558 0.117996
O O17 0.302988 0.000000 0.017724
O O18 0.342592 0.000000 0.460721
#
# Coordination Sequence:
#
# PCOD8097342 Si02
#       7
#     8   8   8   8   8   8   8
#     4   9  19  34  55  82 109 140 178 227 279 321
#     4  10  20  35  55  80 110 141 180 227 273 322
#     4  10  21  36  54  77 104 140 183 230 276 318
#     4  10  20  34  53  77 108 147 187 224 271 325
#     4   9  19  34  54  80 108 145 187 225 269 323
#     4   9  18  35  56  79 109 143 182 224 270 329
#     4  10  21  36  54  77 107 140 180 222 272 331
#
# _framework density 19.258006000000002
#
# number of rings (size 3 to 8) (size 9 to 14) (size 15 to 20)
#    0.000    2.429    0.000    1.714    2.000    4.286 
#    0.000    4.286    0.000    0.000    0.000    5.000 
#    0.000    0.000    0.000    0.000    0.000    0.000 
#
# Total GULP energy -347222.173399 kJ/mol
# GULP energy per Si atom -12400.791907 kJ/mol
# Density = 1.921417 g / cm^3
# Si number density = 19.258006 Si / 1000 Ang^3
#
#
#
# Elastic Constant Matrix: (Units=GPa)
#
#
# Indices 1 2 3 4 5 6 
#
# 1 105.5670 26.7497 56.9746 -0.0002 23.1721 0.0000
# 2 26.7497 52.7169 41.9071 -0.0072 5.9810 -0.0012
# 3 56.9746 41.9071 153.2576 -0.0084 22.3662 0.0011
# 4 -0.0002 -0.0072 -0.0084 28.6112 0.0007 4.0186
# 5 23.1721 5.9810 22.3662 0.0007 26.7987 0.0002
# 6 0.0000 -0.0012 0.0011 4.0186 0.0002 24.4890
#
#
#
# Elastic Compliance Matrix: (Units=1/GPa)
#
#
# Indices 1 2 3 4 5 6 
#
# 1 0.013901 -0.003792 -0.002847 -0.000002 -0.008797 0.000000
# 2 -0.003792 0.025273 -0.005871 0.000004 0.002539 0.000001
# 3 -0.002847 -0.005871 0.009836 0.000002 -0.004437 -0.000001
# 4 -0.000002 0.000004 0.000002 0.035776 -0.000002 -0.005871
# 5 -0.008797 0.002539 -0.004437 -0.000002 0.048059 0.000000
# 6 0.000000 0.000001 -0.000001 -0.005871 0.000000 0.041798
#
#
# Mechanical properties :
#
#
# Convention : Reuss Voigt Hill
#
# Bulk Modulus (GPa) = 41.68579 62.53380 52.10980
# Shear Modulus (GPa) = 24.07767 28.37380 26.22573
#
# Velocity S-wave (km/s) = 3.53975 3.84259 3.69427
# Velocity P-wave (km/s) = 6.19672 7.22699 6.73160
#
# Compressibility (1/GPa) = 0.02398899
#
# Stress axis : x y z
#
# Youngs Moduli (GPa) = 71.93621 39.56798 101.66321
#
# Poissons Ratio (x) = 0.15006 0.28943
# Poissons Ratio (y) = 0.27282 0.59690
# Poissons Ratio (z) = 0.20480 0.23232
#
# Static dielectric constant tensor:
#      x y z
#    x 3.625760 0.000000 0.115230 
#    y 0.000000 3.339950 0.000020 
#    z 0.115230 0.000020 3.651490 
# 
# 
# High freq. dielectric constant tensor:
#      x y z
#    x 1.749130 0.000000 0.005370 
#    y 0.000000 1.727660 0.000000 
#    z 0.005370 0.000000 1.757820 
# 
# From -- ./inp_files/280182.got.cif
#   From: 2010.06.25/outbox.cif.g09.slc.cpg/sg12_141_cif.got.tgz:280182.got - 2010.06.28 00:19:55.
