data_PCOD8097254
_publ_section_title
;
Structure prediction by ZEFSAII (Michael W. Deem and Ramdas Pophale) SiO2 
 PCOD8097254
Probable space group: C 2/M
;
_chemical_formula_sum "Si O2"
_cell_formula_units_Z 64
_cell_length_a 8.876315
_cell_length_b 19.697384
_cell_length_c 24.004342
_cell_angle_alpha 90.000000
_cell_angle_beta 56.312028
_cell_angle_gamma 90.000000
_cell_volume 3492.136657
_symmetry_space_group_name_H-M "C 2/M"
_symmetry_group_IT_number 12
_symmetry_cell_setting 'monoclinic'
loop_
_space_group_symop_operation_xyz
x,y,z
-x,y,-z
-x,-y,-z
x,-y,z
1/2+x,1/2+y,z
1/2-x,1/2+y,-z
1/2-x,1/2-y,-z
1/2+x,1/2-y,z
loop_
_atom_site_type_symbol
_atom_site_label
_atom_site_fract_x
_atom_site_fract_y
_atom_site_fract_z
Si Si1 0.143919 0.577743 0.187235
Si Si2 0.176395 0.178880 0.930012
Si Si3 0.794375 0.577743 0.187235
Si Si4 0.561380 0.319393 0.576904
Si Si5 0.938794 0.079174 0.323850
Si Si6 0.792090 0.680607 0.423097
Si Si7 0.410345 0.079174 0.676150
Si Si8 0.966431 0.678880 0.069988
O O1 0.209070 0.500000 0.169247
O O2 0.286790 0.622666 0.124220
O O3 0.142000 0.602947 0.251134
O O4 0.942911 0.587152 0.204725
O O5 0.139694 0.250000 0.906870
O O6 0.342859 0.187006 0.938094
O O7 0.000000 0.155087 0.000000
O O8 0.783192 0.500000 0.169245
O O9 0.604598 0.602946 0.251133
O O10 0.840550 0.622667 0.124220
O O11 0.558532 0.382719 0.618425
O O12 0.370487 0.313012 0.586342
O O13 0.722676 0.331836 0.500000
O O14 0.594061 0.249999 0.603958
O O15 0.754982 0.096912 0.330012
O O16 0.957046 0.000000 0.333898
O O17 0.913806 0.617280 0.381576
O O18 0.458738 0.000000 0.666103
O O19 0.000000 0.655088 0.000000
#
# Coordination Sequence:
#
# PCOD8097254 Si02
#       8
#     8   8   8   8   8   8   8   8
#     4   9  19  36  55  75 102 137 176 216 259 308
#     4  10  20  34  53  76 103 135 170 211 258 308
#     4   9  19  36  55  75 102 137 176 216 259 308
#     4  10  21  37  57  80 107 140 177 218 264 314
#     4  10  21  36  55  80 109 141 177 218 263 311
#     4  10  21  37  57  80 107 140 177 218 264 314
#     4  10  21  36  55  80 109 141 177 218 263 311
#     4  10  20  34  53  76 103 135 170 211 258 308
#
# _framework density 18.326889999999999
#
# number of rings (size 3 to 8) (size 9 to 14) (size 15 to 20)
#    0.000    2.250    0.000    3.000    0.000    7.000 
#    0.000    5.000    0.000    0.000    0.000    0.000 
#    0.000    0.000    0.000    0.000    0.000    0.000 
#
# Total GULP energy -396932.116453 kJ/mol
# GULP energy per Si atom -12404.128639 kJ/mol
# Density = 1.828518 g / cm^3
# Si number density = 18.326890 Si / 1000 Ang^3
#
#
#
# Elastic Constant Matrix: (Units=GPa)
#
#
# Indices 1 2 3 4 5 6 
#
# 1 86.1892 46.9912 56.4522 0.0000 -2.6971 0.0001
# 2 46.9912 87.8667 75.7341 0.0000 -2.2572 0.0000
# 3 56.4522 75.7341 117.5605 -0.0001 0.2324 0.0000
# 4 0.0000 0.0000 -0.0001 35.3394 0.0001 -0.2329
# 5 -2.6971 -2.2572 0.2324 0.0001 31.8079 -0.0001
# 6 0.0001 0.0000 0.0000 -0.2329 -0.0001 32.3684
#
#
#
# Elastic Compliance Matrix: (Units=1/GPa)
#
#
# Indices 1 2 3 4 5 6 
#
# 1 0.017842 -0.004776 -0.005494 0.000000 0.001214 0.000000
# 2 -0.004776 0.026988 -0.015096 0.000000 0.001621 0.000000
# 3 -0.005494 -0.015096 0.020873 0.000000 -0.001690 0.000000
# 4 0.000000 0.000000 0.000000 0.028298 0.000000 0.000204
# 5 0.001214 0.001621 -0.001690 0.000000 0.031669 0.000000
# 6 0.000000 0.000000 0.000000 0.000204 0.000000 0.030896
#
#
# Mechanical properties :
#
#
# Convention : Reuss Voigt Hill
#
# Bulk Modulus (GPa) = 66.79000 72.21904 69.50452
# Shear Modulus (GPa) = 23.55289 27.39907 25.47598
#
# Velocity S-wave (km/s) = 3.58879 3.87074 3.73243
# Velocity P-wave (km/s) = 7.32772 7.71158 7.52210
#
# Compressibility (1/GPa) = 0.01497230
#
# Stress axis : x y z
#
# Youngs Moduli (GPa) = 56.04619 37.05321 47.90967
#
# Poissons Ratio (x) = 0.17696 0.26319
# Poissons Ratio (y) = 0.26767 0.72324
# Poissons Ratio (z) = 0.30789 0.55935
#
# Static dielectric constant tensor:
#      x y z
#    x 3.483500 0.000000 0.006290 
#    y 0.000000 3.384860 0.000000 
#    z 0.006290 0.000000 3.403500 
# 
# 
# High freq. dielectric constant tensor:
#      x y z
#    x 1.722840 0.000000 0.000760 
#    y 0.000000 1.710780 0.000000 
#    z 0.000760 0.000000 1.713230 
# 
# From -- ./inp_files/301681.got.cif
#   From: 2010.06.25/outbox.cif.g09.slc.cpg/sg12_151_cif.got.tgz:301681.got - 2010.06.28 00:19:55.
