data_PCOD8097832
_publ_section_title
;
Structure prediction by ZEFSAII (Michael W. Deem and Ramdas Pophale) SiO2 
 PCOD8097832
Probable space group: C 2/M
;
_chemical_formula_sum "Si O2"
_cell_formula_units_Z 56
_cell_length_a 14.097873
_cell_length_b 13.862064
_cell_length_c 20.256372
_cell_angle_alpha 90.000000
_cell_angle_beta 137.922332
_cell_angle_gamma 90.000000
_cell_volume 2652.815185
_symmetry_space_group_name_H-M "C 2/M"
_symmetry_group_IT_number 12
_symmetry_cell_setting 'monoclinic'
loop_
_space_group_symop_operation_xyz
x,y,z
-x,y,-z
-x,-y,-z
x,-y,z
1/2+x,1/2+y,z
1/2-x,1/2+y,-z
1/2-x,1/2-y,-z
1/2+x,1/2-y,z
loop_
_atom_site_type_symbol
_atom_site_label
_atom_site_fract_x
_atom_site_fract_y
_atom_site_fract_z
Si Si1 0.068638 0.719243 0.294796
Si Si2 0.395468 0.114149 0.311137
Si Si3 0.662377 0.164239 0.923791
Si Si4 0.593795 0.385571 0.731256
Si Si5 0.142360 0.605869 0.052660
Si Si6 0.851809 0.107678 0.906432
Si Si7 0.627633 0.713300 0.611448
O O1 0.232464 0.707962 0.361245
O O2 0.022142 0.639834 0.325575
O O3 0.982581 0.702864 0.182753
O O4 0.042327 0.825703 0.313215
O O5 0.243887 0.150143 0.202259
O O6 0.406370 0.176611 0.383400
O O7 0.400407 0.000000 0.328952
O O8 0.755049 0.104646 0.920667
O O9 0.750000 0.250000 0.000000
O O10 0.635863 0.093243 0.970850
O O11 0.564473 0.500000 0.723168
O O12 0.718239 0.344482 0.844510
O O13 0.635794 0.358804 0.678220
O O14 0.140434 0.500000 0.084716
O O15 0.000000 0.663475 0.000000
O O16 0.891782 0.000000 0.905189
O O17 0.000000 0.163284 0.000000
O O18 0.500000 0.676840 0.500000
#
# Coordination Sequence:
#
# PCOD8097832 Si02
#       7
#     8   8   8   8   8   8   8
#     4  10  22  41  60  88 123 157 195 245 293 349
#     4   9  21  40  62  89 121 156 196 242 297 354
#     4  11  20  31  53  85 114 151 186 221 277 345
#     4  10  22  41  61  88 121 156 198 245 296 353
#     4  10  20  34  54  82 117 154 191 233 279 340
#     4   9  19  34  53  80 117 154 188 227 273 339
#     4  11  25  43  63  87 115 152 202 255 305 353
#
# _framework density 21.109649999999998
#
# number of rings (size 3 to 8) (size 9 to 14) (size 15 to 20)
#    0.000    2.000    1.429    1.286    2.000    5.143 
#    0.000    1.429    0.000    0.000    0.000    0.000 
#    0.000    0.000    0.000    0.000    0.000    0.000 
#
# Total GULP energy -346948.789294 kJ/mol
# GULP energy per Si atom -12391.028189 kJ/mol
# Density = 2.106160 g / cm^3
# Si number density = 21.109650 Si / 1000 Ang^3
#
#
#
# Elastic Constant Matrix: (Units=GPa)
#
#
# Indices 1 2 3 4 5 6 
#
# 1 106.1629 4.5007 48.9604 0.0000 19.5254 0.0000
# 2 4.5007 84.9594 7.9700 0.0000 2.7758 0.0000
# 3 48.9604 7.9700 87.9667 0.0000 13.2791 0.0000
# 4 0.0000 0.0000 0.0000 16.0072 0.0000 -11.2198
# 5 19.5254 2.7758 13.2791 0.0000 34.9689 0.0000
# 6 0.0000 0.0000 0.0000 -11.2198 0.0000 41.1480
#
#
#
# Elastic Compliance Matrix: (Units=1/GPa)
#
#
# Indices 1 2 3 4 5 6 
#
# 1 0.013433 0.000082 -0.006737 0.000000 -0.004949 0.000000
# 2 0.000082 0.011882 -0.001032 0.000000 -0.000597 0.000000
# 3 -0.006737 -0.001032 0.015521 0.000000 -0.002050 0.000000
# 4 0.000000 0.000000 0.000000 0.077232 0.000000 0.021059
# 5 -0.004949 -0.000597 -0.002050 0.000000 0.032186 0.000000
# 6 0.000000 0.000000 0.000000 0.021059 0.000000 0.030045
#
#
# Mechanical properties :
#
#
# Convention : Reuss Voigt Hill
#
# Bulk Modulus (GPa) = 39.27419 44.66124 41.96772
# Shear Modulus (GPa) = 24.49054 32.93537 28.71295
#
# Velocity S-wave (km/s) = 3.40981 3.95423 3.69206
# Velocity P-wave (km/s) = 5.84360 6.48464 6.17245
#
# Compressibility (1/GPa) = 0.02546201
#
# Stress axis : x y z
#
# Youngs Moduli (GPa) = 74.44260 84.15871 64.43043
#
# Poissons Ratio (x) = -0.00691 0.43407
# Poissons Ratio (y) = -0.00611 0.06650
# Poissons Ratio (z) = 0.50152 0.08686
#
# Static dielectric constant tensor:
#      x y z
#    x 2.391900 0.000000 0.895000 
#    y 0.000000 3.632760 0.000000 
#    z 0.895000 0.000000 3.268100 
# 
# 
# High freq. dielectric constant tensor:
#      x y z
#    x 1.822790 0.000000 -0.003180 
#    y 0.000000 1.827670 0.000000 
#    z -0.003180 0.000000 1.816870 
# 
# From -- ./inp_files/214280.got.cif
#   From: 2010.06.25/outbox.cif.g09.slc.cpg/sg12_108_cif.got.tgz:214280.got - 2010.06.28 00:19:55.
