data_PCOD8097419
_publ_section_title
;
Structure prediction by ZEFSAII (Michael W. Deem and Ramdas Pophale) SiO2 
 PCOD8097419
Probable space group: C 2/M
;
_chemical_formula_sum "Si O2"
_cell_formula_units_Z 48
_cell_length_a 19.102472
_cell_length_b 8.869102
_cell_length_c 15.408034
_cell_angle_alpha 90.000000
_cell_angle_beta 101.585849
_cell_angle_gamma 90.000000
_cell_volume 2557.268076
_symmetry_space_group_name_H-M "C 2/M"
_symmetry_group_IT_number 12
_symmetry_cell_setting 'monoclinic'
loop_
_space_group_symop_operation_xyz
x,y,z
-x,y,-z
-x,-y,-z
x,-y,z
1/2+x,1/2+y,z
1/2-x,1/2+y,-z
1/2-x,1/2-y,-z
1/2+x,1/2-y,z
loop_
_atom_site_type_symbol
_atom_site_label
_atom_site_fract_x
_atom_site_fract_y
_atom_site_fract_z
Si Si1 0.560528 0.177289 0.272987
Si Si2 0.328344 0.323581 0.365405
Si Si3 0.699973 0.324723 0.246148
Si Si4 0.425716 0.176491 0.523684
Si Si5 0.783697 0.324484 0.092002
Si Si6 0.088483 0.176923 0.786657
O O1 0.625560 0.236954 0.231707
O O2 0.574023 0.221480 0.375973
O O3 0.489576 0.255474 0.219931
O O4 0.551896 0.000000 0.259293
O O5 0.312330 0.500000 0.365973
O O6 0.253597 0.239317 0.332152
O O7 0.361265 0.267409 0.463763
O O8 0.383406 0.282251 0.302352
O O9 0.687474 0.500000 0.261395
O O10 0.731079 0.293674 0.158928
O O11 0.500000 0.229093 0.500000
O O12 0.412964 0.000000 0.505129
O O13 0.795510 0.500000 0.078466
O O14 0.860326 0.249841 0.128722
O O15 0.750000 0.250000 0.000000
O O16 0.086229 0.000000 0.802099
#
# Coordination Sequence:
#
# PCOD8097419 Si02
#       6
#     8   8   8   8   8   8
#     4  11  22  36  56  82 114 151 189 232 280 326
#     4  10  20  34  55  81 109 147 194 236 274 324
#     4  10  22  39  58  81 114 149 182 226 282 334
#     4  10  20  34  53  78 111 150 193 236 277 323
#     4  10  21  39  64  89 112 142 180 224 275 334
#     4  10  20  35  57  84 114 147 185 228 276 331
#
# _framework density 18.770030999999999
#
# number of rings (size 3 to 8) (size 9 to 14) (size 15 to 20)
#    0.000    1.833    1.667    2.500    0.000    5.667 
#    0.000    0.833    0.000    5.000    0.000    0.000 
#    0.000    0.000    0.000    0.000    0.000    0.000 
#
# Total GULP energy -297754.431332 kJ/mol
# GULP energy per Si atom -12406.434639 kJ/mol
# Density = 1.872731 g / cm^3
# Si number density = 18.770031 Si / 1000 Ang^3
#
#
#
# Elastic Constant Matrix: (Units=GPa)
#
#
# Indices 1 2 3 4 5 6 
#
# 1 140.5860 60.0697 53.4143 0.0000 19.3943 0.0000
# 2 60.0697 95.2394 54.0158 0.0000 14.8873 0.0000
# 3 53.4143 54.0158 93.0242 0.0000 29.0876 0.0000
# 4 0.0000 0.0000 0.0000 32.6582 0.0000 5.7364
# 5 19.3943 14.8873 29.0876 0.0000 28.3574 0.0000
# 6 0.0000 0.0000 0.0000 5.7364 0.0000 38.8855
#
#
#
# Elastic Compliance Matrix: (Units=1/GPa)
#
#
# Indices 1 2 3 4 5 6 
#
# 1 0.010414 -0.004798 -0.002582 0.000000 -0.001955 0.000000
# 2 -0.004798 0.017918 -0.008441 0.000000 0.002534 0.000000
# 3 -0.002582 -0.008441 0.022372 0.000000 -0.016750 0.000000
# 4 0.000000 0.000000 0.000000 0.031435 0.000000 -0.004637
# 5 -0.001955 0.002534 -0.016750 0.000000 0.052452 0.000000
# 6 0.000000 0.000000 0.000000 -0.004637 0.000000 0.026401
#
#
# Mechanical properties :
#
#
# Convention : Reuss Voigt Hill
#
# Bulk Modulus (GPa) = 52.46659 73.76101 63.11380
# Shear Modulus (GPa) = 25.12707 30.73687 27.93197
#
# Velocity S-wave (km/s) = 3.66277 4.05106 3.86179
# Velocity P-wave (km/s) = 6.77501 7.82713 7.32000
#
# Compressibility (1/GPa) = 0.01905975
#
# Stress axis : x y z
#
# Youngs Moduli (GPa) = 96.02389 55.81063 44.69894
#
# Poissons Ratio (x) = 0.26779 0.11543
# Poissons Ratio (y) = 0.46075 0.37732
# Poissons Ratio (z) = 0.24797 0.47112
#
# Static dielectric constant tensor:
#      x y z
#    x 3.451980 0.000000 0.058220 
#    y 0.000000 3.490350 0.000000 
#    z 0.058220 0.000000 3.280730 
# 
# 
# High freq. dielectric constant tensor:
#      x y z
#    x 1.733600 0.000000 0.011220 
#    y 0.000000 1.742420 0.000000 
#    z 0.011220 0.000000 1.712940 
# 
# From -- ./inp_files/221622.got.cif
#   From: 2010.06.25/outbox.cif.g09.slc.cpg/sg12_111_cif.got.tgz:221622.got - 2010.06.28 00:19:55.
