data_PCOD8097231
_publ_section_title
;
Structure prediction by ZEFSAII (Michael W. Deem and Ramdas Pophale) SiO2 
 PCOD8097231
Probable space group: C 2/M
;
_chemical_formula_sum "Si O2"
_cell_formula_units_Z 48
_cell_length_a 20.660368
_cell_length_b 9.244017
_cell_length_c 31.429699
_cell_angle_alpha 90.000000
_cell_angle_beta 154.675722
_cell_angle_gamma 90.000000
_cell_volume 2567.555276
_symmetry_space_group_name_H-M "C 2/M"
_symmetry_group_IT_number 12
_symmetry_cell_setting 'monoclinic'
loop_
_space_group_symop_operation_xyz
x,y,z
-x,y,-z
-x,-y,-z
x,-y,z
1/2+x,1/2+y,z
1/2-x,1/2+y,-z
1/2-x,1/2-y,-z
1/2+x,1/2-y,z
loop_
_atom_site_type_symbol
_atom_site_label
_atom_site_fract_x
_atom_site_fract_y
_atom_site_fract_z
Si Si1 0.577973 0.331804 0.784067
Si Si2 0.101428 0.830414 0.896441
Si Si3 0.267322 0.670702 0.554609
Si Si4 0.834556 0.170532 0.886384
Si Si5 0.011809 0.672184 0.554557
Si Si6 0.686403 0.327882 0.222185
O O1 0.610211 0.500000 0.795856
O O2 0.564107 0.295046 0.825482
O O3 0.423670 0.283771 0.669573
O O4 0.715292 0.243043 0.846493
O O5 0.961485 0.770876 0.841129
O O6 0.126130 0.000000 0.918491
O O7 0.250000 0.750000 0.000000
O O8 0.257806 0.500000 0.541253
O O9 0.250000 0.750000 0.500000
O O10 0.132570 0.725331 0.504771
O O11 0.813992 0.228985 0.826327
O O12 0.809427 0.000000 0.874034
O O13 0.000000 0.215746 0.000000
O O14 0.017692 0.500000 0.556706
O O15 0.163845 0.734619 0.666309
O O16 0.000000 0.735287 0.500000
O O17 0.687374 0.500000 0.223863
#
# Coordination Sequence:
#
# PCOD8097231 Si02
#       6
#     8   8   8   8   8   8
#     4  10  21  35  52  77 108 138 168 209 262 313
#     4  10  20  35  54  76 103 134 170 212 257 305
#     4  10  20  34  53  78 106 136 171 211 257 308
#     4  10  20  34  53  76 101 132 172 214 253 299
#     4   9  16  28  49  74  97 125 165 209 248 290
#     4   9  17  30  49  72  97 127 165 208 249 291
#
# _framework density 18.694827
#
# number of rings (size 3 to 8) (size 9 to 14) (size 15 to 20)
#    0.000    2.333    0.000    3.000    0.000    8.333 
#    0.000    0.833    0.000    1.500    0.000    0.000 
#    0.000    0.000    0.000    0.000    0.000    0.000 
#
# Total GULP energy -297654.216435 kJ/mol
# GULP energy per Si atom -12402.259018 kJ/mol
# Density = 1.865228 g / cm^3
# Si number density = 18.694827 Si / 1000 Ang^3
#
#
#
# Elastic Constant Matrix: (Units=GPa)
#
#
# Indices 1 2 3 4 5 6 
#
# 1 109.6116 27.1370 35.9536 0.0005 4.2005 -0.0003
# 2 27.1370 22.7171 30.7983 -0.0002 2.2351 -0.0001
# 3 35.9536 30.7983 132.6169 0.0007 0.4641 0.0001
# 4 0.0005 -0.0002 0.0007 15.8031 0.0005 -0.5287
# 5 4.2005 2.2351 0.4641 0.0005 45.7242 0.0001
# 6 -0.0003 -0.0001 0.0001 -0.5287 0.0001 26.9784
#
#
#
# Elastic Compliance Matrix: (Units=1/GPa)
#
#
# Indices 1 2 3 4 5 6 
#
# 1 0.012964 -0.015589 0.000107 -0.000001 -0.000430 0.000000
# 2 -0.015589 0.083406 -0.015135 0.000003 -0.002491 0.000000
# 3 0.000107 -0.015135 0.011024 -0.000001 0.000618 0.000000
# 4 -0.000001 0.000003 -0.000001 0.063320 -0.000001 0.001241
# 5 -0.000430 -0.002491 0.000618 -0.000001 0.022025 0.000000
# 6 0.000000 0.000000 0.000000 0.001241 0.000000 0.037091
#
#
# Mechanical properties :
#
#
# Convention : Reuss Voigt Hill
#
# Bulk Modulus (GPa) = 21.66360 50.30258 35.98309
# Shear Modulus (GPa) = 16.31586 29.10492 22.71039
#
# Velocity S-wave (km/s) = 2.95743 3.94997 3.48917
# Velocity P-wave (km/s) = 4.82442 6.91148 5.96002
#
# Compressibility (1/GPa) = 0.04616039
#
# Stress axis : x y z
#
# Youngs Moduli (GPa) = 77.13719 11.98958 90.71062
#
# Poissons Ratio (x) = 0.18691 -0.00973
# Poissons Ratio (y) = 1.20252 1.37287
# Poissons Ratio (z) = -0.00827 0.18146
#
# Static dielectric constant tensor:
#      x y z
#    x 3.662750 -0.000010 -0.061880 
#    y -0.000010 2.932310 -0.000130 
#    z -0.061880 -0.000130 3.524670 
# 
# 
# High freq. dielectric constant tensor:
#      x y z
#    x 1.746000 0.000000 -0.001340 
#    y 0.000000 1.677400 0.000000 
#    z -0.001340 0.000000 1.747070 
# 
# From -- ./inp_files/244766.got.cif
#   From: 2010.06.25/outbox.cif.g09.slc.cpg/sg12_123_cif.got.tgz:244766.got - 2010.06.28 00:19:55.
