data_PCOD8097266
_publ_section_title
;
Structure prediction by ZEFSAII (Michael W. Deem and Ramdas Pophale) SiO2 
 PCOD8097266
Probable space group: C 2/M
;
_chemical_formula_sum "Si O2"
_cell_formula_units_Z 64
_cell_length_a 8.676605
_cell_length_b 19.633790
_cell_length_c 21.922910
_cell_angle_alpha 90.000000
_cell_angle_beta 113.314506
_cell_angle_gamma 90.000000
_cell_volume 3429.719531
_symmetry_space_group_name_H-M "C 2/M"
_symmetry_group_IT_number 12
_symmetry_cell_setting 'monoclinic'
loop_
_space_group_symop_operation_xyz
x,y,z
-x,y,-z
-x,-y,-z
x,-y,z
1/2+x,1/2+y,z
1/2-x,1/2+y,-z
1/2-x,1/2-y,-z
1/2+x,1/2-y,z
loop_
_atom_site_type_symbol
_atom_site_label
_atom_site_fract_x
_atom_site_fract_y
_atom_site_fract_z
Si Si1 0.115718 0.921901 0.687055
Si Si2 0.498358 0.678221 0.929368
Si Si3 0.746828 0.420718 0.174805
Si Si4 0.741608 0.421901 0.312945
Si Si5 0.897218 0.579282 0.825195
Si Si6 0.362217 0.177261 0.429961
Si Si7 0.139623 0.678221 0.070632
Si Si8 0.002295 0.822739 0.570039
O O1 0.277857 0.899284 0.750686
O O2 0.953869 0.909738 0.703869
O O3 0.108687 0.876923 0.625180
O O4 0.129315 0.000000 0.668087
O O5 0.408031 0.620406 0.876414
O O6 0.687064 0.686413 0.937064
O O7 0.405062 0.750000 0.905062
O O8 0.500000 0.656122 0.000000
O O9 0.699757 0.500000 0.163494
O O10 0.776485 0.399284 0.249314
O O11 0.912729 0.403283 0.162729
O O12 0.793142 0.500000 0.331913
O O13 0.858327 0.376923 0.374820
O O14 0.872770 0.500000 0.836506
O O15 0.844797 0.620407 0.876414
O O16 0.500000 0.152310 0.500000
O O17 0.186361 0.183129 0.436361
O O18 0.409143 0.250000 0.409143
O O19 0.000000 0.656122 0.000000
O O20 0.000000 0.847690 0.500000
#
# Coordination Sequence:
#
# PCOD8097266 Si02
#       8
#     8   8   8   8   8   8   8   8
#     4   9  19  36  55  76 104 139 178 219 265 315
#     4  11  22  38  59  82 111 144 180 223 269 319
#     4  10  21  37  57  82 111 143 181 223 267 318
#     4   9  19  36  55  76 104 139 178 219 265 315
#     4  10  21  37  57  82 111 143 181 223 267 318
#     4  10  20  34  53  76 104 137 173 216 263 315
#     4  11  22  38  59  82 111 144 180 223 269 319
#     4  10  20  34  53  76 104 137 173 216 263 315
#
# _framework density 18.660418
#
# number of rings (size 3 to 8) (size 9 to 14) (size 15 to 20)
#    0.000    2.000    0.000    5.250    0.000    5.500 
#    0.000    2.500    0.000    0.000    0.000    0.000 
#    0.000    0.000    0.000    0.000    0.000    0.000 
#
# Total GULP energy -396945.280108 kJ/mol
# GULP energy per Si atom -12404.540003 kJ/mol
# Density = 1.861795 g / cm^3
# Si number density = 18.660418 Si / 1000 Ang^3
#
#
#
# Elastic Constant Matrix: (Units=GPa)
#
#
# Indices 1 2 3 4 5 6 
#
# 1 114.8803 47.1302 56.6833 0.0000 -0.5358 0.0000
# 2 47.1302 91.7692 84.7317 0.0000 -1.4458 0.0000
# 3 56.6833 84.7317 130.2075 0.0000 -0.0535 0.0000
# 4 0.0000 0.0000 0.0000 33.5536 0.0000 -0.1518
# 5 -0.5358 -1.4458 -0.0535 0.0000 36.0480 0.0000
# 6 0.0000 0.0000 0.0000 -0.1518 0.0000 29.6062
#
#
#
# Elastic Compliance Matrix: (Units=1/GPa)
#
#
# Indices 1 2 3 4 5 6 
#
# 1 0.011450 -0.003200 -0.002902 0.000000 0.000038 0.000000
# 2 -0.003200 0.028235 -0.016980 0.000000 0.001060 0.000000
# 3 -0.002902 -0.016980 0.019993 0.000000 -0.000694 0.000000
# 4 0.000000 0.000000 0.000000 0.029804 0.000000 0.000153
# 5 0.000038 0.001060 -0.000694 0.000000 0.027783 0.000000
# 6 0.000000 0.000000 0.000000 0.000153 0.000000 0.033777
#
#
# Mechanical properties :
#
#
# Convention : Reuss Voigt Hill
#
# Bulk Modulus (GPa) = 74.00335 79.32746 76.66540
# Shear Modulus (GPa) = 24.78794 29.72903 27.25849
#
# Velocity S-wave (km/s) = 3.64863 3.99577 3.82614
# Velocity P-wave (km/s) = 7.58248 7.99322 7.79056
#
# Compressibility (1/GPa) = 0.01351290
#
# Stress axis : x y z
#
# Youngs Moduli (GPa) = 87.33916 35.41650 50.01808
#
# Poissons Ratio (x) = 0.11335 0.14514
# Poissons Ratio (y) = 0.27953 0.84932
# Poissons Ratio (z) = 0.25343 0.60138
#
# Static dielectric constant tensor:
#      x y z
#    x 3.504860 0.000000 0.001380 
#    y 0.000000 3.422940 0.000000 
#    z 0.001380 0.000000 3.468830 
# 
# 
# High freq. dielectric constant tensor:
#      x y z
#    x 1.737090 0.000000 0.000300 
#    y 0.000000 1.723240 0.000000 
#    z 0.000300 0.000000 1.729240 
# 
# From -- ./inp_files/301744.got.cif
#   From: 2010.06.25/outbox.cif.g09.slc.cpg/sg12_151_cif.got.tgz:301744.got - 2010.06.28 00:19:55.
