data_PCOD8097774
_publ_section_title
;
Structure prediction by ZEFSAII (Michael W. Deem and Ramdas Pophale) SiO2 
 PCOD8097774
Probable space group: C 2/M
;
_chemical_formula_sum "Si O2"
_cell_formula_units_Z 56
_cell_length_a 14.288005
_cell_length_b 9.006071
_cell_length_c 23.370364
_cell_angle_alpha 90.000000
_cell_angle_beta 92.740257
_cell_angle_gamma 90.000000
_cell_volume 3003.831381
_symmetry_space_group_name_H-M "C 2/M"
_symmetry_group_IT_number 12
_symmetry_cell_setting 'monoclinic'
loop_
_space_group_symop_operation_xyz
x,y,z
-x,y,-z
-x,-y,-z
x,-y,z
1/2+x,1/2+y,z
1/2-x,1/2+y,-z
1/2-x,1/2-y,-z
1/2+x,1/2-y,z
loop_
_atom_site_type_symbol
_atom_site_label
_atom_site_fract_x
_atom_site_fract_y
_atom_site_fract_z
Si Si1 0.261228 0.172280 0.440191
Si Si2 0.761349 0.327154 0.737743
Si Si3 0.916800 0.824388 0.074555
Si Si4 0.606296 0.672300 0.640838
Si Si5 0.106069 0.172441 0.343290
Si Si6 0.877267 0.824348 0.948689
Si Si7 0.274896 0.823709 0.144277
O O1 0.250000 0.250000 0.500000
O O2 0.352076 0.236336 0.410780
O O3 0.166583 0.202132 0.401848
O O4 0.278922 0.000000 0.450822
O O5 0.774200 0.500000 0.751227
O O6 0.667066 0.295835 0.699181
O O7 0.852702 0.269521 0.707050
O O8 0.754379 0.237317 0.795647
O O9 0.875265 0.739360 0.128099
O O10 0.023736 0.771217 0.073680
O O11 0.907811 0.000000 0.084028
O O12 0.864880 0.772549 0.014223
O O13 0.609744 0.500000 0.623941
O O14 0.500122 0.724860 0.648702
O O15 0.109835 0.000000 0.325520
O O16 0.796906 0.760417 0.905505
O O17 0.876429 0.000000 0.948140
O O18 0.276904 0.000000 0.147229
#
# Coordination Sequence:
#
# PCOD8097774 Si02
#       7
#     8   8   8   8   8   8   8
#     4  10  20  34  54  81 112 139 169 208 250 295
#     4  10  21  36  53  75 101 132 171 214 253 297
#     4   9  17  34  55  73  95 128 170 208 245 299
#     4   9  19  37  58  76 100 136 176 212 252 297
#     4   9  19  37  58  77 100 136 174 211 253 296
#     4   8  17  33  53  73  97 131 166 202 250 306
#     4  11  21  33  50  75 104 132 163 205 257 306
#
# _framework density 18.642856999999999
#
# number of rings (size 3 to 8) (size 9 to 14) (size 15 to 20)
#    0.000    2.571    0.000    2.571    0.000    3.429 
#    0.000   12.143    0.000    0.000    0.000    0.000 
#    0.000    0.000    0.000    0.000    0.000    0.000 
#
# Total GULP energy -347213.363505 kJ/mol
# GULP energy per Si atom -12400.477268 kJ/mol
# Density = 1.860043 g / cm^3
# Si number density = 18.642857 Si / 1000 Ang^3
#
#
#
# Elastic Constant Matrix: (Units=GPa)
#
#
# Indices 1 2 3 4 5 6 
#
# 1 118.1333 42.3545 47.6123 0.0000 -19.1947 0.0000
# 2 42.3545 78.1391 53.1417 0.0000 -13.9604 0.0000
# 3 47.6123 53.1417 105.3406 0.0000 -21.7007 0.0000
# 4 0.0000 0.0000 0.0000 36.4032 0.0000 -6.3251
# 5 -19.1947 -13.9604 -21.7007 0.0000 21.4313 0.0000
# 6 0.0000 0.0000 0.0000 -6.3251 0.0000 27.8315
#
#
#
# Elastic Compliance Matrix: (Units=1/GPa)
#
#
# Indices 1 2 3 4 5 6 
#
# 1 0.011635 -0.003818 -0.002146 0.000000 0.005761 0.000000
# 2 -0.003818 0.020940 -0.008507 0.000000 0.001607 0.000000
# 3 -0.002146 -0.008507 0.016701 0.000000 0.009447 0.000000
# 4 0.000000 0.000000 0.000000 0.028599 0.000000 0.006500
# 5 0.005761 0.001607 0.009447 0.000000 0.062433 0.000000
# 6 0.000000 0.000000 0.000000 0.006500 0.000000 0.037408
#
#
# Mechanical properties :
#
#
# Convention : Reuss Voigt Hill
#
# Bulk Modulus (GPa) = 49.17971 65.31444 57.24708
# Shear Modulus (GPa) = 23.42643 27.70018 25.56331
#
# Velocity S-wave (km/s) = 3.54869 3.85883 3.70701
# Velocity P-wave (km/s) = 6.57481 7.41382 7.00688
#
# Compressibility (1/GPa) = 0.02033359
#
# Stress axis : x y z
#
# Youngs Moduli (GPa) = 85.94942 47.75623 59.87788
#
# Poissons Ratio (x) = 0.18232 0.12850
# Poissons Ratio (y) = 0.32814 0.50938
# Poissons Ratio (z) = 0.18445 0.40626
#
# Static dielectric constant tensor:
#      x y z
#    x 3.615110 0.000000 0.087520 
#    y 0.000000 3.283220 0.000000 
#    z 0.087520 0.000000 3.452680 
# 
# 
# High freq. dielectric constant tensor:
#      x y z
#    x 1.728350 0.000000 -0.006760 
#    y 0.000000 1.713980 0.000000 
#    z -0.006760 0.000000 1.724200 
# 
# From -- ./inp_files/308884.got.cif
#   From: 2010.06.25/outbox.cif.g09.slc.cpg/sg12_155_cif.got.tgz:308884.got - 2010.06.28 00:19:55.
