data_PCOD8097707
_publ_section_title
;
Structure prediction by ZEFSAII (Michael W. Deem and Ramdas Pophale) SiO2 
 PCOD8097707
Probable space group: C 2/M
;
_chemical_formula_sum "Si O2"
_cell_formula_units_Z 64
_cell_length_a 25.678861
_cell_length_b 9.557460
_cell_length_c 14.076179
_cell_angle_alpha 90.000000
_cell_angle_beta 86.809246
_cell_angle_gamma 90.000000
_cell_volume 3449.286297
_symmetry_space_group_name_H-M "C 2/M"
_symmetry_group_IT_number 12
_symmetry_cell_setting 'monoclinic'
loop_
_space_group_symop_operation_xyz
x,y,z
-x,y,-z
-x,-y,-z
x,-y,z
1/2+x,1/2+y,z
1/2-x,1/2+y,-z
1/2-x,1/2-y,-z
1/2+x,1/2-y,z
loop_
_atom_site_type_symbol
_atom_site_label
_atom_site_fract_x
_atom_site_fract_y
_atom_site_fract_z
Si Si1 0.650959 0.164911 0.409693
Si Si2 0.890172 0.658281 0.919096
Si Si3 0.443137 0.836711 0.720020
Si Si4 0.946290 0.837357 0.056807
Si Si5 0.269221 0.840367 0.910921
Si Si6 0.958492 0.837712 0.271312
Si Si7 0.645345 0.336863 0.601106
Si Si8 0.246074 0.165623 0.706770
O O1 0.602130 0.202037 0.348747
O O2 0.643329 0.246112 0.507569
O O3 0.703556 0.222357 0.354833
O O4 0.654529 0.000000 0.430072
O O5 0.904280 0.500000 0.946153
O O6 0.925302 0.707903 0.827143
O O7 0.830940 0.670159 0.892636
O O8 0.900035 0.755306 0.009076
O O9 0.494482 0.749728 0.687224
O O10 0.456543 0.000000 0.713680
O O11 0.948370 0.787062 0.164973
O O12 0.932714 0.000000 0.051074
O O13 0.000000 0.799348 0.000000
O O14 0.244916 0.779172 0.815541
O O15 0.251601 0.000000 0.930458
O O16 0.250000 0.750000 0.000000
O O17 0.906996 0.807610 0.335975
O O18 0.974405 0.000000 0.271437
O O19 0.651412 0.500000 0.574514
O O20 0.693821 0.284656 0.659706
O O21 0.250612 0.000000 0.711675
#
# Coordination Sequence:
#
# PCOD8097707 Si02
#       8
#     8   8   8   8   8   8   8   8
#     4  10  20  38  62  84 106 139 186 235 280 329
#     4  10  20  35  55  81 111 145 186 228 273 328
#     4  10  20  36  59  83 109 145 187 228 276 328
#     4  10  20  34  54  80 109 144 186 224 264 323
#     4  10  21  37  57  84 116 149 183 224 276 332
#     4  10  22  38  54  80 116 149 184 226 274 331
#     4  10  22  38  57  82 111 146 184 225 281 335
#     4   9  18  37  62  82 109 148 184 224 276 333
#
# _framework density 18.554562000000001
#
# number of rings (size 3 to 8) (size 9 to 14) (size 15 to 20)
#    0.000    2.125    2.500    0.375    1.750    2.750 
#    0.000    3.750    0.000    0.000    0.000    0.000 
#    0.000    0.000    0.000    0.000    0.000    0.000 
#
# Total GULP energy -396888.738992 kJ/mol
# GULP energy per Si atom -12402.773093 kJ/mol
# Density = 1.851233 g / cm^3
# Si number density = 18.554562 Si / 1000 Ang^3
#
#
#
# Elastic Constant Matrix: (Units=GPa)
#
#
# Indices 1 2 3 4 5 6 
#
# 1 124.5074 50.9244 65.9463 0.0000 8.2379 0.0000
# 2 50.9244 55.0288 55.6380 0.0000 5.1762 0.0000
# 3 65.9463 55.6380 135.1402 0.0000 -0.3273 0.0000
# 4 0.0000 0.0000 0.0000 34.9801 0.0000 2.5947
# 5 8.2379 5.1762 -0.3273 0.0000 29.3883 0.0000
# 6 0.0000 0.0000 0.0000 2.5947 0.0000 29.8564
#
#
#
# Elastic Compliance Matrix: (Units=1/GPa)
#
#
# Indices 1 2 3 4 5 6 
#
# 1 0.013508 -0.009647 -0.002625 0.000000 -0.002116 0.000000
# 2 -0.009647 0.038980 -0.011351 0.000000 -0.004288 0.000000
# 3 -0.002625 -0.011351 0.013361 0.000000 0.002884 0.000000
# 4 0.000000 0.000000 0.000000 0.028773 0.000000 -0.002501
# 5 -0.002116 -0.004288 0.002884 0.000000 0.035408 0.000000
# 6 0.000000 0.000000 0.000000 -0.002501 0.000000 0.033711
#
#
# Mechanical properties :
#
#
# Convention : Reuss Voigt Hill
#
# Bulk Modulus (GPa) = 53.75644 73.29932 63.52788
# Shear Modulus (GPa) = 23.02159 28.32281 25.67220
#
# Velocity S-wave (km/s) = 3.52625 3.91123 3.72372
# Velocity P-wave (km/s) = 6.75383 7.74516 7.26642
#
# Compressibility (1/GPa) = 0.01860242
#
# Stress axis : x y z
#
# Youngs Moduli (GPa) = 74.03148 25.65418 74.84560
#
# Poissons Ratio (x) = 0.24749 0.19646
# Poissons Ratio (y) = 0.71420 0.84957
# Poissons Ratio (z) = 0.19432 0.29120
#
# Static dielectric constant tensor:
#      x y z
#    x 3.499530 0.000000 0.053460 
#    y 0.000000 3.225110 0.000000 
#    z 0.053460 0.000000 3.480780 
# 
# 
# High freq. dielectric constant tensor:
#      x y z
#    x 1.729080 0.000000 0.003850 
#    y 0.000000 1.699170 0.000000 
#    z 0.003850 0.000000 1.727330 
# 
# From -- ./inp_files/238662.got.cif
#   From: 2010.06.25/outbox.cif.g09.slc.cpg/sg12_120_cif.got.tgz:238662.got - 2010.06.28 00:19:55.
