data_PCOD8097054
_publ_section_title
;
Structure prediction by ZEFSAII (Michael W. Deem and Ramdas Pophale) SiO2 
 PCOD8097054
Probable space group: C 2/M
;
_chemical_formula_sum "Si O2"
_cell_formula_units_Z 64
_cell_length_a 8.944306
_cell_length_b 19.294745
_cell_length_c 22.071887
_cell_angle_alpha 90.000000
_cell_angle_beta 113.905860
_cell_angle_gamma 90.000000
_cell_volume 3482.349193
_symmetry_space_group_name_H-M "C 2/M"
_symmetry_group_IT_number 12
_symmetry_cell_setting 'monoclinic'
loop_
_space_group_symop_operation_xyz
x,y,z
-x,y,-z
-x,-y,-z
x,-y,z
1/2+x,1/2+y,z
1/2-x,1/2+y,-z
1/2-x,1/2-y,-z
1/2+x,1/2-y,z
loop_
_atom_site_type_symbol
_atom_site_label
_atom_site_fract_x
_atom_site_fract_y
_atom_site_fract_z
Si Si1 0.440128 0.821874 0.263864
Si Si2 0.331114 0.082395 0.500000
Si Si3 0.062848 0.820860 0.887635
Si Si4 0.460143 0.418136 0.632766
Si Si5 0.087601 0.821874 0.263864
Si Si6 0.177699 0.077160 0.000000
Si Si7 0.212423 0.679141 0.887635
Si Si8 0.194611 0.581864 0.367234
O O1 0.274806 0.816767 0.274806
O O2 0.537057 0.750000 0.287057
O O3 0.406511 0.838310 0.187868
O O4 0.548067 0.884548 0.305908
O O5 0.500000 0.111562 0.500000
O O6 0.180389 0.109889 0.435252
O O7 0.309886 0.109889 0.564748
O O8 0.331352 0.000000 0.500000
O O9 0.030777 0.838310 0.812132
O O10 0.895821 0.810332 0.895821
O O11 0.167899 0.882987 0.934194
O O12 0.161653 0.750000 0.911653
O O13 0.446598 0.500000 0.639450
O O14 0.436251 0.384548 0.694092
O O15 0.633279 0.396291 0.633279
O O16 0.247408 0.000000 0.000000
O O17 0.299511 0.117013 0.065806
O O18 0.000000 0.072600 0.000000
O O19 0.167699 0.500000 0.360550
#
# Coordination Sequence:
#
# PCOD8097054 Si02
#       8
#     8   8   8   8   8   8   8   8
#     4  10  20  34  52  75 103 135 173 215 259 307
#     4   9  17  31  52  77 104 135 172 211 251 301
#     4   9  18  32  52  74  97 131 170 208 250 301
#     4  10  20  34  53  77 105 137 172 211 256 305
#     4  10  20  34  52  75 103 135 173 215 259 307
#     4   9  17  30  49  75 104 131 164 208 254 297
#     4   9  18  32  52  74  97 131 170 208 250 301
#     4  10  20  34  53  77 105 137 172 211 256 305
#
# _framework density 18.378397
#
# number of rings (size 3 to 8) (size 9 to 14) (size 15 to 20)
#    0.000    2.500    0.000    2.250    0.000    5.000 
#    0.000    3.125    0.000    1.500    0.000    0.000 
#    0.000    0.000    0.000    0.000    0.000    0.000 
#
# Total GULP energy -396852.798412 kJ/mol
# GULP energy per Si atom -12401.649950 kJ/mol
# Density = 1.833657 g / cm^3
# Si number density = 18.378397 Si / 1000 Ang^3
#
#
#
# Elastic Constant Matrix: (Units=GPa)
#
#
# Indices 1 2 3 4 5 6 
#
# 1 86.8484 40.0018 48.1023 0.0000 -0.2459 0.0000
# 2 40.0018 94.3929 67.7886 0.0000 -1.0847 0.0000
# 3 48.1023 67.7886 123.8955 0.0000 -1.2002 0.0000
# 4 0.0000 0.0000 0.0000 24.0672 0.0000 0.1966
# 5 -0.2459 -1.0847 -1.2002 0.0000 22.5612 0.0000
# 6 0.0000 0.0000 0.0000 0.1966 0.0000 29.1027
#
#
#
# Elastic Compliance Matrix: (Units=1/GPa)
#
#
# Indices 1 2 3 4 5 6 
#
# 1 0.015408 -0.003681 -0.003970 0.000000 -0.000220 0.000000
# 2 -0.003681 0.018333 -0.008598 0.000000 0.000384 0.000000
# 3 -0.003970 -0.008598 0.014320 0.000000 0.000305 0.000000
# 4 0.000000 0.000000 0.000000 0.041553 0.000000 -0.000281
# 5 -0.000220 0.000384 0.000305 0.000000 0.044356 0.000000
# 6 0.000000 0.000000 0.000000 -0.000281 0.000000 0.034363
#
#
# Mechanical properties :
#
#
# Convention : Reuss Voigt Hill
#
# Bulk Modulus (GPa) = 64.25575 68.54692 66.40133
# Shear Modulus (GPa) = 24.26963 25.09583 24.68273
#
# Velocity S-wave (km/s) = 3.63788 3.69929 3.66871
# Velocity P-wave (km/s) = 7.25838 7.45820 7.35897
#
# Compressibility (1/GPa) = 0.01556281
#
# Stress axis : x y z
#
# Youngs Moduli (GPa) = 64.90091 54.54663 69.83211
#
# Poissons Ratio (x) = 0.20078 0.27726
# Poissons Ratio (y) = 0.23889 0.60041
# Poissons Ratio (z) = 0.25768 0.46899
#
# Static dielectric constant tensor:
#      x y z
#    x 3.377530 0.000000 -0.007410 
#    y 0.000000 3.322020 0.000000 
#    z -0.007410 0.000000 3.567490 
# 
# 
# High freq. dielectric constant tensor:
#      x y z
#    x 1.710120 0.000000 -0.000540 
#    y 0.000000 1.695000 0.000000 
#    z -0.000540 0.000000 1.723930 
# 
# From -- ./inp_files/301728.got.cif
#   From: 2010.06.25/outbox.cif.g09.slc.cpg/sg12_151_cif.got.tgz:301728.got - 2010.06.28 00:19:55.
