data_PCOD8097678
_publ_section_title
;
Structure prediction by ZEFSAII (Michael W. Deem and Ramdas Pophale) SiO2 
 PCOD8097678
Probable space group: C 2/M
;
_chemical_formula_sum "Si O2"
_cell_formula_units_Z 56
_cell_length_a 19.540939
_cell_length_b 9.090595
_cell_length_c 20.753679
_cell_angle_alpha 90.000000
_cell_angle_beta 55.170660
_cell_angle_gamma 90.000000
_cell_volume 3026.218354
_symmetry_space_group_name_H-M "C 2/M"
_symmetry_group_IT_number 12
_symmetry_cell_setting 'monoclinic'
loop_
_space_group_symop_operation_xyz
x,y,z
-x,y,-z
-x,-y,-z
x,-y,z
1/2+x,1/2+y,z
1/2-x,1/2+y,-z
1/2-x,1/2-y,-z
1/2+x,1/2-y,z
loop_
_atom_site_type_symbol
_atom_site_label
_atom_site_fract_x
_atom_site_fract_y
_atom_site_fract_z
Si Si1 0.782774 0.827771 0.693824
Si Si2 0.938611 0.175105 0.856371
Si Si3 0.166054 0.331881 0.560616
Si Si4 0.680951 0.827797 0.994967
Si Si5 0.605991 0.171677 0.730436
Si Si6 0.409255 0.169517 0.533252
Si Si7 0.194785 0.828943 0.176174
O O1 0.686096 0.796456 0.731468
O O2 0.838319 0.754557 0.609416
O O3 0.805314 0.759364 0.752036
O O4 0.801104 0.000000 0.681472
O O5 0.906102 0.247589 0.941141
O O6 0.879871 0.233570 0.828892
O O7 0.032053 0.228807 0.796790
O O8 0.935200 0.000000 0.864678
O O9 0.191362 0.500000 0.557805
O O10 0.250000 0.250000 0.500000
O O11 0.123654 0.272456 0.648368
O O12 0.101694 0.310072 0.537142
O O13 0.674484 0.000000 0.015122
O O14 0.750000 0.750000 0.000000
O O15 0.712801 0.803851 0.904410
O O16 0.580709 0.000000 0.745570
O O17 0.500000 0.235422 0.500000
O O18 0.403454 0.000000 0.557253
O O19 0.177565 0.000000 0.192751
#
# Coordination Sequence:
#
# PCOD8097678 Si02
#       7
#     8   8   8   8   8   8   8
#     4  10  20  37  56  76 104 136 176 216 257 309
#     4  10  20  34  54  80 107 136 175 217 259 308
#     4  10  20  36  55  76 103 137 178 215 256 310
#     4   9  16  31  54  79 108 138 172 213 261 308
#     4  10  21  35  53  77 104 137 175 216 260 308
#     4  10  22  37  53  76 108 139 170 214 264 312
#     4   8  17  33  54  79 104 133 170 216 258 302
#
# _framework density 18.504944999999999
#
# number of rings (size 3 to 8) (size 9 to 14) (size 15 to 20)
#    0.000    2.429    1.429    1.714    2.000    1.429 
#    0.000    4.286    0.000    4.286    0.000    0.000 
#    0.000    0.000    0.000    0.000    0.000    0.000 
#
# Total GULP energy -347081.054217 kJ/mol
# GULP energy per Si atom -12395.751936 kJ/mol
# Density = 1.846283 g / cm^3
# Si number density = 18.504945 Si / 1000 Ang^3
#
#
#
# Elastic Constant Matrix: (Units=GPa)
#
#
# Indices 1 2 3 4 5 6 
#
# 1 67.0434 21.3022 16.2108 0.0000 -8.7580 -0.0002
# 2 21.3022 57.5540 26.8537 0.0000 -11.6839 -0.0004
# 3 16.2108 26.8537 69.4270 0.0000 -14.3475 0.0000
# 4 0.0000 0.0000 0.0000 30.8884 0.0000 -6.2958
# 5 -8.7580 -11.6839 -14.3475 0.0000 33.6969 0.0000
# 6 -0.0002 -0.0004 0.0000 -6.2958 0.0000 22.4771
#
#
#
# Elastic Compliance Matrix: (Units=1/GPa)
#
#
# Indices 1 2 3 4 5 6 
#
# 1 0.017221 -0.005230 -0.001588 0.000000 0.001986 0.000000
# 2 -0.005230 0.023354 -0.007039 0.000000 0.003742 0.000000
# 3 -0.001588 -0.007039 0.018538 0.000000 0.005040 0.000000
# 4 0.000000 0.000000 0.000000 0.034335 0.000000 0.009617
# 5 0.001986 0.003742 0.005040 0.000000 0.033636 0.000000
# 6 0.000000 0.000000 0.000000 0.009617 0.000000 0.047183
#
#
# Mechanical properties :
#
#
# Convention : Reuss Voigt Hill
#
# Bulk Modulus (GPa) = 31.84612 35.86196 33.85404
# Shear Modulus (GPa) = 23.53521 26.05632 24.79577
#
# Velocity S-wave (km/s) = 3.57015 3.75650 3.66451
# Velocity P-wave (km/s) = 5.85162 6.18359 6.01990
#
# Compressibility (1/GPa) = 0.03140100
#
# Stress axis : x y z
#
# Youngs Moduli (GPa) = 58.06930 42.81835 53.94191
#
# Poissons Ratio (x) = 0.22393 0.08564
# Poissons Ratio (y) = 0.30369 0.37969
# Poissons Ratio (z) = 0.09219 0.30140
#
# Static dielectric constant tensor:
#      x y z
#    x 3.528420 0.000000 0.206330 
#    y 0.000000 3.317250 0.000000 
#    z 0.206330 0.000000 3.814200 
# 
# 
# High freq. dielectric constant tensor:
#      x y z
#    x 1.705110 0.000000 -0.001890 
#    y 0.000000 1.703340 0.000000 
#    z -0.001890 0.000000 1.729240 
# 
# From -- ./inp_files/275077.got.cif
#   From: 2010.06.25/outbox.cif.g09.slc.cpg/sg12_138_cif.got.tgz:275077.got - 2010.06.28 00:19:55.
