data_PCOD8097875
_publ_section_title
;
Structure prediction by ZEFSAII (Michael W. Deem and Ramdas Pophale) SiO2 
 PCOD8097875
Probable space group: C 2/M
;
_chemical_formula_sum "Si O2"
_cell_formula_units_Z 56
_cell_length_a 15.312437
_cell_length_b 8.581158
_cell_length_c 21.471053
_cell_angle_alpha 90.000000
_cell_angle_beta 90.341864
_cell_angle_gamma 90.000000
_cell_volume 2821.212677
_symmetry_space_group_name_H-M "C 2/M"
_symmetry_group_IT_number 12
_symmetry_cell_setting 'monoclinic'
loop_
_space_group_symop_operation_xyz
x,y,z
-x,y,-z
-x,-y,-z
x,-y,z
1/2+x,1/2+y,z
1/2-x,1/2+y,-z
1/2-x,1/2-y,-z
1/2+x,1/2-y,z
loop_
_atom_site_type_symbol
_atom_site_label
_atom_site_fract_x
_atom_site_fract_y
_atom_site_fract_z
Si Si1 0.853771 0.316173 0.560760
Si Si2 0.499288 0.185027 0.790943
Si Si3 0.344521 0.318012 0.427889
Si Si4 0.494325 0.184200 0.348276
Si Si5 0.600941 0.318715 0.995694
Si Si6 0.663320 0.182686 0.870215
Si Si7 0.342859 0.182835 0.876286
O O1 0.861645 0.500000 0.549685
O O2 0.756650 0.270931 0.583426
O O3 0.876020 0.232911 0.496189
O O4 0.923754 0.253474 0.611087
O O5 0.498006 0.254605 0.721174
O O6 0.584494 0.246293 0.827385
O O7 0.414084 0.243968 0.827298
O O8 0.499923 0.000000 0.788851
O O9 0.358956 0.500000 0.420420
O O10 0.401870 0.232721 0.376427
O O11 0.498575 0.000000 0.345641
O O12 0.614587 0.500000 0.980352
O O13 0.643734 0.216069 0.942129
O O14 0.500000 0.273087 0.000000
O O15 0.648187 0.277432 0.059906
O O16 0.748314 0.276973 0.847861
O O17 0.678718 0.000000 0.860946
O O18 0.353539 0.000000 0.889431
#
# Coordination Sequence:
#
# PCOD8097875 Si02
#       7
#     8   8   8   8   8   8   8
#     4   9  19  35  56  80 110 147 183 222 271 331
#     4   9  21  39  58  79 109 149 188 227 273 331
#     4  10  20  34  54  84 115 142 178 230 281 322
#     4  10  20  37  58  79 107 148 191 223 268 331
#     4  11  22  37  60  88 115 144 183 233 284 332
#     4  11  22  39  60  84 113 147 186 230 283 336
#     4  11  22  39  61  85 112 148 189 230 280 334
#
# _framework density 19.849620000000002
#
# number of rings (size 3 to 8) (size 9 to 14) (size 15 to 20)
#    0.000    1.857    1.429    2.571    0.000    4.571 
#    0.000    4.286    0.000    0.000    0.000    0.000 
#    0.000    0.000    0.000    0.000    0.000    0.000 
#
# Total GULP energy -347317.567592 kJ/mol
# GULP energy per Si atom -12404.198843 kJ/mol
# Density = 1.980444 g / cm^3
# Si number density = 19.849620 Si / 1000 Ang^3
#
#
#
# Elastic Constant Matrix: (Units=GPa)
#
#
# Indices 1 2 3 4 5 6 
#
# 1 141.7707 16.6311 69.4817 0.0000 -1.7347 0.0000
# 2 16.6311 23.4768 6.4293 0.0000 0.9189 0.0000
# 3 69.4817 6.4293 137.0102 0.0000 -4.8841 0.0000
# 4 0.0000 0.0000 0.0000 13.3557 0.0000 -1.1159
# 5 -1.7347 0.9189 -4.8841 0.0000 13.9005 0.0000
# 6 0.0000 0.0000 0.0000 -1.1159 0.0000 32.0440
#
#
#
# Elastic Compliance Matrix: (Units=1/GPa)
#
#
# Indices 1 2 3 4 5 6 
#
# 1 0.010119 -0.005835 -0.004860 0.000000 -0.000059 0.000000
# 2 -0.005835 0.046694 0.000640 0.000000 -0.003590 0.000000
# 3 -0.004860 0.000640 0.009833 0.000000 0.002806 0.000000
# 4 0.000000 0.000000 0.000000 0.075093 0.000000 0.002615
# 5 -0.000059 -0.003590 0.002806 0.000000 0.073156 0.000000
# 6 0.000000 0.000000 0.000000 0.002615 0.000000 0.031298
#
#
# Mechanical properties :
#
#
# Convention : Reuss Voigt Hill
#
# Bulk Modulus (GPa) = 21.48852 54.14910 37.81881
# Shear Modulus (GPa) = 17.74202 25.84108 21.79155
#
# Velocity S-wave (km/s) = 2.99293 3.61202 3.31695
# Velocity P-wave (km/s) = 4.77417 6.68838 5.81064
#
# Compressibility (1/GPa) = 0.04653647
#
# Stress axis : x y z
#
# Youngs Moduli (GPa) = 98.82004 21.41587 101.69398
#
# Poissons Ratio (x) = 0.12497 0.49424
# Poissons Ratio (y) = 0.57665 -0.06510
# Poissons Ratio (z) = 0.48028 -0.01371
#
# Static dielectric constant tensor:
#      x y z
#    x 3.879770 0.000000 0.044820 
#    y 0.000000 3.371410 0.000000 
#    z 0.044820 0.000000 3.716130 
# 
# 
# High freq. dielectric constant tensor:
#      x y z
#    x 1.791610 0.000000 -0.000700 
#    y 0.000000 1.758230 0.000000 
#    z -0.000700 0.000000 1.768240 
# 
# From -- ./inp_files/308912.got.cif
#   From: 2010.06.25/outbox.cif.g09.slc.cpg/sg12_155_cif.got.tgz:308912.got - 2010.06.28 00:19:55.
