data_PCOD8097592
_publ_section_title
;
Structure prediction by ZEFSAII (Michael W. Deem and Ramdas Pophale) SiO2 
 PCOD8097592
Probable space group: C 2/M
;
_chemical_formula_sum "Si O2"
_cell_formula_units_Z 56
_cell_length_a 27.741857
_cell_length_b 9.075762
_cell_length_c 16.362353
_cell_angle_alpha 90.000000
_cell_angle_beta 47.298348
_cell_angle_gamma 90.000000
_cell_volume 3027.538693
_symmetry_space_group_name_H-M "C 2/M"
_symmetry_group_IT_number 12
_symmetry_cell_setting 'monoclinic'
loop_
_space_group_symop_operation_xyz
x,y,z
-x,y,-z
-x,-y,-z
x,-y,z
1/2+x,1/2+y,z
1/2-x,1/2+y,-z
1/2-x,1/2-y,-z
1/2+x,1/2-y,z
loop_
_atom_site_type_symbol
_atom_site_label
_atom_site_fract_x
_atom_site_fract_y
_atom_site_fract_z
Si Si1 0.019123 0.173998 0.724308
Si Si2 0.480545 0.831213 0.611788
Si Si3 0.227856 0.828942 0.819358
Si Si4 0.375935 0.669331 0.932723
Si Si5 0.253062 0.671564 0.622401
Si Si6 0.167171 0.668030 0.170777
Si Si7 0.350945 0.171653 0.397293
O O1 0.078967 0.253779 0.701153
O O2 0.018270 0.226204 0.631435
O O3 0.951209 0.226459 0.845826
O O4 0.029493 0.000000 0.717479
O O5 0.500000 0.777136 0.500000
O O6 0.403157 0.812589 0.707272
O O7 0.502369 0.000000 0.602525
O O8 0.232733 0.731272 0.733648
O O9 0.280412 0.770110 0.824861
O O10 0.240546 0.000000 0.782706
O O11 0.155426 0.806685 0.941765
O O12 0.376015 0.500000 0.906894
O O13 0.330218 0.747491 0.918092
O O14 0.270306 0.500000 0.608302
O O15 0.317125 0.755354 0.515439
O O16 0.192046 0.701544 0.633249
O O17 0.184217 0.500000 0.131104
O O18 0.360137 0.000000 0.404880
#
# Coordination Sequence:
#
# PCOD8097592 Si02
#       7
#     8   8   8   8   8   8   8
#     4  10  20  34  54  78 105 140 181 222 268 315
#     4   9  18  31  47  72 107 142 178 218 264 321
#     4  10  20  34  54  79 109 145 183 220 266 317
#     4   9  19  35  52  76 110 146 182 222 264 311
#     4  10  22  38  57  84 108 133 173 221 270 320
#     4   9  18  31  49  75 105 143 184 218 260 314
#     4  10  21  39  60  79 106 139 173 216 271 330
#
# _framework density 18.496873999999998
#
# number of rings (size 3 to 8) (size 9 to 14) (size 15 to 20)
#    0.000    2.429    0.000    1.714    2.000    3.714 
#    0.000    0.714    0.000    4.286    0.000    0.000 
#    0.000    0.000    0.000    0.000    0.000    0.000 
#
# Total GULP energy -347251.188616 kJ/mol
# GULP energy per Si atom -12401.828165 kJ/mol
# Density = 1.845477 g / cm^3
# Si number density = 18.496874 Si / 1000 Ang^3
#
#
#
# Elastic Constant Matrix: (Units=GPa)
#
#
# Indices 1 2 3 4 5 6 
#
# 1 90.6864 48.3211 46.0677 0.0007 -10.1215 -0.0004
# 2 48.3211 82.5514 42.4889 0.0075 0.7137 -0.0050
# 3 46.0677 42.4889 93.1113 0.0019 8.1380 -0.0018
# 4 0.0007 0.0075 0.0019 29.1031 -0.0007 3.7484
# 5 -10.1215 0.7137 8.1380 -0.0007 21.9523 0.0003
# 6 -0.0004 -0.0050 -0.0018 3.7484 0.0003 31.7895
#
#
#
# Elastic Compliance Matrix: (Units=1/GPa)
#
#
# Indices 1 2 3 4 5 6 
#
# 1 0.020718 -0.008355 -0.007541 0.000003 0.012620 -0.000002
# 2 -0.008355 0.019308 -0.004429 -0.000005 -0.002838 0.000003
# 3 -0.007541 -0.004429 0.017345 0.000000 -0.009763 0.000000
# 4 0.000003 -0.000005 0.000000 0.034890 0.000003 -0.004114
# 5 0.012620 -0.002838 -0.009763 0.000003 0.055083 -0.000002
# 6 -0.000002 0.000003 0.000000 -0.004114 -0.000002 0.031942
#
#
# Mechanical properties :
#
#
# Convention : Reuss Voigt Hill
#
# Bulk Modulus (GPa) = 59.80272 60.01162 59.90717
# Shear Modulus (GPa) = 22.17186 25.20041 23.68613
#
# Velocity S-wave (km/s) = 3.46595 3.69509 3.58236
# Velocity P-wave (km/s) = 6.95834 7.12177 7.04053
#
# Compressibility (1/GPa) = 0.01672165
#
# Stress axis : x y z
#
# Youngs Moduli (GPa) = 48.26715 51.79083 57.65323
#
# Poissons Ratio (x) = 0.43272 0.43475
# Poissons Ratio (y) = 0.40328 0.25535
# Poissons Ratio (z) = 0.36397 0.22939
#
# Static dielectric constant tensor:
#      x y z
#    x 3.401060 0.000000 -0.176470 
#    y 0.000000 3.403470 0.000000 
#    z -0.176470 0.000000 3.428430 
# 
# 
# High freq. dielectric constant tensor:
#      x y z
#    x 1.711090 0.000000 -0.013270 
#    y 0.000000 1.717470 0.000000 
#    z -0.013270 0.000000 1.717920 
# 
# From -- ./inp_files/238428.got.cif
#   From: 2010.06.25/outbox.cif.g09.slc.cpg/sg12_120_cif.got.tgz:238428.got - 2010.06.28 00:19:55.
