data_PCOD8097382
_publ_section_title
;
Structure prediction by ZEFSAII (Michael W. Deem and Ramdas Pophale) SiO2 
 PCOD8097382
Probable space group: C 2/M
;
_chemical_formula_sum "Si O2"
_cell_formula_units_Z 40
_cell_length_a 27.138801
_cell_length_b 7.521815
_cell_length_c 12.863458
_cell_angle_alpha 90.000000
_cell_angle_beta 121.965721
_cell_angle_gamma 90.000000
_cell_volume 2227.684959
_symmetry_space_group_name_H-M "C 2/M"
_symmetry_group_IT_number 12
_symmetry_cell_setting 'monoclinic'
loop_
_space_group_symop_operation_xyz
x,y,z
-x,y,-z
-x,-y,-z
x,-y,z
1/2+x,1/2+y,z
1/2-x,1/2+y,-z
1/2-x,1/2-y,-z
1/2+x,1/2-y,z
loop_
_atom_site_type_symbol
_atom_site_label
_atom_site_fract_x
_atom_site_fract_y
_atom_site_fract_z
Si Si1 0.087439 0.208977 0.560109
Si Si2 0.976870 0.789976 0.309473
Si Si3 0.977627 0.500000 0.141912
Si Si4 0.593216 0.000000 0.145027
Si Si5 0.801358 0.789452 0.430362
Si Si6 0.175383 0.799874 0.310072
O O1 0.074006 0.257753 0.664550
O O2 0.150100 0.284882 0.595592
O O3 0.037252 0.278353 0.426896
O O4 0.087103 0.000000 0.546093
O O5 0.965472 0.678990 0.193148
O O6 0.977398 0.000000 0.283594
O O7 0.043499 0.500000 0.176163
O O8 0.932531 0.500000 0.998253
O O9 0.631823 0.823916 0.198448
O O10 0.820336 0.729592 0.566956
O O11 0.739691 0.704275 0.331092
O O12 0.794809 0.000000 0.417990
O O13 0.150761 0.000000 0.277546
#
# Coordination Sequence:
#
# PCOD8097382 Si02
#       6
#     8   8   4   4   8   8
#     4   8  15  29  54  83 113 139 163 210 271 318
#     4   9  18  35  53  80 112 137 171 215 261 316
#     4  11  24  37  56  76  98 147 184 213 267 293
#     4  11  24  40  52  74 108 137 182 227 249 310
#     4   9  16  30  53  83 111 138 165 207 269 322
#     4  10  20  34  53  78 108 140 172 212 265 312
#
# _framework density 17.955860000000001
#
# number of rings (size 3 to 8) (size 9 to 14) (size 15 to 20)
#    0.000    2.600    1.000    2.400    1.400    4.800 
#    3.600    2.000    0.000    1.200    0.000    0.000 
#    0.000    0.000    0.000    0.000    0.000    0.000 
#
# Total GULP energy -247953.669574 kJ/mol
# GULP energy per Si atom -12397.683479 kJ/mol
# Density = 1.791499 g / cm^3
# Si number density = 17.955860 Si / 1000 Ang^3
#
#
#
# Elastic Constant Matrix: (Units=GPa)
#
#
# Indices 1 2 3 4 5 6 
#
# 1 153.9930 38.0846 58.8812 0.0000 1.1325 0.0000
# 2 38.0846 85.0627 49.0622 0.0000 -0.6685 0.0000
# 3 58.8812 49.0622 90.3798 0.0000 0.1130 0.0000
# 4 0.0000 0.0000 0.0000 28.9533 0.0000 -0.1564
# 5 1.1325 -0.6685 0.1130 0.0000 24.2418 0.0000
# 6 0.0000 0.0000 0.0000 -0.1564 0.0000 -5.6714
#
#
#
# Elastic Compliance Matrix: (Units=1/GPa)
#
#
# Indices 1 2 3 4 5 6 
#
# 1 0.008700 -0.000917 -0.005170 0.000000 -0.000408 0.000000
# 2 -0.000917 0.017218 -0.008750 0.000000 0.000558 0.000000
# 3 -0.005170 -0.008750 0.019183 0.000000 -0.000089 0.000000
# 4 0.000000 0.000000 0.000000 0.034533 0.000000 -0.000952
# 5 -0.000408 0.000558 -0.000089 0.000000 0.041286 0.000000
# 6 0.000000 0.000000 0.000000 -0.000952 0.000000 -0.176297
#
#
# Mechanical properties :
#
#
# Convention : Reuss Voigt Hill
#
# Bulk Modulus (GPa) = 64.82044 69.05458 66.93751
# Shear Modulus (GPa) = -243.17966 21.73189 -110.72388
#
# Velocity S-wave (km/s) = -11.65015 3.48270 -7.86119
# Velocity P-wave (km/s) = 12.03286 7.39687 6.71103
#
# Compressibility (1/GPa) = 0.01542723
#
# Stress axis : x y z
#
# Youngs Moduli (GPa) = 114.93819 58.07999 52.13029
#
# Poissons Ratio (x) = 0.05323 0.26952
# Poissons Ratio (y) = 0.10535 0.45614
# Poissons Ratio (z) = 0.59424 0.50820
#
# Static dielectric constant tensor:
#      x y z
#    x 3.870430 0.000000 0.063760 
#    y 0.000000 3.204590 0.000000 
#    z 0.063760 0.000000 2.925230 
# 
# 
# High freq. dielectric constant tensor:
#      x y z
#    x 1.708350 0.000000 0.003260 
#    y 0.000000 1.698590 0.000000 
#    z 0.003260 0.000000 1.647400 
# 
# From -- ./inp_files/179079.got.cif
#   From: 2010.06.25/outbox.cif.g09.slc.cpg/sg12_90_cif.got.tgz:179079.got - 2010.06.28 00:19:55.
