data_PCOD8097239
_publ_section_title
;
Structure prediction by ZEFSAII (Michael W. Deem and Ramdas Pophale) SiO2 
 PCOD8097239
Probable space group: C 2/M
;
_chemical_formula_sum "Si O2"
_cell_formula_units_Z 64
_cell_length_a 19.654684
_cell_length_b 9.075638
_cell_length_c 20.953540
_cell_angle_alpha 90.000000
_cell_angle_beta 77.038830
_cell_angle_gamma 90.000000
_cell_volume 3642.440066
_symmetry_space_group_name_H-M "C 2/M"
_symmetry_group_IT_number 12
_symmetry_cell_setting 'monoclinic'
loop_
_space_group_symop_operation_xyz
x,y,z
-x,y,-z
-x,-y,-z
x,-y,z
1/2+x,1/2+y,z
1/2-x,1/2+y,-z
1/2-x,1/2-y,-z
1/2+x,1/2-y,z
loop_
_atom_site_type_symbol
_atom_site_label
_atom_site_fract_x
_atom_site_fract_y
_atom_site_fract_z
Si Si1 0.540778 0.170862 0.556958
Si Si2 0.965290 0.673435 0.814146
Si Si3 0.654482 0.337751 0.693211
Si Si4 0.685536 0.675935 0.548321
Si Si5 0.118774 0.326904 0.819171
Si Si6 0.494922 0.665434 0.685737
Si Si7 0.834991 0.327549 0.925165
Si Si8 0.696722 0.826412 0.926700
O O1 0.500000 0.189165 0.500000
O O2 0.614035 0.256187 0.536213
O O3 0.490801 0.240563 0.621702
O O4 0.555262 0.000000 0.570238
O O5 0.965155 0.500000 0.800444
O O6 0.906966 0.720439 0.877269
O O7 0.038868 0.725105 0.828764
O O8 0.949899 0.755695 0.750621
O O9 0.679676 0.500000 0.708338
O O10 0.695634 0.285160 0.621353
O O11 0.666734 0.232169 0.750976
O O12 0.574018 0.339926 0.691483
O O13 0.683693 0.500000 0.538222
O O14 0.750000 0.750000 0.500000
O O15 0.124516 0.500000 0.815459
O O16 0.147363 0.266462 0.880483
O O17 0.466153 0.500000 0.680101
O O18 0.821491 0.500000 0.921038
O O19 0.772318 0.245731 0.902771
O O20 0.838489 0.280613 0.998753
O O21 0.706652 0.000000 0.919967
#
# Coordination Sequence:
#
# PCOD8097239 Si02
#       8
#     8   8   8   8   8   8   8   8
#     4  10  20  34  53  76 102 132 166 205 248 295
#     4   9  17  30  49  72  95 121 157 198 240 285
#     4   8  16  30  47  69  96 125 156 192 237 287
#     4  10  20  34  53  76 102 133 168 206 248 294
#     4   9  17  29  48  72  94 119 154 197 239 279
#     4   9  17  30  49  72  98 128 160 197 243 291
#     4   9  18  32  49  68  93 127 160 191 234 286
#     4   9  18  32  48  68  95 125 158 194 234 283
#
# _framework density 17.570639
#
# number of rings (size 3 to 8) (size 9 to 14) (size 15 to 20)
#    0.000    2.875    0.000    1.875    0.000    6.000 
#    0.000    3.750    0.000    1.500    0.000    7.000 
#    0.000    0.000    0.000    0.000    0.000    0.000 
#
# Total GULP energy -396711.259712 kJ/mol
# GULP energy per Si atom -12397.226866 kJ/mol
# Density = 1.753065 g / cm^3
# Si number density = 17.570639 Si / 1000 Ang^3
#
#
#
# Elastic Constant Matrix: (Units=GPa)
#
#
# Indices 1 2 3 4 5 6 
#
# 1 75.2517 40.8610 69.8322 0.0000 -5.4656 0.0000
# 2 40.8610 70.3113 57.8767 0.0000 0.3883 0.0000
# 3 69.8322 57.8767 146.2429 0.0000 -6.0533 0.0000
# 4 0.0000 0.0000 0.0000 29.1656 0.0000 -1.7099
# 5 -5.4656 0.3883 -6.0533 0.0000 27.9642 0.0000
# 6 0.0000 0.0000 0.0000 -1.7099 0.0000 24.4913
#
#
#
# Elastic Compliance Matrix: (Units=1/GPa)
#
#
# Indices 1 2 3 4 5 6 
#
# 1 0.026448 -0.007567 -0.009501 0.000000 0.003218 0.000000
# 2 -0.007567 0.023384 -0.005768 0.000000 -0.003052 0.000000
# 3 -0.009501 -0.005768 0.013707 0.000000 0.001190 0.000000
# 4 0.000000 0.000000 0.000000 0.034428 0.000000 0.002404
# 5 0.003218 -0.003052 0.001190 0.000000 0.036689 0.000000
# 6 0.000000 0.000000 0.000000 0.002404 0.000000 0.040999
#
#
# Mechanical properties :
#
#
# Convention : Reuss Voigt Hill
#
# Bulk Modulus (GPa) = 55.96740 69.88286 62.92513
# Shear Modulus (GPa) = 21.99899 24.53995 23.26947
#
# Velocity S-wave (km/s) = 3.54224 3.74123 3.64309
# Velocity P-wave (km/s) = 6.97509 7.64992 7.32029
#
# Compressibility (1/GPa) = 0.01786755
#
# Stress axis : x y z
#
# Youngs Moduli (GPa) = 37.80937 42.76349 72.95655
#
# Poissons Ratio (x) = 0.32359 0.69320
# Poissons Ratio (y) = 0.28610 0.42078
# Poissons Ratio (z) = 0.35924 0.24664
#
# Static dielectric constant tensor:
#      x y z
#    x 3.073700 0.000000 -0.010990 
#    y 0.000000 3.364120 0.000000 
#    z -0.010990 0.000000 3.611020 
# 
# 
# High freq. dielectric constant tensor:
#      x y z
#    x 1.646700 0.000000 -0.003090 
#    y 0.000000 1.681480 0.000000 
#    z -0.003090 0.000000 1.691210 
# 
# From -- ./inp_files/319108.got.cif
#   From: 2010.06.25/outbox.cif.g09.slc.cpg/sg12_160_cif.got.tgz:319108.got - 2010.06.28 00:19:55.
