data_PCOD8097188
_publ_section_title
;
Structure prediction by ZEFSAII (Michael W. Deem and Ramdas Pophale) SiO2 
 PCOD8097188
Probable space group: C 2/M
;
_chemical_formula_sum "Si O2"
_cell_formula_units_Z 64
_cell_length_a 14.506189
_cell_length_b 8.788455
_cell_length_c 25.588268
_cell_angle_alpha 90.000000
_cell_angle_beta 90.686319
_cell_angle_gamma 90.000000
_cell_volume 3261.937214
_symmetry_space_group_name_H-M "C 2/M"
_symmetry_group_IT_number 12
_symmetry_cell_setting 'monoclinic'
loop_
_space_group_symop_operation_xyz
x,y,z
-x,y,-z
-x,-y,-z
x,-y,z
1/2+x,1/2+y,z
1/2-x,1/2+y,-z
1/2-x,1/2-y,-z
1/2+x,1/2-y,z
loop_
_atom_site_type_symbol
_atom_site_label
_atom_site_fract_x
_atom_site_fract_y
_atom_site_fract_z
Si Si1 0.754006 0.678415 0.167674
Si Si2 0.583659 0.677917 0.884445
Si Si3 0.346815 0.825330 0.011495
Si Si4 0.407426 0.679835 0.630898
Si Si5 0.240560 0.177664 0.285728
Si Si6 0.901864 0.326867 0.896645
Si Si7 0.763645 0.679626 0.556325
Si Si8 0.116733 0.179222 0.640930
O O1 0.741654 0.500000 0.158328
O O2 0.858552 0.728907 0.158017
O O3 0.724512 0.726290 0.225826
O O4 0.696297 0.770997 0.124614
O O5 0.602807 0.500000 0.878510
O O6 0.603151 0.731619 0.943272
O O7 0.477624 0.716691 0.871522
O O8 0.333778 0.000000 0.029509
O O9 0.250000 0.750000 0.000000
O O10 0.407049 0.816728 0.959379
O O11 0.406793 0.500000 0.621687
O O12 0.350713 0.725799 0.682673
O O13 0.358665 0.757506 0.581060
O O14 0.512099 0.742421 0.636176
O O15 0.332988 0.257163 0.307434
O O16 0.258939 0.000000 0.290733
O O17 0.918859 0.500000 0.878933
O O18 0.771252 0.500000 0.551971
O O19 0.750000 0.750000 0.500000
O O20 0.675708 0.729264 0.590661
O O21 0.113476 0.000000 0.646690
#
# Coordination Sequence:
#
# PCOD8097188 Si02
#       8
#     8   8   8   8   8   8   8   8
#     4  11  23  40  60  85 118 151 188 236 287 344
#     4  12  25  40  60  86 115 152 193 233 282 339
#     4  11  22  38  62  87 116 149 187 231 282 343
#     4   9  18  36  58  80 109 145 186 230 278 332
#     4   9  20  37  58  83 110 142 182 231 284 333
#     4  11  24  41  61  87 116 149 188 233 288 346
#     4  10  20  34  52  80 115 151 189 229 277 326
#     4   9  19  35  57  82 110 147 189 231 277 333
#
# _framework density 19.620242000000001
#
# number of rings (size 3 to 8) (size 9 to 14) (size 15 to 20)
#    0.000    1.750    1.250    3.000    0.000    6.500 
#    0.000    3.750    0.000    0.000    0.000    0.000 
#    0.000    0.000    0.000    0.000    0.000    0.000 
#
# Total GULP energy -396891.176388 kJ/mol
# GULP energy per Si atom -12402.849262 kJ/mol
# Density = 1.957558 g / cm^3
# Si number density = 19.620242 Si / 1000 Ang^3
#
#
#
# Elastic Constant Matrix: (Units=GPa)
#
#
# Indices 1 2 3 4 5 6 
#
# 1 116.9105 25.9469 24.9137 0.0000 -2.8930 0.0000
# 2 25.9469 65.7039 36.2455 0.0000 1.9800 0.0000
# 3 24.9137 36.2455 96.8925 0.0000 -3.0733 0.0000
# 4 0.0000 0.0000 0.0000 30.7098 0.0000 3.8947
# 5 -2.8930 1.9800 -3.0733 0.0000 18.4799 0.0000
# 6 0.0000 0.0000 0.0000 3.8947 0.0000 32.7894
#
#
#
# Elastic Compliance Matrix: (Units=1/GPa)
#
#
# Indices 1 2 3 4 5 6 
#
# 1 0.009553 -0.003144 -0.001229 0.000000 0.001628 0.000000
# 2 -0.003144 0.020410 -0.006948 0.000000 -0.003834 0.000000
# 3 -0.001229 -0.006948 0.013324 0.000000 0.002768 0.000000
# 4 0.000000 0.000000 0.000000 0.033061 0.000000 -0.003927
# 5 0.001628 -0.003834 0.002768 0.000000 0.055239 0.000000
# 6 0.000000 0.000000 0.000000 -0.003927 0.000000 0.030964
#
#
# Mechanical properties :
#
#
# Convention : Reuss Voigt Hill
#
# Bulk Modulus (GPa) = 48.43725 50.41325 49.42525
# Shear Modulus (GPa) = 26.03162 29.22255 27.62708
#
# Velocity S-wave (km/s) = 3.64644 3.86347 3.75652
# Velocity P-wave (km/s) = 6.51688 6.75664 6.63784
#
# Compressibility (1/GPa) = 0.02064527
#
# Stress axis : x y z
#
# Youngs Moduli (GPa) = 104.67431 48.99593 75.05470
#
# Poissons Ratio (x) = 0.15404 0.09222
# Poissons Ratio (y) = 0.32909 0.52149
# Poissons Ratio (z) = 0.12862 0.34043
#
# Static dielectric constant tensor:
#      x y z
#    x 4.160030 0.000000 -0.173890 
#    y 0.000000 3.572970 0.000000 
#    z -0.173890 0.000000 3.616620 
# 
# 
# High freq. dielectric constant tensor:
#      x y z
#    x 1.772160 0.000000 -0.003570 
#    y 0.000000 1.766740 0.000000 
#    z -0.003570 0.000000 1.758190 
# 
# From -- ./inp_files/338861.got.cif
#   From: 2010.06.25/outbox.cif.g09.slc.cpg/sg12_170_cif.got.tgz:338861.got - 2010.06.28 00:19:55.
