data_PCOD8097570
_publ_section_title
;
Structure prediction by ZEFSAII (Michael W. Deem and Ramdas Pophale) SiO2 
 PCOD8097570
Probable space group: C 2/M
;
_chemical_formula_sum "Si O2"
_cell_formula_units_Z 56
_cell_length_a 9.092321
_cell_length_b 15.948758
_cell_length_c 29.898665
_cell_angle_alpha 90.000000
_cell_angle_beta 40.505980
_cell_angle_gamma 90.000000
_cell_volume 2816.118383
_symmetry_space_group_name_H-M "C 2/M"
_symmetry_group_IT_number 12
_symmetry_cell_setting 'monoclinic'
loop_
_space_group_symop_operation_xyz
x,y,z
-x,y,-z
-x,-y,-z
x,-y,z
1/2+x,1/2+y,z
1/2-x,1/2+y,-z
1/2-x,1/2-y,-z
1/2+x,1/2-y,z
loop_
_atom_site_type_symbol
_atom_site_label
_atom_site_fract_x
_atom_site_fract_y
_atom_site_fract_z
Si Si1 0.432641 0.336434 0.658100
Si Si2 0.463067 0.835645 0.183726
Si Si3 0.430850 0.595672 0.063047
Si Si4 0.118081 0.164310 0.183739
Si Si5 0.629527 0.500000 0.578259
Si Si6 0.777062 0.336450 0.658086
Si Si7 0.020644 0.500000 0.421776
Si Si8 0.753882 0.595664 0.063035
O O1 0.479409 0.415184 0.614500
O O2 0.636742 0.323123 0.645338
O O3 0.412390 0.249993 0.635082
O O4 0.200246 0.358534 0.737267
O O5 0.660868 0.903447 0.133780
O O6 0.324379 0.830117 0.170210
O O7 0.593341 0.749963 0.162610
O O8 0.505913 0.500000 0.042929
O O9 0.570431 0.638359 0.071816
O O10 0.500000 0.640065 0.000000
O O11 0.170090 0.096501 0.133785
O O12 0.886361 0.141422 0.262754
O O13 0.792056 0.500000 0.583196
O O14 0.768734 0.500000 0.500027
O O15 0.948338 0.415190 0.614454
O O16 0.779487 0.500000 0.042883
O O17 0.000000 0.640068 0.000000
#
# Coordination Sequence:
#
# PCOD8097570 Si02
#       8
#     8   8   8   8   4   8   4   8
#     4   9  19  35  56  82 113 148 187 232 279 330
#     4  10  20  34  54  77 105 138 180 226 273 326
#     4  10  21  36  53  76 106 139 178 222 272 324
#     4  10  20  34  54  77 105 138 180 226 273 326
#     4   9  18  34  57  85 114 149 190 225 270 337
#     4   9  19  35  56  82 113 148 187 232 279 330
#     4   9  18  34  57  85 114 149 190 225 270 337
#     4  10  21  36  53  76 106 139 178 222 272 324
#
# _framework density 19.885528000000001
#
# number of rings (size 3 to 8) (size 9 to 14) (size 15 to 20)
#    0.000    2.429    0.000    1.714    2.000    4.000 
#    0.000    3.571    0.000    0.857    0.000    0.000 
#    0.000    0.000    0.000    0.000    0.000    0.000 
#
# Total GULP energy -347110.744683 kJ/mol
# GULP energy per Si atom -12396.812310 kJ/mol
# Density = 1.984027 g / cm^3
# Si number density = 19.885528 Si / 1000 Ang^3
#
#
#
# Elastic Constant Matrix: (Units=GPa)
#
#
# Indices 1 2 3 4 5 6 
#
# 1 103.2742 41.3641 57.1479 -0.0063 0.0346 -0.0031
# 2 41.3641 105.3939 65.3389 -0.0019 0.3135 0.0006
# 3 57.1479 65.3389 128.9564 0.0123 0.3765 -0.0082
# 4 -0.0063 -0.0019 0.0123 16.6929 -0.0001 -0.1217
# 5 0.0346 0.3135 0.3765 -0.0001 22.7369 0.0026
# 6 -0.0031 0.0006 -0.0082 -0.1217 0.0026 27.5695
#
#
#
# Elastic Compliance Matrix: (Units=1/GPa)
#
#
# Indices 1 2 3 4 5 6 
#
# 1 0.013190 -0.002264 -0.004698 0.000008 0.000089 0.000000
# 2 -0.002264 0.014222 -0.006202 0.000005 -0.000090 -0.000002
# 3 -0.004698 -0.006202 0.012980 -0.000012 -0.000122 0.000003
# 4 0.000008 0.000005 -0.000012 0.059908 0.000000 0.000265
# 5 0.000089 -0.000090 -0.000122 0.000000 0.043985 -0.000004
# 6 0.000000 -0.000002 0.000003 0.000265 -0.000004 0.036273
#
#
# Mechanical properties :
#
#
# Convention : Reuss Voigt Hill
#
# Bulk Modulus (GPa) = 71.11393 73.92515 72.51954
# Shear Modulus (GPa) = 23.63244 24.98475 24.30860
#
# Velocity S-wave (km/s) = 3.45109 3.54846 3.50011
# Velocity P-wave (km/s) = 7.19162 7.35152 7.27201
#
# Compressibility (1/GPa) = 0.01406194
#
# Stress axis : x y z
#
# Youngs Moduli (GPa) = 75.81770 70.31203 77.04449
#
# Poissons Ratio (x) = 0.15920 0.36196
# Poissons Ratio (y) = 0.17167 0.47786
# Poissons Ratio (z) = 0.35620 0.43611
#
# Static dielectric constant tensor:
#      x y z
#    x 3.716640 0.000000 -0.001140 
#    y 0.000000 3.517700 0.000010 
#    z -0.001140 0.000010 3.606000 
# 
# 
# High freq. dielectric constant tensor:
#      x y z
#    x 1.768030 0.000000 0.000110 
#    y 0.000000 1.764250 0.000000 
#    z 0.000110 0.000000 1.775440 
# 
# From -- ./inp_files/372790.got.cif
#   From: 2010.06.25/outbox.cif.g09.slc.cpg/sg12_187_cif.got.tgz:372790.got - 2010.06.28 00:19:55.
