data_PCOD8097950
_publ_section_title
;
Structure prediction by ZEFSAII (Michael W. Deem and Ramdas Pophale) SiO2 
 PCOD8097950
Probable space group: C 2/M
;
_chemical_formula_sum "Si O2"
_cell_formula_units_Z 48
_cell_length_a 18.237830
_cell_length_b 10.180263
_cell_length_c 14.953459
_cell_angle_alpha 90.000000
_cell_angle_beta 59.468312
_cell_angle_gamma 90.000000
_cell_volume 2391.402292
_symmetry_space_group_name_H-M "C 2/M"
_symmetry_group_IT_number 12
_symmetry_cell_setting 'monoclinic'
loop_
_space_group_symop_operation_xyz
x,y,z
-x,y,-z
-x,-y,-z
x,-y,z
1/2+x,1/2+y,z
1/2-x,1/2+y,-z
1/2-x,1/2-y,-z
1/2+x,1/2-y,z
loop_
_atom_site_type_symbol
_atom_site_label
_atom_site_fract_x
_atom_site_fract_y
_atom_site_fract_z
Si Si1 0.123783 0.740591 0.750139
Si Si2 0.943790 0.352922 0.894058
Si Si3 0.865406 0.146095 0.069974
Si Si4 0.171981 0.651090 0.199634
Si Si5 0.187753 0.145790 0.340825
Si Si6 0.675091 0.352045 0.542918
O O1 0.123657 0.846689 0.830020
O O2 0.211539 0.659765 0.700742
O O3 0.110965 0.815568 0.663129
O O4 0.043724 0.644231 0.810133
O O5 0.916581 0.500000 0.940316
O O6 0.891496 0.308110 0.839611
O O7 0.924821 0.253128 0.986057
O O8 0.767479 0.173807 0.104690
O O9 0.892713 0.000000 0.022027
O O10 0.158794 0.500000 0.238203
O O11 0.152217 0.744773 0.295841
O O12 0.135570 0.158908 0.467165
O O13 0.173402 0.000000 0.308883
O O14 0.709297 0.500000 0.537198
O O15 0.750000 0.250000 0.500000
#
# Coordination Sequence:
#
# PCOD8097950 Si02
#       6
#     8   8   8   8   8   8
#     4  10  20  34  55  80 110 140 173 217 266 314
#     4  11  23  37  54  78 108 141 179 223 268 313
#     4  10  21  36  55  78 105 141 181 218 262 318
#     4   9  20  38  56  76 105 142 180 217 263 319
#     4   9  18  34  57  82 104 134 177 218 259 311
#     4   9  18  33  55  82 110 140 176 217 262 314
#
# _framework density 20.071905999999998
#
# number of rings (size 3 to 8) (size 9 to 14) (size 15 to 20)
#    0.000    2.333    0.000    2.000    0.000   11.333 
#    0.000    0.833    0.000    4.000    0.000    0.000 
#    0.000    0.000    0.000    0.000    0.000    0.000 
#
# Total GULP energy -297483.345528 kJ/mol
# GULP energy per Si atom -12395.139397 kJ/mol
# Density = 2.002622 g / cm^3
# Si number density = 20.071906 Si / 1000 Ang^3
#
#
#
# Elastic Constant Matrix: (Units=GPa)
#
#
# Indices 1 2 3 4 5 6 
#
# 1 60.8563 5.9030 30.7309 0.0000 3.4780 0.0000
# 2 5.9030 127.6195 65.0077 0.0000 11.3854 0.0000
# 3 30.7309 65.0077 130.1129 0.0000 16.3112 0.0000
# 4 0.0000 0.0000 0.0000 29.4571 0.0000 1.0824
# 5 3.4780 11.3854 16.3112 0.0000 12.2297 0.0000
# 6 0.0000 0.0000 0.0000 1.0824 0.0000 19.7650
#
#
#
# Elastic Compliance Matrix: (Units=1/GPa)
#
#
# Indices 1 2 3 4 5 6 
#
# 1 0.018990 0.001883 -0.005439 0.000000 0.000100 0.000000
# 2 0.001883 0.010812 -0.005425 0.000000 -0.003366 0.000000
# 3 -0.005439 -0.005425 0.013033 0.000000 -0.010785 0.000000
# 4 0.000000 0.000000 0.000000 0.034016 0.000000 -0.001863
# 5 0.000100 -0.003366 -0.010785 0.000000 0.099258 0.000000
# 6 0.000000 0.000000 0.000000 -0.001863 0.000000 0.050697
#
#
# Mechanical properties :
#
#
# Convention : Reuss Voigt Hill
#
# Bulk Modulus (GPa) = 40.20228 57.98578 49.09403
# Shear Modulus (GPa) = 19.75833 26.75350 23.25591
#
# Velocity S-wave (km/s) = 3.14088 3.65483 3.40756
# Velocity P-wave (km/s) = 5.76421 6.83828 6.32409
#
# Compressibility (1/GPa) = 0.02487421
#
# Stress axis : x y z
#
# Youngs Moduli (GPa) = 52.65898 92.48667 76.73069
#
# Poissons Ratio (x) = -0.17415 0.41730
# Poissons Ratio (y) = -0.09916 0.41626
# Poissons Ratio (z) = 0.28639 0.50173
#
# Static dielectric constant tensor:
#      x y z
#    x 3.438300 0.000000 0.099280 
#    y 0.000000 3.921820 0.000000 
#    z 0.099280 0.000000 4.004380 
# 
# 
# High freq. dielectric constant tensor:
#      x y z
#    x 1.755690 0.000000 0.013340 
#    y 0.000000 1.790430 0.000000 
#    z 0.013340 0.000000 1.784750 
# 
# From -- ./inp_files/229930.got.cif
#   From: 2010.06.25/outbox.cif.g09.slc.cpg/sg12_115_cif.got.tgz:229930.got - 2010.06.28 00:19:55.
