data_PCOD8097941
_publ_section_title
;
Structure prediction by ZEFSAII (Michael W. Deem and Ramdas Pophale) SiO2 
 PCOD8097941
Probable space group: C 2/M
;
_chemical_formula_sum "Si O2"
_cell_formula_units_Z 56
_cell_length_a 19.589933
_cell_length_b 9.055580
_cell_length_c 20.706456
_cell_angle_alpha 90.000000
_cell_angle_beta 55.509862
_cell_angle_gamma 90.000000
_cell_volume 3027.611024
_symmetry_space_group_name_H-M "C 2/M"
_symmetry_group_IT_number 12
_symmetry_cell_setting 'monoclinic'
loop_
_space_group_symop_operation_xyz
x,y,z
-x,y,-z
-x,-y,-z
x,-y,z
1/2+x,1/2+y,z
1/2-x,1/2+y,-z
1/2-x,1/2-y,-z
1/2+x,1/2-y,z
loop_
_atom_site_type_symbol
_atom_site_label
_atom_site_fract_x
_atom_site_fract_y
_atom_site_fract_z
Si Si1 0.185963 0.328490 0.179061
Si Si2 0.615375 0.824546 0.730486
Si Si3 0.312077 0.668180 0.011485
Si Si4 0.773400 0.674480 0.698665
Si Si5 0.912498 0.326849 0.527069
Si Si6 0.943243 0.173951 0.845514
Si Si7 0.165958 0.328318 0.562101
O O1 0.161186 0.500000 0.183419
O O2 0.280969 0.300245 0.101473
O O3 0.187026 0.285151 0.253446
O O4 0.117656 0.231420 0.178533
O O5 0.687281 0.759642 0.736903
O O6 0.528903 0.759473 0.799725
O O7 0.629557 0.772098 0.649157
O O8 0.613596 0.000000 0.737866
O O9 0.298984 0.500000 0.000975
O O10 0.250000 0.750000 0.000000
O O11 0.405103 0.709357 0.938068
O O12 0.756558 0.500000 0.701215
O O13 0.837030 0.735984 0.610502
O O14 0.915826 0.500000 0.539440
O O15 0.900078 0.291267 0.458362
O O16 0.000000 0.253448 0.500000
O O17 0.958162 0.000000 0.826916
O O18 0.186043 0.500000 0.554258
O O19 0.250000 0.250000 0.500000
#
# Coordination Sequence:
#
# PCOD8097941 Si02
#       7
#     8   8   8   8   8   8   8
#     4   9  18  33  56  83 108 136 175 221 268 316
#     4  11  23  36  53  77 109 143 179 223 263 307
#     4   8  15  30  51  77 106 135 171 216 263 313
#     4  10  20  35  56  78 106 143 177 214 265 318
#     4   9  18  32  53  78 103 131 168 212 256 310
#     4  10  20  34  55  80 107 141 178 217 264 318
#     4  10  20  35  56  77 102 136 174 214 260 311
#
# _framework density 18.496431999999999
#
# number of rings (size 3 to 8) (size 9 to 14) (size 15 to 20)
#    0.000    2.429    1.429    0.857    2.000    1.714 
#    0.000    0.714    0.000    5.143    0.000    0.000 
#    0.000    0.000    0.000    0.000    0.000    0.000 
#
# Total GULP energy -346968.626474 kJ/mol
# GULP energy per Si atom -12391.736660 kJ/mol
# Density = 1.845433 g / cm^3
# Si number density = 18.496432 Si / 1000 Ang^3
#
#
#
# Elastic Constant Matrix: (Units=GPa)
#
#
# Indices 1 2 3 4 5 6 
#
# 1 87.9759 28.1449 23.3720 0.0000 -21.3914 0.0000
# 2 28.1449 44.3299 22.3456 0.0000 -9.9004 0.0001
# 3 23.3720 22.3456 72.8369 0.0000 -19.8067 0.0000
# 4 0.0000 0.0000 0.0000 22.6737 0.0000 -3.4241
# 5 -21.3914 -9.9004 -19.8067 0.0000 33.1064 0.0000
# 6 0.0000 0.0001 0.0000 -3.4241 0.0000 26.8672
#
#
#
# Elastic Compliance Matrix: (Units=1/GPa)
#
#
# Indices 1 2 3 4 5 6 
#
# 1 0.015961 -0.008165 -0.000569 0.000000 0.007531 0.000000
# 2 -0.008165 0.031243 -0.006997 0.000000 -0.000119 0.000000
# 3 -0.000569 -0.006997 0.018380 0.000000 0.008536 0.000000
# 4 0.000000 0.000000 0.000000 0.044969 0.000000 0.005731
# 5 0.007531 -0.000119 0.008536 0.000000 0.040143 0.000000
# 6 0.000000 0.000000 0.000000 0.005731 0.000000 0.037951
#
#
# Mechanical properties :
#
#
# Convention : Reuss Voigt Hill
#
# Bulk Modulus (GPa) = 29.30702 39.20750 34.25726
# Shear Modulus (GPa) = 21.59987 25.28145 23.44066
#
# Velocity S-wave (km/s) = 3.42100 3.70108 3.56379
# Velocity P-wave (km/s) = 5.61100 6.28548 5.95780
#
# Compressibility (1/GPa) = 0.03412152
#
# Stress axis : x y z
#
# Youngs Moduli (GPa) = 62.65197 32.00751 54.40770
#
# Poissons Ratio (x) = 0.26134 0.03094
# Poissons Ratio (y) = 0.51156 0.38071
# Poissons Ratio (z) = 0.03563 0.22397
#
# Static dielectric constant tensor:
#      x y z
#    x 3.169970 0.000000 0.310550 
#    y 0.000000 3.263900 0.000000 
#    z 0.310550 0.000000 5.082400 
# 
# 
# High freq. dielectric constant tensor:
#      x y z
#    x 1.700330 0.000000 -0.006980 
#    y 0.000000 1.702140 0.000000 
#    z -0.006980 0.000000 1.735270 
# 
# From -- ./inp_files/275705.got.cif
#   From: 2010.06.25/outbox.cif.g09.slc.cpg/sg12_138_cif.got.tgz:275705.got - 2010.06.28 00:19:55.
