data_PCOD8097755
_publ_section_title
;
Structure prediction by ZEFSAII (Michael W. Deem and Ramdas Pophale) SiO2 
 PCOD8097755
Probable space group: C 2/M
;
_chemical_formula_sum "Si O2"
_cell_formula_units_Z 48
_cell_length_a 24.443438
_cell_length_b 9.233174
_cell_length_c 11.112729
_cell_angle_alpha 90.000000
_cell_angle_beta 72.872397
_cell_angle_gamma 90.000000
_cell_volume 2396.809205
_symmetry_space_group_name_H-M "C 2/M"
_symmetry_group_IT_number 12
_symmetry_cell_setting 'monoclinic'
loop_
_space_group_symop_operation_xyz
x,y,z
-x,y,-z
-x,-y,-z
x,-y,z
1/2+x,1/2+y,z
1/2-x,1/2+y,-z
1/2-x,1/2-y,-z
1/2+x,1/2-y,z
loop_
_atom_site_type_symbol
_atom_site_label
_atom_site_fract_x
_atom_site_fract_y
_atom_site_fract_z
Si Si1 0.191756 0.332780 0.046942
Si Si2 0.471813 0.331691 0.728681
Si Si3 0.688888 0.172629 0.530565
Si Si4 0.403071 0.335289 0.005887
Si Si5 0.593847 0.333710 0.723636
Si Si6 0.123922 0.333292 0.332160
O O1 0.202382 0.500000 0.014673
O O2 0.165661 0.302738 0.194416
O O3 0.250000 0.250000 0.000000
O O4 0.150800 0.270481 0.970722
O O5 0.463711 0.500000 0.708349
O O6 0.538927 0.288779 0.678083
O O7 0.436014 0.249950 0.648594
O O8 0.450537 0.290842 0.876878
O O9 0.750000 0.250000 0.500000
O O10 0.647686 0.229883 0.663325
O O11 0.657802 0.220689 0.427475
O O12 0.697170 0.000000 0.534596
O O13 0.382737 0.500000 0.996273
O O14 0.426849 0.316802 0.124980
O O15 0.611827 0.500000 0.686407
O O16 0.107474 0.500000 0.355009
#
# Coordination Sequence:
#
# PCOD8097755 Si02
#       6
#     8   8   8   8   8   8
#     4  10  20  34  54  81 110 145 188 233 286 339
#     4   9  18  35  61  90 116 147 189 232 279 339
#     4  11  25  43  60  81 111 152 197 238 284 337
#     4   9  18  34  56  84 118 151 184 227 281 338
#     4  10  21  37  59  87 119 153 188 232 284 335
#     4   9  21  40  58  78 112 150 185 234 288 336
#
# _framework density 20.026626
#
# number of rings (size 3 to 8) (size 9 to 14) (size 15 to 20)
#    0.000    2.333    0.000    1.500    2.333    6.000 
#    0.000    3.333    0.000    5.000    0.000    0.000 
#    0.000    0.000    0.000    0.000    0.000    0.000 
#
# Total GULP energy -297590.933988 kJ/mol
# GULP energy per Si atom -12399.622250 kJ/mol
# Density = 1.998104 g / cm^3
# Si number density = 20.026626 Si / 1000 Ang^3
#
#
#
# Elastic Constant Matrix: (Units=GPa)
#
#
# Indices 1 2 3 4 5 6 
#
# 1 140.2453 57.8158 38.3581 0.0000 -4.5834 0.0000
# 2 57.8158 77.5938 25.9933 0.0000 -5.1605 0.0000
# 3 38.3581 25.9933 53.2326 0.0000 8.8622 0.0000
# 4 0.0000 0.0000 0.0000 28.2260 0.0000 1.2026
# 5 -4.5834 -5.1605 8.8622 0.0000 30.8908 0.0000
# 6 0.0000 0.0000 0.0000 1.2026 0.0000 37.6111
#
#
#
# Elastic Compliance Matrix: (Units=1/GPa)
#
#
# Indices 1 2 3 4 5 6 
#
# 1 0.011353 -0.006526 -0.005349 0.000000 0.002129 0.000000
# 2 -0.006526 0.019922 -0.005690 0.000000 0.003992 0.000000
# 3 -0.005349 -0.005690 0.026998 0.000000 -0.009489 0.000000
# 4 0.000000 0.000000 0.000000 0.035477 0.000000 -0.001134
# 5 0.002129 0.003992 -0.009489 0.000000 0.036077 0.000000
# 6 0.000000 0.000000 0.000000 -0.001134 0.000000 0.026624
#
#
# Mechanical properties :
#
#
# Convention : Reuss Voigt Hill
#
# Bulk Modulus (GPa) = 43.20824 57.26734 50.23779
# Shear Modulus (GPa) = 25.08853 29.27252 27.18052
#
# Velocity S-wave (km/s) = 3.54327 3.82734 3.68804
# Velocity P-wave (km/s) = 6.19370 6.94183 6.57841
#
# Compressibility (1/GPa) = 0.02314373
#
# Stress axis : x y z
#
# Youngs Moduli (GPa) = 88.08127 50.19626 37.04023
#
# Poissons Ratio (x) = 0.32758 0.19811
# Poissons Ratio (y) = 0.57482 0.21075
# Poissons Ratio (z) = 0.47111 0.28561
#
# Static dielectric constant tensor:
#      x y z
#    x 2.378550 0.000000 -0.015580 
#    y 0.000000 3.591060 0.000000 
#    z -0.015580 0.000000 2.122620 
# 
# 
# High freq. dielectric constant tensor:
#      x y z
#    x 1.789140 0.000000 0.002250 
#    y 0.000000 1.775760 0.000000 
#    z 0.002250 0.000000 1.776320 
# 
# From -- ./inp_files/172957.got.cif
#   From: 2010.06.25/outbox.cif.g09.slc.cpg/sg12_87_cif.got.tgz:172957.got - 2010.06.28 00:19:55.
