data_PCOD8097310
_publ_section_title
;
Structure prediction by ZEFSAII (Michael W. Deem and Ramdas Pophale) SiO2 
 PCOD8097310
Probable space group: C 2/M
;
_chemical_formula_sum "Si O2"
_cell_formula_units_Z 56
_cell_length_a 19.238911
_cell_length_b 9.079802
_cell_length_c 25.593866
_cell_angle_alpha 90.000000
_cell_angle_beta 41.595309
_cell_angle_gamma 90.000000
_cell_volume 2968.058925
_symmetry_space_group_name_H-M "C 2/M"
_symmetry_group_IT_number 12
_symmetry_cell_setting 'monoclinic'
loop_
_space_group_symop_operation_xyz
x,y,z
-x,y,-z
-x,-y,-z
x,-y,z
1/2+x,1/2+y,z
1/2-x,1/2+y,-z
1/2-x,1/2-y,-z
1/2+x,1/2-y,z
loop_
_atom_site_type_symbol
_atom_site_label
_atom_site_fract_x
_atom_site_fract_y
_atom_site_fract_z
Si Si1 0.241263 0.831181 0.928385
Si Si2 0.122543 0.329560 0.789110
Si Si3 0.261714 0.330609 0.189718
Si Si4 0.827862 0.170232 0.610581
Si Si5 0.587755 0.330923 0.104446
Si Si6 0.158820 0.825378 0.518000
Si Si7 0.553670 0.172730 0.367661
O O1 0.222957 0.789382 0.878932
O O2 0.329394 0.723259 0.899838
O O3 0.279304 0.000000 0.913148
O O4 0.133239 0.806055 0.020547
O O5 0.101632 0.500000 0.808063
O O6 0.153234 0.264973 0.827855
O O7 0.212430 0.295292 0.696643
O O8 0.017674 0.257420 0.826999
O O9 0.287809 0.500000 0.186312
O O10 0.144399 0.293812 0.274646
O O11 0.825985 0.214524 0.551265
O O12 0.913507 0.265569 0.593808
O O13 0.858678 0.000000 0.601425
O O14 0.563528 0.500000 0.129022
O O15 0.250000 0.750000 0.500000
O O16 0.047818 0.756780 0.597537
O O17 0.160063 0.000000 0.527262
O O18 0.529773 0.000000 0.386232
#
# Coordination Sequence:
#
# PCOD8097310 Si02
#       7
#     8   8   8   8   8   8   8
#     4   9  19  36  55  74 102 141 177 210 255 311
#     4  10  20  35  55  78 105 136 173 215 258 305
#     4   9  19  36  56  78 105 137 173 212 256 308
#     4   9  20  38  57  76 102 140 177 209 253 310
#     4  10  20  34  53  77 105 137 175 216 258 306
#     4  11  23  38  55  77 107 139 174 214 256 305
#     4  10  20  35  57  82 106 134 171 214 259 308
#
# _framework density 18.867550000000001
#
# number of rings (size 3 to 8) (size 9 to 14) (size 15 to 20)
#    0.000    2.286    0.000    2.143    0.000    6.857 
#    0.000    8.571    0.000    0.000    0.000    0.000 
#    0.000    0.000    0.000    0.000    0.000    0.000 
#
# Total GULP energy -347301.109120 kJ/mol
# GULP energy per Si atom -12403.611040 kJ/mol
# Density = 1.882461 g / cm^3
# Si number density = 18.867550 Si / 1000 Ang^3
#
#
#
# Elastic Constant Matrix: (Units=GPa)
#
#
# Indices 1 2 3 4 5 6 
#
# 1 49.4824 30.7352 10.5542 0.0000 -13.0441 0.0002
# 2 30.7352 81.0982 21.4985 0.0000 -13.5649 0.0006
# 3 10.5542 21.4985 36.6404 0.0000 -11.6153 -0.0001
# 4 0.0000 0.0000 0.0000 29.1071 0.0000 -6.7675
# 5 -13.0441 -13.5649 -11.6153 0.0000 33.6210 -0.0002
# 6 0.0002 0.0006 -0.0001 -6.7675 -0.0002 39.8359
#
#
#
# Elastic Compliance Matrix: (Units=1/GPa)
#
#
# Indices 1 2 3 4 5 6 
#
# 1 0.027904 -0.009316 -0.000372 0.000000 0.006939 0.000000
# 2 -0.009316 0.018044 -0.007571 0.000000 0.001050 0.000000
# 3 -0.000372 -0.007571 0.034619 0.000000 0.008761 0.000000
# 4 0.000000 0.000000 0.000000 0.035769 0.000000 0.006077
# 5 0.006939 0.001050 0.008761 0.000000 0.035886 0.000000
# 6 0.000000 0.000000 0.000000 0.006077 0.000000 0.026135
#
#
# Mechanical properties :
#
#
# Convention : Reuss Voigt Hill
#
# Bulk Modulus (GPa) = 21.71573 32.53296 27.12435
# Shear Modulus (GPa) = 21.90824 27.47500 24.69162
#
# Velocity S-wave (km/s) = 3.41128 3.82016 3.62150
# Velocity P-wave (km/s) = 5.20099 6.06122 5.64751
#
# Compressibility (1/GPa) = 0.04604956
#
# Stress axis : x y z
#
# Youngs Moduli (GPa) = 35.83688 55.41995 28.88597
#
# Poissons Ratio (x) = 0.51630 0.01074
# Poissons Ratio (y) = 0.33386 0.21869
# Poissons Ratio (z) = 0.01333 0.41957
#
# Static dielectric constant tensor:
#      x y z
#    x 3.339540 0.000000 0.016070 
#    y 0.000000 3.535140 0.000000 
#    z 0.016070 0.000000 3.549790 
# 
# 
# High freq. dielectric constant tensor:
#      x y z
#    x 1.726980 0.000000 -0.003030 
#    y 0.000000 1.741240 0.000000 
#    z -0.003030 0.000000 1.737980 
# 
# From -- ./inp_files/342318.got.cif
#   From: 2010.06.25/outbox.cif.g09.slc.cpg/sg12_172_cif.got.tgz:342318.got - 2010.06.28 00:19:55.
