data_PCOD8097715
_publ_section_title
;
Structure prediction by ZEFSAII (Michael W. Deem and Ramdas Pophale) SiO2 
 PCOD8097715
Probable space group: C 2/M
;
_chemical_formula_sum "Si O2"
_cell_formula_units_Z 56
_cell_length_a 22.702582
_cell_length_b 9.032108
_cell_length_c 15.022206
_cell_angle_alpha 90.000000
_cell_angle_beta 92.798977
_cell_angle_gamma 90.000000
_cell_volume 3076.661164
_symmetry_space_group_name_H-M "C 2/M"
_symmetry_group_IT_number 12
_symmetry_cell_setting 'monoclinic'
loop_
_space_group_symop_operation_xyz
x,y,z
-x,y,-z
-x,-y,-z
x,-y,z
1/2+x,1/2+y,z
1/2-x,1/2+y,-z
1/2-x,1/2-y,-z
1/2+x,1/2-y,z
loop_
_atom_site_type_symbol
_atom_site_label
_atom_site_fract_x
_atom_site_fract_y
_atom_site_fract_z
Si Si1 0.507542 0.172899 0.602317
Si Si2 0.375480 0.329304 0.352564
Si Si3 0.695748 0.826787 0.802781
Si Si4 0.310609 0.328215 0.025721
Si Si5 0.690147 0.329633 0.471781
Si Si6 0.883694 0.672638 0.679610
Si Si7 0.333504 0.668610 0.834050
O O1 0.500000 0.225010 0.500000
O O2 0.559391 0.263295 0.653653
O O3 0.449127 0.212046 0.652757
O O4 0.523313 0.000000 0.607262
O O5 0.375530 0.500000 0.323353
O O6 0.329346 0.240664 0.289343
O O7 0.356842 0.308974 0.453252
O O8 0.662301 0.750665 0.884812
O O9 0.765116 0.791259 0.811756
O O10 0.682524 0.000000 0.805120
O O11 0.299365 0.500000 0.045757
O O12 0.250000 0.250000 0.000000
O O13 0.350511 0.309978 0.939774
O O14 0.704312 0.500000 0.453807
O O15 0.750000 0.250000 0.500000
O O16 0.664380 0.259340 0.381002
O O17 0.870828 0.500000 0.668671
O O18 0.875685 0.723465 0.780995
O O19 0.345355 0.500000 0.805687
#
# Coordination Sequence:
#
# PCOD8097715 Si02
#       7
#     8   8   8   8   8   8   8
#     4  10  21  39  58  75 101 139 182 224 268 316
#     4  11  23  36  54  79 105 138 180 224 265 313
#     4  10  20  34  54  80 111 145 177 215 267 320
#     4   9  17  31  52  78 109 143 178 215 261 316
#     4  11  23  36  52  76 107 140 174 214 263 316
#     4  11  22  35  55  79 104 139 179 220 264 313
#     4   9  19  34  53  80 112 145 175 213 265 317
#
# _framework density 18.201550000000001
#
# number of rings (size 3 to 8) (size 9 to 14) (size 15 to 20)
#    0.000    1.857    1.429    3.857    0.000    8.857 
#    0.000    0.000    0.000    0.857    0.000    6.000 
#    0.000    0.000    0.000    0.000    0.000    0.000 
#
# Total GULP energy -347244.351129 kJ/mol
# GULP energy per Si atom -12401.583969 kJ/mol
# Density = 1.816012 g / cm^3
# Si number density = 18.201550 Si / 1000 Ang^3
#
#
#
# Elastic Constant Matrix: (Units=GPa)
#
#
# Indices 1 2 3 4 5 6 
#
# 1 62.9382 37.5851 12.3151 0.0000 -15.2974 0.0000
# 2 37.5851 102.9827 36.0540 0.0000 -14.8437 0.0000
# 3 12.3151 36.0540 76.4893 0.0000 -20.8728 0.0000
# 4 0.0000 0.0000 0.0000 37.3676 0.0000 0.7545
# 5 -15.2974 -14.8437 -20.8728 0.0000 20.9126 0.0000
# 6 0.0000 0.0000 0.0000 0.7545 0.0000 29.7325
#
#
#
# Elastic Compliance Matrix: (Units=1/GPa)
#
#
# Indices 1 2 3 4 5 6 
#
# 1 0.023589 -0.007790 0.004224 0.000000 0.015942 0.000000
# 2 -0.007790 0.014429 -0.005920 0.000000 -0.001365 0.000000
# 3 0.004224 -0.005920 0.020451 0.000000 0.019300 0.000000
# 4 0.000000 0.000000 0.000000 0.026775 0.000000 -0.000679
# 5 0.015942 -0.001365 0.019300 0.000000 0.077774 0.000000
# 6 0.000000 0.000000 0.000000 -0.000679 0.000000 0.033650
#
#
# Mechanical properties :
#
#
# Convention : Reuss Voigt Hill
#
# Bulk Modulus (GPa) = 25.31786 46.03540 35.67663
# Shear Modulus (GPa) = 21.85271 28.03294 24.94283
#
# Velocity S-wave (km/s) = 3.46872 3.92872 3.70586
# Velocity P-wave (km/s) = 5.47564 6.77693 6.16074
#
# Compressibility (1/GPa) = 0.03949780
#
# Stress axis : x y z
#
# Youngs Moduli (GPa) = 42.39291 69.30386 48.89853
#
# Poissons Ratio (x) = 0.53989 -0.20657
# Poissons Ratio (y) = 0.33025 0.28946
# Poissons Ratio (z) = -0.17908 0.41025
#
# Static dielectric constant tensor:
#      x y z
#    x 3.009950 0.000000 -0.242730 
#    y 0.000000 3.499840 0.000000 
#    z -0.242730 0.000000 3.486520 
# 
# 
# High freq. dielectric constant tensor:
#      x y z
#    x 1.672660 0.000000 -0.008680 
#    y 0.000000 1.719340 0.000000 
#    z -0.008680 0.000000 1.713090 
# 
# From -- ./inp_files/231009.got.cif
#   From: 2010.06.25/outbox.cif.g09.slc.cpg/sg12_116_cif.got.tgz:231009.got - 2010.06.28 00:19:55.
