data_PCOD8097082
_publ_section_title
;
Structure prediction by ZEFSAII (Michael W. Deem and Ramdas Pophale) SiO2 
 PCOD8097082
Probable space group: C 2/M
;
_chemical_formula_sum "Si O2"
_cell_formula_units_Z 56
_cell_length_a 15.219083
_cell_length_b 9.146433
_cell_length_c 22.657457
_cell_angle_alpha 90.000000
_cell_angle_beta 118.454392
_cell_angle_gamma 90.000000
_cell_volume 2772.920609
_symmetry_space_group_name_H-M "C 2/M"
_symmetry_group_IT_number 12
_symmetry_cell_setting 'monoclinic'
loop_
_space_group_symop_operation_xyz
x,y,z
-x,y,-z
-x,-y,-z
x,-y,z
1/2+x,1/2+y,z
1/2-x,1/2+y,-z
1/2-x,1/2-y,-z
1/2+x,1/2-y,z
loop_
_atom_site_type_symbol
_atom_site_label
_atom_site_fract_x
_atom_site_fract_y
_atom_site_fract_z
Si Si1 0.015572 0.163191 0.573634
Si Si2 0.437944 0.163185 0.708384
Si Si3 0.136199 0.334433 0.693650
Si Si4 0.665888 0.830003 0.437085
Si Si5 0.267140 0.329620 0.174648
Si Si6 0.040735 0.329385 0.076087
Si Si7 0.039809 0.828791 0.838238
O O1 0.120644 0.234482 0.629504
O O2 0.000000 0.146225 0.500000
O O3 0.936626 0.281677 0.567837
O O4 0.003661 0.000000 0.598041
O O5 0.534858 0.168453 0.698420
O O6 0.341924 0.204518 0.636143
O O7 0.450782 0.275125 0.766232
O O8 0.424267 0.000000 0.730201
O O9 0.166812 0.500000 0.686229
O O10 0.221713 0.261909 0.761384
O O11 0.750000 0.750000 0.500000
O O12 0.682886 0.000000 0.452470
O O13 0.278292 0.500000 0.193786
O O14 0.158227 0.290709 0.114769
O O15 0.351241 0.285522 0.153042
O O16 0.022780 0.500000 0.080972
O O17 0.975157 0.245742 0.103572
O O18 0.000000 0.278109 0.000000
O O19 0.028638 0.000000 0.842725
#
# Coordination Sequence:
#
# PCOD8097082 Si02
#       7
#     8   8   8   8   8   8   8
#     4  10  20  34  52  75 106 145 185 227 281 339
#     4   8  16  32  53  76 103 140 181 223 274 333
#     4   9  17  31  54  80 105 138 182 231 279 330
#     4  10  20  34  53  77 107 143 185 233 283 336
#     4   9  19  37  59  83 113 150 189 232 283 343
#     4  10  22  40  60  84 117 155 191 229 281 347
#     4  10  20  35  58  86 113 144 187 236 286 334
#
# _framework density 20.195312999999999
#
# number of rings (size 3 to 8) (size 9 to 14) (size 15 to 20)
#    0.000    2.571    0.000    2.571    0.000    7.143 
#    2.571    0.000    0.000    0.000    0.000    0.000 
#    0.000    0.000    0.000    0.000    0.000    0.000 
#
# Total GULP energy -346980.985528 kJ/mol
# GULP energy per Si atom -12392.178055 kJ/mol
# Density = 2.014935 g / cm^3
# Si number density = 20.195313 Si / 1000 Ang^3
#
#
#
# Elastic Constant Matrix: (Units=GPa)
#
#
# Indices 1 2 3 4 5 6 
#
# 1 49.5546 27.2372 41.8834 0.0000 5.0202 0.0000
# 2 27.2372 92.3643 73.2964 0.0000 3.8652 0.0000
# 3 41.8834 73.2964 168.7075 0.0000 12.8164 0.0000
# 4 0.0000 0.0000 0.0000 35.8192 0.0000 -2.3277
# 5 5.0202 3.8652 12.8164 0.0000 27.0325 0.0000
# 6 0.0000 0.0000 0.0000 -2.3277 0.0000 19.9009
#
#
#
# Elastic Compliance Matrix: (Units=1/GPa)
#
#
# Indices 1 2 3 4 5 6 
#
# 1 0.026569 -0.004029 -0.004683 0.000000 -0.002138 0.000000
# 2 -0.004029 0.017165 -0.006564 0.000000 0.001406 0.000000
# 3 -0.004683 -0.006564 0.010171 0.000000 -0.003014 0.000000
# 4 0.000000 0.000000 0.000000 0.028132 0.000000 0.003290
# 5 -0.002138 0.001406 -0.003014 0.000000 0.038617 0.000000
# 6 0.000000 0.000000 0.000000 0.003290 0.000000 0.050634
#
#
# Mechanical properties :
#
#
# Convention : Reuss Voigt Hill
#
# Bulk Modulus (GPa) = 42.82239 66.16224 54.49231
# Shear Modulus (GPa) = 23.85220 27.76450 25.80835
#
# Velocity S-wave (km/s) = 3.44041 3.71185 3.57870
# Velocity P-wave (km/s) = 6.08539 7.15561 6.64209
#
# Compressibility (1/GPa) = 0.02335227
#
# Stress axis : x y z
#
# Youngs Moduli (GPa) = 37.63774 58.25846 98.32070
#
# Poissons Ratio (x) = 0.23473 0.46045
# Poissons Ratio (y) = 0.15165 0.64537
# Poissons Ratio (z) = 0.17626 0.38241
#
# Static dielectric constant tensor:
#      x y z
#    x 3.128790 0.000000 0.020620 
#    y 0.000000 3.884910 0.000000 
#    z 0.020620 0.000000 3.154010 
# 
# 
# High freq. dielectric constant tensor:
#      x y z
#    x 1.757230 0.000000 0.005640 
#    y 0.000000 1.793880 0.000000 
#    z 0.005640 0.000000 1.799710 
# 
# From -- ./inp_files/339109.got.cif
#   From: 2010.06.25/outbox.cif.g09.slc.cpg/sg12_170_cif.got.tgz:339109.got - 2010.06.28 00:19:55.
