data_PCOD8097339
_publ_section_title
;
Structure prediction by ZEFSAII (Michael W. Deem and Ramdas Pophale) SiO2 
 PCOD8097339
Probable space group: C 2/M
;
_chemical_formula_sum "Si O2"
_cell_formula_units_Z 56
_cell_length_a 28.502847
_cell_length_b 8.534073
_cell_length_c 19.141570
_cell_angle_alpha 90.000000
_cell_angle_beta 138.381637
_cell_angle_gamma 90.000000
_cell_volume 3092.421531
_symmetry_space_group_name_H-M "C 2/M"
_symmetry_group_IT_number 12
_symmetry_cell_setting 'monoclinic'
loop_
_space_group_symop_operation_xyz
x,y,z
-x,y,-z
-x,-y,-z
x,-y,z
1/2+x,1/2+y,z
1/2-x,1/2+y,-z
1/2-x,1/2-y,-z
1/2+x,1/2-y,z
loop_
_atom_site_type_symbol
_atom_site_label
_atom_site_fract_x
_atom_site_fract_y
_atom_site_fract_z
Si Si1 0.788887 0.316719 0.292642
Si Si2 0.758583 0.682264 0.620751
Si Si3 0.252757 0.182041 0.898288
Si Si4 0.986551 0.316934 0.695254
Si Si5 0.863203 0.181094 0.120140
Si Si6 0.356308 0.682682 0.620278
Si Si7 0.553496 0.186279 0.501905
O O1 0.787821 0.500000 0.274196
O O2 0.742742 0.281721 0.309744
O O3 0.755674 0.222543 0.191802
O O4 0.868189 0.253780 0.393361
O O5 0.757196 0.500000 0.637928
O O6 0.691234 0.732235 0.499074
O O7 0.830231 0.723727 0.659392
O O8 0.181254 0.226271 0.860233
O O9 0.270423 0.000000 0.927880
O O10 0.317596 0.282010 0.000663
O O11 0.969845 0.500000 0.680992
O O12 0.937034 0.228171 0.695524
O O13 0.970256 0.249634 0.599930
O O14 0.067333 0.286558 0.804272
O O15 0.885124 0.000000 0.144459
O O16 0.348867 0.500000 0.627780
O O17 0.500000 0.255723 0.500000
O O18 0.550848 0.000000 0.499195
#
# Coordination Sequence:
#
# PCOD8097339 Si02
#       7
#     8   8   8   8   8   8   8
#     4  11  20  33  54  79 110 144 180 221 270 323
#     4  10  20  34  53  77 108 142 181 224 269 320
#     4  10  21  37  56  79 107 142 185 229 271 317
#     4  11  20  33  54  79 110 144 180 221 270 323
#     4  10  21  37  56  79 107 142 185 229 271 317
#     4  10  20  34  53  77 108 142 181 224 269 320
#     4   9  18  30  46  73 108 143 176 211 258 317
#
# _framework density 18.108785999999998
#
# number of rings (size 3 to 8) (size 9 to 14) (size 15 to 20)
#    0.000    1.857    1.429    3.429    0.000    4.000 
#    0.000    0.000    0.000    4.286    0.000    6.000 
#    0.000    0.000    0.000    0.000    0.000    0.000 
#
# Total GULP energy -347361.257796 kJ/mol
# GULP energy per Si atom -12405.759207 kJ/mol
# Density = 1.806757 g / cm^3
# Si number density = 18.108786 Si / 1000 Ang^3
#
#
#
# Elastic Constant Matrix: (Units=GPa)
#
#
# Indices 1 2 3 4 5 6 
#
# 1 112.5010 13.9162 44.2835 0.0000 -2.9700 0.0000
# 2 13.9162 42.2356 10.2866 0.0000 0.2549 0.0000
# 3 44.2835 10.2866 78.7156 0.0000 -4.8641 0.0000
# 4 0.0000 0.0000 0.0000 26.5473 0.0000 -0.0655
# 5 -2.9700 0.2549 -4.8641 0.0000 23.6322 0.0000
# 6 0.0000 0.0000 0.0000 -0.0655 0.0000 28.3504
#
#
#
# Elastic Compliance Matrix: (Units=1/GPa)
#
#
# Indices 1 2 3 4 5 6 
#
# 1 0.011633 -0.002317 -0.006229 0.000000 0.000205 0.000000
# 2 -0.002317 0.024937 -0.002016 0.000000 -0.000975 0.000000
# 3 -0.006229 -0.002016 0.016636 0.000000 0.002663 0.000000
# 4 0.000000 0.000000 0.000000 0.037669 0.000000 0.000087
# 5 0.000205 -0.000975 0.002663 0.000000 0.042899 0.000000
# 6 0.000000 0.000000 0.000000 0.000087 0.000000 0.035273
#
#
# Mechanical properties :
#
#
# Convention : Reuss Voigt Hill
#
# Bulk Modulus (GPa) = 31.16920 41.15833 36.16376
# Shear Modulus (GPa) = 24.89245 26.70371 25.79808
#
# Velocity S-wave (km/s) = 3.71159 3.84425 3.77850
# Velocity P-wave (km/s) = 5.96803 6.51783 6.24898
#
# Compressibility (1/GPa) = 0.03208296
#
# Stress axis : x y z
#
# Youngs Moduli (GPa) = 85.96482 40.10117 60.11025
#
# Poissons Ratio (x) = 0.09292 0.37442
# Poissons Ratio (y) = 0.19918 0.12115
# Poissons Ratio (z) = 0.53546 0.08082
#
# Static dielectric constant tensor:
#      x y z
#    x 3.347170 0.000000 -0.015730 
#    y 0.000000 3.190320 0.000000 
#    z -0.015730 0.000000 3.136780 
# 
# 
# High freq. dielectric constant tensor:
#      x y z
#    x 1.702690 0.000000 -0.000900 
#    y 0.000000 1.701820 0.000000 
#    z -0.000900 0.000000 1.680280 
# 
# From -- ./inp_files/125192.got.cif
#   From: 2010.06.25/outbox.cif.g09.slc.cpg/sg12_63_cif.got.tgz:125192.got - 2010.06.28 00:19:55.
