data_PCOD8097007
_publ_section_title
;
Structure prediction by ZEFSAII (Michael W. Deem and Ramdas Pophale) SiO2 
 PCOD8097007
Probable space group: C 2/M
;
_chemical_formula_sum "Si O2"
_cell_formula_units_Z 64
_cell_length_a 28.512246
_cell_length_b 9.014894
_cell_length_c 14.481743
_cell_angle_alpha 90.000000
_cell_angle_beta 71.670344
_cell_angle_gamma 90.000000
_cell_volume 3533.453378
_symmetry_space_group_name_H-M "C 2/M"
_symmetry_group_IT_number 12
_symmetry_cell_setting 'monoclinic'
loop_
_space_group_symop_operation_xyz
x,y,z
-x,y,-z
-x,-y,-z
x,-y,z
1/2+x,1/2+y,z
1/2-x,1/2+y,-z
1/2-x,1/2-y,-z
1/2+x,1/2-y,z
loop_
_atom_site_type_symbol
_atom_site_label
_atom_site_fract_x
_atom_site_fract_y
_atom_site_fract_z
Si Si1 0.149225 0.169880 0.438924
Si Si2 0.107898 0.329764 0.302443
Si Si3 0.087604 0.169468 0.654800
Si Si4 0.309288 0.674510 0.867385
Si Si5 0.498079 0.831047 0.397138
Si Si6 0.707606 0.326575 0.912729
Si Si7 0.657959 0.674705 0.762807
Si Si8 0.746729 0.176089 0.403946
O O1 0.108243 0.246469 0.400618
O O2 0.133231 0.182080 0.555121
O O3 0.198208 0.261659 0.384497
O O4 0.157154 0.000000 0.404647
O O5 0.124955 0.500000 0.301246
O O6 0.142811 0.248664 0.207337
O O7 0.050278 0.319358 0.310831
O O8 0.109050 0.236386 0.739235
O O9 0.040384 0.255067 0.647646
O O10 0.070793 0.000000 0.676578
O O11 0.310341 0.500000 0.847557
O O12 0.258153 0.739396 0.859039
O O13 0.312797 0.712080 0.973849
O O14 0.500000 0.760682 0.500000
O O15 0.480702 0.000000 0.419402
O O16 0.720318 0.500000 0.894126
O O17 0.663982 0.280636 0.867077
O O18 0.654705 0.500000 0.752310
O O19 0.707400 0.732648 0.683829
O O20 0.750000 0.250000 0.500000
O O21 0.744114 0.000000 0.415085
#
# Coordination Sequence:
#
# PCOD8097007 Si02
#       8
#     8   8   8   8   8   8   8   8
#     4  11  21  33  49  75 106 136 176 219 261 315
#     4  11  22  36  55  76 104 142 175 218 275 324
#     4  10  20  34  52  74 103 137 173 217 265 312
#     4  10  20  34  55  85 112 136 176 226 266 314
#     4  10  21  37  54  75 102 135 182 225 264 321
#     4   9  18  35  59  81 109 145 177 215 266 319
#     4   9  18  34  52  73 102 140 179 211 257 316
#     4  11  20  31  47  70 105 144 179 212 252 308
#
# _framework density 18.112591999999999
#
# number of rings (size 3 to 8) (size 9 to 14) (size 15 to 20)
#    0.000    1.875    2.500    2.250    0.000    3.250 
#    0.000    1.250    0.000    0.750    0.000    5.250 
#    0.000    0.000    0.000    0.000    0.000    0.000 
#
# Total GULP energy -396640.393214 kJ/mol
# GULP energy per Si atom -12395.012288 kJ/mol
# Density = 1.807137 g / cm^3
# Si number density = 18.112592 Si / 1000 Ang^3
#
#
#
# Elastic Constant Matrix: (Units=GPa)
#
#
# Indices 1 2 3 4 5 6 
#
# 1 120.1688 44.3839 46.3734 0.0000 21.7227 0.0000
# 2 44.3839 80.6166 28.9101 0.0000 3.3841 0.0000
# 3 46.3734 28.9101 80.1958 0.0000 16.0560 0.0000
# 4 0.0000 0.0000 0.0000 22.8097 0.0000 0.9548
# 5 21.7227 3.3841 16.0560 0.0000 33.4866 0.0000
# 6 0.0000 0.0000 0.0000 0.9548 0.0000 30.5184
#
#
#
# Elastic Compliance Matrix: (Units=1/GPa)
#
#
# Indices 1 2 3 4 5 6 
#
# 1 0.013070 -0.005350 -0.004469 0.000000 -0.005795 0.000000
# 2 -0.005350 0.016475 -0.003548 0.000000 0.003506 0.000000
# 3 -0.004469 -0.003548 0.017345 0.000000 -0.005059 0.000000
# 4 0.000000 0.000000 0.000000 0.043898 0.000000 -0.001373
# 5 -0.005795 0.003506 -0.005059 0.000000 0.035693 0.000000
# 6 0.000000 0.000000 0.000000 -0.001373 0.000000 0.032810
#
#
# Mechanical properties :
#
#
# Convention : Reuss Voigt Hill
#
# Bulk Modulus (GPa) = 49.60927 57.81289 53.71108
# Shear Modulus (GPa) = 25.94131 28.11719 27.02925
#
# Velocity S-wave (km/s) = 3.78858 3.94427 3.86721
# Velocity P-wave (km/s) = 6.82544 7.26161 7.04690
#
# Compressibility (1/GPa) = 0.02015752
#
# Stress axis : x y z
#
# Youngs Moduli (GPa) = 76.51359 60.69912 57.65237
#
# Poissons Ratio (x) = 0.32472 0.25764
# Poissons Ratio (y) = 0.40933 0.20453
# Poissons Ratio (z) = 0.34192 0.21533
#
# Static dielectric constant tensor:
#      x y z
#    x 3.527350 0.000000 0.169750 
#    y 0.000000 3.350500 0.000000 
#    z 0.169750 0.000000 3.338400 
# 
# 
# High freq. dielectric constant tensor:
#      x y z
#    x 1.699710 0.000000 0.014720 
#    y 0.000000 1.695350 0.000000 
#    z 0.014720 0.000000 1.686810 
# 
# From -- ./inp_files/243935.got.cif
#   From: 2010.06.25/outbox.cif.g09.slc.cpg/sg12_122_cif.got.tgz:243935.got - 2010.06.28 00:19:55.
