data_PCOD8097839
_publ_section_title
;
Structure prediction by ZEFSAII (Michael W. Deem and Ramdas Pophale) SiO2 
 PCOD8097839
Probable space group: C 2/M
;
_chemical_formula_sum "Si O2"
_cell_formula_units_Z 40
_cell_length_a 16.216731
_cell_length_b 24.117225
_cell_length_c 5.026141
_cell_angle_alpha 90.000000
_cell_angle_beta 100.712965
_cell_angle_gamma 90.000000
_cell_volume 1931.475266
_symmetry_space_group_name_H-M "C 2/M"
_symmetry_group_IT_number 12
_symmetry_cell_setting 'monoclinic'
loop_
_space_group_symop_operation_xyz
x,y,z
-x,y,-z
-x,-y,-z
x,-y,z
1/2+x,1/2+y,z
1/2-x,1/2+y,-z
1/2-x,1/2-y,-z
1/2+x,1/2-y,z
loop_
_atom_site_type_symbol
_atom_site_label
_atom_site_fract_x
_atom_site_fract_y
_atom_site_fract_z
Si Si1 0.334118 0.062298 0.415348
Si Si2 0.045430 0.935311 0.778804
Si Si3 0.765854 0.093883 0.164695
Si Si4 0.445747 0.840872 0.711847
Si Si5 0.721644 0.784718 0.235722
O O1 0.261193 0.058955 0.593139
O O2 0.405604 0.103204 0.566737
O O3 0.369549 0.000000 0.392596
O O4 0.298989 0.085515 0.116059
O O5 0.143600 0.926137 0.865996
O O6 0.000000 0.906971 0.500000
O O7 0.025748 0.000000 0.763338
O O8 0.000000 0.906637 0.000000
O O9 0.770975 0.157782 0.250505
O O10 0.500000 0.814428 0.500000
O O11 0.377619 0.796947 0.783153
O O12 0.500000 0.858405 0.000000
O O13 0.750000 0.750000 0.500000
O O14 0.750000 0.750000 0.000000
#
# Coordination Sequence:
#
# PCOD8097839 Si02
#       5
#     8   8   8   8   8
#     4  11  22  37  62  92 124 165 202 239 298 373
#     4  10  20  34  54  82 118 156 191 239 303 358
#     4  11  22  39  60  87 121 158 209 256 296 365
#     4  11  23  41  63  92 127 159 201 256 310 364
#     4  11  23  43  66  86 114 159 207 252 305 359
#
# _framework density 20.709558999999999
#
# number of rings (size 3 to 8) (size 9 to 14) (size 15 to 20)
#    0.000    1.200    0.000    9.000    0.000    2.400 
#    0.000    6.000    0.000    0.000    0.000    0.000 
#    0.000    0.000    0.000    0.000    0.000    0.000 
#
# Total GULP energy -247932.653310 kJ/mol
# GULP energy per Si atom -12396.632665 kJ/mol
# Density = 2.066242 g / cm^3
# Si number density = 20.709559 Si / 1000 Ang^3
#
#
#
# Elastic Constant Matrix: (Units=GPa)
#
#
# Indices 1 2 3 4 5 6 
#
# 1 110.6568 22.3837 37.3407 0.0000 -16.2026 0.0000
# 2 22.3837 99.5206 55.6932 0.0000 -0.1122 0.0000
# 3 37.3407 55.6932 169.8346 0.0000 -4.5547 0.0000
# 4 0.0000 0.0000 0.0000 13.8034 0.0000 0.6462
# 5 -16.2026 -0.1122 -4.5547 0.0000 45.3249 0.0000
# 6 0.0000 0.0000 0.0000 0.6462 0.0000 22.9461
#
#
#
# Elastic Compliance Matrix: (Units=1/GPa)
#
#
# Indices 1 2 3 4 5 6 
#
# 1 0.010422 -0.001361 -0.001750 0.000000 0.003546 0.000000
# 2 -0.001361 0.012491 -0.003819 0.000000 -0.000839 0.000000
# 3 -0.001750 -0.003819 0.007529 0.000000 0.000121 0.000000
# 4 0.000000 0.000000 0.000000 0.072542 0.000000 -0.002043
# 5 0.003546 -0.000839 0.000121 0.000000 0.023341 0.000000
# 6 0.000000 0.000000 0.000000 -0.002043 0.000000 0.043638
#
#
# Mechanical properties :
#
#
# Convention : Reuss Voigt Hill
#
# Bulk Modulus (GPa) = 60.31016 67.87190 64.09103
# Shear Modulus (GPa) = 26.40628 34.05450 30.23039
#
# Velocity S-wave (km/s) = 3.57470 4.05950 3.82479
# Velocity P-wave (km/s) = 6.79875 7.40386 7.10775
#
# Compressibility (1/GPa) = 0.01658096
#
# Stress axis : x y z
#
# Youngs Moduli (GPa) = 95.95053 80.06003 132.82694
#
# Poissons Ratio (x) = 0.10894 0.23246
# Poissons Ratio (y) = 0.13056 0.50731
# Poissons Ratio (z) = 0.16793 0.30578
#
# Static dielectric constant tensor:
#      x y z
#    x 4.104730 0.000000 -0.219750 
#    y 0.000000 3.682000 0.000000 
#    z -0.219750 0.000000 4.115830 
# 
# 
# High freq. dielectric constant tensor:
#      x y z
#    x 1.817420 0.000000 -0.015270 
#    y 0.000000 1.791560 0.000000 
#    z -0.015270 0.000000 1.834750 
# 
# From -- ./inp_files/11697.got.cif
#   From: 2010.06.25/outbox.cif.g09.slc.cpg/sg12_6_cif.got.tgz:11697.got - 2010.06.28 00:19:55.
