data_PCOD8097501
_publ_section_title
;
Structure prediction by ZEFSAII (Michael W. Deem and Ramdas Pophale) SiO2 
 PCOD8097501
Probable space group: C 2/M
;
_chemical_formula_sum "Si O2"
_cell_formula_units_Z 48
_cell_length_a 27.539101
_cell_length_b 8.900603
_cell_length_c 11.748070
_cell_angle_alpha 90.000000
_cell_angle_beta 123.134544
_cell_angle_gamma 90.000000
_cell_volume 2411.365984
_symmetry_space_group_name_H-M "C 2/M"
_symmetry_group_IT_number 12
_symmetry_cell_setting 'monoclinic'
loop_
_space_group_symop_operation_xyz
x,y,z
-x,y,-z
-x,-y,-z
x,-y,z
1/2+x,1/2+y,z
1/2-x,1/2+y,-z
1/2-x,1/2-y,-z
1/2+x,1/2-y,z
loop_
_atom_site_type_symbol
_atom_site_label
_atom_site_fract_x
_atom_site_fract_y
_atom_site_fract_z
Si Si1 0.401626 0.171729 0.117719
Si Si2 0.773598 0.674871 0.313085
Si Si3 0.876341 0.674985 0.602051
Si Si4 0.304262 0.323820 0.129511
Si Si5 0.483643 0.175005 0.602611
Si Si6 0.349819 0.174966 0.813673
O O1 0.361928 0.286904 0.134716
O O2 0.466969 0.203116 0.239978
O O3 0.383373 0.000000 0.122749
O O4 0.394950 0.202442 0.974228
O O5 0.769146 0.500000 0.277856
O O6 0.811002 0.704613 0.474544
O O7 0.810141 0.757009 0.262408
O O8 0.709491 0.738630 0.239701
O O9 0.891034 0.500000 0.623985
O O10 0.879015 0.737536 0.734890
O O11 0.925275 0.749218 0.582261
O O12 0.294433 0.500000 0.122923
O O13 0.250000 0.250000 0.000000
O O14 0.500000 0.248125 0.500000
O O15 0.472756 0.000000 0.566358
O O16 0.333916 0.000000 0.780578
#
# Coordination Sequence:
#
# PCOD8097501 Si02
#       6
#     8   8   8   8   8   8
#     4  10  20  34  56  84 113 147 186 231 283 331
#     4  11  21  35  57  82 112 150 190 232 281 333
#     4   9  19  34  54  82 113 149 193 235 276 327
#     4  12  23  36  56  82 113 145 182 228 279 333
#     4   9  17  32  55  81 110 146 190 237 278 325
#     4  10  20  34  53  81 116 148 187 237 282 332
#
# _framework density 19.905732
#
# number of rings (size 3 to 8) (size 9 to 14) (size 15 to 20)
#    0.000    1.833    1.667    3.500    0.000    3.333 
#    0.000    4.167    0.000    6.500    0.000    2.333 
#    0.000    0.000    0.000    0.000    0.000    0.000 
#
# Total GULP energy -297556.912726 kJ/mol
# GULP energy per Si atom -12398.204697 kJ/mol
# Density = 1.986043 g / cm^3
# Si number density = 19.905732 Si / 1000 Ang^3
#
#
#
# Elastic Constant Matrix: (Units=GPa)
#
#
# Indices 1 2 3 4 5 6 
#
# 1 95.2467 22.2647 56.9875 0.0000 -12.5840 0.0000
# 2 22.2647 70.0889 32.3576 0.0000 -3.6081 0.0000
# 3 56.9875 32.3576 137.9339 0.0000 -15.7309 0.0000
# 4 0.0000 0.0000 0.0000 17.5265 0.0000 -1.2352
# 5 -12.5840 -3.6081 -15.7309 0.0000 38.7047 0.0000
# 6 0.0000 0.0000 0.0000 -1.2352 0.0000 20.4119
#
#
#
# Elastic Compliance Matrix: (Units=1/GPa)
#
#
# Indices 1 2 3 4 5 6 
#
# 1 0.014403 -0.002053 -0.005198 0.000000 0.002379 0.000000
# 2 -0.002053 0.016293 -0.003017 0.000000 -0.000375 0.000000
# 3 -0.005198 -0.003017 0.010360 0.000000 0.002240 0.000000
# 4 0.000000 0.000000 0.000000 0.057301 0.000000 0.003468
# 5 0.002379 -0.000375 0.002240 0.000000 0.027485 0.000000
# 6 0.000000 0.000000 0.000000 0.003468 0.000000 0.049201
#
#
# Mechanical properties :
#
#
# Convention : Reuss Voigt Hill
#
# Bulk Modulus (GPa) = 48.72920 58.49878 53.61399
# Shear Modulus (GPa) = 24.70114 28.10592 26.40353
#
# Velocity S-wave (km/s) = 3.52647 3.76167 3.64597
# Velocity P-wave (km/s) = 6.41206 6.95116 6.68704
#
# Compressibility (1/GPa) = 0.02052157
#
# Stress axis : x y z
#
# Youngs Moduli (GPa) = 69.42903 61.37520 96.52167
#
# Poissons Ratio (x) = 0.12602 0.50169
# Poissons Ratio (y) = 0.14256 0.29117
# Poissons Ratio (z) = 0.36087 0.18514
#
# Static dielectric constant tensor:
#      x y z
#    x 4.174450 0.000000 -0.205630 
#    y 0.000000 3.486130 0.000000 
#    z -0.205630 0.000000 3.848280 
# 
# 
# High freq. dielectric constant tensor:
#      x y z
#    x 1.776680 0.000000 -0.008530 
#    y 0.000000 1.733500 0.000000 
#    z -0.008530 0.000000 1.793560 
# 
# From -- ./inp_files/172050.got.cif
#   From: 2010.06.25/outbox.cif.g09.slc.cpg/sg12_87_cif.got.tgz:172050.got - 2010.06.28 00:19:55.
