data_PCOD8097259
_publ_section_title
;
Structure prediction by ZEFSAII (Michael W. Deem and Ramdas Pophale) SiO2 
 PCOD8097259
Probable space group: C 2/M
;
_chemical_formula_sum "Si O2"
_cell_formula_units_Z 64
_cell_length_a 8.508411
_cell_length_b 11.233253
_cell_length_c 32.628384
_cell_angle_alpha 90.000000
_cell_angle_beta 91.850340
_cell_angle_gamma 90.000000
_cell_volume 3116.901338
_symmetry_space_group_name_H-M "C 2/M"
_symmetry_group_IT_number 12
_symmetry_cell_setting 'monoclinic'
loop_
_space_group_symop_operation_xyz
x,y,z
-x,y,-z
-x,-y,-z
x,-y,z
1/2+x,1/2+y,z
1/2-x,1/2+y,-z
1/2-x,1/2-y,-z
1/2+x,1/2-y,z
loop_
_atom_site_type_symbol
_atom_site_label
_atom_site_fract_x
_atom_site_fract_y
_atom_site_fract_z
Si Si1 0.322926 0.365737 0.830379
Si Si2 0.762724 0.138550 0.531572
Si Si3 0.135432 0.365986 0.275030
Si Si4 0.239262 0.135945 0.638049
Si Si5 0.879783 0.693262 0.029487
Si Si6 0.501103 0.769890 0.414631
Si Si7 0.093940 0.214125 0.777527
Si Si8 0.394032 0.368078 0.919992
O O1 0.266884 0.500000 0.837080
O O2 0.172921 0.296067 0.812536
O O3 0.464945 0.365850 0.799005
O O4 0.376247 0.310808 0.874526
O O5 0.750000 0.250000 0.500000
O O6 0.610478 0.146268 0.559209
O O7 0.922854 0.162498 0.558065
O O8 0.769023 0.000000 0.514165
O O9 0.076307 0.500000 0.281127
O O10 0.193968 0.312068 0.318736
O O11 0.275233 0.366920 0.242841
O O12 0.986905 0.291851 0.258528
O O13 0.364995 0.144945 0.602393
O O14 0.087857 0.212008 0.624514
O O15 0.187802 0.000000 0.643664
O O16 0.781692 0.618406 0.061745
O O17 0.983486 0.792740 0.052965
O O18 0.750000 0.750000 0.000000
O O19 0.000000 0.620729 0.000000
O O20 0.466550 0.500000 0.917341
#
# Coordination Sequence:
#
# PCOD8097259 Si02
#       8
#     8   8   8   8   8   8   8   8
#     4  10  20  34  53  76 103 138 175 212 259 311
#     4  11  24  40  60  86 115 148 188 233 281 335
#     4  10  20  34  54  80 108 141 180 219 264 316
#     4  10  20  36  57  80 109 144 181 223 269 320
#     4   9  19  34  52  75 101 129 168 212 256 310
#     4  10  22  38  58  82 112 145 185 227 276 327
#     4  10  20  34  53  77 109 139 173 219 263 307
#     4  10  20  35  54  75 102 136 172 212 259 309
#
# _framework density 20.533211000000001
#
# number of rings (size 3 to 8) (size 9 to 14) (size 15 to 20)
#    0.000    2.000    0.000    3.375    0.000    6.500 
#    0.000    1.875    0.000   22.500    0.000    0.000 
#    0.000    0.000    0.000    0.000    0.000    0.000 
#
# Total GULP energy -396606.905589 kJ/mol
# GULP energy per Si atom -12393.965800 kJ/mol
# Density = 2.048648 g / cm^3
# Si number density = 20.533211 Si / 1000 Ang^3
#
#
#
# Elastic Constant Matrix: (Units=GPa)
#
#
# Indices 1 2 3 4 5 6 
#
# 1 73.0472 15.1995 19.2065 0.0000 15.1978 0.0000
# 2 15.1995 83.4484 30.2741 0.0000 15.5102 0.0000
# 3 19.2065 30.2741 104.7115 0.0000 22.6621 0.0000
# 4 0.0000 0.0000 0.0000 144.1765 0.0000 82.6694
# 5 15.1978 15.5102 22.6621 0.0000 35.7871 0.0000
# 6 0.0000 0.0000 0.0000 82.6694 0.0000 66.4501
#
#
#
# Elastic Compliance Matrix: (Units=1/GPa)
#
#
# Indices 1 2 3 4 5 6 
#
# 1 0.015384 -0.001375 -0.001320 0.000000 -0.005101 0.000000
# 2 -0.001375 0.013993 -0.003021 0.000000 -0.003567 0.000000
# 3 -0.001320 -0.003021 0.011891 0.000000 -0.005660 0.000000
# 4 0.000000 0.000000 0.000000 0.024196 0.000000 -0.030102
# 5 -0.005101 -0.003567 -0.005660 0.000000 0.035239 0.000000
# 6 0.000000 0.000000 0.000000 -0.030102 0.000000 0.052498
#
#
# Mechanical properties :
#
#
# Convention : Reuss Voigt Hill
#
# Bulk Modulus (GPa) = 33.51792 43.39636 38.45714
# Shear Modulus (GPa) = 28.64017 62.38455 45.51236
#
# Velocity S-wave (km/s) = 3.73878 5.51799 4.71311
# Velocity P-wave (km/s) = 5.91584 7.85991 6.95613
#
# Compressibility (1/GPa) = 0.02983479
#
# Stress axis : x y z
#
# Youngs Moduli (GPa) = 65.00100 71.46387 84.09992
#
# Poissons Ratio (x) = 0.09826 0.11103
# Poissons Ratio (y) = 0.08938 0.25410
# Poissons Ratio (z) = 0.08582 0.21592
#
# Static dielectric constant tensor:
#      x y z
#    x 3.874520 0.000000 -0.027880 
#    y 0.000000 3.376120 0.000000 
#    z -0.027880 0.000000 3.989940 
# 
# 
# High freq. dielectric constant tensor:
#      x y z
#    x 1.810140 0.000000 0.002950 
#    y 0.000000 1.781470 0.000000 
#    z 0.002950 0.000000 1.817140 
# 
# From -- ./inp_files/372161.got.cif
#   From: 2010.06.25/outbox.cif.g09.slc.cpg/sg12_187_cif.got.tgz:372161.got - 2010.06.28 00:19:55.
