data_PCOD8097837
_publ_section_title
;
Structure prediction by ZEFSAII (Michael W. Deem and Ramdas Pophale) SiO2 
 PCOD8097837
Probable space group: C 2/M
;
_chemical_formula_sum "Si O2"
_cell_formula_units_Z 64
_cell_length_a 14.136942
_cell_length_b 9.050916
_cell_length_c 25.969665
_cell_angle_alpha 90.000000
_cell_angle_beta 88.237742
_cell_angle_gamma 90.000000
_cell_volume 3321.306099
_symmetry_space_group_name_H-M "C 2/M"
_symmetry_group_IT_number 12
_symmetry_cell_setting 'monoclinic'
loop_
_space_group_symop_operation_xyz
x,y,z
-x,y,-z
-x,-y,-z
x,-y,z
1/2+x,1/2+y,z
1/2-x,1/2+y,-z
1/2-x,1/2-y,-z
1/2+x,1/2-y,z
loop_
_atom_site_type_symbol
_atom_site_label
_atom_site_fract_x
_atom_site_fract_y
_atom_site_fract_z
Si Si1 0.399596 0.170875 0.125603
Si Si2 0.886757 0.671409 0.858150
Si Si3 0.591022 0.673084 0.390435
Si Si4 0.768130 0.325902 0.679679
Si Si5 0.247667 0.828345 0.214298
Si Si6 0.765147 0.828507 0.053399
Si Si7 0.873408 0.170681 0.408169
Si Si8 0.387982 0.832918 0.508485
O O1 0.506343 0.223513 0.133805
O O2 0.339742 0.200044 0.178036
O O3 0.358355 0.264628 0.079198
O O4 0.395945 0.000000 0.109383
O O5 0.882012 0.500000 0.842119
O O6 0.846007 0.767589 0.812091
O O7 0.827309 0.701709 0.910667
O O8 0.612139 0.500000 0.389541
O O9 0.633924 0.749421 0.338936
O O10 0.480433 0.709544 0.391329
O O11 0.640896 0.743619 0.439921
O O12 0.783301 0.500000 0.684571
O O13 0.733756 0.260530 0.734036
O O14 0.689096 0.283429 0.639263
O O15 0.232367 0.000000 0.226703
O O16 0.782019 0.000000 0.043269
O O17 0.750000 0.750000 0.000000
O O18 0.839540 0.260379 0.459165
O O19 0.862918 0.000000 0.422700
O O20 0.500000 0.825493 0.500000
O O21 0.351448 0.000000 0.515285
#
# Coordination Sequence:
#
# PCOD8097837 Si02
#       8
#     8   8   8   8   8   8   8   8
#     4   9  19  37  59  81 107 142 185 226 267 317
#     4   9  19  37  59  81 107 145 186 222 266 318
#     4  10  20  36  56  78 105 136 173 216 262 314
#     4  11  23  38  55  77 106 138 174 216 265 321
#     4  10  21  37  56  79 106 135 173 224 272 315
#     4  10  20  34  54  82 118 153 185 224 268 313
#     4   9  20  37  55  76 104 138 173 213 262 315
#     4   9  17  31  53  79 105 135 171 211 258 315
#
# _framework density 19.269527
#
# number of rings (size 3 to 8) (size 9 to 14) (size 15 to 20)
#    0.000    2.375    0.000    1.875    0.000    6.500 
#    0.000    5.000    0.000    0.000    0.000    0.000 
#    0.000    0.000    0.000    0.000    0.000    0.000 
#
# Total GULP energy -396942.504322 kJ/mol
# GULP energy per Si atom -12404.453260 kJ/mol
# Density = 1.922567 g / cm^3
# Si number density = 19.269527 Si / 1000 Ang^3
#
#
#
# Elastic Constant Matrix: (Units=GPa)
#
#
# Indices 1 2 3 4 5 6 
#
# 1 98.6267 37.9587 41.0209 0.0000 11.7872 0.0000
# 2 37.9587 100.4474 59.9556 0.0000 7.6433 0.0000
# 3 41.0209 59.9556 120.8044 0.0000 11.4608 0.0000
# 4 0.0000 0.0000 0.0000 42.6506 0.0000 1.6543
# 5 11.7872 7.6433 11.4608 0.0000 19.5119 0.0000
# 6 0.0000 0.0000 0.0000 1.6543 0.0000 26.2392
#
#
#
# Elastic Compliance Matrix: (Units=1/GPa)
#
#
# Indices 1 2 3 4 5 6 
#
# 1 0.012932 -0.003075 -0.002370 0.000000 -0.005215 0.000000
# 2 -0.003075 0.014919 -0.006335 0.000000 -0.000265 0.000000
# 3 -0.002370 -0.006335 0.012555 0.000000 -0.003461 0.000000
# 4 0.000000 0.000000 0.000000 0.023504 0.000000 -0.001482
# 5 -0.005215 -0.000265 -0.003461 0.000000 0.056538 0.000000
# 6 0.000000 0.000000 0.000000 -0.001482 0.000000 0.038204
#
#
# Mechanical properties :
#
#
# Convention : Reuss Voigt Hill
#
# Bulk Modulus (GPa) = 59.36403 66.41654 62.89029
# Shear Modulus (GPa) = 26.62006 29.74324 28.18165
#
# Velocity S-wave (km/s) = 3.72083 3.93305 3.82841
# Velocity P-wave (km/s) = 7.02378 7.42746 7.22844
#
# Compressibility (1/GPa) = 0.01684522
#
# Stress axis : x y z
#
# Youngs Moduli (GPa) = 77.32778 67.02846 79.64926
#
# Poissons Ratio (x) = 0.20614 0.18878
# Poissons Ratio (y) = 0.23781 0.50457
# Poissons Ratio (z) = 0.18328 0.42462
#
# Static dielectric constant tensor:
#      x y z
#    x 3.545650 0.000000 -0.011930 
#    y 0.000000 3.579910 0.000000 
#    z -0.011930 0.000000 3.484980 
# 
# 
# High freq. dielectric constant tensor:
#      x y z
#    x 1.751130 0.000000 -0.000960 
#    y 0.000000 1.756760 0.000000 
#    z -0.000960 0.000000 1.748070 
# 
# From -- ./inp_files/338796.got.cif
#   From: 2010.06.25/outbox.cif.g09.slc.cpg/sg12_170_cif.got.tgz:338796.got - 2010.06.28 00:19:55.
