data_PCOD8097373
_publ_section_title
;
Structure prediction by ZEFSAII (Michael W. Deem and Ramdas Pophale) SiO2 
 PCOD8097373
Probable space group: C 2/M
;
_chemical_formula_sum "Si O2"
_cell_formula_units_Z 64
_cell_length_a 19.448154
_cell_length_b 9.237535
_cell_length_c 18.532134
_cell_angle_alpha 90.000000
_cell_angle_beta 92.364043
_cell_angle_gamma 90.000000
_cell_volume 3326.519961
_symmetry_space_group_name_H-M "C 2/M"
_symmetry_group_IT_number 12
_symmetry_cell_setting 'monoclinic'
loop_
_space_group_symop_operation_xyz
x,y,z
-x,y,-z
-x,-y,-z
x,-y,z
1/2+x,1/2+y,z
1/2-x,1/2+y,-z
1/2-x,1/2-y,-z
1/2+x,1/2-y,z
loop_
_atom_site_type_symbol
_atom_site_label
_atom_site_fract_x
_atom_site_fract_y
_atom_site_fract_z
Si Si1 0.596649 0.167153 0.704337
Si Si2 0.497080 0.666175 0.797540
Si Si3 0.748770 0.668857 0.255753
Si Si4 0.965601 0.660687 0.075011
Si Si5 0.716870 0.837275 0.108532
Si Si6 0.153321 0.838559 0.987572
Si Si7 0.387048 0.334820 0.671798
Si Si8 0.511247 0.830800 0.420208
O O1 0.565665 0.267554 0.765010
O O2 0.678012 0.199498 0.702620
O O3 0.557868 0.206276 0.627860
O O4 0.583096 0.000000 0.723618
O O5 0.512149 0.500000 0.815719
O O6 0.482484 0.755292 0.869649
O O7 0.430287 0.687767 0.746299
O O8 0.740620 0.500000 0.234354
O O9 0.741296 0.762408 0.183245
O O10 0.690775 0.712901 0.312217
O O11 0.949364 0.500000 0.103861
O O12 0.895615 0.750146 0.067815
O O13 0.000000 0.651857 0.000000
O O14 0.658973 0.741542 0.065621
O O15 0.689252 0.000000 0.124406
O O16 0.776485 0.849618 0.052645
O O17 0.124479 0.000000 0.001721
O O18 0.389824 0.500000 0.645623
O O19 0.419865 0.239858 0.609765
O O20 0.500000 0.769029 0.500000
O O21 0.526204 0.000000 0.422738
#
# Coordination Sequence:
#
# PCOD8097373 Si02
#       8
#     8   8   8   8   8   8   8   8
#     4   9  18  34  57  81 107 142 180 220 263 316
#     4  10  20  35  54  75 102 137 180 226 271 326
#     4  10  20  34  53  78 107 140 179 221 270 321
#     4  11  24  37  50  72 102 135 177 227 277 326
#     4  10  21  35  53  76 102 135 174 221 274 327
#     4  10  21  37  54  73  99 134 179 225 274 329
#     4   9  20  36  54  80 110 141 178 219 267 322
#     4   9  18  35  59  85 112 145 182 217 259 314
#
# _framework density 19.239325000000001
#
# number of rings (size 3 to 8) (size 9 to 14) (size 15 to 20)
#    0.000    2.250    0.000    2.250    1.750    6.250 
#    0.000    0.625    0.000    0.000    0.000    0.000 
#    0.000    0.000    0.000    0.000    0.000    0.000 
#
# Total GULP energy -396771.178695 kJ/mol
# GULP energy per Si atom -12399.099334 kJ/mol
# Density = 1.919554 g / cm^3
# Si number density = 19.239325 Si / 1000 Ang^3
#
#
#
# Elastic Constant Matrix: (Units=GPa)
#
#
# Indices 1 2 3 4 5 6 
#
# 1 90.6012 34.5013 28.5713 0.0000 -6.8344 0.0000
# 2 34.5013 113.9872 46.0135 0.0000 -0.2095 0.0000
# 3 28.5713 46.0135 101.1408 0.0000 -0.4391 0.0000
# 4 0.0000 0.0000 0.0000 29.3780 0.0000 -1.8048
# 5 -6.8344 -0.2095 -0.4391 0.0000 14.6036 0.0000
# 6 0.0000 0.0000 0.0000 -1.8048 0.0000 22.7950
#
#
#
# Elastic Compliance Matrix: (Units=1/GPa)
#
#
# Indices 1 2 3 4 5 6 
#
# 1 0.013427 -0.003102 -0.002355 0.000000 0.006168 0.000000
# 2 -0.003102 0.011463 -0.004345 0.000000 -0.001418 0.000000
# 3 -0.002355 -0.004345 0.012526 0.000000 -0.000788 0.000000
# 4 0.000000 0.000000 0.000000 0.034205 0.000000 0.002708
# 5 0.006168 -0.001418 -0.000788 0.000000 0.071319 0.000000
# 6 0.000000 0.000000 0.000000 0.002708 0.000000 0.044084
#
#
# Mechanical properties :
#
#
# Convention : Reuss Voigt Hill
#
# Bulk Modulus (GPa) = 56.14257 58.21127 57.17692
# Shear Modulus (GPa) = 23.52227 26.46487 24.99357
#
# Velocity S-wave (km/s) = 3.50038 3.71288 3.60820
# Velocity P-wave (km/s) = 6.75140 6.97873 6.86601
#
# Compressibility (1/GPa) = 0.01781180
#
# Stress axis : x y z
#
# Youngs Moduli (GPa) = 74.47938 87.23603 79.83550
#
# Poissons Ratio (x) = 0.27060 0.18800
# Poissons Ratio (y) = 0.23103 0.34688
# Poissons Ratio (z) = 0.17539 0.37904
#
# Static dielectric constant tensor:
#      x y z
#    x 3.592130 0.000000 0.156510 
#    y 0.000000 3.817850 0.000000 
#    z 0.156510 0.000000 3.471950 
# 
# 
# High freq. dielectric constant tensor:
#      x y z
#    x 1.743950 0.000000 0.002770 
#    y 0.000000 1.756060 0.000000 
#    z 0.002770 0.000000 1.731450 
# 
# From -- ./inp_files/281221.got.cif
#   From: 2010.06.25/outbox.cif.g09.slc.cpg/sg12_141_cif.got.tgz:281221.got - 2010.06.28 00:19:55.
