data_PCOD8097119
_publ_section_title
;
Structure prediction by ZEFSAII (Michael W. Deem and Ramdas Pophale) SiO2 
 PCOD8097119
Probable space group: C 2/M
;
_chemical_formula_sum "Si O2"
_cell_formula_units_Z 56
_cell_length_a 32.226405
_cell_length_b 13.025900
_cell_length_c 9.965738
_cell_angle_alpha 90.000000
_cell_angle_beta 127.474750
_cell_angle_gamma 90.000000
_cell_volume 3320.033864
_symmetry_space_group_name_H-M "C 2/M"
_symmetry_group_IT_number 12
_symmetry_cell_setting 'monoclinic'
loop_
_space_group_symop_operation_xyz
x,y,z
-x,y,-z
-x,-y,-z
x,-y,z
1/2+x,1/2+y,z
1/2-x,1/2+y,-z
1/2-x,1/2-y,-z
1/2+x,1/2-y,z
loop_
_atom_site_type_symbol
_atom_site_label
_atom_site_fract_x
_atom_site_fract_y
_atom_site_fract_z
Si Si1 0.887422 0.881646 0.504471
Si Si2 0.671457 0.316206 0.359305
Si Si3 0.725467 0.884581 0.871772
Si Si4 0.507834 0.381027 0.161883
Si Si5 0.393422 0.380336 0.012125
Si Si6 0.166043 0.199688 0.856488
Si Si7 0.721036 0.882833 0.551285
O O1 0.842407 0.867377 0.526355
O O2 0.942384 0.832419 0.663590
O O3 0.872372 0.823086 0.340731
O O4 0.894013 0.000000 0.479770
O O5 0.681186 0.194091 0.398009
O O6 0.722065 0.373002 0.401624
O O7 0.623435 0.335878 0.164946
O O8 0.686370 0.816049 0.883026
O O9 0.725005 0.850996 0.715077
O O10 0.705758 0.000000 0.850440
O O11 0.784145 0.875773 0.044640
O O12 0.521615 0.500000 0.165613
O O13 0.455784 0.367220 0.148345
O O14 0.500000 0.329321 0.000000
O O15 0.377200 0.500000 0.994187
O O16 0.366157 0.311637 0.070589
O O17 0.701202 0.000000 0.495412
#
# Coordination Sequence:
#
# PCOD8097119 Si02
#       7
#     8   8   8   8   8   8   8
#     4  11  20  32  50  78 108 132 171 215 250 304
#     4  11  20  32  53  78 100 138 176 205 252 306
#     4  10  20  36  53  73 105 140 173 213 255 302
#     4   9  18  31  50  76 103 134 170 207 255 308
#     4  11  20  34  54  75 108 143 166 204 261 312
#     4  11  22  34  51  78 103 140 175 204 256 308
#     4  10  20  34  52  77 105 136 175 215 251 300
#
# _framework density 16.867297000000001
#
# number of rings (size 3 to 8) (size 9 to 14) (size 15 to 20)
#    0.000    1.571    4.286    2.571    0.000    0.571 
#    0.000    4.286    0.000    0.000    0.000    6.000 
#    0.000    0.000    0.000    0.000    0.000    0.000 
#
# Total GULP energy -347239.136449 kJ/mol
# GULP energy per Si atom -12401.397730 kJ/mol
# Density = 1.682891 g / cm^3
# Si number density = 16.867297 Si / 1000 Ang^3
#
#
#
# Elastic Constant Matrix: (Units=GPa)
#
#
# Indices 1 2 3 4 5 6 
#
# 1 58.7049 34.2146 17.8356 0.0000 4.3902 0.0000
# 2 34.2146 71.3993 28.7038 0.0000 -0.2929 0.0000
# 3 17.8356 28.7038 80.2571 0.0000 3.1963 0.0000
# 4 0.0000 0.0000 0.0000 22.4541 0.0000 -5.1243
# 5 4.3902 -0.2929 3.1963 0.0000 24.5866 0.0000
# 6 0.0000 0.0000 0.0000 -5.1243 0.0000 21.8901
#
#
#
# Elastic Compliance Matrix: (Units=1/GPa)
#
#
# Indices 1 2 3 4 5 6 
#
# 1 0.024214 -0.011126 -0.001231 0.000000 -0.004296 0.000000
# 2 -0.011126 0.021493 -0.005331 0.000000 0.002936 0.000000
# 3 -0.001231 -0.005331 0.014710 0.000000 -0.001756 0.000000
# 4 0.000000 0.000000 0.000000 0.047049 0.000000 0.011014
# 5 -0.004296 0.002936 -0.001756 0.000000 0.041703 0.000000
# 6 0.000000 0.000000 0.000000 0.011014 0.000000 0.048261
#
#
# Mechanical properties :
#
#
# Convention : Reuss Voigt Hill
#
# Bulk Modulus (GPa) = 39.93506 41.31879 40.62693
# Shear Modulus (GPa) = 20.73370 22.42663 21.58017
#
# Velocity S-wave (km/s) = 3.50983 3.65031 3.58076
# Velocity P-wave (km/s) = 6.33661 6.50507 6.42140
#
# Compressibility (1/GPa) = 0.02504065
#
# Stress axis : x y z
#
# Youngs Moduli (GPa) = 41.29795 46.52733 67.98066
#
# Poissons Ratio (x) = 0.51768 0.08367
# Poissons Ratio (y) = 0.45949 0.36241
# Poissons Ratio (z) = 0.05083 0.24804
#
# Static dielectric constant tensor:
#      x y z
#    x 3.119350 0.000000 -0.007360 
#    y 0.000000 2.965440 0.000000 
#    z -0.007360 0.000000 3.312770 
# 
# 
# High freq. dielectric constant tensor:
#      x y z
#    x 1.649180 0.000000 -0.006400 
#    y 0.000000 1.620380 0.000000 
#    z -0.006400 0.000000 1.655230 
# 
# From -- ./inp_files/104419.got.cif
#   From: 2010.06.25/outbox.cif.g09.slc.cpg/sg12_53_cif.got.tgz:104419.got - 2010.06.28 00:19:55.
