data_PCOD8097288
_publ_section_title
;
Structure prediction by ZEFSAII (Michael W. Deem and Ramdas Pophale) SiO2 
 PCOD8097288
Probable space group: C 2/M
;
_chemical_formula_sum "Si O2"
_cell_formula_units_Z 56
_cell_length_a 8.530765
_cell_length_b 11.110356
_cell_length_c 31.853261
_cell_angle_alpha 90.000000
_cell_angle_beta 66.309960
_cell_angle_gamma 90.000000
_cell_volume 2764.639181
_symmetry_space_group_name_H-M "C 2/M"
_symmetry_group_IT_number 12
_symmetry_cell_setting 'monoclinic'
loop_
_space_group_symop_operation_xyz
x,y,z
-x,y,-z
-x,-y,-z
x,-y,z
1/2+x,1/2+y,z
1/2-x,1/2+y,-z
1/2-x,1/2-y,-z
1/2+x,1/2-y,z
loop_
_atom_site_type_symbol
_atom_site_label
_atom_site_fract_x
_atom_site_fract_y
_atom_site_fract_z
Si Si1 0.573702 0.693138 0.032715
Si Si2 0.131854 0.638467 0.590806
Si Si3 0.731626 0.866827 0.910807
Si Si4 0.361683 0.134539 0.551266
Si Si5 0.286004 0.709858 0.249850
Si Si6 0.345917 0.634557 0.809359
Si Si7 0.080749 0.632932 0.692130
O O1 0.432019 0.793247 0.057279
O O2 0.616049 0.621622 0.070669
O O3 0.500000 0.617718 0.000000
O O4 0.750000 0.750000 0.000000
O O5 0.209029 0.500000 0.578122
O O6 0.242271 0.747642 0.558840
O O7 0.099965 0.674691 0.642221
O O8 0.950603 0.641110 0.587014
O O9 0.813926 0.811261 0.859425
O O10 0.662638 0.000000 0.909571
O O11 0.500000 0.144004 0.500000
O O12 0.271115 0.000000 0.557404
O O13 0.453706 0.631299 0.223741
O O14 0.266664 0.795018 0.211935
O O15 0.306077 0.782761 0.290815
O O16 0.117975 0.629165 0.272843
O O17 0.276508 0.500000 0.815216
O O18 0.155720 0.500000 0.689610
#
# Coordination Sequence:
#
# PCOD8097288 Si02
#       7
#     8   8   8   8   8   8   8
#     4   9  19  34  52  75 101 130 168 207 248 303
#     4  10  21  36  55  80 109 142 182 225 271 324
#     4  10  20  35  54  75 103 135 166 208 256 299
#     4  10  21  37  56  80 110 143 181 225 273 325
#     4  10  20  34  54  76 104 137 170 212 258 304
#     4  10  20  34  53  77 102 133 172 208 251 306
#     4  10  20  35  53  76 106 138 174 216 262 311
#
# _framework density 20.255806
#
# number of rings (size 3 to 8) (size 9 to 14) (size 15 to 20)
#    0.000    2.143    0.000    3.000    0.000    3.714 
#    0.000    5.714    0.000   12.000    0.000    0.000 
#    0.000    0.000    0.000    0.000    0.000    0.000 
#
# Total GULP energy -346871.520698 kJ/mol
# GULP energy per Si atom -12388.268596 kJ/mol
# Density = 2.020970 g / cm^3
# Si number density = 20.255806 Si / 1000 Ang^3
#
#
#
# Elastic Constant Matrix: (Units=GPa)
#
#
# Indices 1 2 3 4 5 6 
#
# 1 60.3194 15.9777 12.3921 0.0000 11.2043 0.0000
# 2 15.9777 93.1110 15.7784 0.0000 -5.8882 0.0000
# 3 12.3921 15.7784 86.8694 0.0000 18.3050 0.0000
# 4 0.0000 0.0000 0.0000 25.8616 0.0000 4.2075
# 5 11.2043 -5.8882 18.3050 0.0000 37.3149 0.0000
# 6 0.0000 0.0000 0.0000 4.2075 0.0000 20.5430
#
#
#
# Elastic Compliance Matrix: (Units=1/GPa)
#
#
# Indices 1 2 3 4 5 6 
#
# 1 0.018729 -0.003437 -0.000835 0.000000 -0.005757 0.000000
# 2 -0.003437 0.012032 -0.002579 0.000000 0.004196 0.000000
# 3 -0.000835 -0.002579 0.013531 0.000000 -0.006794 0.000000
# 4 0.000000 0.000000 0.000000 0.040000 0.000000 -0.008193
# 5 -0.005757 0.004196 -0.006794 0.000000 0.032522 0.000000
# 6 0.000000 0.000000 0.000000 -0.008193 0.000000 0.050356
#
#
# Mechanical properties :
#
#
# Convention : Reuss Voigt Hill
#
# Bulk Modulus (GPa) = 32.68907 36.51068 34.59988
# Shear Modulus (GPa) = 26.16855 29.82067 27.99461
#
# Velocity S-wave (km/s) = 3.59821 3.84109 3.72163
# Velocity P-wave (km/s) = 5.78238 6.14296 5.96539
#
# Compressibility (1/GPa) = 0.03059126
#
# Stress axis : x y z
#
# Youngs Moduli (GPa) = 53.39180 83.11163 73.90611
#
# Poissons Ratio (x) = 0.28562 0.06168
# Poissons Ratio (y) = 0.18349 0.19063
# Poissons Ratio (z) = 0.04456 0.21437
#
# Static dielectric constant tensor:
#      x y z
#    x 3.770740 0.000000 0.371680 
#    y 0.000000 3.588900 0.000000 
#    z 0.371680 0.000000 3.915740 
# 
# 
# High freq. dielectric constant tensor:
#      x y z
#    x 1.784420 0.000000 0.020100 
#    y 0.000000 1.782640 0.000000 
#    z 0.020100 0.000000 1.806540 
# 
# From -- ./inp_files/355773.got.cif
#   From: 2010.06.25/outbox.cif.g09.slc.cpg/sg12_178_cif.got.tgz:355773.got - 2010.06.28 00:19:55.
