data_PCOD8097268
_publ_section_title
;
Structure prediction by ZEFSAII (Michael W. Deem and Ramdas Pophale) SiO2 
 PCOD8097268
Probable space group: C 2/M
;
_chemical_formula_sum "Si O2"
_cell_formula_units_Z 48
_cell_length_a 31.022909
_cell_length_b 8.980534
_cell_length_c 17.877625
_cell_angle_alpha 90.000000
_cell_angle_beta 149.989103
_cell_angle_gamma 90.000000
_cell_volume 2491.193948
_symmetry_space_group_name_H-M "C 2/M"
_symmetry_group_IT_number 12
_symmetry_cell_setting 'monoclinic'
loop_
_space_group_symop_operation_xyz
x,y,z
-x,y,-z
-x,-y,-z
x,-y,z
1/2+x,1/2+y,z
1/2-x,1/2+y,-z
1/2-x,1/2-y,-z
1/2+x,1/2-y,z
loop_
_atom_site_type_symbol
_atom_site_label
_atom_site_fract_x
_atom_site_fract_y
_atom_site_fract_z
Si Si1 0.667283 0.676699 0.586665
Si Si2 0.667514 0.824020 0.912434
Si Si3 0.995727 0.825245 0.079684
Si Si4 0.328971 0.675930 0.577335
Si Si5 0.006680 0.828390 0.598161
Si Si6 0.162537 0.676362 0.076208
O O1 0.668290 0.500000 0.590669
O O2 0.668623 0.735425 0.503865
O O3 0.580944 0.734316 0.497046
O O4 0.750205 0.739671 0.755091
O O5 0.583376 0.773157 0.742242
O O6 0.677780 0.000000 0.922220
O O7 0.750000 0.750000 0.000000
O O8 0.660356 0.770963 0.987309
O O9 0.083572 0.773882 0.251020
O O10 0.980271 0.000000 0.065393
O O11 0.917990 0.741899 0.001673
O O12 0.000000 0.776912 0.000000
O O13 0.316773 0.500000 0.562167
O O14 0.250000 0.750000 0.500000
O O15 0.000000 0.811487 0.500000
O O16 0.023714 0.000000 0.646510
O O17 0.158439 0.500000 0.076657
#
# Coordination Sequence:
#
# PCOD8097268 Si02
#       6
#     8   8   8   8   8   8
#     4   9  18  34  55  78 105 139 179 221 268 324
#     4  11  23  38  57  83 114 147 187 234 283 336
#     4  10  21  36  54  80 113 145 179 225 281 334
#     4  10  20  34  53  76 104 139 178 219 265 320
#     4  10  20  37  61  84 110 146 183 223 277 338
#     4  10  21  37  57  81 108 142 186 230 271 325
#
# _framework density 19.267869999999998
#
# number of rings (size 3 to 8) (size 9 to 14) (size 15 to 20)
#    0.000    2.000    0.000    3.500    0.000    6.667 
#    0.000    1.667    0.000    0.000    0.000    0.000 
#    0.000    0.000    0.000    0.000    0.000    0.000 
#
# Total GULP energy -297694.960323 kJ/mol
# GULP energy per Si atom -12403.956680 kJ/mol
# Density = 1.922402 g / cm^3
# Si number density = 19.267870 Si / 1000 Ang^3
#
#
#
# Elastic Constant Matrix: (Units=GPa)
#
#
# Indices 1 2 3 4 5 6 
#
# 1 172.8286 39.9034 79.0490 0.0000 12.4039 0.0000
# 2 39.9034 33.9841 35.4022 0.0000 1.6979 0.0000
# 3 79.0490 35.4022 161.4735 0.0000 8.2314 0.0000
# 4 0.0000 0.0000 0.0000 21.9724 0.0000 10.5953
# 5 12.4039 1.6979 8.2314 0.0000 43.6102 0.0000
# 6 0.0000 0.0000 0.0000 10.5953 0.0000 30.4074
#
#
#
# Elastic Compliance Matrix: (Units=1/GPa)
#
#
# Indices 1 2 3 4 5 6 
#
# 1 0.008846 -0.007622 -0.002571 0.000000 -0.001734 0.000000
# 2 -0.007622 0.044703 -0.006150 0.000000 0.001588 0.000000
# 3 -0.002571 -0.006150 0.008836 0.000000 -0.000697 0.000000
# 4 0.000000 0.000000 0.000000 0.054703 0.000000 -0.019061
# 5 -0.001734 0.001588 -0.000697 0.000000 0.023493 0.000000
# 6 0.000000 0.000000 0.000000 -0.019061 0.000000 0.039528
#
#
# Mechanical properties :
#
#
# Convention : Reuss Voigt Hill
#
# Bulk Modulus (GPa) = 33.67288 75.22172 54.44730
# Shear Modulus (GPa) = 22.45205 33.46009 27.95607
#
# Velocity S-wave (km/s) = 3.41729 4.17174 3.81322
# Velocity P-wave (km/s) = 5.75192 7.89489 6.90702
#
# Compressibility (1/GPa) = 0.02969749
#
# Stress axis : x y z
#
# Youngs Moduli (GPa) = 113.04040 22.36985 113.17728
#
# Poissons Ratio (x) = 0.17050 0.29101
# Poissons Ratio (y) = 0.86160 0.69610
# Poissons Ratio (z) = 0.29065 0.13759
#
# Static dielectric constant tensor:
#      x y z
#    x 3.731690 0.000000 -0.047940 
#    y 0.000000 3.266050 0.000000 
#    z -0.047940 0.000000 3.410040 
# 
# 
# High freq. dielectric constant tensor:
#      x y z
#    x 1.770760 0.000000 -0.000810 
#    y 0.000000 1.723320 0.000000 
#    z -0.000810 0.000000 1.770060 
# 
# From -- ./inp_files/274114.got.cif
#   From: 2010.06.25/outbox.cif.g09.slc.cpg/sg12_138_cif.got.tgz:274114.got - 2010.06.28 00:19:55.
