data_PCOD8097167
_publ_section_title
;
Structure prediction by ZEFSAII (Michael W. Deem and Ramdas Pophale) SiO2 
 PCOD8097167
Probable space group: C 2/M
;
_chemical_formula_sum "Si O2"
_cell_formula_units_Z 64
_cell_length_a 24.593480
_cell_length_b 9.020758
_cell_length_c 28.737614
_cell_angle_alpha 90.000000
_cell_angle_beta 149.884265
_cell_angle_gamma 90.000000
_cell_volume 3198.892503
_symmetry_space_group_name_H-M "C 2/M"
_symmetry_group_IT_number 12
_symmetry_cell_setting 'monoclinic'
loop_
_space_group_symop_operation_xyz
x,y,z
-x,y,-z
-x,-y,-z
x,-y,z
1/2+x,1/2+y,z
1/2-x,1/2+y,-z
1/2-x,1/2-y,-z
1/2+x,1/2-y,z
loop_
_atom_site_type_symbol
_atom_site_label
_atom_site_fract_x
_atom_site_fract_y
_atom_site_fract_z
Si Si1 0.640550 0.826661 0.229995
Si Si2 0.526626 0.831897 0.468341
Si Si3 0.522799 0.669908 0.712765
Si Si4 0.459449 0.826035 0.020596
Si Si5 0.255635 0.825673 0.145931
Si Si6 0.287928 0.166932 0.272887
Si Si7 0.364179 0.670328 0.675063
Si Si8 0.342115 0.325736 0.506362
O O1 0.545753 0.783742 0.124010
O O2 0.751717 0.772706 0.288177
O O3 0.621586 0.749283 0.265103
O O4 0.648226 0.000000 0.245039
O O5 0.500000 0.777384 0.500000
O O6 0.415749 0.822371 0.357421
O O7 0.614320 0.719810 0.512371
O O8 0.573339 0.000000 0.502985
O O9 0.548708 0.500000 0.718825
O O10 0.632854 0.761920 0.791656
O O11 0.477797 0.684062 0.731893
O O12 0.429337 0.730667 0.608756
O O13 0.437221 0.000000 0.002045
O O14 0.500000 0.768957 0.000000
O O15 0.348966 0.746586 0.955747
O O16 0.236806 0.784932 0.186141
O O17 0.257826 0.000000 0.138709
O O18 0.254791 0.000000 0.262319
O O19 0.332325 0.500000 0.659540
O O20 0.272963 0.743568 0.574013
O O21 0.322308 0.500000 0.495150
#
# Coordination Sequence:
#
# PCOD8097167 Si02
#       8
#     8   8   8   8   8   8   8   8
#     4  11  23  39  62  90 120 156 199 247 299 356
#     4  10  20  34  52  78 117 161 197 234 290 352
#     4  10  23  42  63  87 119 161 203 247 297 351
#     4  10  21  39  62  89 122 159 195 240 300 360
#     4  11  22  36  61  93 121 153 196 246 294 348
#     4  10  20  34  54  85 122 157 192 237 296 352
#     4  11  24  42  62  85 119 161 201 246 302 354
#     4  11  22  37  60  89 117 152 203 250 292 347
#
# _framework density 20.006923
#
# number of rings (size 3 to 8) (size 9 to 14) (size 15 to 20)
#    0.000    1.500    2.500    2.625    0.000    5.000 
#    0.000    0.625    0.000    0.000    0.000    0.000 
#    0.000    0.000    0.000    0.000    0.000    0.000 
#
# Total GULP energy -396841.440560 kJ/mol
# GULP energy per Si atom -12401.295017 kJ/mol
# Density = 1.996139 g / cm^3
# Si number density = 20.006923 Si / 1000 Ang^3
#
#
#
# Elastic Constant Matrix: (Units=GPa)
#
#
# Indices 1 2 3 4 5 6 
#
# 1 83.4777 42.0334 31.4217 -0.0001 11.1101 -0.0001
# 2 42.0334 77.6676 28.2865 -0.0002 8.2721 0.0001
# 3 31.4217 28.2865 67.6956 0.0002 12.2436 0.0001
# 4 -0.0001 -0.0002 0.0002 31.5488 0.0001 3.7017
# 5 11.1101 8.2721 12.2436 0.0001 27.2322 0.0001
# 6 -0.0001 0.0001 0.0001 3.7017 0.0001 31.4900
#
#
#
# Elastic Compliance Matrix: (Units=1/GPa)
#
#
# Indices 1 2 3 4 5 6 
#
# 1 0.018002 -0.007762 -0.004583 0.000000 -0.002926 0.000000
# 2 -0.007762 0.018625 -0.004059 0.000000 -0.000666 0.000000
# 3 -0.004583 -0.004059 0.019631 0.000000 -0.005723 0.000000
# 4 0.000000 0.000000 0.000000 0.032140 0.000000 -0.003778
# 5 -0.002926 -0.000666 -0.005723 0.000000 0.040690 0.000000
# 6 0.000000 0.000000 0.000000 -0.003778 0.000000 0.032200
#
#
# Mechanical properties :
#
#
# Convention : Reuss Voigt Hill
#
# Bulk Modulus (GPa) = 42.64574 48.03602 45.34088
# Shear Modulus (GPa) = 24.76292 26.52750 25.64521
#
# Velocity S-wave (km/s) = 3.52194 3.64526 3.58413
# Velocity P-wave (km/s) = 6.15634 6.46367 6.31188
#
# Compressibility (1/GPa) = 0.02344900
#
# Stress axis : x y z
#
# Youngs Moduli (GPa) = 55.54875 53.69013 50.94037
#
# Poissons Ratio (x) = 0.41673 0.23348
# Poissons Ratio (y) = 0.43116 0.20679
# Poissons Ratio (z) = 0.25461 0.21795
#
# Static dielectric constant tensor:
#      x y z
#    x 3.497410 0.000000 0.006040 
#    y 0.000000 3.552560 0.000000 
#    z 0.006040 0.000000 3.704150 
# 
# 
# High freq. dielectric constant tensor:
#      x y z
#    x 1.775680 0.000000 0.004380 
#    y 0.000000 1.779050 0.000000 
#    z 0.004380 0.000000 1.781520 
# 
# From -- ./inp_files/382307.got.cif
#   From: 2010.06.25/outbox.cif.g09.slc.cpg/sg12_192_cif.got.tgz:382307.got - 2010.06.28 00:19:55.
