data_PCOD8097241
_publ_section_title
;
Structure prediction by ZEFSAII (Michael W. Deem and Ramdas Pophale) SiO2 
 PCOD8097241
Probable space group: C 2/M
;
_chemical_formula_sum "Si O2"
_cell_formula_units_Z 48
_cell_length_a 18.322062
_cell_length_b 8.955040
_cell_length_c 18.799570
_cell_angle_alpha 90.000000
_cell_angle_beta 119.432249
_cell_angle_gamma 90.000000
_cell_volume 2686.437360
_symmetry_space_group_name_H-M "C 2/M"
_symmetry_group_IT_number 12
_symmetry_cell_setting 'monoclinic'
loop_
_space_group_symop_operation_xyz
x,y,z
-x,y,-z
-x,-y,-z
x,-y,z
1/2+x,1/2+y,z
1/2-x,1/2+y,-z
1/2-x,1/2-y,-z
1/2+x,1/2-y,z
loop_
_atom_site_type_symbol
_atom_site_label
_atom_site_fract_x
_atom_site_fract_y
_atom_site_fract_z
Si Si1 0.987090 0.664758 0.077466
Si Si2 0.829428 0.676104 0.837456
Si Si3 0.669949 0.672013 0.429644
Si Si4 0.248295 0.328495 0.671757
Si Si5 0.179211 0.822820 0.014442
Si Si6 0.084741 0.675136 0.505048
O O1 0.963568 0.500000 0.096026
O O2 0.078125 0.717870 0.149886
O O3 0.912365 0.778383 0.061045
O O4 0.000000 0.654285 0.000000
O O5 0.822773 0.500000 0.849792
O O6 0.761734 0.724708 0.746491
O O7 0.809908 0.763414 0.900499
O O8 0.672675 0.500000 0.451961
O O9 0.750000 0.750000 0.500000
O O10 0.673800 0.692640 0.346086
O O11 0.590044 0.747520 0.429590
O O12 0.242783 0.500000 0.694158
O O13 0.161760 0.279256 0.592909
O O14 0.187988 0.000000 0.017339
O O15 0.250000 0.750000 0.000000
O O16 0.083430 0.500000 0.490822
O O17 0.000000 0.733361 0.500000
#
# Coordination Sequence:
#
# PCOD8097241 Si02
#       6
#     8   8   8   8   8   8
#     4   8  16  32  51  72  98 127 163 202 240 290
#     4  10  20  34  53  76 102 133 168 207 252 300
#     4   9  17  30  49  72  97 127 165 205 245 293
#     4   9  18  32  50  73 100 131 169 213 255 296
#     4  11  21  34  54  77 103 134 168 206 249 299
#     4   9  18  33  52  74 102 136 171 207 252 304
#
# _framework density 17.867529000000001
#
# number of rings (size 3 to 8) (size 9 to 14) (size 15 to 20)
#    0.000    2.667    0.000    4.500    0.000    7.333 
#    0.000    1.667    0.000    6.000    0.000    0.000 
#    0.000    0.000    0.000    0.000    0.000    0.000 
#
# Total GULP energy -297431.540376 kJ/mol
# GULP energy per Si atom -12392.980849 kJ/mol
# Density = 1.782686 g / cm^3
# Si number density = 17.867529 Si / 1000 Ang^3
#
#
#
# Elastic Constant Matrix: (Units=GPa)
#
#
# Indices 1 2 3 4 5 6 
#
# 1 135.1030 61.2943 38.4864 0.0000 -1.7053 0.0000
# 2 61.2943 106.2477 37.2404 0.0000 -5.5715 0.0000
# 3 38.4864 37.2404 67.7899 0.0000 -0.2895 0.0000
# 4 0.0000 0.0000 0.0000 26.8318 0.0000 -3.1056
# 5 -1.7053 -5.5715 -0.2895 0.0000 17.0443 0.0000
# 6 0.0000 0.0000 0.0000 -3.1056 0.0000 31.8636
#
#
#
# Elastic Compliance Matrix: (Units=1/GPa)
#
#
# Indices 1 2 3 4 5 6 
#
# 1 0.010593 -0.004997 -0.003271 0.000000 -0.000629 0.000000
# 2 -0.004997 0.014252 -0.004975 0.000000 0.004074 0.000000
# 3 -0.003271 -0.004975 0.019335 0.000000 -0.001625 0.000000
# 4 0.000000 0.000000 0.000000 0.037694 0.000000 0.003674
# 5 -0.000629 0.004074 -0.001625 0.000000 0.059912 0.000000
# 6 0.000000 0.000000 0.000000 0.003674 0.000000 0.031742
#
#
# Mechanical properties :
#
#
# Convention : Reuss Voigt Hill
#
# Bulk Modulus (GPa) = 56.52052 64.79811 60.65931
# Shear Modulus (GPa) = 24.28208 26.62259 25.45233
#
# Velocity S-wave (km/s) = 3.69047 3.86424 3.77835
# Velocity P-wave (km/s) = 7.06125 7.50029 7.28408
#
# Compressibility (1/GPa) = 0.01769269
#
# Stress axis : x y z
#
# Youngs Moduli (GPa) = 94.40209 70.16346 51.72046
#
# Poissons Ratio (x) = 0.35064 0.16919
# Poissons Ratio (y) = 0.47177 0.25731
# Poissons Ratio (z) = 0.30881 0.34906
#
# Static dielectric constant tensor:
#      x y z
#    x 3.618630 0.000000 0.071050 
#    y 0.000000 3.411830 0.000000 
#    z 0.071050 0.000000 3.300150 
# 
# 
# High freq. dielectric constant tensor:
#      x y z
#    x 1.687430 0.000000 -0.000740 
#    y 0.000000 1.696260 0.000000 
#    z -0.000740 0.000000 1.664840 
# 
# From -- ./inp_files/313377.got.cif
#   From: 2010.06.25/outbox.cif.g09.slc.cpg/sg12_157_cif.got.tgz:313377.got - 2010.06.28 00:19:55.
