data_PCOD8097245
_publ_section_title
;
Structure prediction by ZEFSAII (Michael W. Deem and Ramdas Pophale) SiO2 
 PCOD8097245
Probable space group: C 2/M
;
_chemical_formula_sum "Si O2"
_cell_formula_units_Z 56
_cell_length_a 18.590533
_cell_length_b 9.209521
_cell_length_c 25.761650
_cell_angle_alpha 90.000000
_cell_angle_beta 43.829642
_cell_angle_gamma 90.000000
_cell_volume 3054.447572
_symmetry_space_group_name_H-M "C 2/M"
_symmetry_group_IT_number 12
_symmetry_cell_setting 'monoclinic'
loop_
_space_group_symop_operation_xyz
x,y,z
-x,y,-z
-x,-y,-z
x,-y,z
1/2+x,1/2+y,z
1/2-x,1/2+y,-z
1/2-x,1/2-y,-z
1/2+x,1/2-y,z
loop_
_atom_site_type_symbol
_atom_site_label
_atom_site_fract_x
_atom_site_fract_y
_atom_site_fract_z
Si Si1 0.167229 0.829147 0.007705
Si Si2 0.780234 0.166611 0.561200
Si Si3 0.088599 0.667016 0.585400
Si Si4 0.226375 0.331248 0.703655
Si Si5 0.434539 0.669096 0.148302
Si Si6 0.120044 0.170037 0.283883
Si Si7 0.217473 0.168728 0.864578
O O1 0.052682 0.776098 0.083605
O O2 0.179235 0.000000 0.009249
O O3 0.250000 0.750000 0.000000
O O4 0.184723 0.785376 0.939067
O O5 0.870780 0.263897 0.489355
O O6 0.674110 0.184102 0.585230
O O7 0.761433 0.224368 0.629052
O O8 0.818495 0.000000 0.541170
O O9 0.059794 0.500000 0.590104
O O10 0.990023 0.753174 0.656980
O O11 0.198748 0.500000 0.716447
O O12 0.121689 0.250238 0.775175
O O13 0.319765 0.296458 0.694191
O O14 0.429337 0.500000 0.163440
O O15 0.379278 0.704555 0.122449
O O16 0.183341 0.235713 0.202715
O O17 0.104246 0.000000 0.282787
O O18 0.248438 0.000000 0.844788
#
# Coordination Sequence:
#
# PCOD8097245 Si02
#       7
#     8   8   8   8   8   8   8
#     4  10  21  35  52  77 106 135 168 208 254 300
#     4   9  19  36  54  72  99 135 172 208 249 299
#     4  10  20  34  53  76 102 134 171 208 250 300
#     4   9  19  35  54  76 101 132 169 208 253 301
#     4   9  18  34  55  76  99 131 171 211 251 297
#     4  10  20  34  53  77 104 132 166 209 254 301
#     4   9  18  35  56  74  98 134 173 210 249 297
#
# _framework density 18.333922000000001
#
# number of rings (size 3 to 8) (size 9 to 14) (size 15 to 20)
#    0.000    2.571    0.000    1.286    0.000    6.286 
#    0.000    7.143    0.000    4.286    0.000    0.000 
#    0.000    0.000    0.000    0.000    0.000    0.000 
#
# Total GULP energy -347292.883725 kJ/mol
# GULP energy per Si atom -12403.317276 kJ/mol
# Density = 1.829219 g / cm^3
# Si number density = 18.333922 Si / 1000 Ang^3
#
#
#
# Elastic Constant Matrix: (Units=GPa)
#
#
# Indices 1 2 3 4 5 6 
#
# 1 37.7704 20.8645 13.5329 0.0000 -12.6830 0.0000
# 2 20.8645 65.7769 35.1896 -0.0001 -14.4493 0.0000
# 3 13.5329 35.1896 65.0931 0.0000 -17.5936 0.0000
# 4 0.0000 -0.0001 0.0000 36.7994 0.0000 -1.3497
# 5 -12.6830 -14.4493 -17.5936 0.0000 34.9195 0.0000
# 6 0.0000 0.0000 0.0000 -1.3497 0.0000 28.2987
#
#
#
# Elastic Compliance Matrix: (Units=1/GPa)
#
#
# Indices 1 2 3 4 5 6 
#
# 1 0.034382 -0.009033 0.000116 0.000000 0.008809 0.000000
# 2 -0.009033 0.024138 -0.010834 0.000000 0.001249 0.000000
# 3 0.000116 -0.010834 0.023147 0.000000 0.007222 0.000000
# 4 0.000000 0.000000 0.000000 0.027222 0.000000 0.001298
# 5 0.008809 0.001249 0.007222 0.000000 0.035992 0.000000
# 6 0.000000 0.000000 0.000000 0.001298 0.000000 0.035399
#
#
# Mechanical properties :
#
#
# Convention : Reuss Voigt Hill
#
# Bulk Modulus (GPa) = 23.71583 34.20160 28.95871
# Shear Modulus (GPa) = 21.38237 26.60709 23.99473
#
# Velocity S-wave (km/s) = 3.41878 3.81366 3.62161
# Velocity P-wave (km/s) = 5.34300 6.17149 5.77213
#
# Compressibility (1/GPa) = 0.04216593
#
# Stress axis : x y z
#
# Youngs Moduli (GPa) = 29.08502 41.42767 43.20195
#
# Poissons Ratio (x) = 0.37422 -0.00502
# Poissons Ratio (y) = 0.26273 0.46804
# Poissons Ratio (z) = -0.00338 0.44882
#
# Static dielectric constant tensor:
#      x y z
#    x 3.311680 0.000000 0.006620 
#    y 0.000000 3.403820 0.000000 
#    z 0.006620 0.000000 3.519260 
# 
# 
# High freq. dielectric constant tensor:
#      x y z
#    x 1.703680 0.000000 -0.001670 
#    y 0.000000 1.709160 0.000000 
#    z -0.001670 0.000000 1.721760 
# 
# From -- ./inp_files/342319.got.cif
#   From: 2010.06.25/outbox.cif.g09.slc.cpg/sg12_172_cif.got.tgz:342319.got - 2010.06.28 00:19:55.
