data_PCOD8097744
_publ_section_title
;
Structure prediction by ZEFSAII (Michael W. Deem and Ramdas Pophale) SiO2 
 PCOD8097744
Probable space group: C 2/M
;
_chemical_formula_sum "Si O2"
_cell_formula_units_Z 56
_cell_length_a 14.698311
_cell_length_b 9.182789
_cell_length_c 22.656076
_cell_angle_alpha 90.000000
_cell_angle_beta 71.251996
_cell_angle_gamma 90.000000
_cell_volume 2895.674897
_symmetry_space_group_name_H-M "C 2/M"
_symmetry_group_IT_number 12
_symmetry_cell_setting 'monoclinic'
loop_
_space_group_symop_operation_xyz
x,y,z
-x,y,-z
-x,-y,-z
x,-y,z
1/2+x,1/2+y,z
1/2-x,1/2+y,-z
1/2-x,1/2-y,-z
1/2+x,1/2-y,z
loop_
_atom_site_type_symbol
_atom_site_label
_atom_site_fract_x
_atom_site_fract_y
_atom_site_fract_z
Si Si1 0.632771 0.168227 0.721125
Si Si2 0.833722 0.832495 0.053717
Si Si3 0.108105 0.660277 0.500154
Si Si4 0.882982 0.669681 0.929479
Si Si5 0.012770 0.329948 0.633953
Si Si6 0.561871 0.329148 0.847517
Si Si7 0.333962 0.669842 0.619566
O O1 0.548301 0.203139 0.692349
O O2 0.620325 0.271415 0.779592
O O3 0.734091 0.206585 0.671096
O O4 0.628640 0.000000 0.741685
O O5 0.720386 0.800084 0.078020
O O6 0.874815 0.791048 0.108604
O O7 0.854401 0.000000 0.032895
O O8 0.887749 0.734626 0.994300
O O9 0.155766 0.500000 0.486435
O O10 0.099138 0.712965 0.570226
O O11 0.169336 0.769429 0.446865
O O12 0.000000 0.654562 0.500000
O O13 0.907350 0.500000 0.927701
O O14 0.959711 0.748912 0.871976
O O15 0.988599 0.500000 0.629967
O O16 0.916542 0.240205 0.642385
O O17 0.543916 0.500000 0.844748
O O18 0.354045 0.500000 0.610937
#
# Coordination Sequence:
#
# PCOD8097744 Si02
#       7
#     8   8   8   8   8   8   8
#     4  10  23  40  54  74 107 145 183 220 264 318
#     4   9  20  38  58  83 114 144 175 215 265 318
#     4   8  15  30  53  78 103 136 175 213 265 329
#     4  10  20  36  60  87 112 141 178 219 264 312
#     4   9  19  37  57  75 103 143 179 215 266 327
#     4  11  23  38  56  79 110 146 182 220 263 314
#     4  10  20  34  54  81 109 135 172 227 276 312
#
# _framework density 19.339186999999999
#
# number of rings (size 3 to 8) (size 9 to 14) (size 15 to 20)
#    0.000    2.429    0.000    2.571    0.000    9.429 
#    0.000    4.286    0.000    0.000    0.000    0.000 
#    0.000    0.000    0.000    0.000    0.000    0.000 
#
# Total GULP energy -347233.238701 kJ/mol
# GULP energy per Si atom -12401.187096 kJ/mol
# Density = 1.929517 g / cm^3
# Si number density = 19.339187 Si / 1000 Ang^3
#
#
#
# Elastic Constant Matrix: (Units=GPa)
#
#
# Indices 1 2 3 4 5 6 
#
# 1 42.3238 28.6301 18.4561 0.0000 -9.3467 0.0000
# 2 28.6301 85.9633 44.8542 0.0000 -11.9208 0.0000
# 3 18.4561 44.8542 91.3656 0.0000 -7.3851 0.0000
# 4 0.0000 0.0000 0.0000 39.1031 0.0000 -4.9160
# 5 -9.3467 -11.9208 -7.3851 0.0000 23.5431 0.0000
# 6 0.0000 0.0000 0.0000 -4.9160 0.0000 24.5294
#
#
#
# Elastic Compliance Matrix: (Units=1/GPa)
#
#
# Indices 1 2 3 4 5 6 
#
# 1 0.031934 -0.008766 -0.001520 0.000000 0.007763 0.000000
# 2 -0.008766 0.018815 -0.007159 0.000000 0.003801 0.000000
# 3 -0.001520 -0.007159 0.014800 0.000000 0.000414 0.000000
# 4 0.000000 0.000000 0.000000 0.026234 0.000000 0.005258
# 5 0.007763 0.003801 0.000414 0.000000 0.047612 0.000000
# 6 0.000000 0.000000 0.000000 0.005258 0.000000 0.041821
#
#
# Mechanical properties :
#
#
# Convention : Reuss Voigt Hill
#
# Bulk Modulus (GPa) = 32.61615 44.83705 38.72660
# Shear Modulus (GPa) = 22.09202 25.94926 24.02064
#
# Velocity S-wave (km/s) = 3.38353 3.66703 3.52813
# Velocity P-wave (km/s) = 5.67153 6.41595 6.05519
#
# Compressibility (1/GPa) = 0.03065966
#
# Stress axis : x y z
#
# Youngs Moduli (GPa) = 31.31415 53.14929 67.56759
#
# Poissons Ratio (x) = 0.46593 0.10268
# Poissons Ratio (y) = 0.27451 0.48370
# Poissons Ratio (z) = 0.04759 0.38048
#
# Static dielectric constant tensor:
#      x y z
#    x 3.465060 0.000000 0.086790 
#    y 0.000000 3.534450 0.000000 
#    z 0.086790 0.000000 3.696410 
# 
# 
# High freq. dielectric constant tensor:
#      x y z
#    x 1.750340 0.000000 0.000890 
#    y 0.000000 1.753610 0.000000 
#    z 0.000890 0.000000 1.752820 
# 
# From -- ./inp_files/337899.got.cif
#   From: 2010.06.25/outbox.cif.g09.slc.cpg/sg12_169_cif.got.tgz:337899.got - 2010.06.28 00:19:55.
