data_PCOD8097432
_publ_section_title
;
Structure prediction by ZEFSAII (Michael W. Deem and Ramdas Pophale) SiO2 
 PCOD8097432
Probable space group: C 2/M
;
_chemical_formula_sum "Si O2"
_cell_formula_units_Z 64
_cell_length_a 19.078444
_cell_length_b 9.003133
_cell_length_c 19.873771
_cell_angle_alpha 90.000000
_cell_angle_beta 89.730333
_cell_angle_gamma 90.000000
_cell_volume 3413.595745
_symmetry_space_group_name_H-M "C 2/M"
_symmetry_group_IT_number 12
_symmetry_cell_setting 'monoclinic'
loop_
_space_group_symop_operation_xyz
x,y,z
-x,y,-z
-x,-y,-z
x,-y,z
1/2+x,1/2+y,z
1/2-x,1/2+y,-z
1/2-x,1/2-y,-z
1/2+x,1/2-y,z
loop_
_atom_site_type_symbol
_atom_site_label
_atom_site_fract_x
_atom_site_fract_y
_atom_site_fract_z
Si Si1 0.564112 0.171731 0.601476
Si Si2 0.941941 0.828376 0.766542
Si Si3 0.921915 0.172859 0.612241
Si Si4 0.324147 0.824928 0.511465
Si Si5 0.177083 0.328291 0.988355
Si Si6 0.823504 0.171669 0.141509
Si Si7 0.916316 0.327109 0.244873
Si Si8 0.841695 0.332384 0.864234
O O1 0.495840 0.267599 0.583528
O O2 0.626194 0.216315 0.551308
O O3 0.590991 0.207573 0.676128
O O4 0.542576 0.000000 0.594025
O O5 0.915593 0.795410 0.691458
O O6 0.880793 0.785415 0.817874
O O7 0.009994 0.731947 0.783627
O O8 0.961404 0.000000 0.775511
O O9 0.857801 0.260169 0.579078
O O10 0.915967 0.000000 0.594821
O O11 0.250000 0.750000 0.500000
O O12 0.313998 0.000000 0.519277
O O13 0.189986 0.500000 0.971343
O O14 0.140740 0.250089 0.924144
O O15 0.250000 0.250000 0.000000
O O16 0.133262 0.311461 0.058052
O O17 0.853013 0.243027 0.209224
O O18 0.740692 0.198505 0.141850
O O19 0.843577 0.000000 0.138788
O O20 0.910983 0.500000 0.228854
O O21 0.858753 0.500000 0.840226
#
# Coordination Sequence:
#
# PCOD8097432 Si02
#       8
#     8   8   8   8   8   8   8   8
#     4   9  20  38  58  79 104 139 180 218 260 314
#     4  10  21  36  55  79 108 140 176 219 262 312
#     4  10  21  37  57  81 107 139 179 217 259 315
#     4  11  23  38  56  81 112 141 174 218 265 311
#     4   9  17  31  51  76 105 138 177 218 262 313
#     4  10  20  34  53  79 109 139 176 220 264 314
#     4  10  20  36  57  78 105 140 176 218 267 315
#     4   9  19  34  53  78 107 139 176 219 264 313
#
# _framework density 18.748557999999999
#
# number of rings (size 3 to 8) (size 9 to 14) (size 15 to 20)
#    0.000    2.250    0.000    3.375    0.000    8.500 
#    0.000    4.375    0.000    3.750    0.000    0.000 
#    0.000    0.000    0.000    0.000    0.000    0.000 
#
# Total GULP energy -396852.595194 kJ/mol
# GULP energy per Si atom -12401.643600 kJ/mol
# Density = 1.870589 g / cm^3
# Si number density = 18.748558 Si / 1000 Ang^3
#
#
#
# Elastic Constant Matrix: (Units=GPa)
#
#
# Indices 1 2 3 4 5 6 
#
# 1 55.3766 26.7565 23.3464 0.0000 -4.8334 0.0000
# 2 26.7565 93.0984 31.2974 0.0000 -4.4061 0.0000
# 3 23.3464 31.2974 65.8723 0.0000 -6.2735 0.0000
# 4 0.0000 0.0000 0.0000 35.1682 0.0000 3.2907
# 5 -4.8334 -4.4061 -6.2735 0.0000 27.5350 0.0000
# 6 0.0000 0.0000 0.0000 3.2907 0.0000 35.5902
#
#
#
# Elastic Compliance Matrix: (Units=1/GPa)
#
#
# Indices 1 2 3 4 5 6 
#
# 1 0.022849 -0.004539 -0.005754 0.000000 0.001974 0.000000
# 2 -0.004539 0.013697 -0.004872 0.000000 0.000285 0.000000
# 3 -0.005754 -0.004872 0.019794 0.000000 0.002720 0.000000
# 4 0.000000 0.000000 0.000000 0.028683 0.000000 -0.002652
# 5 0.001974 0.000285 0.002720 0.000000 0.037329 0.000000
# 6 0.000000 0.000000 0.000000 -0.002652 0.000000 0.028343
#
#
# Mechanical properties :
#
#
# Convention : Reuss Voigt Hill
#
# Bulk Modulus (GPa) = 38.44537 41.90534 40.17535
# Shear Modulus (GPa) = 26.35803 28.52179 27.43991
#
# Velocity S-wave (km/s) = 3.75356 3.90459 3.82982
# Velocity P-wave (km/s) = 6.27184 6.53663 6.40560
#
# Compressibility (1/GPa) = 0.02601094
#
# Stress axis : x y z
#
# Youngs Moduli (GPa) = 43.76483 73.00743 50.52061
#
# Poissons Ratio (x) = 0.33140 0.29067
# Poissons Ratio (y) = 0.19866 0.24613
# Poissons Ratio (z) = 0.25180 0.35569
#
# Static dielectric constant tensor:
#      x y z
#    x 3.188900 0.000000 0.059280 
#    y 0.000000 3.616190 0.000000 
#    z 0.059280 0.000000 3.698440 
# 
# 
# High freq. dielectric constant tensor:
#      x y z
#    x 1.704940 0.000000 0.004770 
#    y 0.000000 1.742020 0.000000 
#    z 0.004770 0.000000 1.738810 
# 
# From -- ./inp_files/314044.got.cif
#   From: 2010.06.25/outbox.cif.g09.slc.cpg/sg12_158_cif.got.tgz:314044.got - 2010.06.28 00:19:55.
