data_PCOD8097882
_publ_section_title
;
Structure prediction by ZEFSAII (Michael W. Deem and Ramdas Pophale) SiO2 
 PCOD8097882
Probable space group: C 2/M
;
_chemical_formula_sum "Si O2"
_cell_formula_units_Z 64
_cell_length_a 23.430071
_cell_length_b 8.897782
_cell_length_c 15.258964
_cell_angle_alpha 90.000000
_cell_angle_beta 88.616909
_cell_angle_gamma 90.000000
_cell_volume 3180.195853
_symmetry_space_group_name_H-M "C 2/M"
_symmetry_group_IT_number 12
_symmetry_cell_setting 'monoclinic'
loop_
_space_group_symop_operation_xyz
x,y,z
-x,y,-z
-x,-y,-z
x,-y,z
1/2+x,1/2+y,z
1/2-x,1/2+y,-z
1/2-x,1/2-y,-z
1/2+x,1/2-y,z
loop_
_atom_site_type_symbol
_atom_site_label
_atom_site_fract_x
_atom_site_fract_y
_atom_site_fract_z
Si Si1 0.660087 0.322909 0.421959
Si Si2 0.458150 0.168742 0.575497
Si Si3 0.754264 0.821928 0.727784
Si Si4 0.337366 0.675992 0.383262
Si Si5 0.788464 0.178904 0.921824
Si Si6 0.059101 0.330300 0.690606
Si Si7 0.529615 0.177879 0.877476
Si Si8 0.089952 0.321841 0.049964
O O1 0.660046 0.500000 0.416262
O O2 0.596275 0.270338 0.407995
O O3 0.698951 0.255637 0.342522
O O4 0.682708 0.273914 0.518059
O O5 0.500000 0.235783 0.500000
O O6 0.493276 0.168028 0.664031
O O7 0.438781 0.000000 0.548969
O O8 0.694422 0.760310 0.694540
O O9 0.765329 0.768119 0.827033
O O10 0.753274 0.000000 0.724538
O O11 0.329958 0.500000 0.370250
O O12 0.403475 0.723744 0.373052
O O13 0.853595 0.232560 0.925325
O O14 0.785572 0.000000 0.930934
O O15 0.750000 0.250000 0.000000
O O16 0.084120 0.500000 0.687435
O O17 0.058278 0.260996 0.788073
O O18 0.464013 0.233809 0.889873
O O19 0.524956 0.000000 0.876785
O O20 0.572557 0.226585 0.952443
O O21 0.101755 0.500000 0.057432
#
# Coordination Sequence:
#
# PCOD8097882 Si02
#       8
#     8   8   8   8   8   8   8   8
#     4  10  22  40  61  85 117 154 194 243 296 345
#     4  10  20  34  54  84 118 154 195 234 279 338
#     4  10  24  44  63  83 112 156 198 237 294 355
#     4  11  23  38  59  89 118 150 197 249 293 336
#     4  11  25  43  62  86 117 153 193 240 294 349
#     4  10  20  35  56  83 119 160 196 233 283 345
#     4   8  17  34  59  87 115 152 192 231 281 344
#     4   9  18  37  62  87 115 148 192 239 287 343
#
# _framework density 20.124547
#
# number of rings (size 3 to 8) (size 9 to 14) (size 15 to 20)
#    0.000    2.125    1.250    1.875    3.500    2.750 
#    0.000    1.875    0.000    0.000    0.000    0.000 
#    0.000    0.000    0.000    0.000    0.000    0.000 
#
# Total GULP energy -396660.350744 kJ/mol
# GULP energy per Si atom -12395.635961 kJ/mol
# Density = 2.007874 g / cm^3
# Si number density = 20.124547 Si / 1000 Ang^3
#
#
#
# Elastic Constant Matrix: (Units=GPa)
#
#
# Indices 1 2 3 4 5 6 
#
# 1 90.4627 21.9452 47.1959 0.0000 11.1796 0.0000
# 2 21.9452 24.5186 38.7175 0.0000 1.7203 0.0000
# 3 47.1959 38.7175 151.2759 0.0000 -1.7155 0.0000
# 4 0.0000 0.0000 0.0000 24.2459 0.0000 1.9877
# 5 11.1796 1.7203 -1.7155 0.0000 30.0549 0.0000
# 6 0.0000 0.0000 0.0000 1.9877 0.0000 34.7442
#
#
#
# Elastic Compliance Matrix: (Units=1/GPa)
#
#
# Indices 1 2 3 4 5 6 
#
# 1 0.015259 -0.009526 -0.002382 0.000000 -0.005267 0.000000
# 2 -0.009526 0.075132 -0.016276 0.000000 -0.001686 0.000000
# 3 -0.002382 -0.016276 0.011548 0.000000 0.002477 0.000000
# 4 0.000000 0.000000 0.000000 0.041438 0.000000 -0.002371
# 5 -0.005267 -0.001686 0.002477 0.000000 0.035469 0.000000
# 6 0.000000 0.000000 0.000000 -0.002371 0.000000 0.028917
#
#
# Mechanical properties :
#
#
# Convention : Reuss Voigt Hill
#
# Bulk Modulus (GPa) = 21.94464 53.55272 37.74868
# Shear Modulus (GPa) = 17.90039 28.36889 23.13464
#
# Velocity S-wave (km/s) = 2.98565 3.75863 3.39421
# Velocity P-wave (km/s) = 4.77636 6.74572 5.84458
#
# Compressibility (1/GPa) = 0.04556921
#
# Stress axis : x y z
#
# Youngs Moduli (GPa) = 65.53555 13.30983 86.59868
#
# Poissons Ratio (x) = 0.12679 0.20629
# Poissons Ratio (y) = 0.62430 1.40952
# Poissons Ratio (z) = 0.15611 0.21664
#
# Static dielectric constant tensor:
#      x y z
#    x 3.622860 0.000000 -0.086100 
#    y 0.000000 3.345940 0.000000 
#    z -0.086100 0.000000 4.353690 
# 
# 
# High freq. dielectric constant tensor:
#      x y z
#    x 1.789110 0.000000 0.000740 
#    y 0.000000 1.756210 0.000000 
#    z 0.000740 0.000000 1.800300 
# 
# From -- ./inp_files/238692.got.cif
#   From: 2010.06.25/outbox.cif.g09.slc.cpg/sg12_120_cif.got.tgz:238692.got - 2010.06.28 00:19:55.
