data_PCOD8097389
_publ_section_title
;
Structure prediction by ZEFSAII (Michael W. Deem and Ramdas Pophale) SiO2 
 PCOD8097389
Probable space group: C 2/M
;
_chemical_formula_sum "Si O2"
_cell_formula_units_Z 56
_cell_length_a 16.043767
_cell_length_b 9.341686
_cell_length_c 25.070044
_cell_angle_alpha 90.000000
_cell_angle_beta 130.226878
_cell_angle_gamma 90.000000
_cell_volume 2868.744400
_symmetry_space_group_name_H-M "C 2/M"
_symmetry_group_IT_number 12
_symmetry_cell_setting 'monoclinic'
loop_
_space_group_symop_operation_xyz
x,y,z
-x,y,-z
-x,-y,-z
x,-y,z
1/2+x,1/2+y,z
1/2-x,1/2+y,-z
1/2-x,1/2-y,-z
1/2+x,1/2-y,z
loop_
_atom_site_type_symbol
_atom_site_label
_atom_site_fract_x
_atom_site_fract_y
_atom_site_fract_z
Si Si1 0.248283 0.662399 0.422508
Si Si2 0.787140 0.339371 0.712815
Si Si3 0.514014 0.164520 0.853958
Si Si4 0.426106 0.334265 0.918088
Si Si5 0.918378 0.164264 0.578952
Si Si6 0.618504 0.834319 0.699478
Si Si7 0.685464 0.832961 0.841869
O O1 0.204860 0.500000 0.414245
O O2 0.257376 0.695944 0.364213
O O3 0.164767 0.774673 0.412208
O O4 0.367219 0.681382 0.498679
O O5 0.750689 0.500000 0.714154
O O6 0.917369 0.325133 0.770434
O O7 0.737280 0.223391 0.732261
O O8 0.486145 0.253936 0.894791
O O9 0.622026 0.227075 0.868095
O O10 0.532188 0.000000 0.878806
O O11 0.414487 0.500000 0.896695
O O12 0.306478 0.266574 0.882498
O O13 0.500000 0.313916 0.000000
O O14 0.030556 0.249628 0.628328
O O15 0.941615 0.000000 0.602496
O O16 0.608050 0.806542 0.758429
O O17 0.608558 0.000000 0.681007
O O18 0.702469 0.000000 0.858183
#
# Coordination Sequence:
#
# PCOD8097389 Si02
#       7
#     8   8   8   8   8   8   8
#     4   9  19  36  55  75 106 148 188 232 291 349
#     4  10  20  35  55  79 108 143 189 239 287 337
#     4  10  20  36  60  85 113 149 191 235 279 338
#     4  10  21  39  61  86 119 153 187 230 281 340
#     4  10  20  34  53  78 108 142 188 242 287 337
#     4  11  21  35  56  78 109 150 191 234 287 347
#     4   9  19  37  59  83 114 154 191 228 286 345
#
# _framework density 19.520737
#
# number of rings (size 3 to 8) (size 9 to 14) (size 15 to 20)
#    0.000    2.143    1.429    1.714    0.000    4.857 
#    0.000    6.429    0.000    0.000    0.000    0.000 
#    0.000    0.000    0.000    0.000    0.000    0.000 
#
# Total GULP energy -347130.188452 kJ/mol
# GULP energy per Si atom -12397.506730 kJ/mol
# Density = 1.947631 g / cm^3
# Si number density = 19.520737 Si / 1000 Ang^3
#
#
#
# Elastic Constant Matrix: (Units=GPa)
#
#
# Indices 1 2 3 4 5 6 
#
# 1 132.0765 48.8663 45.7056 0.0000 -12.6855 0.0000
# 2 48.8663 84.9013 41.6701 0.0000 -7.3828 0.0000
# 3 45.7056 41.6701 80.2078 0.0000 -6.8127 0.0000
# 4 0.0000 0.0000 0.0000 23.4154 0.0000 -1.6272
# 5 -12.6855 -7.3828 -6.8127 0.0000 28.5582 0.0000
# 6 0.0000 0.0000 0.0000 -1.6272 0.0000 31.2511
#
#
#
# Elastic Compliance Matrix: (Units=1/GPa)
#
#
# Indices 1 2 3 4 5 6 
#
# 1 0.010622 -0.004049 -0.003712 0.000000 0.002786 0.000000
# 2 -0.004049 0.017486 -0.006681 0.000000 0.001128 0.000000
# 3 -0.003712 -0.006681 0.018135 0.000000 0.000950 0.000000
# 4 0.000000 0.000000 0.000000 0.042862 0.000000 0.002232
# 5 0.002786 0.001128 0.000950 0.000000 0.036772 0.000000
# 6 0.000000 0.000000 0.000000 0.002232 0.000000 0.032115
#
#
# Mechanical properties :
#
#
# Convention : Reuss Voigt Hill
#
# Bulk Modulus (GPa) = 57.61368 63.29662 60.45515
# Shear Modulus (GPa) = 25.95195 27.37452 26.66324
#
# Velocity S-wave (km/s) = 3.65013 3.74883 3.69981
# Velocity P-wave (km/s) = 6.88060 7.15780 7.02057
#
# Compressibility (1/GPa) = 0.01735699
#
# Stress axis : x y z
#
# Youngs Moduli (GPa) = 94.14623 57.18747 55.14209
#
# Poissons Ratio (x) = 0.23156 0.20471
# Poissons Ratio (y) = 0.38122 0.36843
# Poissons Ratio (z) = 0.34951 0.38209
#
# Static dielectric constant tensor:
#      x y z
#    x 3.571960 0.000000 0.124080 
#    y 0.000000 3.463490 0.000000 
#    z 0.124080 0.000000 3.601550 
# 
# 
# High freq. dielectric constant tensor:
#      x y z
#    x 1.757850 0.000000 0.004560 
#    y 0.000000 1.743770 0.000000 
#    z 0.004560 0.000000 1.764320 
# 
# From -- ./inp_files/308991.got.cif
#   From: 2010.06.25/outbox.cif.g09.slc.cpg/sg12_155_cif.got.tgz:308991.got - 2010.06.28 00:19:55.
