data_PCOD8097368
_publ_section_title
;
Structure prediction by ZEFSAII (Michael W. Deem and Ramdas Pophale) SiO2 
 PCOD8097368
Probable space group: C 2/M
;
_chemical_formula_sum "Si O2"
_cell_formula_units_Z 64
_cell_length_a 14.670213
_cell_length_b 8.615291
_cell_length_c 26.996738
_cell_angle_alpha 90.000000
_cell_angle_beta 105.054974
_cell_angle_gamma 90.000000
_cell_volume 3294.955648
_symmetry_space_group_name_H-M "C 2/M"
_symmetry_group_IT_number 12
_symmetry_cell_setting 'monoclinic'
loop_
_space_group_symop_operation_xyz
x,y,z
-x,y,-z
-x,-y,-z
x,-y,z
1/2+x,1/2+y,z
1/2-x,1/2+y,-z
1/2-x,1/2-y,-z
1/2+x,1/2-y,z
loop_
_atom_site_type_symbol
_atom_site_label
_atom_site_fract_x
_atom_site_fract_y
_atom_site_fract_z
Si Si1 0.567787 0.180006 0.367458
Si Si2 0.854607 0.181380 0.192559
Si Si3 0.709862 0.682101 0.924497
Si Si4 0.458241 0.179980 0.746148
Si Si5 0.601433 0.183584 0.996521
Si Si6 0.757988 0.818425 0.733696
Si Si7 0.048591 0.315697 0.557579
Si Si8 0.773589 0.183783 0.373916
O O1 0.515519 0.211089 0.307843
O O2 0.511096 0.255771 0.404939
O O3 0.673593 0.247272 0.379899
O O4 0.574669 0.000000 0.380490
O O5 0.804130 0.228484 0.134411
O O6 0.785573 0.227612 0.226657
O O7 0.952972 0.273368 0.208440
O O8 0.877030 0.000000 0.198406
O O9 0.701619 0.500000 0.932034
O O10 0.626632 0.760357 0.944820
O O11 0.814223 0.741380 0.955230
O O12 0.368996 0.282661 0.748728
O O13 0.432022 0.000000 0.750545
O O14 0.594797 0.000000 0.995481
O O15 0.500000 0.252757 0.000000
O O16 0.706192 0.762933 0.676250
O O17 0.739789 0.000000 0.738056
O O18 0.060715 0.500000 0.561924
O O19 0.150564 0.236042 0.574793
O O20 0.000000 0.262889 0.500000
O O21 0.771972 0.000000 0.365949
#
# Coordination Sequence:
#
# PCOD8097368 Si02
#       8
#     8   8   8   8   8   8   8   8
#     4   8  17  34  53  73 101 136 171 213 266 320
#     4  11  22  36  54  81 118 152 183 223 274 331
#     4   9  20  36  53  79 112 142 178 226 272 320
#     4  10  20  36  57  80 108 145 188 230 273 324
#     4   9  18  35  58  80 104 141 187 229 271 320
#     4  11  22  37  57  82 111 144 184 227 277 335
#     4  10  20  34  53  78 107 139 177 222 274 333
#     4  10  20  36  56  76 103 140 181 225 272 326
#
# _framework density 19.423629999999999
#
# number of rings (size 3 to 8) (size 9 to 14) (size 15 to 20)
#    0.000    2.250    0.000    3.750    0.000    4.000 
#    0.000    4.375    0.000    0.000    0.000    0.000 
#    0.000    0.000    0.000    0.000    0.000    0.000 
#
# Total GULP energy -396825.371962 kJ/mol
# GULP energy per Si atom -12400.792874 kJ/mol
# Density = 1.937942 g / cm^3
# Si number density = 19.423630 Si / 1000 Ang^3
#
#
#
# Elastic Constant Matrix: (Units=GPa)
#
#
# Indices 1 2 3 4 5 6 
#
# 1 88.1473 13.4595 38.6074 0.0000 8.5136 0.0000
# 2 13.4595 32.5020 21.6114 0.0000 4.6015 0.0000
# 3 38.6074 21.6114 101.8710 0.0000 12.8479 0.0000
# 4 0.0000 0.0000 0.0000 27.6401 0.0000 2.3162
# 5 8.5136 4.6015 12.8479 0.0000 24.2360 0.0000
# 6 0.0000 0.0000 0.0000 2.3162 0.0000 28.7250
#
#
#
# Elastic Compliance Matrix: (Units=1/GPa)
#
#
# Indices 1 2 3 4 5 6 
#
# 1 0.013881 -0.002483 -0.004478 0.000000 -0.002031 0.000000
# 2 -0.002483 0.036465 -0.006464 0.000000 -0.002624 0.000000
# 3 -0.004478 -0.006464 0.013429 0.000000 -0.004319 0.000000
# 4 0.000000 0.000000 0.000000 0.036425 0.000000 -0.002937
# 5 -0.002031 -0.002624 -0.004319 0.000000 0.044762 0.000000
# 6 0.000000 0.000000 0.000000 -0.002937 0.000000 0.035050
#
#
# Mechanical properties :
#
#
# Convention : Reuss Voigt Hill
#
# Bulk Modulus (GPa) = 27.08132 41.09745 34.08939
# Shear Modulus (GPa) = 22.81317 26.04300 24.42809
#
# Velocity S-wave (km/s) = 3.43082 3.66565 3.55018
# Velocity P-wave (km/s) = 5.44672 6.25463 5.86461
#
# Compressibility (1/GPa) = 0.03692582
#
# Stress axis : x y z
#
# Youngs Moduli (GPa) = 72.03985 27.42338 74.46422
#
# Poissons Ratio (x) = 0.06811 0.33343
# Poissons Ratio (y) = 0.17891 0.48132
# Poissons Ratio (z) = 0.32258 0.17726
#
# Static dielectric constant tensor:
#      x y z
#    x 3.723180 0.000000 0.021900 
#    y 0.000000 3.343350 0.000000 
#    z 0.021900 0.000000 3.611770 
# 
# 
# High freq. dielectric constant tensor:
#      x y z
#    x 1.764070 0.000000 0.003980 
#    y 0.000000 1.743070 0.000000 
#    z 0.003980 0.000000 1.753530 
# 
# From -- ./inp_files/359926.got.cif
#   From: 2010.06.25/outbox.cif.g09.slc.cpg/sg12_180_cif.got.tgz:359926.got - 2010.06.28 00:19:55.
