data_PCOD8097401
_publ_section_title
;
Structure prediction by ZEFSAII (Michael W. Deem and Ramdas Pophale) SiO2 
 PCOD8097401
Probable space group: C 2/M
;
_chemical_formula_sum "Si O2"
_cell_formula_units_Z 48
_cell_length_a 15.781352
_cell_length_b 8.852781
_cell_length_c 29.399588
_cell_angle_alpha 90.000000
_cell_angle_beta 144.374279
_cell_angle_gamma 90.000000
_cell_volume 2392.500841
_symmetry_space_group_name_H-M "C 2/M"
_symmetry_group_IT_number 12
_symmetry_cell_setting 'monoclinic'
loop_
_space_group_symop_operation_xyz
x,y,z
-x,y,-z
-x,-y,-z
x,-y,z
1/2+x,1/2+y,z
1/2-x,1/2+y,-z
1/2-x,1/2-y,-z
1/2+x,1/2-y,z
loop_
_atom_site_type_symbol
_atom_site_label
_atom_site_fract_x
_atom_site_fract_y
_atom_site_fract_z
Si Si1 0.388012 0.678763 0.817016
Si Si2 0.106293 0.327883 0.336930
Si Si3 0.608326 0.829057 0.505670
Si Si4 0.918749 0.327503 0.342467
Si Si5 0.075033 0.176708 0.815850
Si Si6 0.628643 0.320557 0.088148
O O1 0.366344 0.500000 0.810869
O O2 0.242134 0.747025 0.729585
O O3 0.528613 0.718373 0.847583
O O4 0.403295 0.743207 0.874979
O O5 0.122822 0.500000 0.327532
O O6 0.255471 0.274814 0.424149
O O7 0.979993 0.313499 0.318740
O O8 0.060791 0.223442 0.274937
O O9 0.500000 0.828582 0.500000
O O10 0.525346 0.752111 0.426295
O O11 0.661986 0.000000 0.518479
O O12 0.905100 0.500000 0.352791
O O13 0.219079 0.265485 0.865495
O O14 0.104070 0.000000 0.823073
O O15 0.633567 0.500000 0.090363
O O16 0.500000 0.258997 0.000000
#
# Coordination Sequence:
#
# PCOD8097401 Si02
#       6
#     8   8   8   8   8   8
#     4   9  18  36  60  85 116 156 194 230 286 349
#     4  11  21  35  56  80 113 153 194 243 290 337
#     4  10  20  34  53  78 109 149 197 241 287 345
#     4   9  17  32  55  78 107 150 194 235 281 339
#     4  11  22  37  61  88 117 155 196 239 285 342
#     4  10  21  40  65  89 117 153 190 233 290 353
#
# _framework density 20.062687
#
# number of rings (size 3 to 8) (size 9 to 14) (size 15 to 20)
#    0.000    2.000    1.667    2.500    0.000    4.000 
#    0.000    2.500    0.000    0.000    0.000    0.000 
#    0.000    0.000    0.000    0.000    0.000    0.000 
#
# Total GULP energy -297553.267428 kJ/mol
# GULP energy per Si atom -12398.052810 kJ/mol
# Density = 2.001702 g / cm^3
# Si number density = 20.062687 Si / 1000 Ang^3
#
#
#
# Elastic Constant Matrix: (Units=GPa)
#
#
# Indices 1 2 3 4 5 6 
#
# 1 107.1583 14.9755 52.5014 0.0000 -9.5676 0.0000
# 2 14.9755 23.3860 10.5433 0.0000 -1.0885 0.0000
# 3 52.5014 10.5433 140.6627 0.0000 -9.3939 0.0000
# 4 0.0000 0.0000 0.0000 20.8487 0.0000 3.4732
# 5 -9.5676 -1.0885 -9.3939 0.0000 22.9815 0.0000
# 6 0.0000 0.0000 0.0000 3.4732 0.0000 35.2695
#
#
#
# Elastic Compliance Matrix: (Units=1/GPa)
#
#
# Indices 1 2 3 4 5 6 
#
# 1 0.012403 -0.006005 -0.003962 0.000000 0.003260 0.000000
# 2 -0.006005 0.047176 -0.001349 0.000000 -0.000817 0.000000
# 3 -0.003962 -0.001349 0.008815 0.000000 0.001890 0.000000
# 4 0.000000 0.000000 0.000000 0.048765 0.000000 -0.004802
# 5 0.003260 -0.000817 0.001890 0.000000 0.045604 0.000000
# 6 0.000000 0.000000 0.000000 -0.004802 0.000000 0.028826
#
#
# Mechanical properties :
#
#
# Convention : Reuss Voigt Hill
#
# Bulk Modulus (GPa) = 21.85164 47.47191 34.66177
# Shear Modulus (GPa) = 21.78882 28.69906 25.24394
#
# Velocity S-wave (km/s) = 3.29908 3.78626 3.55103
# Velocity P-wave (km/s) = 5.04254 6.54427 5.84186
#
# Compressibility (1/GPa) = 0.04576316
#
# Stress axis : x y z
#
# Youngs Moduli (GPa) = 80.62456 21.19710 113.44014
#
# Poissons Ratio (x) = 0.12728 0.44941
# Poissons Ratio (y) = 0.48413 0.15308
# Poissons Ratio (z) = 0.31940 0.02860
#
# Static dielectric constant tensor:
#      x y z
#    x 4.058230 0.000000 0.062000 
#    y 0.000000 3.328460 0.000000 
#    z 0.062000 0.000000 4.024450 
# 
# 
# High freq. dielectric constant tensor:
#      x y z
#    x 1.794030 0.000000 -0.004200 
#    y 0.000000 1.742030 0.000000 
#    z -0.004200 0.000000 1.791840 
# 
# From -- ./inp_files/360242.got.cif
#   From: 2010.06.25/outbox.cif.g09.slc.cpg/sg12_181_cif.got.tgz:360242.got - 2010.06.28 00:19:55.
