data_PCOD8097506
_publ_section_title
;
Structure prediction by ZEFSAII (Michael W. Deem and Ramdas Pophale) SiO2 
 PCOD8097506
Probable space group: C 2/M
;
_chemical_formula_sum "Si O2"
_cell_formula_units_Z 56
_cell_length_a 16.717253
_cell_length_b 20.124924
_cell_length_c 21.329715
_cell_angle_alpha 90.000000
_cell_angle_beta 155.220459
_cell_angle_gamma 90.000000
_cell_volume 3007.674251
_symmetry_space_group_name_H-M "C 2/M"
_symmetry_group_IT_number 12
_symmetry_cell_setting 'monoclinic'
loop_
_space_group_symop_operation_xyz
x,y,z
-x,y,-z
-x,-y,-z
x,-y,z
1/2+x,1/2+y,z
1/2-x,1/2+y,-z
1/2-x,1/2-y,-z
1/2+x,1/2-y,z
loop_
_atom_site_type_symbol
_atom_site_label
_atom_site_fract_x
_atom_site_fract_y
_atom_site_fract_z
Si Si1 0.256395 0.000000 0.231486
Si Si2 0.968061 0.755555 0.337485
Si Si3 0.658710 0.140861 0.664805
Si Si4 0.154727 0.620760 0.923138
Si Si5 0.847236 0.702048 0.650680
Si Si6 0.339271 0.500000 0.981763
Si Si7 0.990651 0.209164 0.130243
Si Si8 0.871962 0.329425 0.964831
O O1 0.373688 0.067034 0.330390
O O2 0.228718 0.000000 0.137764
O O3 0.067645 0.000000 0.140606
O O4 0.853086 0.700744 0.294405
O O5 0.831814 0.808858 0.207690
O O6 0.083590 0.711063 0.370708
O O7 0.115936 0.798711 0.485420
O O8 0.500000 0.153335 0.500000
O O9 0.877298 0.146803 0.796311
O O10 0.256135 0.560734 0.961530
O O11 0.938984 0.633799 0.744126
O O12 0.274955 0.686614 0.990890
O O13 0.153280 0.615007 0.998143
O O14 0.912545 0.764396 0.738121
O O15 0.983065 0.265598 0.071622
O O16 0.000000 0.360014 0.000000
#
# Coordination Sequence:
#
# PCOD8097506 Si02
#       8
#     4   8   8   8   8   4   8   8
#     4  11  25  38  58  84 115 161 207 228 273 353
#     4  11  20  32  55  84 116 147 192 234 287 348
#     4  12  23  36  54  84 127 159 190 233 286 343
#     4  11  21  40  56  81 116 151 197 243 292 347
#     4  10  20  34  53  82 112 154 184 240 298 335
#     4  11  24  40  63  80 107 162 204 243 279 351
#     4  11  19  34  57  81 118 154 188 236 291 345
#     4  11  21  33  59  89 113 146 189 247 298 345
#
# _framework density 18.619036999999999
#
# number of rings (size 3 to 8) (size 9 to 14) (size 15 to 20)
#    0.000    1.000    7.143    1.929    0.000    0.000 
#    0.000    0.357    0.000    0.000    0.000    1.000 
#    0.000    0.000    0.000    0.000    0.000    0.000 
#
# Total GULP energy -347072.625449 kJ/mol
# GULP energy per Si atom -12395.450909 kJ/mol
# Density = 1.857666 g / cm^3
# Si number density = 18.619037 Si / 1000 Ang^3
#
#
#
# Elastic Constant Matrix: (Units=GPa)
#
#
# Indices 1 2 3 4 5 6 
#
# 1 105.7904 36.9580 25.7508 0.1068 -6.5250 -0.0886
# 2 36.9580 62.8284 30.4999 0.0293 -4.9127 0.0209
# 3 25.7508 30.4999 104.9533 0.0150 -3.5354 0.0400
# 4 0.1068 0.0293 0.0150 0.3754 -0.0260 13.0504
# 5 -6.5250 -4.9127 -3.5354 -0.0260 24.3406 0.0182
# 6 -0.0886 0.0209 0.0400 13.0504 0.0182 22.0167
#
#
#
# Elastic Compliance Matrix: (Units=1/GPa)
#
#
# Indices 1 2 3 4 5 6 
#
# 1 0.012069 -0.006464 -0.001023 0.000239 0.001783 -0.000086
# 2 -0.006464 0.022209 -0.004799 -0.000093 0.002053 0.000015
# 3 -0.001023 -0.004799 0.011186 -0.000048 0.000382 0.000008
# 4 0.000239 -0.000093 -0.000048 -0.135858 -0.000167 0.080532
# 5 0.001783 0.002053 0.000382 -0.000167 0.042031 0.000069
# 6 -0.000086 0.000015 0.000008 0.080532 0.000069 -0.002316
#
#
# Mechanical properties :
#
#
# Convention : Reuss Voigt Hill
#
# Bulk Modulus (GPa) = 47.86170 51.10994 49.48582
# Shear Modulus (GPa) = -261.19859 21.37076 -119.91392
#
# Velocity S-wave (km/s) = -11.85708 3.39158 -8.03391
# Velocity P-wave (km/s) = 12.71582 6.54577 7.70860
#
# Compressibility (1/GPa) = 0.02089353
#
# Stress axis : x y z
#
# Youngs Moduli (GPa) = 82.85415 45.02724 89.39378
#
# Poissons Ratio (x) = 0.29105 0.09143
# Poissons Ratio (y) = 0.53556 0.42899
# Poissons Ratio (z) = 0.08474 0.21608
#
# Static dielectric constant tensor:
#      x y z
#    x 3.586810 -0.000010 -0.019830 
#    y -0.000010 3.094170 -0.000100 
#    z -0.019830 -0.000100 3.588750 
# 
# 
# High freq. dielectric constant tensor:
#      x y z
#    x 1.731260 0.000000 -0.005620 
#    y 0.000000 1.678270 -0.000010 
#    z -0.005620 -0.000010 1.733850 
# 
# From -- ./inp_files/272444.got.cif
#   From: 2010.06.25/outbox.cif.g09.slc.cpg/sg12_137_cif.got.tgz:272444.got - 2010.06.28 00:19:55.
