data_PCOD8097628
_publ_section_title
;
Structure prediction by ZEFSAII (Michael W. Deem and Ramdas Pophale) SiO2 
 PCOD8097628
Probable space group: C 2/M
;
_chemical_formula_sum "Si O2"
_cell_formula_units_Z 64
_cell_length_a 18.768002
_cell_length_b 9.016663
_cell_length_c 30.801973
_cell_angle_alpha 90.000000
_cell_angle_beta 139.261786
_cell_angle_gamma 90.000000
_cell_volume 3401.669238
_symmetry_space_group_name_H-M "C 2/M"
_symmetry_group_IT_number 12
_symmetry_cell_setting 'monoclinic'
loop_
_space_group_symop_operation_xyz
x,y,z
-x,y,-z
-x,-y,-z
x,-y,z
1/2+x,1/2+y,z
1/2-x,1/2+y,-z
1/2-x,1/2-y,-z
1/2+x,1/2-y,z
loop_
_atom_site_type_symbol
_atom_site_label
_atom_site_fract_x
_atom_site_fract_y
_atom_site_fract_z
Si Si1 0.195765 0.327585 0.821438
Si Si2 0.144328 0.826526 0.183265
Si Si3 0.716852 0.328990 0.440950
Si Si4 0.420007 0.172526 0.077827
Si Si5 0.710892 0.827007 0.301972
Si Si6 0.376686 0.828886 0.436291
Si Si7 0.226751 0.172299 0.923233
Si Si8 0.051866 0.672088 0.306586
O O1 0.200079 0.500000 0.836238
O O2 0.266389 0.292149 0.811897
O O3 0.244970 0.233015 0.883501
O O4 0.072537 0.276023 0.755226
O O5 0.188398 0.761755 0.248180
O O6 0.032685 0.749304 0.117082
O O7 0.123040 0.000000 0.179015
O O8 0.696268 0.500000 0.441280
O O9 0.750000 0.250000 0.500000
O O10 0.814526 0.302845 0.452487
O O11 0.604903 0.262154 0.370558
O O12 0.373214 0.241742 0.100515
O O13 0.440267 0.000000 0.096013
O O14 0.338320 0.201790 0.000499
O O15 0.824654 0.770796 0.374507
O O16 0.612378 0.792266 0.289452
O O17 0.720111 0.000000 0.295663
O O18 0.500000 0.775393 0.500000
O O19 0.371059 0.000000 0.418971
O O20 0.196605 0.000000 0.908353
O O21 0.061179 0.500000 0.322884
#
# Coordination Sequence:
#
# PCOD8097628 Si02
#       8
#     8   8   8   8   8   8   8   8
#     4  10  22  38  56  80 112 148 183 225 276 326
#     4  11  23  37  55  81 112 147 186 226 272 327
#     4  10  20  34  54  79 106 137 174 218 265 316
#     4  10  21  38  59  83 112 145 182 225 273 324
#     4  10  20  35  57  81 106 140 181 229 279 325
#     4   9  19  36  56  77 104 141 181 220 266 323
#     4  10  21  37  60  86 110 142 184 227 270 324
#     4   9  19  37  57  76 102 139 181 221 266 320
#
# _framework density 18.814294
#
# number of rings (size 3 to 8) (size 9 to 14) (size 15 to 20)
#    0.000    2.125    0.000    2.625    0.000    6.750 
#    0.000    7.500    0.000    0.000    0.000    0.000 
#    0.000    0.000    0.000    0.000    0.000    0.000 
#
# Total GULP energy -396981.972772 kJ/mol
# GULP energy per Si atom -12405.686649 kJ/mol
# Density = 1.877147 g / cm^3
# Si number density = 18.814294 Si / 1000 Ang^3
#
#
#
# Elastic Constant Matrix: (Units=GPa)
#
#
# Indices 1 2 3 4 5 6 
#
# 1 97.1401 61.7030 76.7822 0.0000 3.6062 0.0000
# 2 61.7030 108.4574 73.5497 0.0000 -6.4156 -0.0003
# 3 76.7822 73.5497 128.8443 0.0000 0.3107 0.0000
# 4 0.0000 0.0000 0.0000 38.4736 0.0000 -2.9164
# 5 3.6062 -6.4156 0.3107 0.0000 37.3770 0.0000
# 6 0.0000 -0.0003 0.0000 -2.9164 0.0000 31.7317
#
#
#
# Elastic Compliance Matrix: (Units=1/GPa)
#
#
# Indices 1 2 3 4 5 6 
#
# 1 0.021813 -0.006171 -0.009469 0.000000 -0.003085 0.000000
# 2 -0.006171 0.017058 -0.006068 0.000000 0.003574 0.000000
# 3 -0.009469 -0.006068 0.016869 0.000000 -0.000268 0.000000
# 4 0.000000 0.000000 0.000000 0.026174 0.000000 0.002406
# 5 -0.003085 0.003574 -0.000268 0.000000 0.027668 0.000000
# 6 0.000000 0.000000 0.000000 0.002406 0.000000 0.031735
#
#
# Mechanical properties :
#
#
# Convention : Reuss Voigt Hill
#
# Bulk Modulus (GPa) = 81.14913 84.27906 82.71409
# Shear Modulus (GPa) = 26.47719 29.67692 28.07705
#
# Velocity S-wave (km/s) = 3.75546 3.97591 3.86725
# Velocity P-wave (km/s) = 7.87591 8.12217 7.99998
#
# Compressibility (1/GPa) = 0.01232299
#
# Stress axis : x y z
#
# Youngs Moduli (GPa) = 45.84329 58.62514 59.28049
#
# Poissons Ratio (x) = 0.36178 0.56134
# Poissons Ratio (y) = 0.28290 0.35973
# Poissons Ratio (z) = 0.43410 0.35575
#
# Static dielectric constant tensor:
#      x y z
#    x 3.403900 0.000000 0.095460 
#    y 0.000000 3.534390 0.000000 
#    z 0.095460 0.000000 3.539890 
# 
# 
# High freq. dielectric constant tensor:
#      x y z
#    x 1.725400 0.000000 0.000790 
#    y 0.000000 1.739470 0.000000 
#    z 0.000790 0.000000 1.741470 
# 
# From -- ./inp_files/378296.got.cif
#   From: 2010.06.25/outbox.cif.g09.slc.cpg/sg12_190_cif.got.tgz:378296.got - 2010.06.28 00:19:55.
