data_PCOD8097172
_publ_section_title
;
Structure prediction by ZEFSAII (Michael W. Deem and Ramdas Pophale) SiO2 
 PCOD8097172
Probable space group: C 2/M
;
_chemical_formula_sum "Si O2"
_cell_formula_units_Z 64
_cell_length_a 23.304301
_cell_length_b 9.409511
_cell_length_c 14.797471
_cell_angle_alpha 90.000000
_cell_angle_beta 92.760392
_cell_angle_gamma 90.000000
_cell_volume 3241.055101
_symmetry_space_group_name_H-M "C 2/M"
_symmetry_group_IT_number 12
_symmetry_cell_setting 'monoclinic'
loop_
_space_group_symop_operation_xyz
x,y,z
-x,y,-z
-x,-y,-z
x,-y,z
1/2+x,1/2+y,z
1/2-x,1/2+y,-z
1/2-x,1/2-y,-z
1/2+x,1/2-y,z
loop_
_atom_site_type_symbol
_atom_site_label
_atom_site_fract_x
_atom_site_fract_y
_atom_site_fract_z
Si Si1 0.215408 0.339900 0.808855
Si Si2 0.463463 0.664970 0.083272
Si Si3 0.855469 0.662507 0.028583
Si Si4 0.822869 0.338343 0.831589
Si Si5 0.690526 0.834281 0.492710
Si Si6 0.381712 0.165831 0.335832
Si Si7 0.397376 0.837768 0.667669
Si Si8 0.507350 0.333063 0.711721
O O1 0.231880 0.500000 0.782971
O O2 0.201405 0.326653 0.914165
O O3 0.269048 0.244105 0.786263
O O4 0.159917 0.291038 0.749040
O O5 0.448955 0.500000 0.071176
O O6 0.404449 0.749029 0.081195
O O7 0.495371 0.695697 0.180489
O O8 0.500000 0.719272 0.000000
O O9 0.876613 0.500000 0.021874
O O10 0.841678 0.727417 0.929209
O O11 0.802990 0.500000 0.843638
O O12 0.876194 0.325024 0.768783
O O13 0.750000 0.750000 0.500000
O O14 0.650794 0.795894 0.574559
O O15 0.654283 0.789825 0.401688
O O16 0.706395 0.000000 0.492429
O O17 0.438088 0.261263 0.331383
O O18 0.399236 0.000000 0.332996
O O19 0.451530 0.734746 0.660322
O O20 0.415800 0.000000 0.646777
O O21 0.508719 0.500000 0.690878
#
# Coordination Sequence:
#
# PCOD8097172 Si02
#       8
#     8   8   8   8   8   8   8   8
#     4  10  20  34  54  80 111 147 188 233 283 338
#     4  10  21  36  54  79 112 149 191 238 285 334
#     4  10  20  34  52  79 110 146 191 229 277 341
#     4  10  21  35  54  81 113 149 189 234 283 336
#     4  10  22  40  64  91 117 151 192 233 285 342
#     4  10  21  39  61  84 115 154 192 235 287 342
#     4  10  22  40  59  83 116 151 188 232 283 340
#     4  11  23  38  59  87 115 149 193 238 287 338
#
# _framework density 19.746656000000002
#
# number of rings (size 3 to 8) (size 9 to 14) (size 15 to 20)
#    0.000    1.875    1.250    2.250    0.000    4.250 
#    0.000    2.500    0.000    0.000    0.000    0.000 
#    0.000    0.000    0.000    0.000    0.000    0.000 
#
# Total GULP energy -396903.408892 kJ/mol
# GULP energy per Si atom -12403.231528 kJ/mol
# Density = 1.970171 g / cm^3
# Si number density = 19.746656 Si / 1000 Ang^3
#
#
#
# Elastic Constant Matrix: (Units=GPa)
#
#
# Indices 1 2 3 4 5 6 
#
# 1 123.9448 71.3812 35.5951 0.0000 11.9862 0.0000
# 2 71.3812 82.1117 31.4297 0.0000 8.5228 0.0000
# 3 35.5951 31.4297 97.9074 0.0000 3.3898 0.0000
# 4 0.0000 0.0000 0.0000 22.8688 0.0000 3.6103
# 5 11.9862 8.5228 3.3898 0.0000 28.2663 0.0000
# 6 0.0000 0.0000 0.0000 3.6103 0.0000 41.4361
#
#
#
# Elastic Compliance Matrix: (Units=1/GPa)
#
#
# Indices 1 2 3 4 5 6 
#
# 1 0.016574 -0.013512 -0.001593 0.000000 -0.002763 0.000000
# 2 -0.013512 0.025289 -0.003153 0.000000 -0.001517 0.000000
# 3 -0.001593 -0.003153 0.011798 0.000000 0.000211 0.000000
# 4 0.000000 0.000000 0.000000 0.044338 0.000000 -0.003863
# 5 -0.002763 -0.001517 0.000211 0.000000 0.036982 0.000000
# 6 0.000000 0.000000 0.000000 -0.003863 0.000000 0.024470
#
#
# Mechanical properties :
#
#
# Convention : Reuss Voigt Hill
#
# Bulk Modulus (GPa) = 58.32399 64.53066 61.42732
# Shear Modulus (GPa) = 24.79154 29.55144 27.17149
#
# Velocity S-wave (km/s) = 3.54712 3.87270 3.71348
# Velocity P-wave (km/s) = 6.81002 7.26273 7.04001
#
# Compressibility (1/GPa) = 0.01714560
#
# Stress axis : x y z
#
# Youngs Moduli (GPa) = 60.33391 39.54241 84.76266
#
# Poissons Ratio (x) = 0.53430 0.13499
# Poissons Ratio (y) = 0.81524 0.26728
# Poissons Ratio (z) = 0.09608 0.12469
#
# Static dielectric constant tensor:
#      x y z
#    x 3.374480 0.000000 0.005240 
#    y 0.000000 3.510840 0.000000 
#    z 0.005240 0.000000 3.758400 
# 
# 
# High freq. dielectric constant tensor:
#      x y z
#    x 1.765930 0.000000 -0.001220 
#    y 0.000000 1.761270 0.000000 
#    z -0.001220 0.000000 1.779740 
# 
# From -- ./inp_files/238601.got.cif
#   From: 2010.06.25/outbox.cif.g09.slc.cpg/sg12_120_cif.got.tgz:238601.got - 2010.06.28 00:19:55.
