data_PCOD8097388
_publ_section_title
;
Structure prediction by ZEFSAII (Michael W. Deem and Ramdas Pophale) SiO2 
 PCOD8097388
Probable space group: C 2/M
;
_chemical_formula_sum "Si O2"
_cell_formula_units_Z 56
_cell_length_a 15.397687
_cell_length_b 13.100110
_cell_length_c 14.449377
_cell_angle_alpha 90.000000
_cell_angle_beta 83.021328
_cell_angle_gamma 90.000000
_cell_volume 2893.010974
_symmetry_space_group_name_H-M "C 2/M"
_symmetry_group_IT_number 12
_symmetry_cell_setting 'monoclinic'
loop_
_space_group_symop_operation_xyz
x,y,z
-x,y,-z
-x,-y,-z
x,-y,z
1/2+x,1/2+y,z
1/2-x,1/2+y,-z
1/2-x,1/2-y,-z
1/2+x,1/2-y,z
loop_
_atom_site_type_symbol
_atom_site_label
_atom_site_fract_x
_atom_site_fract_y
_atom_site_fract_z
Si Si1 0.180899 0.121172 0.749189
Si Si2 0.737982 0.384620 0.058979
Si Si3 0.407326 0.616607 0.627246
Si Si4 0.076258 0.616428 0.059336
Si Si5 0.611934 0.385483 0.570799
Si Si6 0.659208 0.237628 0.206246
Si Si7 0.088017 0.120752 0.941033
O O1 0.159394 0.170991 0.651209
O O2 0.280502 0.147650 0.761827
O O3 0.108439 0.160214 0.834119
O O4 0.173819 0.000000 0.746865
O O5 0.714046 0.500000 0.089620
O O6 0.726340 0.315088 0.149387
O O7 0.835216 0.376163 0.009647
O O8 0.671208 0.343241 0.989969
O O9 0.374874 0.500000 0.653762
O O10 0.367597 0.659276 0.534400
O O11 0.510236 0.613999 0.604476
O O12 0.386619 0.698017 0.708225
O O13 0.058026 0.500000 0.093938
O O14 0.084987 0.688753 0.148705
O O15 0.000000 0.654689 0.000000
O O16 0.647855 0.500000 0.562973
O O17 0.079984 0.000000 0.941104
O O18 0.000000 0.167087 0.000000
#
# Coordination Sequence:
#
# PCOD8097388 Si02
#       7
#     8   8   8   8   8   8   8
#     4  10  20  34  53  78 108 142 181 221 266 321
#     4  10  21  37  51  74 112 143 179 224 267 323
#     4   9  19  36  56  82 109 136 173 219 276 335
#     4  10  22  40  56  71 106 157 195 222 257 311
#     4   8  17  36  58  77 106 139 171 220 279 333
#     4  12  22  32  54  82 108 140 180 227 272 315
#     4   9  18  31  50  76 108 140 171 219 275 323
#
# _framework density 19.356995000000001
#
# number of rings (size 3 to 8) (size 9 to 14) (size 15 to 20)
#    0.000    2.286    1.429    2.143    2.000    2.286 
#    0.000    0.000    0.000    0.429    0.000    8.000 
#    0.000    0.000    0.000    0.000    0.000    0.000 
#
# Total GULP energy -346928.746105 kJ/mol
# GULP energy per Si atom -12390.312361 kJ/mol
# Density = 1.931294 g / cm^3
# Si number density = 19.356995 Si / 1000 Ang^3
#
#
#
# Elastic Constant Matrix: (Units=GPa)
#
#
# Indices 1 2 3 4 5 6 
#
# 1 105.1697 11.3313 52.3980 0.0000 21.4482 0.0000
# 2 11.3313 55.4789 50.5511 0.0000 3.0771 0.0000
# 3 52.3980 50.5511 146.0962 0.0000 21.4076 0.0000
# 4 0.0000 0.0000 0.0000 34.1232 0.0000 -20.8678
# 5 21.4482 3.0771 21.4076 0.0000 30.7071 0.0000
# 6 0.0000 0.0000 0.0000 -20.8678 0.0000 131.5692
#
#
#
# Elastic Compliance Matrix: (Units=1/GPa)
#
#
# Indices 1 2 3 4 5 6 
#
# 1 0.012671 0.001575 -0.004198 0.000000 -0.006081 0.000000
# 2 0.001575 0.027000 -0.010413 0.000000 0.003454 0.000000
# 3 -0.004198 -0.010413 0.012665 0.000000 -0.004853 0.000000
# 4 0.000000 0.000000 0.000000 0.032453 0.000000 0.005147
# 5 -0.006081 0.003454 -0.004853 0.000000 0.039851 0.000000
# 6 0.000000 0.000000 0.000000 0.005147 0.000000 0.008417
#
#
# Mechanical properties :
#
#
# Convention : Reuss Voigt Hill
#
# Bulk Modulus (GPa) = 38.07802 59.47839 48.77821
# Shear Modulus (GPa) = 29.78253 52.11087 40.94670
#
# Velocity S-wave (km/s) = 3.92675 5.19417 4.60428
# Velocity P-wave (km/s) = 6.34612 8.17107 7.31572
#
# Compressibility (1/GPa) = 0.02626187
#
# Stress axis : x y z
#
# Youngs Moduli (GPa) = 78.92306 37.03717 78.95939
#
# Poissons Ratio (x) = -0.05832 0.33148
# Poissons Ratio (y) = -0.12427 0.82222
# Poissons Ratio (z) = 0.33133 0.38567
#
# Static dielectric constant tensor:
#      x y z
#    x 3.513050 0.000000 0.241290 
#    y 0.000000 3.593510 0.000000 
#    z 0.241290 0.000000 3.963010 
# 
# 
# High freq. dielectric constant tensor:
#      x y z
#    x 1.741400 0.000000 0.014230 
#    y 0.000000 1.741340 0.000000 
#    z 0.014230 0.000000 1.753120 
# 
# From -- ./inp_files/214200.got.cif
#   From: 2010.06.25/outbox.cif.g09.slc.cpg/sg12_108_cif.got.tgz:214200.got - 2010.06.28 00:19:55.
