data_PCOD8097198
_publ_section_title
;
Structure prediction by ZEFSAII (Michael W. Deem and Ramdas Pophale) SiO2 
 PCOD8097198
Probable space group: C 2/M
;
_chemical_formula_sum "Si O2"
_cell_formula_units_Z 56
_cell_length_a 17.076060
_cell_length_b 12.264587
_cell_length_c 20.613636
_cell_angle_alpha 90.000000
_cell_angle_beta 48.040412
_cell_angle_gamma 90.000000
_cell_volume 3210.290071
_symmetry_space_group_name_H-M "C 2/M"
_symmetry_group_IT_number 12
_symmetry_cell_setting 'monoclinic'
loop_
_space_group_symop_operation_xyz
x,y,z
-x,y,-z
-x,-y,-z
x,-y,z
1/2+x,1/2+y,z
1/2-x,1/2+y,-z
1/2-x,1/2-y,-z
1/2+x,1/2-y,z
loop_
_atom_site_type_symbol
_atom_site_label
_atom_site_fract_x
_atom_site_fract_y
_atom_site_fract_z
Si Si1 0.297299 0.120388 0.285241
Si Si2 0.792856 0.719188 0.906417
Si Si3 0.307976 0.380831 0.792360
Si Si4 0.467976 0.711350 0.211176
Si Si5 0.455918 0.628151 0.352879
Si Si6 0.821102 0.000000 0.075242
Si Si7 0.537491 0.500000 0.877717
Si Si8 0.105435 0.130211 0.475157
O O1 0.260304 0.110457 0.232938
O O2 0.399705 0.192255 0.220827
O O3 0.208505 0.174576 0.380853
O O4 0.326718 0.000000 0.295559
O O5 0.750472 0.804522 0.876582
O O6 0.752830 0.602345 0.902778
O O7 0.918045 0.735355 0.841367
O O8 0.750000 0.750000 0.000000
O O9 0.320249 0.500000 0.818559
O O10 0.422197 0.337692 0.707385
O O11 0.413918 0.679715 0.309649
O O12 0.463102 0.607895 0.166197
O O13 0.442356 0.500000 0.356423
O O14 0.392582 0.671162 0.451114
O O15 0.861227 0.000000 0.128827
O O16 0.927190 0.000000 0.975546
O O17 0.000000 0.177034 0.500000
O O18 0.103464 0.000000 0.471136
#
# Coordination Sequence:
#
# PCOD8097198 Si02
#       8
#     8   8   8   8   8   4   4   8
#     4  10  20  34  52  83 116 143 173 227 281 330
#     4  11  23  37  58  82 109 144 183 230 287 331
#     4   9  18  33  55  79 108 138 181 224 270 326
#     4  11  22  36  57  81 113 144 189 232 278 326
#     4   9  16  29  53  80 101 137 183 224 264 310
#     4  11  24  40  60  82 111 147 190 235 282 342
#     4  11  22  42  62  82 104 147 201 239 267 326
#     4   9  15  28  52  81 110 140 178 220 272 329
#
# _framework density 17.443908
#
# number of rings (size 3 to 8) (size 9 to 14) (size 15 to 20)
#    0.000    2.000    3.571    0.857    3.000    0.571 
#    0.000    0.000    0.000    1.714    0.000    0.500 
#    0.000    0.000    0.000    0.000    0.000    0.000 
#
# Total GULP energy -346925.227116 kJ/mol
# GULP energy per Si atom -12390.186683 kJ/mol
# Density = 1.740420 g / cm^3
# Si number density = 17.443908 Si / 1000 Ang^3
#
#
#
# Elastic Constant Matrix: (Units=GPa)
#
#
# Indices 1 2 3 4 5 6 
#
# 1 84.2702 51.6117 34.0130 0.0000 4.8197 0.0000
# 2 51.6117 90.3568 50.7080 0.0000 2.0573 0.0000
# 3 34.0130 50.7080 100.2462 0.0000 12.3491 0.0000
# 4 0.0000 0.0000 0.0000 17.1239 0.0000 -0.6626
# 5 4.8197 2.0573 12.3491 0.0000 25.2605 0.0000
# 6 0.0000 0.0000 0.0000 -0.6626 0.0000 28.2762
#
#
#
# Elastic Compliance Matrix: (Units=1/GPa)
#
#
# Indices 1 2 3 4 5 6 
#
# 1 0.018489 -0.009977 -0.000949 0.000000 -0.002251 0.000000
# 2 -0.009977 0.021017 -0.007735 0.000000 0.003973 0.000000
# 3 -0.000949 -0.007735 0.015015 0.000000 -0.006529 0.000000
# 4 0.000000 0.000000 0.000000 0.058451 0.000000 0.001370
# 5 -0.002251 0.003973 -0.006529 0.000000 0.042885 0.000000
# 6 0.000000 0.000000 0.000000 0.001370 0.000000 0.035398
#
#
# Mechanical properties :
#
#
# Convention : Reuss Voigt Hill
#
# Bulk Modulus (GPa) = 58.14882 60.83761 59.49322
# Shear Modulus (GPa) = 21.33934 23.36813 22.35373
#
# Velocity S-wave (km/s) = 3.50138 3.66405 3.58364
# Velocity P-wave (km/s) = 7.05361 7.26995 7.16259
#
# Compressibility (1/GPa) = 0.01719725
#
# Stress axis : x y z
#
# Youngs Moduli (GPa) = 54.08665 47.58155 66.60194
#
# Poissons Ratio (x) = 0.47471 0.06322
# Poissons Ratio (y) = 0.53961 0.51518
# Poissons Ratio (z) = 0.05134 0.36806
#
# Static dielectric constant tensor:
#      x y z
#    x 3.329530 0.000000 0.217780 
#    y 0.000000 3.292830 0.000000 
#    z 0.217780 0.000000 3.435040 
# 
# 
# High freq. dielectric constant tensor:
#      x y z
#    x 1.673970 0.000000 0.015910 
#    y 0.000000 1.652210 0.000000 
#    z 0.015910 0.000000 1.679740 
# 
# From -- ./inp_files/315299.got.cif
#   From: 2010.06.25/outbox.cif.g09.slc.cpg/sg12_158_cif.got.tgz:315299.got - 2010.06.28 00:19:55.
