data_PCOD8097636
_publ_section_title
;
Structure prediction by ZEFSAII (Michael W. Deem and Ramdas Pophale) SiO2 
 PCOD8097636
Probable space group: C 2/M
;
_chemical_formula_sum "Si O2"
_cell_formula_units_Z 56
_cell_length_a 18.385359
_cell_length_b 8.987516
_cell_length_c 28.984264
_cell_angle_alpha 90.000000
_cell_angle_beta 141.675992
_cell_angle_gamma 90.000000
_cell_volume 2969.896204
_symmetry_space_group_name_H-M "C 2/M"
_symmetry_group_IT_number 12
_symmetry_cell_setting 'monoclinic'
loop_
_space_group_symop_operation_xyz
x,y,z
-x,y,-z
-x,-y,-z
x,-y,z
1/2+x,1/2+y,z
1/2-x,1/2+y,-z
1/2-x,1/2-y,-z
1/2+x,1/2-y,z
loop_
_atom_site_type_symbol
_atom_site_label
_atom_site_fract_x
_atom_site_fract_y
_atom_site_fract_z
Si Si1 0.806107 0.826339 0.712557
Si Si2 0.465005 0.326179 0.704762
Si Si3 0.004530 0.672758 0.136297
Si Si4 0.581597 0.671782 0.997338
Si Si5 0.455917 0.176684 0.429319
Si Si6 0.847067 0.673030 0.144140
Si Si7 0.375330 0.176723 0.568901
O O1 0.865551 0.791643 0.693049
O O2 0.674344 0.762205 0.645801
O O3 0.873942 0.747314 0.787867
O O4 0.808459 0.000000 0.724684
O O5 0.470583 0.500000 0.695356
O O6 0.590788 0.271932 0.785891
O O7 0.435210 0.232060 0.645132
O O8 0.028941 0.500000 0.144145
O O9 0.902499 0.709172 0.122036
O O10 0.965008 0.732168 0.067676
O O11 0.579955 0.500000 0.981538
O O12 0.712286 0.721908 0.075730
O O13 0.500000 0.703658 0.000000
O O14 0.500000 0.242787 0.500000
O O15 0.543599 0.229406 0.433084
O O16 0.450750 0.000000 0.429822
O O17 0.862450 0.500000 0.164726
O O18 0.250000 0.250000 0.500000
O O19 0.361281 0.000000 0.563086
#
# Coordination Sequence:
#
# PCOD8097636 Si02
#       7
#     8   8   8   8   8   8   8
#     4   9  18  35  58  79 102 137 179 217 254 307
#     4  10  20  35  57  82 107 137 174 216 261 312
#     4  10  20  34  54  79 107 137 171 217 269 315
#     4  10  21  36  54  76 104 140 181 220 258 309
#     4   9  18  34  56  79 102 134 178 219 253 299
#     4   9  19  36  56  78 105 138 176 217 261 311
#     4  11  22  36  56  80 108 140 174 216 262 309
#
# _framework density 18.855878000000001
#
# number of rings (size 3 to 8) (size 9 to 14) (size 15 to 20)
#    0.000    2.286    0.000    2.571    0.000    5.429 
#    0.000    7.143    0.000    3.000    0.000    0.000 
#    0.000    0.000    0.000    0.000    0.000    0.000 
#
# Total GULP energy -347300.671371 kJ/mol
# GULP energy per Si atom -12403.595406 kJ/mol
# Density = 1.881296 g / cm^3
# Si number density = 18.855878 Si / 1000 Ang^3
#
#
#
# Elastic Constant Matrix: (Units=GPa)
#
#
# Indices 1 2 3 4 5 6 
#
# 1 110.2938 44.4948 89.9468 0.0002 14.3017 -0.0001
# 2 44.4948 61.8836 56.6562 0.0002 -2.7880 -0.0002
# 3 89.9468 56.6562 165.4970 0.0000 12.7324 0.0000
# 4 0.0002 0.0002 0.0000 20.5603 0.0000 -3.4622
# 5 14.3017 -2.7880 12.7324 0.0000 37.0534 0.0000
# 6 -0.0001 -0.0002 0.0000 -3.4622 0.0000 25.9558
#
#
#
# Elastic Compliance Matrix: (Units=1/GPa)
#
#
# Indices 1 2 3 4 5 6 
#
# 1 0.018417 -0.006800 -0.007288 0.000000 -0.005116 0.000000
# 2 -0.006800 0.026858 -0.006015 0.000000 0.006712 0.000000
# 3 -0.007288 -0.006015 0.012204 0.000000 -0.001833 0.000000
# 4 0.000000 0.000000 0.000000 0.049755 0.000000 0.006637
# 5 -0.005116 0.006712 -0.001833 0.000000 0.030098 0.000000
# 6 0.000000 0.000000 0.000000 0.006637 0.000000 0.039412
#
#
# Mechanical properties :
#
#
# Convention : Reuss Voigt Hill
#
# Bulk Modulus (GPa) = 57.89644 79.98555 68.94099
# Shear Modulus (GPa) = 22.45099 26.48568 24.46834
#
# Velocity S-wave (km/s) = 3.45434 3.75192 3.60620
# Velocity P-wave (km/s) = 6.83237 7.82820 7.34718
#
# Compressibility (1/GPa) = 0.01727222
#
# Stress axis : x y z
#
# Youngs Moduli (GPa) = 54.29835 37.23262 81.94247
#
# Poissons Ratio (x) = 0.25318 0.59719
# Poissons Ratio (y) = 0.36923 0.49291
# Poissons Ratio (z) = 0.39572 0.22397
#
# Static dielectric constant tensor:
#      x y z
#    x 3.530940 0.000000 0.100590 
#    y 0.000000 3.343440 0.000000 
#    z 0.100590 0.000000 3.650530 
# 
# 
# High freq. dielectric constant tensor:
#      x y z
#    x 1.732240 0.000000 0.003370 
#    y 0.000000 1.719960 0.000000 
#    z 0.003370 0.000000 1.748300 
# 
# From -- ./inp_files/362893.got.cif
#   From: 2010.06.25/outbox.cif.g09.slc.cpg/sg12_182_cif.got.tgz:362893.got - 2010.06.28 00:19:55.
