data_PCOD8097227
_publ_section_title
;
Structure prediction by ZEFSAII (Michael W. Deem and Ramdas Pophale) SiO2 
 PCOD8097227
Probable space group: C 2/M
;
_chemical_formula_sum "Si O2"
_cell_formula_units_Z 64
_cell_length_a 14.259437
_cell_length_b 9.758100
_cell_length_c 25.898965
_cell_angle_alpha 90.000000
_cell_angle_beta 76.836694
_cell_angle_gamma 90.000000
_cell_volume 3509.024079
_symmetry_space_group_name_H-M "C 2/M"
_symmetry_group_IT_number 12
_symmetry_cell_setting 'monoclinic'
loop_
_space_group_symop_operation_xyz
x,y,z
-x,y,-z
-x,-y,-z
x,-y,z
1/2+x,1/2+y,z
1/2-x,1/2+y,-z
1/2-x,1/2-y,-z
1/2+x,1/2-y,z
loop_
_atom_site_type_symbol
_atom_site_label
_atom_site_fract_x
_atom_site_fract_y
_atom_site_fract_z
Si Si1 0.350771 0.659148 0.136014
Si Si2 0.037181 0.340601 0.136234
Si Si3 0.623509 0.340247 0.621237
Si Si4 0.711144 0.345566 0.396883
Si Si5 0.098257 0.162333 0.509051
Si Si6 0.340690 0.840786 0.780145
Si Si7 0.416737 0.346333 0.682893
Si Si8 0.228828 0.341758 0.051528
O O1 0.380220 0.500000 0.136727
O O2 0.444103 0.750226 0.135457
O O3 0.266749 0.694862 0.187228
O O4 0.308991 0.691598 0.084611
O O5 0.007732 0.500000 0.137505
O O6 0.078987 0.302774 0.187273
O O7 0.121301 0.308774 0.084682
O O8 0.649047 0.500000 0.618349
O O9 0.708952 0.255185 0.636931
O O10 0.616878 0.280563 0.563870
O O11 0.529213 0.309423 0.666736
O O12 0.751914 0.500000 0.392717
O O13 0.682306 0.297654 0.458280
O O14 0.618701 0.336575 0.371555
O O15 0.000000 0.228347 0.500000
O O16 0.086595 0.000000 0.513755
O O17 0.359556 0.756101 0.726394
O O18 0.347769 0.000000 0.765651
O O19 0.401520 0.500000 0.706299
O O20 0.235987 0.500000 0.034546
O O21 0.250000 0.250000 0.000000
#
# Coordination Sequence:
#
# PCOD8097227 Si02
#       8
#     8   8   8   8   8   8   8   8
#     4   9  19  36  56  78 105 139 178 217 258 304
#     4   9  19  36  56  78 105 139 178 217 258 304
#     4  10  20  34  53  76 101 131 167 206 251 305
#     4  10  20  34  53  76 101 131 167 206 251 305
#     4   9  15  30  55  74  95 132 169 201 244 302
#     4   9  20  38  56  74 102 137 171 215 265 305
#     4  10  21  36  53  75 102 133 170 209 254 311
#     4   9  19  35  53  78 113 146 176 213 257 303
#
# _framework density 18.238689999999998
#
# number of rings (size 3 to 8) (size 9 to 14) (size 15 to 20)
#    0.000    2.625    1.250    1.875    0.000    4.500 
#    0.000   10.000    0.000    0.750    0.000    0.000 
#    0.000    0.000    0.000    0.000    0.000    0.000 
#
# Total GULP energy -396728.289722 kJ/mol
# GULP energy per Si atom -12397.759054 kJ/mol
# Density = 1.819718 g / cm^3
# Si number density = 18.238690 Si / 1000 Ang^3
#
#
#
# Elastic Constant Matrix: (Units=GPa)
#
#
# Indices 1 2 3 4 5 6 
#
# 1 111.3608 55.7393 21.6606 0.0000 -10.0944 0.0000
# 2 55.7393 72.1234 45.4322 0.0000 -11.1950 0.0000
# 3 21.6606 45.4322 90.8989 0.0000 -11.5911 0.0000
# 4 0.0000 0.0000 0.0000 32.6610 0.0000 -2.0022
# 5 -10.0944 -11.1950 -11.5911 0.0000 16.4777 0.0000
# 6 0.0000 0.0000 0.0000 -2.0022 0.0000 36.6381
#
#
#
# Elastic Compliance Matrix: (Units=1/GPa)
#
#
# Indices 1 2 3 4 5 6 
#
# 1 0.015391 -0.013706 0.003513 0.000000 0.002588 0.000000
# 2 -0.013706 0.033271 -0.012690 0.000000 0.005282 0.000000
# 3 0.003513 -0.012690 0.017227 0.000000 0.005649 0.000000
# 4 0.000000 0.000000 0.000000 0.030720 0.000000 0.001679
# 5 0.002588 0.005282 0.005649 0.000000 0.069835 0.000000
# 6 0.000000 0.000000 0.000000 0.001679 0.000000 0.027386
#
#
# Mechanical properties :
#
#
# Convention : Reuss Voigt Hill
#
# Bulk Modulus (GPa) = 49.69333 57.78301 53.73817
# Shear Modulus (GPa) = 20.30012 27.25877 23.77944
#
# Velocity S-wave (km/s) = 3.33982 3.87014 3.61472
# Velocity P-wave (km/s) = 6.49444 7.19173 6.85196
#
# Compressibility (1/GPa) = 0.02012342
#
# Stress axis : x y z
#
# Youngs Moduli (GPa) = 64.97131 30.05640 58.04892
#
# Poissons Ratio (x) = 0.41195 -0.20391
# Poissons Ratio (y) = 0.89050 0.73661
# Poissons Ratio (z) = -0.22823 0.38140
#
# Static dielectric constant tensor:
#      x y z
#    x 3.320480 0.000000 -0.001650 
#    y 0.000000 3.141760 0.000000 
#    z -0.001650 0.000000 3.252490 
# 
# 
# High freq. dielectric constant tensor:
#      x y z
#    x 1.711300 0.000000 -0.003040 
#    y 0.000000 1.692090 0.000000 
#    z -0.003040 0.000000 1.702980 
# 
# From -- ./inp_files/359862.got.cif
#   From: 2010.06.25/outbox.cif.g09.slc.cpg/sg12_180_cif.got.tgz:359862.got - 2010.06.28 00:19:55.
