data_PCOD8097670
_publ_section_title
;
Structure prediction by ZEFSAII (Michael W. Deem and Ramdas Pophale) SiO2 
 PCOD8097670
Probable space group: C 2/M
;
_chemical_formula_sum "Si O2"
_cell_formula_units_Z 40
_cell_length_a 26.469420
_cell_length_b 9.059329
_cell_length_c 11.429598
_cell_angle_alpha 90.000000
_cell_angle_beta 126.864029
_cell_angle_gamma 90.000000
_cell_volume 2192.778472
_symmetry_space_group_name_H-M "C 2/M"
_symmetry_group_IT_number 12
_symmetry_cell_setting 'monoclinic'
loop_
_space_group_symop_operation_xyz
x,y,z
-x,y,-z
-x,-y,-z
x,-y,z
1/2+x,1/2+y,z
1/2-x,1/2+y,-z
1/2-x,1/2-y,-z
1/2+x,1/2-y,z
loop_
_atom_site_type_symbol
_atom_site_label
_atom_site_fract_x
_atom_site_fract_y
_atom_site_fract_z
Si Si1 0.031468 0.330393 0.225850
Si Si2 0.941743 0.826556 0.500111
Si Si3 0.901859 0.668864 0.916995
Si Si4 0.832564 0.672034 0.214713
Si Si5 0.187951 0.171143 0.049106
O O1 0.035396 0.500000 0.273949
O O2 0.043920 0.219417 0.348056
O O3 0.083788 0.300305 0.198954
O O4 0.962963 0.295048 0.079260
O O5 0.878935 0.744516 0.372036
O O6 0.000000 0.777959 0.500000
O O7 0.929831 0.000000 0.477432
O O8 0.881340 0.500000 0.906367
O O9 0.844510 0.773393 0.876867
O O10 0.847485 0.500000 0.225333
O O11 0.762116 0.703523 0.162391
O O12 0.843076 0.742293 0.102126
O O13 0.174010 0.000000 0.010085
#
# Coordination Sequence:
#
# PCOD8097670 Si02
#       5
#     8   8   8   8   8
#     4   9  19  35  54  78 106 137 175 211 249 307
#     4  11  23  36  52  78 108 135 168 214 263 305
#     4   9  18  34  56  79 104 137 174 211 253 304
#     4  10  21  36  54  76 104 139 175 210 253 308
#     4  10  20  34  54  80 106 133 171 216 258 302
#
# _framework density 18.241696999999998
#
# number of rings (size 3 to 8) (size 9 to 14) (size 15 to 20)
#    0.000    2.200    0.000    4.200    0.000    8.800 
#    0.000    3.000    0.000    0.000    0.000    0.000 
#    0.000    0.000    0.000    0.000    0.000    0.000 
#
# Total GULP energy -248085.109187 kJ/mol
# GULP energy per Si atom -12404.255459 kJ/mol
# Density = 1.820018 g / cm^3
# Si number density = 18.241697 Si / 1000 Ang^3
#
#
#
# Elastic Constant Matrix: (Units=GPa)
#
#
# Indices 1 2 3 4 5 6 
#
# 1 109.4042 51.5103 34.3050 0.0000 -9.0175 0.0000
# 2 51.5103 86.6823 44.4826 0.0000 -0.8333 0.0000
# 3 34.3050 44.4826 87.5203 0.0000 -9.5202 0.0000
# 4 0.0000 0.0000 0.0000 31.4287 0.0000 -3.7190
# 5 -9.0175 -0.8333 -9.5202 0.0000 19.5583 0.0000
# 6 0.0000 0.0000 0.0000 -3.7190 0.0000 32.5611
#
#
#
# Elastic Compliance Matrix: (Units=1/GPa)
#
#
# Indices 1 2 3 4 5 6 
#
# 1 0.013364 -0.007446 -0.000864 0.000000 0.005424 0.000000
# 2 -0.007446 0.019970 -0.007932 0.000000 -0.006443 0.000000
# 3 -0.000864 -0.007932 0.016594 0.000000 0.007341 0.000000
# 4 0.000000 0.000000 0.000000 0.032254 0.000000 0.003684
# 5 0.005424 -0.006443 0.007341 0.000000 0.056929 0.000000
# 6 0.000000 0.000000 0.000000 0.003684 0.000000 0.031132
#
#
# Mechanical properties :
#
#
# Convention : Reuss Voigt Hill
#
# Bulk Modulus (GPa) = 57.32410 60.46697 58.89554
# Shear Modulus (GPa) = 23.97600 26.93022 25.45311
#
# Velocity S-wave (km/s) = 3.62933 3.84643 3.73946
# Velocity P-wave (km/s) = 7.00398 7.27642 7.14150
#
# Compressibility (1/GPa) = 0.01744467
#
# Stress axis : x y z
#
# Youngs Moduli (GPa) = 74.82696 50.07592 60.26106
#
# Poissons Ratio (x) = 0.37287 0.05205
# Poissons Ratio (y) = 0.55717 0.47798
# Poissons Ratio (z) = 0.06463 0.39720
#
# Static dielectric constant tensor:
#      x y z
#    x 3.430140 0.000000 -0.012230 
#    y 0.000000 3.354750 0.000000 
#    z -0.012230 0.000000 3.166460 
# 
# 
# High freq. dielectric constant tensor:
#      x y z
#    x 1.714470 0.000000 -0.001250 
#    y 0.000000 1.713810 0.000000 
#    z -0.001250 0.000000 1.692440 
# 
# From -- ./inp_files/92806.got.cif
#   From: 2010.06.25/outbox.cif.g09.slc.cpg/sg12_47_cif.got.tgz:92806.got - 2010.06.28 00:19:55.
