data_PCOD8097600
_publ_section_title
;
Structure prediction by ZEFSAII (Michael W. Deem and Ramdas Pophale) SiO2 
 PCOD8097600
Probable space group: C 2/M
;
_chemical_formula_sum "Si O2"
_cell_formula_units_Z 48
_cell_length_a 14.254411
_cell_length_b 8.749173
_cell_length_c 28.814736
_cell_angle_alpha 90.000000
_cell_angle_beta 137.985143
_cell_angle_gamma 90.000000
_cell_volume 2405.286750
_symmetry_space_group_name_H-M "C 2/M"
_symmetry_group_IT_number 12
_symmetry_cell_setting 'monoclinic'
loop_
_space_group_symop_operation_xyz
x,y,z
-x,y,-z
-x,-y,-z
x,-y,z
1/2+x,1/2+y,z
1/2-x,1/2+y,-z
1/2-x,1/2-y,-z
1/2+x,1/2-y,z
loop_
_atom_site_type_symbol
_atom_site_label
_atom_site_fract_x
_atom_site_fract_y
_atom_site_fract_z
Si Si1 0.582976 0.820579 0.241108
Si Si2 0.697902 0.320196 0.850923
Si Si3 0.651559 0.681667 0.601039
Si Si4 0.127367 0.173442 0.011196
Si Si5 0.059923 0.319648 0.127882
Si Si6 0.145527 0.683086 0.499490
O O1 0.455024 0.738487 0.220423
O O2 0.727600 0.774524 0.318442
O O3 0.584954 0.760575 0.189047
O O4 0.557687 0.000000 0.234455
O O5 0.699292 0.500000 0.854887
O O6 0.806396 0.260989 0.852116
O O7 0.737387 0.253153 0.916143
O O8 0.632075 0.500000 0.588374
O O9 0.510017 0.756187 0.568909
O O10 0.692704 0.754741 0.566919
O O11 0.083550 0.251953 0.946549
O O12 0.167974 0.000000 0.015873
O O13 0.000000 0.190905 0.000000
O O14 0.047033 0.500000 0.120994
O O15 0.148073 0.500000 0.499941
O O16 0.250000 0.750000 0.500000
#
# Coordination Sequence:
#
# PCOD8097600 Si02
#       6
#     8   8   8   8   8   8
#     4  10  22  38  56  80 113 148 180 221 274 329
#     4  10  20  34  54  78 106 143 187 232 277 328
#     4  10  21  39  60  87 121 152 186 231 279 332
#     4   9  17  31  52  76 102 136 182 235 283 326
#     4   9  19  36  54  75 105 142 183 227 277 330
#     4  11  22  39  64  91 117 150 189 229 275 329
#
# _framework density 19.956039000000001
#
# number of rings (size 3 to 8) (size 9 to 14) (size 15 to 20)
#    0.000    2.167    0.000    4.000    0.000    6.667 
#    0.000    1.667    0.000    0.000    0.000    0.000 
#    0.000    0.000    0.000    0.000    0.000    0.000 
#
# Total GULP energy -297649.903084 kJ/mol
# GULP energy per Si atom -12402.079295 kJ/mol
# Density = 1.991062 g / cm^3
# Si number density = 19.956039 Si / 1000 Ang^3
#
#
#
# Elastic Constant Matrix: (Units=GPa)
#
#
# Indices 1 2 3 4 5 6 
#
# 1 90.4803 31.2943 42.5826 0.0000 4.0436 0.0000
# 2 31.2943 82.9873 39.8072 0.0000 4.4031 0.0000
# 3 42.5826 39.8072 138.8146 0.0000 5.1910 0.0000
# 4 0.0000 0.0000 0.0000 34.7538 0.0000 4.0842
# 5 4.0436 4.4031 5.1910 0.0000 21.2517 0.0000
# 6 0.0000 0.0000 0.0000 4.0842 0.0000 29.4546
#
#
#
# Elastic Compliance Matrix: (Units=1/GPa)
#
#
# Indices 1 2 3 4 5 6 
#
# 1 0.013851 -0.003648 -0.003161 0.000000 -0.001107 0.000000
# 2 -0.003648 0.015012 -0.003124 0.000000 -0.001653 0.000000
# 3 -0.003161 -0.003124 0.009106 0.000000 -0.000975 0.000000
# 4 0.000000 0.000000 0.000000 0.029251 0.000000 -0.004056
# 5 -0.001107 -0.001653 -0.000975 0.000000 0.047847 0.000000
# 6 0.000000 0.000000 0.000000 -0.004056 0.000000 0.034513
#
#
# Mechanical properties :
#
#
# Convention : Reuss Voigt Hill
#
# Bulk Modulus (GPa) = 55.24202 59.96118 57.60160
# Shear Modulus (GPa) = 28.49325 30.33189 29.41257
#
# Velocity S-wave (km/s) = 3.78272 3.90286 3.84326
# Velocity P-wave (km/s) = 6.84256 7.10082 6.97289
#
# Compressibility (1/GPa) = 0.01810216
#
# Stress axis : x y z
#
# Youngs Moduli (GPa) = 72.19572 66.61372 109.81777
#
# Poissons Ratio (x) = 0.24301 0.34718
# Poissons Ratio (y) = 0.26337 0.34307
# Poissons Ratio (z) = 0.22824 0.20810
#
# Static dielectric constant tensor:
#      x y z
#    x 3.704010 0.000000 -0.003910 
#    y 0.000000 3.585200 0.000000 
#    z -0.003910 0.000000 3.734430 
# 
# 
# High freq. dielectric constant tensor:
#      x y z
#    x 1.780900 0.000000 0.005160 
#    y 0.000000 1.781030 0.000000 
#    z 0.005160 0.000000 1.779090 
# 
# From -- ./inp_files/375160.got.cif
#   From: 2010.06.25/outbox.cif.g09.slc.cpg/sg12_188_cif.got.tgz:375160.got - 2010.06.28 00:19:55.
