data_PCOD8097790
_publ_section_title
;
Structure prediction by ZEFSAII (Michael W. Deem and Ramdas Pophale) SiO2 
 PCOD8097790
Probable space group: C 2/M
;
_chemical_formula_sum "Si O2"
_cell_formula_units_Z 56
_cell_length_a 14.295126
_cell_length_b 8.482642
_cell_length_c 27.893391
_cell_angle_alpha 90.000000
_cell_angle_beta 57.700088
_cell_angle_gamma 90.000000
_cell_volume 2858.986613
_symmetry_space_group_name_H-M "C 2/M"
_symmetry_group_IT_number 12
_symmetry_cell_setting 'monoclinic'
loop_
_space_group_symop_operation_xyz
x,y,z
-x,y,-z
-x,-y,-z
x,-y,z
1/2+x,1/2+y,z
1/2-x,1/2+y,-z
1/2-x,1/2-y,-z
1/2+x,1/2-y,z
loop_
_atom_site_type_symbol
_atom_site_label
_atom_site_fract_x
_atom_site_fract_y
_atom_site_fract_z
Si Si1 0.651156 0.683247 0.436384
Si Si2 0.699092 0.684561 0.062043
Si Si3 0.956282 0.187001 0.156864
Si Si4 0.258212 0.314657 0.143789
Si Si5 0.486743 0.815674 0.760105
Si Si6 0.060271 0.315398 0.552953
Si Si7 0.118099 0.816971 0.637976
O O1 0.620802 0.500000 0.438802
O O2 0.648754 0.732802 0.493127
O O3 0.563229 0.790459 0.432759
O O4 0.771434 0.716917 0.381995
O O5 0.704673 0.500000 0.058191
O O6 0.571937 0.741517 0.101483
O O7 0.771277 0.741203 0.087521
O O8 0.750000 0.750000 0.000000
O O9 0.856768 0.248255 0.150561
O O10 0.943524 0.270237 0.211798
O O11 0.951332 0.000000 0.165773
O O12 0.266792 0.500000 0.135295
O O13 0.141069 0.264996 0.198693
O O14 0.530800 0.717249 0.703405
O O15 0.499088 0.000000 0.746159
O O16 0.087491 0.500000 0.549764
O O17 0.064154 0.234153 0.603102
O O18 0.148395 0.000000 0.628593
#
# Coordination Sequence:
#
# PCOD8097790 Si02
#       7
#     8   8   8   8   8   8   8
#     4  11  22  39  60  85 114 146 186 232 282 338
#     4  10  20  34  54  81 114 145 181 224 269 320
#     4   9  19  37  58  79 106 146 185 222 272 332
#     4   9  19  37  59  79 106 143 183 223 271 324
#     4  10  21  37  56  81 109 139 180 233 280 327
#     4  11  22  39  60  85 115 148 185 228 282 343
#     4  12  24  39  58  82 113 151 190 232 280 334
#
# _framework density 19.587361000000001
#
# number of rings (size 3 to 8) (size 9 to 14) (size 15 to 20)
#    0.000    1.714    0.000    6.000    0.000    3.429 
#    0.000    7.143    0.000    0.000    0.000    0.000 
#    0.000    0.000    0.000    0.000    0.000    0.000 
#
# Total GULP energy -347330.729795 kJ/mol
# GULP energy per Si atom -12404.668921 kJ/mol
# Density = 1.954278 g / cm^3
# Si number density = 19.587361 Si / 1000 Ang^3
#
#
#
# Elastic Constant Matrix: (Units=GPa)
#
#
# Indices 1 2 3 4 5 6 
#
# 1 99.0235 15.1140 35.8717 0.0000 6.3331 0.0000
# 2 15.1140 65.9582 30.2866 0.0001 2.9045 0.0001
# 3 35.8717 30.2866 118.0236 0.0000 2.6307 0.0000
# 4 0.0000 0.0001 0.0000 37.1253 0.0000 3.0701
# 5 6.3331 2.9045 2.6307 0.0000 19.5083 0.0000
# 6 0.0000 0.0001 0.0000 3.0701 0.0000 30.6948
#
#
#
# Elastic Compliance Matrix: (Units=1/GPa)
#
#
# Indices 1 2 3 4 5 6 
#
# 1 0.011619 -0.001058 -0.003189 0.000000 -0.003184 0.000000
# 2 -0.001058 0.017358 -0.004095 0.000000 -0.001689 0.000000
# 3 -0.003189 -0.004095 0.010488 0.000000 0.000231 0.000000
# 4 0.000000 0.000000 0.000000 0.027160 0.000000 -0.002717
# 5 -0.003184 -0.001689 0.000231 0.000000 0.052514 0.000000
# 6 0.000000 0.000000 0.000000 -0.002717 0.000000 0.032851
#
#
# Mechanical properties :
#
#
# Convention : Reuss Voigt Hill
#
# Bulk Modulus (GPa) = 43.89629 49.50556 46.70092
# Shear Modulus (GPa) = 28.36584 30.91455 29.64020
#
# Velocity S-wave (km/s) = 3.80961 3.97708 3.89425
# Velocity P-wave (km/s) = 6.46607 6.81312 6.64186
#
# Compressibility (1/GPa) = 0.02278097
#
# Stress axis : x y z
#
# Youngs Moduli (GPa) = 86.06623 57.60920 95.34813
#
# Poissons Ratio (x) = 0.06094 0.30406
# Poissons Ratio (y) = 0.09105 0.39047
# Poissons Ratio (z) = 0.27446 0.23592
#
# Static dielectric constant tensor:
#      x y z
#    x 3.670250 0.000000 -0.012020 
#    y 0.000000 3.563450 0.000000 
#    z -0.012020 0.000000 3.600740 
# 
# 
# High freq. dielectric constant tensor:
#      x y z
#    x 1.766430 0.000000 0.002780 
#    y 0.000000 1.770160 0.000000 
#    z 0.002780 0.000000 1.762900 
# 
# From -- ./inp_files/338554.got.cif
#   From: 2010.06.25/outbox.cif.g09.slc.cpg/sg12_170_cif.got.tgz:338554.got - 2010.06.28 00:19:55.
