data_PCOD8097099
_publ_section_title
;
Structure prediction by ZEFSAII (Michael W. Deem and Ramdas Pophale) SiO2 
 PCOD8097099
Probable space group: C 2/M
;
_chemical_formula_sum "Si O2"
_cell_formula_units_Z 64
_cell_length_a 24.040626
_cell_length_b 9.062137
_cell_length_c 30.743992
_cell_angle_alpha 90.000000
_cell_angle_beta 29.166609
_cell_angle_gamma 90.000000
_cell_volume 3264.212203
_symmetry_space_group_name_H-M "C 2/M"
_symmetry_group_IT_number 12
_symmetry_cell_setting 'monoclinic'
loop_
_space_group_symop_operation_xyz
x,y,z
-x,y,-z
-x,-y,-z
x,-y,z
1/2+x,1/2+y,z
1/2-x,1/2+y,-z
1/2-x,1/2-y,-z
1/2+x,1/2-y,z
loop_
_atom_site_type_symbol
_atom_site_label
_atom_site_fract_x
_atom_site_fract_y
_atom_site_fract_z
Si Si1 0.631745 0.672943 0.418578
Si Si2 0.693017 0.673487 0.472876
Si Si3 0.826555 0.667836 0.009862
Si Si4 0.591400 0.831396 0.619342
Si Si5 0.472507 0.671843 0.844741
Si Si6 0.602356 0.170441 0.184632
Si Si7 0.459947 0.832844 0.073144
Si Si8 0.316241 0.328278 0.237747
O O1 0.500000 0.709457 0.500000
O O2 0.657114 0.500000 0.397559
O O3 0.671418 0.734628 0.438800
O O4 0.700977 0.753609 0.333157
O O5 0.675639 0.500000 0.483655
O O6 0.598568 0.738370 0.570257
O O7 0.817256 0.721246 0.406230
O O8 0.798815 0.500000 0.014545
O O9 0.859042 0.766326 0.945944
O O10 0.931222 0.672202 0.970749
O O11 0.718539 0.737673 0.107927
O O12 0.463570 0.812698 0.724733
O O13 0.618691 0.000000 0.588961
O O14 0.454433 0.500000 0.847961
O O15 0.482709 0.762013 0.793270
O O16 0.586372 0.704303 0.793486
O O17 0.627819 0.000000 0.156697
O O18 0.355804 0.739650 0.164597
O O19 0.416119 0.000000 0.096358
O O20 0.500000 0.763020 0.000000
O O21 0.294430 0.500000 0.245515
#
# Coordination Sequence:
#
# PCOD8097099 Si02
#       8
#     8   8   8   8   8   8   8   8
#     4  10  21  38  59  83 112 147 186 231 279 329
#     4   9  18  35  57  78 102 136 181 226 268 317
#     4  10  20  34  52  76 106 139 177 221 268 317
#     4   9  19  34  53  77 105 140 177 218 270 325
#     4  10  20  34  53  77 107 141 179 220 266 320
#     4  11  21  33  50  76 110 144 177 214 265 323
#     4   9  19  38  61  81 104 142 187 229 270 321
#     4  10  21  36  57  85 111 141 181 227 278 329
#
# _framework density 19.606569
#
# number of rings (size 3 to 8) (size 9 to 14) (size 15 to 20)
#    0.000    2.250    0.000    2.625    0.000    5.000 
#    2.250    2.500    0.000    0.000    0.000    0.000 
#    0.000    0.000    0.000    0.000    0.000    0.000 
#
# Total GULP energy -396819.263197 kJ/mol
# GULP energy per Si atom -12400.601975 kJ/mol
# Density = 1.956194 g / cm^3
# Si number density = 19.606569 Si / 1000 Ang^3
#
#
#
# Elastic Constant Matrix: (Units=GPa)
#
#
# Indices 1 2 3 4 5 6 
#
# 1 47.0311 22.3878 33.2122 -0.0482 15.9393 0.0840
# 2 22.3878 86.8545 60.9872 -0.0305 4.9155 0.0693
# 3 33.2122 60.9872 142.0970 -0.0106 13.3056 0.0144
# 4 -0.0482 -0.0305 -0.0106 35.7635 0.0164 3.7231
# 5 15.9393 4.9155 13.3056 0.0164 29.8602 -0.0305
# 6 0.0840 0.0693 0.0144 3.7231 -0.0305 23.6915
#
#
#
# Elastic Compliance Matrix: (Units=1/GPa)
#
#
# Indices 1 2 3 4 5 6 
#
# 1 0.030933 -0.004329 -0.004062 0.000056 -0.013990 -0.000121
# 2 -0.004329 0.017092 -0.006550 0.000009 0.002416 -0.000029
# 3 -0.004062 -0.006550 0.010951 -0.000010 -0.001633 0.000026
# 4 0.000056 0.000009 -0.000010 0.028427 -0.000047 -0.004468
# 5 -0.013990 0.002416 -0.001633 -0.000047 0.041287 0.000104
# 6 -0.000121 -0.000029 0.000026 -0.004468 0.000104 0.042912
#
#
# Mechanical properties :
#
#
# Convention : Reuss Voigt Hill
#
# Bulk Modulus (GPa) = 34.37186 56.57300 45.47243
# Shear Modulus (GPa) = 23.67615 28.48941 26.08278
#
# Velocity S-wave (km/s) = 3.47877 3.81603 3.65130
# Velocity P-wave (km/s) = 5.80557 6.95218 6.40459
#
# Compressibility (1/GPa) = 0.02909357
#
# Stress axis : x y z
#
# Youngs Moduli (GPa) = 32.32759 58.50654 91.31553
#
# Poissons Ratio (x) = 0.25330 0.37091
# Poissons Ratio (y) = 0.13996 0.59813
# Poissons Ratio (z) = 0.13131 0.38323
#
# Static dielectric constant tensor:
#      x y z
#    x 3.451200 -0.000070 0.134560 
#    y -0.000070 3.585400 0.000040 
#    z 0.134560 0.000040 3.591570 
# 
# 
# High freq. dielectric constant tensor:
#      x y z
#    x 1.746150 -0.000010 0.006510 
#    y -0.000010 1.763320 0.000000 
#    z 0.006510 0.000000 1.770380 
# 
# From -- ./inp_files/382318.got.cif
#   From: 2010.06.25/outbox.cif.g09.slc.cpg/sg12_192_cif.got.tgz:382318.got - 2010.06.28 00:19:55.
