data_PCOD8097914
_publ_section_title
;
Structure prediction by ZEFSAII (Michael W. Deem and Ramdas Pophale) SiO2 
 PCOD8097914
Probable space group: C 2/M
;
_chemical_formula_sum "Si O2"
_cell_formula_units_Z 64
_cell_length_a 19.426267
_cell_length_b 8.996469
_cell_length_c 20.237384
_cell_angle_alpha 90.000000
_cell_angle_beta 90.194208
_cell_angle_gamma 90.000000
_cell_volume 3536.822941
_symmetry_space_group_name_H-M "C 2/M"
_symmetry_group_IT_number 12
_symmetry_cell_setting 'monoclinic'
loop_
_space_group_symop_operation_xyz
x,y,z
-x,y,-z
-x,-y,-z
x,-y,z
1/2+x,1/2+y,z
1/2-x,1/2+y,-z
1/2-x,1/2-y,-z
1/2+x,1/2-y,z
loop_
_atom_site_type_symbol
_atom_site_label
_atom_site_fract_x
_atom_site_fract_y
_atom_site_fract_z
Si Si1 0.575122 0.827393 0.751083
Si Si2 0.832011 0.173326 0.865190
Si Si3 0.677617 0.824881 0.863421
Si Si4 0.933981 0.326983 0.398686
Si Si5 0.924347 0.175153 0.607839
Si Si6 0.822816 0.173464 0.009227
Si Si7 0.675831 0.823903 0.491517
Si Si8 0.063520 0.825597 0.240557
O O1 0.639670 0.779764 0.795844
O O2 0.590808 0.785373 0.675190
O O3 0.509645 0.741515 0.778398
O O4 0.558986 0.000000 0.757970
O O5 0.755074 0.239216 0.857494
O O6 0.881383 0.245778 0.810136
O O7 0.826330 0.000000 0.849869
O O8 0.862569 0.200315 0.939481
O O9 0.640398 0.748246 0.927030
O O10 0.676399 0.000000 0.875972
O O11 0.952937 0.500000 0.405684
O O12 0.871137 0.282496 0.445653
O O13 0.002379 0.235660 0.418514
O O14 0.860989 0.256869 0.572782
O O15 0.915425 0.214940 0.684806
O O16 0.920803 0.000000 0.594166
O O17 0.813089 0.000000 0.022659
O O18 0.750000 0.250000 0.000000
O O19 0.750000 0.750000 0.500000
O O20 0.684678 0.000000 0.483641
O O21 0.057490 0.000000 0.230708
#
# Coordination Sequence:
#
# PCOD8097914 Si02
#       8
#     8   8   8   8   8   8   8   8
#     4   9  18  33  52  73  98 128 162 201 243 287
#     4   8  15  29  49  70  92 124 165 202 237 282
#     4   9  17  30  49  71  95 125 161 201 243 287
#     4   9  19  36  56  75  98 134 174 205 241 295
#     4  10  20  34  55  79 102 132 168 206 248 296
#     4   9  16  28  47  69  94 125 161 200 240 286
#     4  11  23  37  54  77 105 134 165 206 251 294
#     4   9  18  33  52  73  98 128 163 201 239 286
#
# _framework density 18.095337000000001
#
# number of rings (size 3 to 8) (size 9 to 14) (size 15 to 20)
#    0.000    2.750    0.000    2.250    0.000    4.500 
#    0.000    7.500    0.000    6.750    0.000    0.000 
#    0.000    0.000    0.000    0.000    0.000    0.000 
#
# Total GULP energy -396668.883082 kJ/mol
# GULP energy per Si atom -12395.902596 kJ/mol
# Density = 1.805415 g / cm^3
# Si number density = 18.095337 Si / 1000 Ang^3
#
#
#
# Elastic Constant Matrix: (Units=GPa)
#
#
# Indices 1 2 3 4 5 6 
#
# 1 93.4678 33.2398 53.0062 0.0000 -9.0938 0.0000
# 2 33.2398 52.9220 33.8287 0.0000 -2.3024 0.0000
# 3 53.0062 33.8287 95.4421 0.0000 -10.0337 0.0000
# 4 0.0000 0.0000 0.0000 28.1548 0.0000 3.6381
# 5 -9.0938 -2.3024 -10.0337 0.0000 31.2440 0.0000
# 6 0.0000 0.0000 0.0000 3.6381 0.0000 28.7849
#
#
#
# Elastic Compliance Matrix: (Units=1/GPa)
#
#
# Indices 1 2 3 4 5 6 
#
# 1 0.017122 -0.006114 -0.007105 0.000000 0.002251 0.000000
# 2 -0.006114 0.026646 -0.006240 0.000000 -0.001820 0.000000
# 3 -0.007105 -0.006240 0.016941 0.000000 0.002913 0.000000
# 4 0.000000 0.000000 0.000000 0.036108 0.000000 -0.004564
# 5 0.002251 -0.001820 0.002913 0.000000 0.033463 0.000000
# 6 0.000000 0.000000 0.000000 -0.004564 0.000000 0.035317
#
#
# Mechanical properties :
#
#
# Convention : Reuss Voigt Hill
#
# Bulk Modulus (GPa) = 45.89257 53.55346 49.72302
# Shear Modulus (GPa) = 23.60961 25.75389 24.68175
#
# Velocity S-wave (km/s) = 3.61603 3.77667 3.69722
# Velocity P-wave (km/s) = 6.54605 6.97690 6.76491
#
# Compressibility (1/GPa) = 0.02179002
#
# Stress axis : x y z
#
# Youngs Moduli (GPa) = 58.40558 37.52972 59.02673
#
# Poissons Ratio (x) = 0.22947 0.41939
# Poissons Ratio (y) = 0.35711 0.36832
# Poissons Ratio (z) = 0.41498 0.23418
#
# Static dielectric constant tensor:
#      x y z
#    x 3.277810 0.000000 -0.130390 
#    y 0.000000 3.302920 0.000000 
#    z -0.130390 0.000000 3.704340 
# 
# 
# High freq. dielectric constant tensor:
#      x y z
#    x 1.679280 0.000000 0.000650 
#    y 0.000000 1.691030 0.000000 
#    z 0.000650 0.000000 1.716560 
# 
# From -- ./inp_files/314048.got.cif
#   From: 2010.06.25/outbox.cif.g09.slc.cpg/sg12_158_cif.got.tgz:314048.got - 2010.06.28 00:19:55.
