data_PCOD8097573
_publ_section_title
;
Structure prediction by ZEFSAII (Michael W. Deem and Ramdas Pophale) SiO2 
 PCOD8097573
Probable space group: C 2/M
;
_chemical_formula_sum "Si O2"
_cell_formula_units_Z 64
_cell_length_a 30.737679
_cell_length_b 9.245525
_cell_length_c 24.667973
_cell_angle_alpha 90.000000
_cell_angle_beta 30.613966
_cell_angle_gamma 90.000000
_cell_volume 3569.999712
_symmetry_space_group_name_H-M "C 2/M"
_symmetry_group_IT_number 12
_symmetry_cell_setting 'monoclinic'
loop_
_space_group_symop_operation_xyz
x,y,z
-x,y,-z
-x,-y,-z
x,-y,z
1/2+x,1/2+y,z
1/2-x,1/2+y,-z
1/2-x,1/2-y,-z
1/2+x,1/2-y,z
loop_
_atom_site_type_symbol
_atom_site_label
_atom_site_fract_x
_atom_site_fract_y
_atom_site_fract_z
Si Si1 0.486794 0.833694 0.780228
Si Si2 0.255462 0.331867 0.731427
Si Si3 0.176703 0.668291 0.547529
Si Si4 0.557493 0.164246 0.294442
Si Si5 0.636365 0.166826 0.470429
Si Si6 0.209993 0.831914 0.181504
Si Si7 0.123139 0.168645 0.016705
Si Si8 0.910821 0.168005 0.070624
O O1 0.585771 0.789554 0.670513
O O2 0.442009 0.810406 0.770415
O O3 0.445655 0.727991 0.867746
O O4 0.476700 0.000000 0.809569
O O5 0.243571 0.500000 0.732180
O O6 0.325921 0.268258 0.616032
O O7 0.289045 0.301590 0.755656
O O8 0.164432 0.255847 0.819408
O O9 0.193148 0.500000 0.536879
O O10 0.250000 0.750000 0.500000
O O11 0.179070 0.710124 0.481716
O O12 0.464558 0.194095 0.418772
O O13 0.621014 0.276258 0.253806
O O14 0.585723 0.000000 0.277209
O O15 0.655608 0.000000 0.435922
O O16 0.220111 0.000000 0.157078
O O17 0.287154 0.748290 0.069654
O O18 0.137508 0.000000 0.011667
O O19 0.087451 0.200223 0.995112
O O20 0.895017 0.000000 0.099909
O O21 0.000000 0.221464 0.000000
#
# Coordination Sequence:
#
# PCOD8097573 Si02
#       8
#     8   8   8   8   8   8   8   8
#     4   9  19  36  54  74 104 136 167 210 258 299
#     4  10  21  35  52  77 106 135 169 209 255 305
#     4   9  19  35  54  77 105 137 172 210 253 301
#     4   9  19  36  56  76  99 133 175 211 248 301
#     4   9  19  36  55  75 103 138 173 210 252 299
#     4  10  21  36  53  75 105 136 166 209 260 303
#     4  10  20  34  54  78 102 133 173 210 249 304
#     4   9  19  36  55  75 102 135 171 212 254 298
#
# _framework density 17.927171000000001
#
# number of rings (size 3 to 8) (size 9 to 14) (size 15 to 20)
#    0.000    2.625    0.000    2.625    0.000    6.250 
#    0.000    8.750    0.000    0.000    0.000    0.000 
#    0.000    0.000    0.000    0.000    0.000    0.000 
#
# Total GULP energy -396888.895373 kJ/mol
# GULP energy per Si atom -12402.777980 kJ/mol
# Density = 1.788637 g / cm^3
# Si number density = 17.927171 Si / 1000 Ang^3
#
#
#
# Elastic Constant Matrix: (Units=GPa)
#
#
# Indices 1 2 3 4 5 6 
#
# 1 88.2781 54.4413 53.7564 -0.0093 -19.7597 0.0040
# 2 54.4413 95.0147 66.4883 0.0577 -1.7742 -0.0171
# 3 53.7564 66.4883 109.9376 0.0241 5.1333 -0.0095
# 4 -0.0093 0.0577 0.0241 39.8307 -0.0102 -0.0835
# 5 -19.7597 -1.7742 5.1333 -0.0102 28.8606 -0.0013
# 6 0.0040 -0.0171 -0.0095 -0.0835 -0.0013 32.6044
#
#
#
# Elastic Compliance Matrix: (Units=1/GPa)
#
#
# Indices 1 2 3 4 5 6 
#
# 1 0.025926 -0.008711 -0.008281 0.000028 0.018688 -0.000009
# 2 -0.008711 0.021455 -0.008570 -0.000029 -0.003121 0.000010
# 3 -0.008281 -0.008570 0.018774 -0.000003 -0.009536 0.000002
# 4 0.000028 -0.000029 -0.000003 0.025106 0.000027 0.000064
# 5 0.018688 -0.003121 -0.009536 0.000027 0.048948 -0.000005
# 6 -0.000009 0.000010 0.000002 0.000064 -0.000005 0.030671
#
#
# Mechanical properties :
#
#
# Convention : Reuss Voigt Hill
#
# Bulk Modulus (GPa) = 66.53716 71.40024 68.96870
# Shear Modulus (GPa) = 22.02495 28.16210 25.09353
#
# Velocity S-wave (km/s) = 3.50891 3.96778 3.74538
# Velocity P-wave (km/s) = 7.32205 7.80419 7.56696
#
# Compressibility (1/GPa) = 0.01502920
#
# Stress axis : x y z
#
# Youngs Moduli (GPa) = 38.57176 46.60943 53.26533
#
# Poissons Ratio (x) = 0.40601 0.44111
# Poissons Ratio (y) = 0.33599 0.45651
# Poissons Ratio (z) = 0.31943 0.39946
#
# Static dielectric constant tensor:
#      x y z
#    x 3.447670 0.000020 -0.133960 
#    y 0.000020 3.284650 0.000010 
#    z -0.133960 0.000010 3.345320 
# 
# 
# High freq. dielectric constant tensor:
#      x y z
#    x 1.692000 0.000000 -0.002300 
#    y 0.000000 1.696640 0.000000 
#    z -0.002300 0.000000 1.698480 
# 
# From -- ./inp_files/243732.got.cif
#   From: 2010.06.25/outbox.cif.g09.slc.cpg/sg12_122_cif.got.tgz:243732.got - 2010.06.28 00:19:55.
