data_PCOD8097183
_publ_section_title
;
Structure prediction by ZEFSAII (Michael W. Deem and Ramdas Pophale) SiO2 
 PCOD8097183
Probable space group: C 2/M
;
_chemical_formula_sum "Si O2"
_cell_formula_units_Z 56
_cell_length_a 8.859588
_cell_length_b 12.735951
_cell_length_c 29.300209
_cell_angle_alpha 90.000000
_cell_angle_beta 115.844452
_cell_angle_gamma 90.000000
_cell_volume 2975.424156
_symmetry_space_group_name_H-M "C 2/M"
_symmetry_group_IT_number 12
_symmetry_cell_setting 'monoclinic'
loop_
_space_group_symop_operation_xyz
x,y,z
-x,y,-z
-x,-y,-z
x,-y,z
1/2+x,1/2+y,z
1/2-x,1/2+y,-z
1/2-x,1/2-y,-z
1/2+x,1/2-y,z
loop_
_atom_site_type_symbol
_atom_site_label
_atom_site_fract_x
_atom_site_fract_y
_atom_site_fract_z
Si Si1 0.606483 0.307366 0.918078
Si Si2 0.253893 0.621669 0.327308
Si Si3 0.915247 0.749929 0.616132
Si Si4 0.753729 0.756973 0.848332
Si Si5 0.362310 0.883108 0.017258
Si Si6 0.917609 0.621112 0.792195
Si Si7 0.084587 0.621147 0.559900
O O1 0.700963 0.321248 0.882389
O O2 0.409834 0.329413 0.885166
O O3 0.682694 0.381631 0.967412
O O4 0.636222 0.186161 0.937207
O O5 0.281151 0.500000 0.343346
O O6 0.137364 0.673882 0.349964
O O7 0.432652 0.677695 0.347407
O O8 0.162270 0.635962 0.267516
O O9 0.765767 0.825765 0.581379
O O10 0.965321 0.677790 0.580336
O O11 0.804263 0.684257 0.812849
O O12 0.605421 0.834495 0.814772
O O13 0.405914 0.000000 0.038695
O O14 0.500000 0.838513 0.000000
O O15 0.922867 0.500000 0.807594
O O16 0.106106 0.500000 0.576982
O O17 0.000000 0.632647 0.500000
#
# Coordination Sequence:
#
# PCOD8097183 Si02
#       7
#     8   8   8   8   8   8   8
#     4  10  20  36  54  79 108 134 171 218 254 311
#     4  10  20  36  57  81 108 139 183 231 274 325
#     4  10  20  34  56  81 109 147 188 228 277 324
#     4  10  21  37  57  79 110 141 173 219 268 322
#     4  10  20  34  55  78 103 139 175 210 260 309
#     4  10  22  39  59  82 109 142 178 223 277 326
#     4  10  20  34  52  79 115 151 188 229 273 324
#
# _framework density 18.820846
#
# number of rings (size 3 to 8) (size 9 to 14) (size 15 to 20)
#    0.000    2.000    1.429    2.143    0.000    3.429 
#    0.000    2.857    0.000   18.857    0.000    0.000 
#    0.000    0.000    0.000    0.000    0.000    0.000 
#
# Total GULP energy -347233.070397 kJ/mol
# GULP energy per Si atom -12401.181086 kJ/mol
# Density = 1.877801 g / cm^3
# Si number density = 18.820846 Si / 1000 Ang^3
#
#
#
# Elastic Constant Matrix: (Units=GPa)
#
#
# Indices 1 2 3 4 5 6 
#
# 1 110.5977 33.7155 37.6734 0.0000 4.8537 0.0000
# 2 33.7155 90.3203 39.6332 0.0000 0.1623 0.0000
# 3 37.6734 39.6332 82.5047 0.0000 5.2416 0.0000
# 4 0.0000 0.0000 0.0000 5.8817 0.0000 2.8698
# 5 4.8537 0.1623 5.2416 0.0000 24.1848 0.0000
# 6 0.0000 0.0000 0.0000 2.8698 0.0000 21.1534
#
#
#
# Elastic Compliance Matrix: (Units=1/GPa)
#
#
# Indices 1 2 3 4 5 6 
#
# 1 0.011161 -0.002492 -0.003811 0.000000 -0.001397 0.000000
# 2 -0.002492 0.014631 -0.005999 0.000000 0.001702 0.000000
# 3 -0.003811 -0.005999 0.016924 0.000000 -0.002863 0.000000
# 4 0.000000 0.000000 0.000000 0.182071 0.000000 -0.024701
# 5 -0.001397 0.001702 -0.002863 0.000000 0.042238 0.000000
# 6 0.000000 0.000000 0.000000 -0.024701 0.000000 0.050625
#
#
# Mechanical properties :
#
#
# Convention : Reuss Voigt Hill
#
# Bulk Modulus (GPa) = 55.20610 56.16300 55.68455
# Shear Modulus (GPa) = 14.35590 21.73736 18.04663
#
# Velocity S-wave (km/s) = 2.76482 3.40216 3.09991
# Velocity P-wave (km/s) = 6.29193 6.73339 6.51640
#
# Compressibility (1/GPa) = 0.01811394
#
# Stress axis : x y z
#
# Youngs Moduli (GPa) = 89.60056 68.34784 59.08736
#
# Poissons Ratio (x) = 0.17029 0.22516
# Poissons Ratio (y) = 0.22324 0.35446
# Poissons Ratio (z) = 0.34143 0.41001
#
# Static dielectric constant tensor:
#      x y z
#    x 3.041390 0.000000 0.069220 
#    y 0.000000 3.373380 0.000000 
#    z 0.069220 0.000000 3.481930 
# 
# 
# High freq. dielectric constant tensor:
#      x y z
#    x 1.743320 0.000000 0.003220 
#    y 0.000000 1.725370 0.000000 
#    z 0.003220 0.000000 1.741040 
# 
# From -- ./inp_files/332678.got.cif
#   From: 2010.06.25/outbox.cif.g09.slc.cpg/sg12_167_cif.got.tgz:332678.got - 2010.06.28 00:19:55.
