data_PCOD8097722
_publ_section_title
;
Structure prediction by ZEFSAII (Michael W. Deem and Ramdas Pophale) SiO2 
 PCOD8097722
Probable space group: C 2/M
;
_chemical_formula_sum "Si O2"
_cell_formula_units_Z 56
_cell_length_a 30.296662
_cell_length_b 8.943242
_cell_length_c 18.446729
_cell_angle_alpha 90.000000
_cell_angle_beta 37.789588
_cell_angle_gamma 90.000000
_cell_volume 3062.682573
_symmetry_space_group_name_H-M "C 2/M"
_symmetry_group_IT_number 12
_symmetry_cell_setting 'monoclinic'
loop_
_space_group_symop_operation_xyz
x,y,z
-x,y,-z
-x,-y,-z
x,-y,z
1/2+x,1/2+y,z
1/2-x,1/2+y,-z
1/2-x,1/2-y,-z
1/2+x,1/2-y,z
loop_
_atom_site_type_symbol
_atom_site_label
_atom_site_fract_x
_atom_site_fract_y
_atom_site_fract_z
Si Si1 0.796578 0.671366 0.222359
Si Si2 0.308125 0.172761 0.374344
Si Si3 0.444885 0.670563 0.010196
Si Si4 0.555692 0.671301 0.744193
Si Si5 0.159162 0.324525 0.341790
Si Si6 0.961748 0.676003 0.386316
Si Si7 0.437702 0.668545 0.639916
O O1 0.788328 0.500000 0.209289
O O2 0.781659 0.690389 0.326737
O O3 0.739237 0.769042 0.253282
O O4 0.875867 0.724561 0.098444
O O5 0.250000 0.250000 0.500000
O O6 0.383605 0.256635 0.284003
O O7 0.317028 0.000000 0.385160
O O8 0.422137 0.500000 0.057596
O O9 0.480917 0.681641 0.884399
O O10 0.500000 0.728569 0.000000
O O11 0.576221 0.500000 0.700578
O O12 0.550706 0.761238 0.676818
O O13 0.159691 0.500000 0.328629
O O14 0.107269 0.279443 0.475750
O O15 0.132182 0.249642 0.302207
O O16 0.972316 0.500000 0.369004
O O17 0.034646 0.746340 0.324501
O O18 0.500000 0.672691 0.500000
O O19 0.417032 0.500000 0.688359
#
# Coordination Sequence:
#
# PCOD8097722 Si02
#       7
#     8   8   8   8   8   8   8
#     4  11  23  36  54  79 107 140 181 228 271 318
#     4  11  23  36  52  77 109 143 177 218 270 323
#     4  10  21  39  59  77 101 140 186 228 272 322
#     4  11  22  36  56  79 106 141 182 226 270 320
#     4  10  20  34  54  80 112 147 181 219 267 325
#     4  10  20  34  54  82 114 147 181 219 268 324
#     4   9  17  31  53  80 111 144 179 221 266 318
#
# _framework density 18.284624000000001
#
# number of rings (size 3 to 8) (size 9 to 14) (size 15 to 20)
#    0.000    1.714    1.429    3.429    0.000    8.857 
#    0.000    0.000    0.000    0.857    0.000    0.000 
#    0.000    0.000    0.000    0.000    0.000    0.000 
#
# Total GULP energy -347330.263624 kJ/mol
# GULP energy per Si atom -12404.652272 kJ/mol
# Density = 1.824301 g / cm^3
# Si number density = 18.284624 Si / 1000 Ang^3
#
#
#
# Elastic Constant Matrix: (Units=GPa)
#
#
# Indices 1 2 3 4 5 6 
#
# 1 91.8267 37.3314 13.0413 0.0010 -23.2776 0.0038
# 2 37.3314 95.9159 28.2338 0.0092 -11.0965 0.0023
# 3 13.0413 28.2338 57.3031 -0.0064 -15.4627 -0.0005
# 4 0.0010 0.0092 -0.0064 27.5890 -0.0015 -3.9473
# 5 -23.2776 -11.0965 -15.4627 -0.0015 20.2007 0.0040
# 6 0.0038 0.0023 -0.0005 -3.9473 0.0040 38.6613
#
#
#
# Elastic Compliance Matrix: (Units=1/GPa)
#
#
# Indices 1 2 3 4 5 6 
#
# 1 0.017927 -0.005873 0.004433 0.000003 0.020825 -0.000003
# 2 -0.005873 0.014232 -0.006796 -0.000006 -0.004152 -0.000001
# 3 0.004433 -0.006796 0.025410 0.000009 0.020826 -0.000001
# 4 0.000003 -0.000006 0.000009 0.036784 0.000009 0.003756
# 5 0.020825 -0.004152 0.020826 0.000009 0.087161 -0.000010
# 6 -0.000003 -0.000001 -0.000001 0.003756 -0.000010 0.026249
#
#
# Mechanical properties :
#
#
# Convention : Reuss Voigt Hill
#
# Bulk Modulus (GPa) = 24.33232 44.69542 34.51387
# Shear Modulus (GPa) = 21.01427 28.38615 24.70021
#
# Velocity S-wave (km/s) = 3.39379 3.94440 3.67941
# Velocity P-wave (km/s) = 5.35663 6.72620 6.08010
#
# Compressibility (1/GPa) = 0.04109760
#
# Stress axis : x y z
#
# Youngs Moduli (GPa) = 55.78109 70.26519 39.35436
#
# Poissons Ratio (x) = 0.41268 -0.17447
# Poissons Ratio (y) = 0.32761 0.26745
# Poissons Ratio (z) = -0.24729 0.47751
#
# Static dielectric constant tensor:
#      x y z
#    x 3.419830 -0.000010 -0.049510 
#    y -0.000010 3.544790 0.000030 
#    z -0.049510 0.000030 3.118480 
# 
# 
# High freq. dielectric constant tensor:
#      x y z
#    x 1.713000 0.000000 -0.006240 
#    y 0.000000 1.726080 0.000000 
#    z -0.006240 0.000000 1.681320 
# 
# From -- ./inp_files/281607.got.cif
#   From: 2010.06.25/outbox.cif.g09.slc.cpg/sg12_141_cif.got.tgz:281607.got - 2010.06.28 00:19:55.
