data_PCOD8097907
_publ_section_title
;
Structure prediction by ZEFSAII (Michael W. Deem and Ramdas Pophale) SiO2 
 PCOD8097907
Probable space group: C 2/M
;
_chemical_formula_sum "Si O2"
_cell_formula_units_Z 56
_cell_length_a 16.203540
_cell_length_b 25.992624
_cell_length_c 9.522489
_cell_angle_alpha 90.000000
_cell_angle_beta 54.199206
_cell_angle_gamma 90.000000
_cell_volume 3252.828731
_symmetry_space_group_name_H-M "C 2/M"
_symmetry_group_IT_number 12
_symmetry_cell_setting 'monoclinic'
loop_
_space_group_symop_operation_xyz
x,y,z
-x,y,-z
-x,-y,-z
x,-y,z
1/2+x,1/2+y,z
1/2-x,1/2+y,-z
1/2-x,1/2-y,-z
1/2+x,1/2-y,z
loop_
_atom_site_type_symbol
_atom_site_label
_atom_site_fract_x
_atom_site_fract_y
_atom_site_fract_z
Si Si1 0.805471 0.331884 0.922784
Si Si2 0.188140 0.673047 0.592420
Si Si3 0.606038 0.000000 0.813943
Si Si4 0.604299 0.000000 0.478312
Si Si5 0.120689 0.389560 0.408009
Si Si6 0.617200 0.723415 0.221257
Si Si7 0.380538 0.107720 0.098440
Si Si8 0.887461 0.222685 0.446125
O O1 0.810980 0.354298 0.760578
O O2 0.867785 0.278357 0.870670
O O3 0.689237 0.320174 0.082117
O O4 0.854417 0.378239 0.964265
O O5 0.144537 0.628090 0.540676
O O6 0.168790 0.655169 0.769810
O O7 0.125235 0.724317 0.624043
O O8 0.309704 0.681703 0.455488
O O9 0.589665 0.000000 0.661973
O O10 0.664799 0.948023 0.807293
O O11 0.500000 0.000000 0.000000
O O12 0.500000 0.000000 0.500000
O O13 0.660259 0.948562 0.367999
O O14 0.000000 0.383677 0.500000
O O15 0.502537 0.703355 0.311517
O O16 0.640070 0.731344 0.363086
O O17 0.500000 0.106508 0.000000
#
# Coordination Sequence:
#
# PCOD8097907 Si02
#       8
#     8   8   4   4   8   8   8   8
#     4  11  22  34  53  78 105 145 175 213 262 318
#     4  11  20  34  53  80 102 145 180 208 263 321
#     4  10  22  34  50  78 113 135 175 227 259 310
#     4  10  22  34  52  78 105 144 178 210 268 325
#     4  11  21  35  55  76 111 142 175 213 264 320
#     4  10  20  36  52  78 109 139 177 222 262 303
#     4  11  21  33  51  77 110 138 175 217 262 309
#     4  10  20  34  55  77 107 140 178 222 257 313
#
# _framework density 17.215786000000001
#
# number of rings (size 3 to 8) (size 9 to 14) (size 15 to 20)
#    0.000    1.429    4.286    2.571    6.000    0.000 
#    0.000    2.143    0.000    0.000    0.000    6.000 
#    0.000    0.000    0.000    0.000    0.000    0.000 
#
# Total GULP energy -347076.396022 kJ/mol
# GULP energy per Si atom -12395.585572 kJ/mol
# Density = 1.717660 g / cm^3
# Si number density = 17.215786 Si / 1000 Ang^3
#
#
#
# Elastic Constant Matrix: (Units=GPa)
#
#
# Indices 1 2 3 4 5 6 
#
# 1 73.6503 29.0882 15.3887 0.0000 -9.2479 0.0000
# 2 29.0882 96.9298 24.2867 0.0000 -9.5723 0.0000
# 3 15.3887 24.2867 69.6223 0.0000 -10.1588 0.0000
# 4 0.0000 0.0000 0.0000 21.2567 0.0000 0.2371
# 5 -9.2479 -9.5723 -10.1588 0.0000 26.0911 0.0000
# 6 0.0000 0.0000 0.0000 0.2371 0.0000 16.4804
#
#
#
# Elastic Compliance Matrix: (Units=1/GPa)
#
#
# Indices 1 2 3 4 5 6 
#
# 1 0.015952 -0.004035 -0.001600 0.000000 0.003550 0.000000
# 2 -0.004035 0.012518 -0.003195 0.000000 0.001918 0.000000
# 3 -0.001600 -0.003195 0.016516 0.000000 0.004691 0.000000
# 4 0.000000 0.000000 0.000000 0.047052 0.000000 -0.000677
# 5 0.003550 0.001918 0.004691 0.000000 0.042116 0.000000
# 6 0.000000 0.000000 0.000000 -0.000677 0.000000 0.060688
#
#
# Mechanical properties :
#
#
# Convention : Reuss Voigt Hill
#
# Bulk Modulus (GPa) = 36.59703 41.96997 39.28350
# Shear Modulus (GPa) = 22.56220 24.19487 23.37854
#
# Velocity S-wave (km/s) = 3.62408 3.75292 3.68906
# Velocity P-wave (km/s) = 6.23025 6.57350 6.40417
#
# Compressibility (1/GPa) = 0.02732462
#
# Stress axis : x y z
#
# Youngs Moduli (GPa) = 62.68954 79.88699 60.54798
#
# Poissons Ratio (x) = 0.32238 0.09688
# Poissons Ratio (y) = 0.25298 0.19344
# Poissons Ratio (z) = 0.10031 0.25522
#
# Static dielectric constant tensor:
#      x y z
#    x 3.154140 0.000000 0.091360 
#    y 0.000000 3.722700 0.000000 
#    z 0.091360 0.000000 3.253480 
# 
# 
# High freq. dielectric constant tensor:
#      x y z
#    x 1.646090 0.000000 0.021340 
#    y 0.000000 1.663060 0.000000 
#    z 0.021340 0.000000 1.663330 
# 
# From -- ./inp_files/66022.got.cif
#   From: 2010.06.25/outbox.cif.g09.slc.cpg/sg12_34_cif.got.tgz:66022.got - 2010.06.28 00:19:55.
