data_PCOD8097247
_publ_section_title
;
Structure prediction by ZEFSAII (Michael W. Deem and Ramdas Pophale) SiO2 
 PCOD8097247
Probable space group: C 2/M
;
_chemical_formula_sum "Si O2"
_cell_formula_units_Z 56
_cell_length_a 21.642780
_cell_length_b 8.839288
_cell_length_c 15.653970
_cell_angle_alpha 90.000000
_cell_angle_beta 83.608145
_cell_angle_gamma 90.000000
_cell_volume 2976.094516
_symmetry_space_group_name_H-M "C 2/M"
_symmetry_group_IT_number 12
_symmetry_cell_setting 'monoclinic'
loop_
_space_group_symop_operation_xyz
x,y,z
-x,y,-z
-x,-y,-z
x,-y,z
1/2+x,1/2+y,z
1/2-x,1/2+y,-z
1/2-x,1/2-y,-z
1/2+x,1/2-y,z
loop_
_atom_site_type_symbol
_atom_site_label
_atom_site_fract_x
_atom_site_fract_y
_atom_site_fract_z
Si Si1 0.445863 0.821145 0.941454
Si Si2 0.029480 0.823055 0.581873
Si Si3 0.240011 0.670068 0.376310
Si Si4 0.686694 0.673275 0.040707
Si Si5 0.844760 0.329804 0.454640
Si Si6 0.179893 0.832724 0.240822
Si Si7 0.539560 0.324701 0.241870
O O1 0.378541 0.750828 0.978569
O O2 0.468812 0.767123 0.844664
O O3 0.436926 0.000000 0.941410
O O4 0.500000 0.773358 0.000000
O O5 0.101973 0.791161 0.568399
O O6 0.000000 0.749989 0.500000
O O7 0.003428 0.756885 0.675582
O O8 0.015324 0.000000 0.584388
O O9 0.266881 0.500000 0.376300
O O10 0.179763 0.686890 0.445391
O O11 0.290941 0.790919 0.396277
O O12 0.220028 0.707605 0.283369
O O13 0.684198 0.500000 0.009391
O O14 0.693089 0.684810 0.140166
O O15 0.750000 0.750000 0.000000
O O16 0.868248 0.500000 0.433198
O O17 0.107822 0.804825 0.269788
O O18 0.198784 0.000000 0.270274
O O19 0.525042 0.500000 0.222920
#
# Coordination Sequence:
#
# PCOD8097247 Si02
#       7
#     8   8   8   8   8   8   8
#     4  10  21  38  60  85 114 152 192 233 286 343
#     4  10  20  35  55  79 109 144 181 222 269 323
#     4  10  20  34  53  76 102 138 182 221 266 322
#     4  10  21  38  60  86 115 146 185 234 283 338
#     4  10  21  35  51  74 106 141 178 224 270 315
#     4   9  18  34  56  80 106 138 175 218 270 323
#     4   9  19  35  56  82 110 143 183 224 270 326
#
# _framework density 18.816607999999999
#
# number of rings (size 3 to 8) (size 9 to 14) (size 15 to 20)
#    0.000    2.286    0.000    3.429    0.000    7.714 
#    2.571    0.000    0.000    0.000    0.000    0.000 
#    0.000    0.000    0.000    0.000    0.000    0.000 
#
# Total GULP energy -347103.020038 kJ/mol
# GULP energy per Si atom -12396.536430 kJ/mol
# Density = 1.877378 g / cm^3
# Si number density = 18.816608 Si / 1000 Ang^3
#
#
#
# Elastic Constant Matrix: (Units=GPa)
#
#
# Indices 1 2 3 4 5 6 
#
# 1 104.7928 42.0399 56.1090 0.0000 -6.9566 0.0000
# 2 42.0399 72.8014 39.4283 0.0000 3.5131 0.0000
# 3 56.1090 39.4283 79.4837 0.0000 9.1811 0.0000
# 4 0.0000 0.0000 0.0000 22.1266 0.0000 2.0687
# 5 -6.9566 3.5131 9.1811 0.0000 24.6449 0.0000
# 6 0.0000 0.0000 0.0000 2.0687 0.0000 33.1726
#
#
#
# Elastic Compliance Matrix: (Units=1/GPa)
#
#
# Indices 1 2 3 4 5 6 
#
# 1 0.018503 -0.004735 -0.011907 0.000000 0.010334 0.000000
# 2 -0.004735 0.020010 -0.006374 0.000000 -0.001815 0.000000
# 3 -0.011907 -0.006374 0.025530 0.000000 -0.011963 0.000000
# 4 0.000000 0.000000 0.000000 0.045459 0.000000 -0.002835
# 5 0.010334 -0.001815 -0.011963 0.000000 0.048209 0.000000
# 6 0.000000 0.000000 0.000000 -0.002835 0.000000 0.030322
#
#
# Mechanical properties :
#
#
# Convention : Reuss Voigt Hill
#
# Bulk Modulus (GPa) = 55.51833 59.13693 57.32763
# Shear Modulus (GPa) = 20.82741 23.95555 22.39148
#
# Velocity S-wave (km/s) = 3.33056 3.57193 3.45336
# Velocity P-wave (km/s) = 6.66027 6.96476 6.81422
#
# Compressibility (1/GPa) = 0.01801207
#
# Stress axis : x y z
#
# Youngs Moduli (GPa) = 54.04429 49.97531 39.16980
#
# Poissons Ratio (x) = 0.23664 0.46638
# Poissons Ratio (y) = 0.25591 0.24966
# Poissons Ratio (z) = 0.64348 0.31853
#
# Static dielectric constant tensor:
#      x y z
#    x 3.445630 0.000000 -0.099270 
#    y 0.000000 3.467920 0.000000 
#    z -0.099270 0.000000 3.490360 
# 
# 
# High freq. dielectric constant tensor:
#      x y z
#    x 1.727110 0.000000 0.000270 
#    y 0.000000 1.730950 0.000000 
#    z 0.000270 0.000000 1.728810 
# 
# From -- ./inp_files/231058.got.cif
#   From: 2010.06.25/outbox.cif.g09.slc.cpg/sg12_116_cif.got.tgz:231058.got - 2010.06.28 00:19:55.
