data_PCOD8097587
_publ_section_title
;
Structure prediction by ZEFSAII (Michael W. Deem and Ramdas Pophale) SiO2 
 PCOD8097587
Probable space group: C 2/M
;
_chemical_formula_sum "Si O2"
_cell_formula_units_Z 56
_cell_length_a 8.993061
_cell_length_b 10.632207
_cell_length_c 30.642594
_cell_angle_alpha 90.000000
_cell_angle_beta 100.355477
_cell_angle_gamma 90.000000
_cell_volume 2882.200679
_symmetry_space_group_name_H-M "C 2/M"
_symmetry_group_IT_number 12
_symmetry_cell_setting 'monoclinic'
loop_
_space_group_symop_operation_xyz
x,y,z
-x,y,-z
-x,-y,-z
x,-y,z
1/2+x,1/2+y,z
1/2-x,1/2+y,-z
1/2-x,1/2-y,-z
1/2+x,1/2-y,z
loop_
_atom_site_type_symbol
_atom_site_label
_atom_site_fract_x
_atom_site_fract_y
_atom_site_fract_z
Si Si1 0.502842 0.854467 0.335576
Si Si2 0.707571 0.710061 0.180348
Si Si3 0.142227 0.142520 0.976618
Si Si4 0.217982 0.141181 0.377005
Si Si5 0.403789 0.638054 0.123564
Si Si6 0.989253 0.361395 0.762626
Si Si7 0.827508 0.361472 0.478514
O O1 0.330951 0.846517 0.342359
O O2 0.597814 0.754035 0.368539
O O3 0.506088 0.805679 0.285880
O O4 0.561378 0.000000 0.344031
O O5 0.573972 0.630664 0.151424
O O6 0.785311 0.787266 0.146086
O O7 0.630365 0.789999 0.214201
O O8 0.840991 0.629945 0.209097
O O9 0.092190 0.187945 0.925753
O O10 0.213613 0.000000 0.979874
O O11 0.250000 0.250000 0.000000
O O12 0.000000 0.139646 0.000000
O O13 0.311915 0.160044 0.426173
O O14 0.143350 0.000000 0.372083
O O15 0.335704 0.500000 0.120124
O O16 0.923125 0.500000 0.756479
O O17 0.760691 0.500000 0.487690
O O18 0.750000 0.250000 0.500000
O O19 0.000000 0.357074 0.500000
#
# Coordination Sequence:
#
# PCOD8097587 Si02
#       7
#     8   8   8   8   8   8   8
#     4  10  21  37  57  80 109 144 180 221 267 316
#     4  10  20  34  54  78 105 137 174 215 266 317
#     4  10  21  37  56  80 109 141 180 223 267 319
#     4  10  21  37  56  81 110 141 180 222 266 318
#     4  10  20  35  54  77 106 138 174 218 266 315
#     4  10  20  35  54  78 106 137 176 218 262 314
#     4  10  21  37  57  81 110 142 178 222 269 318
#
# _framework density 19.429597999999999
#
# number of rings (size 3 to 8) (size 9 to 14) (size 15 to 20)
#    0.000    2.000    0.000    3.429    0.000    2.857 
#    0.000    7.143    0.000    0.000    0.000    0.000 
#    0.000    0.000    0.000    0.000    0.000    0.000 
#
# Total GULP energy -346973.186764 kJ/mol
# GULP energy per Si atom -12391.899527 kJ/mol
# Density = 1.938538 g / cm^3
# Si number density = 19.429598 Si / 1000 Ang^3
#
#
#
# Elastic Constant Matrix: (Units=GPa)
#
#
# Indices 1 2 3 4 5 6 
#
# 1 63.6558 37.2822 15.5693 0.0000 -12.6403 0.0000
# 2 37.2822 110.9940 38.6583 0.0000 -0.6300 0.0000
# 3 15.5693 38.6583 94.7301 0.0000 -11.1095 0.0000
# 4 0.0000 0.0000 0.0000 30.8915 0.0000 3.9256
# 5 -12.6403 -0.6300 -11.1095 0.0000 32.9963 0.0000
# 6 0.0000 0.0000 0.0000 3.9256 0.0000 27.6141
#
#
#
# Elastic Compliance Matrix: (Units=1/GPa)
#
#
# Indices 1 2 3 4 5 6 
#
# 1 0.021542 -0.007336 0.000421 0.000000 0.008254 0.000000
# 2 -0.007336 0.013053 -0.004603 0.000000 -0.004111 0.000000
# 3 0.000421 -0.004603 0.012883 0.000000 0.004411 0.000000
# 4 0.000000 0.000000 0.000000 0.032967 0.000000 -0.004687
# 5 0.008254 -0.004111 0.004411 0.000000 0.034875 0.000000
# 6 0.000000 0.000000 0.000000 -0.004687 0.000000 0.036880
#
#
# Mechanical properties :
#
#
# Convention : Reuss Voigt Hill
#
# Bulk Modulus (GPa) = 40.91248 50.26661 45.58954
# Shear Modulus (GPa) = 27.26528 30.15837 28.71182
#
# Velocity S-wave (km/s) = 3.75011 3.94405 3.84830
# Velocity P-wave (km/s) = 6.31297 6.83140 6.57730
#
# Compressibility (1/GPa) = 0.02444242
#
# Stress axis : x y z
#
# Youngs Moduli (GPa) = 46.42128 76.60797 77.62163
#
# Poissons Ratio (x) = 0.56196 -0.03268
# Poissons Ratio (y) = 0.34053 0.35733
# Poissons Ratio (z) = -0.01955 0.35266
#
# Static dielectric constant tensor:
#      x y z
#    x 3.341980 0.000000 -0.063450 
#    y 0.000000 3.537900 0.000000 
#    z -0.063450 0.000000 3.806450 
# 
# 
# High freq. dielectric constant tensor:
#      x y z
#    x 1.745180 0.000000 -0.010180 
#    y 0.000000 1.762060 0.000000 
#    z -0.010180 0.000000 1.774000 
# 
# From -- ./inp_files/355847.got.cif
#   From: 2010.06.25/outbox.cif.g09.slc.cpg/sg12_178_cif.got.tgz:355847.got - 2010.06.28 00:19:55.
