data_PCOD8097518
_publ_section_title
;
Structure prediction by ZEFSAII (Michael W. Deem and Ramdas Pophale) SiO2 
 PCOD8097518
Probable space group: C 2/M
;
_chemical_formula_sum "Si O2"
_cell_formula_units_Z 48
_cell_length_a 25.287614
_cell_length_b 17.649379
_cell_length_c 9.973148
_cell_angle_alpha 90.000000
_cell_angle_beta 36.330738
_cell_angle_gamma 90.000000
_cell_volume 2637.047306
_symmetry_space_group_name_H-M "C 2/M"
_symmetry_group_IT_number 12
_symmetry_cell_setting 'monoclinic'
loop_
_space_group_symop_operation_xyz
x,y,z
-x,y,-z
-x,-y,-z
x,-y,z
1/2+x,1/2+y,z
1/2-x,1/2+y,-z
1/2-x,1/2-y,-z
1/2+x,1/2-y,z
loop_
_atom_site_type_symbol
_atom_site_label
_atom_site_fract_x
_atom_site_fract_y
_atom_site_fract_z
Si Si1 0.726461 0.586187 0.594147
Si Si2 0.316430 0.668581 0.580526
Si Si3 0.928607 0.415089 0.257673
Si Si4 0.406455 0.333285 0.657368
Si Si5 0.341917 0.713015 0.068459
Si Si6 0.535393 0.770940 0.674936
O O1 0.696547 0.500000 0.687273
O O2 0.701439 0.604187 0.491709
O O3 0.831853 0.595709 0.392000
O O4 0.677228 0.643212 0.794257
O O5 0.346098 0.628492 0.662261
O O6 0.397827 0.722710 0.364217
O O7 0.230902 0.721558 0.776444
O O8 0.943188 0.500000 0.281557
O O9 0.944517 0.359853 0.350616
O O10 0.000000 0.393038 0.000000
O O11 0.500000 0.378592 0.500000
O O12 0.345179 0.321458 0.912035
O O13 0.441227 0.252111 0.526067
O O14 0.434930 0.750592 0.920202
#
# Coordination Sequence:
#
# PCOD8097518 Si02
#       6
#     8   8   8   8   8   8
#     4  11  23  37  54  85 116 146 184 230 286 329
#     4  10  20  34  56  83 108 143 186 232 272 321
#     4  10  20  34  53  83 122 149 176 226 285 338
#     4   8  18  35  56  81 107 141 190 231 272 320
#     4  11  19  36  61  82 111 146 190 230 271 330
#     4   9  20  32  58  83 109 145 190 226 271 326
#
# _framework density 18.202175
#
# number of rings (size 3 to 8) (size 9 to 14) (size 15 to 20)
#    1.000    1.167    1.667    2.000    2.333    0.000 
#    0.000    2.500    0.000    7.500    0.000    0.000 
#    0.000    0.000    0.000    0.000    0.000    0.000 
#
# Total GULP energy -297323.196632 kJ/mol
# GULP energy per Si atom -12388.466526 kJ/mol
# Density = 1.816075 g / cm^3
# Si number density = 18.202175 Si / 1000 Ang^3
#
#
#
# Elastic Constant Matrix: (Units=GPa)
#
#
# Indices 1 2 3 4 5 6 
#
# 1 99.2531 43.2252 53.6195 0.0000 0.2236 0.0000
# 2 43.2252 60.0961 21.2762 0.0000 0.9935 0.0000
# 3 53.6195 21.2762 81.6417 0.0000 -9.6868 0.0000
# 4 0.0000 0.0000 0.0000 17.1996 0.0000 -0.4896
# 5 0.2236 0.9935 -9.6868 0.0000 34.1431 0.0000
# 6 0.0000 0.0000 0.0000 -0.4896 0.0000 4.0302
#
#
#
# Elastic Compliance Matrix: (Units=1/GPa)
#
#
# Indices 1 2 3 4 5 6 
#
# 1 0.020974 -0.011053 -0.011251 0.000000 -0.003008 0.000000
# 2 -0.011053 0.024283 0.000885 0.000000 -0.000383 0.000000
# 3 -0.011251 0.000885 0.020089 0.000000 0.005748 0.000000
# 4 0.000000 0.000000 0.000000 0.058343 0.000000 0.007087
# 5 -0.003008 -0.000383 0.005748 0.000000 0.030950 0.000000
# 6 0.000000 0.000000 0.000000 0.007087 0.000000 0.248990
#
#
# Mechanical properties :
#
#
# Convention : Reuss Voigt Hill
#
# Bulk Modulus (GPa) = 44.42756 53.02586 48.72671
# Shear Modulus (GPa) = 11.01398 19.26590 15.13994
#
# Velocity S-wave (km/s) = 2.46253 3.25690 2.88716
# Velocity P-wave (km/s) = 5.70493 6.58316 6.15972
#
# Compressibility (1/GPa) = 0.02250855
#
# Stress axis : x y z
#
# Youngs Moduli (GPa) = 47.67826 41.18149 49.77749
#
# Poissons Ratio (x) = 0.45517 0.56007
# Poissons Ratio (y) = 0.52697 -0.04407
# Poissons Ratio (z) = 0.53645 -0.03646
#
# Static dielectric constant tensor:
#      x y z
#    x 3.526030 0.000000 -0.204270 
#    y 0.000000 3.139240 0.000000 
#    z -0.204270 0.000000 3.361140 
# 
# 
# High freq. dielectric constant tensor:
#      x y z
#    x 1.713340 0.000000 -0.016400 
#    y 0.000000 1.671650 0.000000 
#    z -0.016400 0.000000 1.710640 
# 
# From -- ./inp_files/189350.got.cif
#   From: 2010.06.25/outbox.cif.g09.slc.cpg/sg12_95_cif.got.tgz:189350.got - 2010.06.28 00:19:55.
