data_PCOD8097974
_publ_section_title
;
Structure prediction by ZEFSAII (Michael W. Deem and Ramdas Pophale) SiO2 
 PCOD8097974
Probable space group: C 2/M
;
_chemical_formula_sum "Si O2"
_cell_formula_units_Z 36
_cell_length_a 22.247631
_cell_length_b 13.502899
_cell_length_c 13.278227
_cell_angle_alpha 90.000000
_cell_angle_beta 151.783985
_cell_angle_gamma 90.000000
_cell_volume 1885.930437
_symmetry_space_group_name_H-M "C 2/M"
_symmetry_group_IT_number 12
_symmetry_cell_setting 'monoclinic'
loop_
_space_group_symop_operation_xyz
x,y,z
-x,y,-z
-x,-y,-z
x,-y,z
1/2+x,1/2+y,z
1/2-x,1/2+y,-z
1/2-x,1/2-y,-z
1/2+x,1/2-y,z
loop_
_atom_site_type_symbol
_atom_site_label
_atom_site_fract_x
_atom_site_fract_y
_atom_site_fract_z
Si Si1 0.755675 0.725319 0.305012
Si Si2 0.951780 0.114212 0.537723
Si Si3 0.841941 0.779013 0.047076
Si Si4 0.466527 0.113208 0.734777
Si Si5 0.000000 0.313118 0.000000
O O1 0.827590 0.829095 0.393160
O O2 0.834684 0.650714 0.491344
O O3 0.620021 0.742512 0.156421
O O4 0.733724 0.679487 0.161381
O O5 0.000000 0.152530 0.500000
O O6 0.064834 0.132692 0.783250
O O7 0.913972 0.000000 0.477767
O O8 0.917479 0.678392 0.133833
O O9 0.750000 0.750000 0.000000
O O10 0.462219 0.119100 0.849427
O O11 0.488257 0.000000 0.734146
#
# Coordination Sequence:
#
# PCOD8097974 Si02
#       5
#     8   8   8   8   4
#     4  10  21  38  59  80 117 147 188 230 287 331
#     4  10  20  34  55  81 108 145 188 229 274 328
#     4  10  20  36  55  80 115 150 183 228 282 333
#     4  10  22  37  58  85 114 148 190 236 284 335
#     4  10  21  40  59  82 110 152 191 236 281 336
#
# _framework density 19.088722000000001
#
# number of rings (size 3 to 8) (size 9 to 14) (size 15 to 20)
#    0.000    2.000    2.222    1.000    0.000    6.222 
#    0.000    1.667    0.000    0.000    0.000    0.000 
#    0.000    0.000    0.000    0.000    0.000    0.000 
#
# Total GULP energy -223201.821790 kJ/mol
# GULP energy per Si atom -12400.101211 kJ/mol
# Density = 1.904527 g / cm^3
# Si number density = 19.088722 Si / 1000 Ang^3
#
#
#
# Elastic Constant Matrix: (Units=GPa)
#
#
# Indices 1 2 3 4 5 6 
#
# 1 114.8477 27.7017 50.4520 0.0000 -0.6405 0.0000
# 2 27.7017 72.8827 30.5484 0.0000 -12.4374 0.0000
# 3 50.4520 30.5484 141.9267 0.0000 -20.0474 0.0000
# 4 0.0000 0.0000 0.0000 14.9089 0.0000 -7.1826
# 5 -0.6405 -12.4374 -20.0474 0.0000 34.0999 0.0000
# 6 0.0000 0.0000 0.0000 -7.1826 0.0000 14.5416
#
#
#
# Elastic Compliance Matrix: (Units=1/GPa)
#
#
# Indices 1 2 3 4 5 6 
#
# 1 0.011084 -0.003199 -0.003694 0.000000 -0.003130 0.000000
# 2 -0.003199 0.016500 -0.001715 0.000000 0.004950 0.000000
# 3 -0.003694 -0.001715 0.009412 0.000000 0.004838 0.000000
# 4 0.000000 0.000000 0.000000 0.088019 0.000000 0.043475
# 5 -0.003130 0.004950 0.004838 0.000000 0.033916 0.000000
# 6 0.000000 0.000000 0.000000 0.043475 0.000000 0.090242
#
#
# Mechanical properties :
#
#
# Convention : Reuss Voigt Hill
#
# Bulk Modulus (GPa) = 50.55603 60.78457 55.67030
# Shear Modulus (GPa) = 18.31629 27.44043 22.87836
#
# Velocity S-wave (km/s) = 3.10100 3.79558 3.46573
# Velocity P-wave (km/s) = 6.27406 7.14989 6.72624
#
# Compressibility (1/GPa) = 0.01978003
#
# Stress axis : x y z
#
# Youngs Moduli (GPa) = 90.22073 60.60572 106.25288
#
# Poissons Ratio (x) = 0.19386 0.39247
# Poissons Ratio (y) = 0.28860 0.18225
# Poissons Ratio (z) = 0.33325 0.10395
#
# Static dielectric constant tensor:
#      x y z
#    x 3.627720 0.000000 -0.289690 
#    y 0.000000 3.126250 0.000000 
#    z -0.289690 0.000000 4.138870 
# 
# 
# High freq. dielectric constant tensor:
#      x y z
#    x 1.749830 0.000000 -0.005660 
#    y 0.000000 1.713330 0.000000 
#    z -0.005660 0.000000 1.765880 
# 
# From -- ./inp_files/128941.got.cif
#   From: 2010.06.25/outbox.cif.g09.slc.cpg/sg12_65_cif.got.tgz:128941.got - 2010.06.28 00:19:55.
