data_PCOD8097718
_publ_section_title
;
Structure prediction by ZEFSAII (Michael W. Deem and Ramdas Pophale) SiO2 
 PCOD8097718
Probable space group: C 2/M
;
_chemical_formula_sum "Si O2"
_cell_formula_units_Z 64
_cell_length_a 14.772418
_cell_length_b 8.581970
_cell_length_c 27.344113
_cell_angle_alpha 90.000000
_cell_angle_beta 105.998242
_cell_angle_gamma 90.000000
_cell_volume 3332.329040
_symmetry_space_group_name_H-M "C 2/M"
_symmetry_group_IT_number 12
_symmetry_cell_setting 'monoclinic'
loop_
_space_group_symop_operation_xyz
x,y,z
-x,y,-z
-x,-y,-z
x,-y,z
1/2+x,1/2+y,z
1/2-x,1/2+y,-z
1/2-x,1/2-y,-z
1/2+x,1/2-y,z
loop_
_atom_site_type_symbol
_atom_site_label
_atom_site_fract_x
_atom_site_fract_y
_atom_site_fract_z
Si Si1 0.018119 0.683252 0.737666
Si Si2 0.420155 0.321880 0.632005
Si Si3 0.647234 0.313956 0.999943
Si Si4 0.037678 0.314128 0.073637
Si Si5 0.287693 0.822647 0.375165
Si Si6 0.219501 0.315238 0.737000
Si Si7 0.097837 0.315695 0.189621
Si Si8 0.531464 0.317123 0.556409
O O1 0.025012 0.500000 0.742855
O O2 0.950177 0.723489 0.683058
O O3 0.975472 0.753218 0.781419
O O4 0.121979 0.750933 0.744228
O O5 0.452447 0.500000 0.645075
O O6 0.308491 0.310233 0.609082
O O7 0.466970 0.248774 0.590443
O O8 0.650355 0.500000 0.999882
O O9 0.566797 0.253334 0.950968
O O10 0.750000 0.250000 0.000000
O O11 0.616855 0.254184 0.049053
O O12 0.034620 0.500000 0.067369
O O13 0.067144 0.257799 0.131778
O O14 0.273043 0.757639 0.318006
O O15 0.360553 0.719743 0.416272
O O16 0.324704 0.000000 0.378008
O O17 0.227664 0.500000 0.740329
O O18 0.298781 0.243916 0.782954
O O19 0.098686 0.500000 0.191947
O O20 0.500000 0.241360 0.500000
O O21 0.515771 0.500000 0.551324
#
# Coordination Sequence:
#
# PCOD8097718 Si02
#       8
#     8   8   8   8   8   8   8   8
#     4  10  20  35  54  79 109 144 184 224 270 328
#     4  10  20  35  55  77 105 139 177 223 275 331
#     4  11  22  39  64  91 118 157 203 245 297 350
#     4  10  21  39  59  87 124 158 197 246 291 345
#     4  10  20  35  55  80 106 138 180 224 273 331
#     4  10  20  34  54  80 111 146 186 228 274 331
#     4  10  22  37  56  84 118 150 186 231 280 331
#     4  10  22  38  55  78 107 139 179 229 283 338
#
# _framework density 19.205787000000001
#
# number of rings (size 3 to 8) (size 9 to 14) (size 15 to 20)
#    0.000    1.875    2.500    2.250    0.000    4.250 
#    0.000    1.250    0.000    0.000    0.000    0.000 
#    0.000    0.000    0.000    0.000    0.000    0.000 
#
# Total GULP energy -396803.701915 kJ/mol
# GULP energy per Si atom -12400.115685 kJ/mol
# Density = 1.916207 g / cm^3
# Si number density = 19.205787 Si / 1000 Ang^3
#
#
#
# Elastic Constant Matrix: (Units=GPa)
#
#
# Indices 1 2 3 4 5 6 
#
# 1 143.3269 26.2903 65.3918 0.0000 -3.5666 0.0000
# 2 26.2903 40.2799 26.3940 0.0000 -2.4021 0.0000
# 3 65.3918 26.3940 162.8340 0.0000 3.4344 0.0000
# 4 0.0000 0.0000 0.0000 25.7379 0.0000 6.4632
# 5 -3.5666 -2.4021 3.4344 0.0000 27.8165 0.0000
# 6 0.0000 0.0000 0.0000 6.4632 0.0000 29.8882
#
#
#
# Elastic Compliance Matrix: (Units=1/GPa)
#
#
# Indices 1 2 3 4 5 6 
#
# 1 0.009112 -0.003872 -0.003057 0.000000 0.001211 0.000000
# 2 -0.003872 0.029667 -0.003306 0.000000 0.002474 0.000000
# 3 -0.003057 -0.003306 0.007940 0.000000 -0.001658 0.000000
# 4 0.000000 0.000000 0.000000 0.041084 0.000000 -0.008884
# 5 0.001211 0.002474 -0.001658 0.000000 0.036524 0.000000
# 6 0.000000 0.000000 0.000000 -0.008884 0.000000 0.035379
#
#
# Mechanical properties :
#
#
# Convention : Reuss Voigt Hill
#
# Bulk Modulus (GPa) = 38.09693 64.73254 51.41474
# Shear Modulus (GPa) = 26.46530 31.91283 29.18907
#
# Velocity S-wave (km/s) = 3.71615 4.08073 3.90270
# Velocity P-wave (km/s) = 6.18807 7.48204 6.86561
#
# Compressibility (1/GPa) = 0.02624883
#
# Stress axis : x y z
#
# Youngs Moduli (GPa) = 109.74179 33.70715 125.94693
#
# Poissons Ratio (x) = 0.13051 0.38506
# Poissons Ratio (y) = 0.42491 0.41639
# Poissons Ratio (z) = 0.33552 0.11144
#
# Static dielectric constant tensor:
#      x y z
#    x 3.728420 0.000000 -0.205780 
#    y 0.000000 3.379510 0.000000 
#    z -0.205780 0.000000 3.722360 
# 
# 
# High freq. dielectric constant tensor:
#      x y z
#    x 1.759680 0.000000 -0.005130 
#    y 0.000000 1.734920 0.000000 
#    z -0.005130 0.000000 1.747570 
# 
# From -- ./inp_files/359919.got.cif
#   From: 2010.06.25/outbox.cif.g09.slc.cpg/sg12_180_cif.got.tgz:359919.got - 2010.06.28 00:19:55.
