data_PCOD8097100
_publ_section_title
;
Structure prediction by ZEFSAII (Michael W. Deem and Ramdas Pophale) SiO2 
 PCOD8097100
Probable space group: C 2/M
;
_chemical_formula_sum "Si O2"
_cell_formula_units_Z 56
_cell_length_a 8.804441
_cell_length_b 19.626306
_cell_length_c 26.212647
_cell_angle_alpha 90.000000
_cell_angle_beta 38.082667
_cell_angle_gamma 90.000000
_cell_volume 2793.791796
_symmetry_space_group_name_H-M "C 2/M"
_symmetry_group_IT_number 12
_symmetry_cell_setting 'monoclinic'
loop_
_space_group_symop_operation_xyz
x,y,z
-x,y,-z
-x,-y,-z
x,-y,z
1/2+x,1/2+y,z
1/2-x,1/2+y,-z
1/2-x,1/2-y,-z
1/2+x,1/2-y,z
loop_
_atom_site_type_symbol
_atom_site_label
_atom_site_fract_x
_atom_site_fract_y
_atom_site_fract_z
Si Si1 0.188460 0.074986 0.830772
Si Si2 0.271429 0.579765 0.594134
Si Si3 0.122624 0.669018 0.724632
Si Si4 0.399702 0.303167 0.755925
Si Si5 0.476787 0.801876 0.946073
Si Si6 0.795937 0.075680 0.014073
Si Si7 0.768614 0.922517 0.296026
O O1 0.370211 0.130584 0.806791
O O2 0.133298 0.088066 0.786724
O O3 0.920349 0.078514 0.925982
O O4 0.307939 0.000000 0.807595
O O5 0.500000 0.604709 0.500000
O O6 0.289656 0.500000 0.602594
O O7 0.278312 0.619864 0.646041
O O8 0.023020 0.594639 0.627360
O O9 0.252998 0.688218 0.742589
O O10 0.074854 0.737627 0.705023
O O11 0.570650 0.370125 0.713885
O O12 0.228908 0.282283 0.850372
O O13 0.500000 0.813694 0.000000
O O14 0.250000 0.750000 0.000000
O O15 0.427419 0.872330 0.928717
O O16 0.698722 0.000000 0.053869
O O17 0.000000 0.100372 0.000000
O O18 0.812977 0.000000 0.303969
#
# Coordination Sequence:
#
# PCOD8097100 Si02
#       7
#     8   8   8   8   8   8   8
#     4   9  17  33  55  76 105 145 186 232 288 348
#     4   9  19  40  69  95 119 148 181 222 279 349
#     4  11  21  36  56  82 115 150 191 234 283 345
#     4  12  24  37  56  82 116 155 199 245 289 341
#     4  12  24  38  56  78 110 154 203 253 298 339
#     4  10  20  34  52  76 106 141 186 239 292 342
#     4   9  19  36  57  82 113 147 185 231 286 344
#
# _framework density 20.044442
#
# number of rings (size 3 to 8) (size 9 to 14) (size 15 to 20)
#    0.000    1.714    0.000    6.857    0.000    2.000 
#    0.000    3.571    0.000    2.571    0.000    0.000 
#    0.000    0.000    0.000    0.000    0.000    0.000 
#
# Total GULP energy -347058.033536 kJ/mol
# GULP energy per Si atom -12394.929769 kJ/mol
# Density = 1.999882 g / cm^3
# Si number density = 20.044442 Si / 1000 Ang^3
#
#
#
# Elastic Constant Matrix: (Units=GPa)
#
#
# Indices 1 2 3 4 5 6 
#
# 1 85.8902 58.5251 0.2072 -0.0283 2.5315 -0.0109
# 2 58.5251 112.5500 9.4674 -0.0446 -0.6939 0.0025
# 3 0.2072 9.4674 69.9161 -0.1102 3.7665 0.0259
# 4 -0.0283 -0.0446 -0.1102 20.5257 0.0124 -4.4485
# 5 2.5315 -0.6939 3.7665 0.0124 18.9978 -0.0134
# 6 -0.0109 0.0025 0.0259 -4.4485 -0.0134 41.4630
#
#
#
# Elastic Compliance Matrix: (Units=1/GPa)
#
#
# Indices 1 2 3 4 5 6 
#
# 1 0.018313 -0.009661 0.001420 0.000015 -0.003075 0.000005
# 2 -0.009661 0.014090 -0.001998 0.000005 0.002198 -0.000001
# 3 0.001420 -0.001998 0.014741 0.000078 -0.003185 -0.000001
# 4 0.000015 0.000005 0.000078 0.049880 -0.000046 0.005351
# 5 -0.003075 0.002198 -0.003185 -0.000046 0.053759 0.000013
# 6 0.000005 -0.000001 -0.000001 0.005351 0.000013 0.024692
#
#
# Mechanical properties :
#
#
# Convention : Reuss Voigt Hill
#
# Bulk Modulus (GPa) = 37.50131 44.97285 41.23708
# Shear Modulus (GPa) = 24.40913 29.54108 26.97511
#
# Velocity S-wave (km/s) = 3.49341 3.84315 3.67245
# Velocity P-wave (km/s) = 5.91791 6.49448 6.21289
#
# Compressibility (1/GPa) = 0.02666574
#
# Stress axis : x y z
#
# Youngs Moduli (GPa) = 54.60641 70.97166 67.83862
#
# Poissons Ratio (x) = 0.68565 -0.09630
# Poissons Ratio (y) = 0.52755 0.13552
# Poissons Ratio (z) = -0.07752 0.14178
#
# Static dielectric constant tensor:
#      x y z
#    x 3.457470 0.000010 -0.030620 
#    y 0.000010 3.966980 0.000110 
#    z -0.030620 0.000110 3.713070 
# 
# 
# High freq. dielectric constant tensor:
#      x y z
#    x 1.770440 0.000000 0.000260 
#    y 0.000000 1.800350 0.000010 
#    z 0.000260 0.000010 1.761070 
# 
# From -- ./inp_files/333320.got.cif
#   From: 2010.06.25/outbox.cif.g09.slc.cpg/sg12_167_cif.got.tgz:333320.got - 2010.06.28 00:19:55.
