data_PCOD8097182
_publ_section_title
;
Structure prediction by ZEFSAII (Michael W. Deem and Ramdas Pophale) SiO2 
 PCOD8097182
Probable space group: C 2/M
;
_chemical_formula_sum "Si O2"
_cell_formula_units_Z 64
_cell_length_a 26.198950
_cell_length_b 8.784500
_cell_length_c 14.657760
_cell_angle_alpha 90.000000
_cell_angle_beta 73.347359
_cell_angle_gamma 90.000000
_cell_volume 3231.923765
_symmetry_space_group_name_H-M "C 2/M"
_symmetry_group_IT_number 12
_symmetry_cell_setting 'monoclinic'
loop_
_space_group_symop_operation_xyz
x,y,z
-x,y,-z
-x,-y,-z
x,-y,z
1/2+x,1/2+y,z
1/2-x,1/2+y,-z
1/2-x,1/2-y,-z
1/2+x,1/2-y,z
loop_
_atom_site_type_symbol
_atom_site_label
_atom_site_fract_x
_atom_site_fract_y
_atom_site_fract_z
Si Si1 0.488123 0.324544 0.228061
Si Si2 0.297565 0.819902 0.536965
Si Si3 0.882914 0.177724 0.375165
Si Si4 0.164360 0.332894 0.765800
Si Si5 0.199630 0.680444 0.079217
Si Si6 0.717479 0.676509 0.259676
Si Si7 0.440078 0.830787 0.086959
Si Si8 0.417420 0.824714 0.897286
O O1 0.497673 0.500000 0.239031
O O2 0.444290 0.266731 0.325269
O O3 0.464132 0.296171 0.140189
O O4 0.546457 0.246537 0.202915
O O5 0.250000 0.750000 0.500000
O O6 0.355886 0.775917 0.468447
O O7 0.298689 0.753905 0.637568
O O8 0.289889 0.000000 0.542610
O O9 0.848149 0.203841 0.301853
O O10 0.881047 0.000000 0.400926
O O11 0.163819 0.500000 0.716915
O O12 0.219783 0.304161 0.785738
O O13 0.123474 0.330809 0.870144
O O14 0.206359 0.500000 0.071486
O O15 0.193379 0.734895 0.186642
O O16 0.143060 0.738123 0.065582
O O17 0.250000 0.750000 0.000000
O O18 0.699551 0.500000 0.268887
O O19 0.462636 0.000000 0.100676
O O20 0.450187 0.793724 0.975162
O O21 0.412823 0.000000 0.876491
#
# Coordination Sequence:
#
# PCOD8097182 Si02
#       8
#     8   8   8   8   8   8   8   8
#     4  10  21  34  52  81 113 145 185 236 290 343
#     4  12  23  36  57  87 120 155 192 236 291 348
#     4  10  20  34  52  79 115 150 184 227 284 346
#     4   9  17  30  50  75 108 148 187 226 275 339
#     4  11  24  42  62  86 116 154 200 246 290 340
#     4  11  22  37  58  85 117 155 196 238 289 348
#     4   9  17  31  51  76 107 146 188 230 279 339
#     4  10  21  37  56  77 106 148 194 238 285 343
#
# _framework density 19.802446
#
# number of rings (size 3 to 8) (size 9 to 14) (size 15 to 20)
#    0.000    1.750    1.250    3.750    0.000    7.000 
#    0.000    2.500    0.000    0.750    0.000    5.250 
#    0.000    0.000    0.000    0.000    0.000    0.000 
#
# Total GULP energy -396561.822255 kJ/mol
# GULP energy per Si atom -12392.556945 kJ/mol
# Density = 1.975737 g / cm^3
# Si number density = 19.802446 Si / 1000 Ang^3
#
#
#
# Elastic Constant Matrix: (Units=GPa)
#
#
# Indices 1 2 3 4 5 6 
#
# 1 64.9761 25.7860 23.8349 0.0000 -26.0800 0.0000
# 2 25.7860 76.1999 32.6056 0.0000 -11.2146 0.0000
# 3 23.8349 32.6056 99.8218 0.0000 -18.5038 0.0000
# 4 0.0000 0.0000 0.0000 32.5835 0.0000 -4.3469
# 5 -26.0800 -11.2146 -18.5038 0.0000 39.5572 0.0000
# 6 0.0000 0.0000 0.0000 -4.3469 0.0000 26.5683
#
#
#
# Elastic Compliance Matrix: (Units=1/GPa)
#
#
# Indices 1 2 3 4 5 6 
#
# 1 0.023326 -0.005363 -0.001368 0.000000 0.013219 0.000000
# 2 -0.005363 0.016663 -0.004316 0.000000 -0.000831 0.000000
# 3 -0.001368 -0.004316 0.012439 0.000000 0.003693 0.000000
# 4 0.000000 0.000000 0.000000 0.031375 0.000000 0.005133
# 5 0.013219 -0.000831 0.003693 0.000000 0.035487 0.000000
# 6 0.000000 0.000000 0.000000 0.005133 0.000000 0.038479
#
#
# Mechanical properties :
#
#
# Convention : Reuss Voigt Hill
#
# Bulk Modulus (GPa) = 32.96605 45.05009 39.00807
# Shear Modulus (GPa) = 26.31953 30.32655 28.32304
#
# Velocity S-wave (km/s) = 3.64964 3.91763 3.78601
# Velocity P-wave (km/s) = 5.86886 6.57745 6.23323
#
# Compressibility (1/GPa) = 0.03033424
#
# Stress axis : x y z
#
# Youngs Moduli (GPa) = 42.87085 60.01409 80.39341
#
# Poissons Ratio (x) = 0.32185 0.10995
# Poissons Ratio (y) = 0.22991 0.34699
# Poissons Ratio (z) = 0.05863 0.25903
#
# Static dielectric constant tensor:
#      x y z
#    x 3.722230 0.000000 -0.474590 
#    y 0.000000 3.634150 0.000000 
#    z -0.474590 0.000000 3.694410 
# 
# 
# High freq. dielectric constant tensor:
#      x y z
#    x 1.761410 0.000000 -0.038600 
#    y 0.000000 1.769270 0.000000 
#    z -0.038600 0.000000 1.766620 
# 
# From -- ./inp_files/243765.got.cif
#   From: 2010.06.25/outbox.cif.g09.slc.cpg/sg12_122_cif.got.tgz:243765.got - 2010.06.28 00:19:55.
