data_PCOD8097479
_publ_section_title
;
Structure prediction by ZEFSAII (Michael W. Deem and Ramdas Pophale) SiO2 
 PCOD8097479
Probable space group: C 2/M
;
_chemical_formula_sum "Si O2"
_cell_formula_units_Z 64
_cell_length_a 28.961450
_cell_length_b 9.110380
_cell_length_c 15.099063
_cell_angle_alpha 90.000000
_cell_angle_beta 120.812523
_cell_angle_gamma 90.000000
_cell_volume 3421.551487
_symmetry_space_group_name_H-M "C 2/M"
_symmetry_group_IT_number 12
_symmetry_cell_setting 'monoclinic'
loop_
_space_group_symop_operation_xyz
x,y,z
-x,y,-z
-x,-y,-z
x,-y,z
1/2+x,1/2+y,z
1/2-x,1/2+y,-z
1/2-x,1/2-y,-z
1/2+x,1/2-y,z
loop_
_atom_site_type_symbol
_atom_site_label
_atom_site_fract_x
_atom_site_fract_y
_atom_site_fract_z
Si Si1 0.871296 0.328920 0.314567
Si Si2 0.054673 0.827333 0.093882
Si Si3 0.913837 0.325635 0.166978
Si Si4 0.248220 0.669717 0.756323
Si Si5 0.026830 0.827011 0.259442
Si Si6 0.227136 0.827999 0.562753
Si Si7 0.857113 0.828127 0.955460
Si Si8 0.106479 0.828669 0.490550
O O1 0.880382 0.500000 0.336781
O O2 0.896060 0.273851 0.246973
O O3 0.808137 0.288384 0.253110
O O4 0.903060 0.250423 0.425357
O O5 0.059873 0.786942 0.202711
O O6 0.106067 0.769305 0.089784
O O7 0.052072 0.000000 0.079162
O O8 0.000000 0.757409 0.000000
O O9 0.915312 0.500000 0.160249
O O10 0.971689 0.260368 0.202639
O O11 0.870357 0.262428 0.056187
O O12 0.249511 0.500000 0.728220
O O13 0.257855 0.767010 0.678811
O O14 0.295187 0.704296 0.871983
O O15 0.061780 0.774218 0.377235
O O16 0.014302 0.000000 0.250901
O O17 0.250000 0.750000 0.500000
O O18 0.164335 0.788280 0.507551
O O19 0.237371 0.000000 0.565297
O O20 0.867195 0.000000 0.983364
O O21 0.101338 0.000000 0.503105
#
# Coordination Sequence:
#
# PCOD8097479 Si02
#       8
#     8   8   8   8   8   8   8   8
#     4   9  20  39  57  76 109 147 179 222 278 329
#     4   9  16  30  54  78 104 137 172 216 269 316
#     4  11  23  37  54  78 111 146 180 223 277 331
#     4   9  19  36  58  80 105 141 187 227 268 322
#     4  10  20  36  57  81 108 139 183 228 268 319
#     4  10  20  34  53  80 113 146 182 222 271 322
#     4  10  20  35  58  83 106 141 185 224 268 325
#     4   9  20  36  57  82 107 139 183 233 271 310
#
# _framework density 18.704965000000001
#
# number of rings (size 3 to 8) (size 9 to 14) (size 15 to 20)
#    0.000    2.375    1.250    0.750    1.750    3.500 
#    0.000    3.750    0.000    0.000    0.000    0.000 
#    0.000    0.000    0.000    0.000    0.000    0.000 
#
# Total GULP energy -396845.392847 kJ/mol
# GULP energy per Si atom -12401.418526 kJ/mol
# Density = 1.866239 g / cm^3
# Si number density = 18.704965 Si / 1000 Ang^3
#
#
#
# Elastic Constant Matrix: (Units=GPa)
#
#
# Indices 1 2 3 4 5 6 
#
# 1 40.1324 16.2401 28.5274 0.0000 -15.5915 0.0000
# 2 16.2401 47.8278 37.7452 0.0000 -8.0016 0.0000
# 3 28.5274 37.7452 133.8887 0.0000 -7.1681 0.0000
# 4 0.0000 0.0000 0.0000 32.5107 0.0000 -3.1659
# 5 -15.5915 -8.0016 -7.1681 0.0000 36.3895 0.0000
# 6 0.0000 0.0000 0.0000 -3.1659 0.0000 23.5092
#
#
#
# Elastic Compliance Matrix: (Units=1/GPa)
#
#
# Indices 1 2 3 4 5 6 
#
# 1 0.036217 -0.005866 -0.005358 0.000000 0.013173 0.000000
# 2 -0.005866 0.028579 -0.006676 0.000000 0.002456 0.000000
# 3 -0.005358 -0.006676 0.010401 0.000000 -0.001715 0.000000
# 4 0.000000 0.000000 0.000000 0.031168 0.000000 0.004197
# 5 0.013173 0.002456 -0.001715 0.000000 0.033327 0.000000
# 6 0.000000 0.000000 0.000000 0.004197 0.000000 0.043102
#
#
# Mechanical properties :
#
#
# Convention : Reuss Voigt Hill
#
# Bulk Modulus (GPa) = 25.38139 42.98602 34.18371
# Shear Modulus (GPa) = 21.57734 27.77096 24.67415
#
# Velocity S-wave (km/s) = 3.40010 3.85734 3.63591
# Velocity P-wave (km/s) = 5.38637 6.54750 5.99511
#
# Compressibility (1/GPa) = 0.03939894
#
# Stress axis : x y z
#
# Youngs Moduli (GPa) = 27.61120 34.99035 96.14774
#
# Poissons Ratio (x) = 0.20524 0.51515
# Poissons Ratio (y) = 0.16195 0.64185
# Poissons Ratio (z) = 0.14794 0.23358
#
# Static dielectric constant tensor:
#      x y z
#    x 3.507910 0.000000 -0.037780 
#    y 0.000000 3.275170 0.000000 
#    z -0.037780 0.000000 3.617440 
# 
# 
# High freq. dielectric constant tensor:
#      x y z
#    x 1.726700 0.000000 -0.002930 
#    y 0.000000 1.707470 0.000000 
#    z -0.002930 0.000000 1.735070 
# 
# From -- ./inp_files/249259.got.cif
#   From: 2010.06.25/outbox.cif.g09.slc.cpg/sg12_125_cif.got.tgz:249259.got - 2010.06.28 00:19:55.
