data_PCOD8097001
_publ_section_title
;
Structure prediction by ZEFSAII (Michael W. Deem and Ramdas Pophale) SiO2 
 PCOD8097001
Probable space group: C 2/M
;
_chemical_formula_sum "Si O2"
_cell_formula_units_Z 56
_cell_length_a 18.644168
_cell_length_b 8.983380
_cell_length_c 29.260145
_cell_angle_alpha 90.000000
_cell_angle_beta 37.303594
_cell_angle_gamma 90.000000
_cell_volume 2970.019642
_symmetry_space_group_name_H-M "C 2/M"
_symmetry_group_IT_number 12
_symmetry_cell_setting 'monoclinic'
loop_
_space_group_symop_operation_xyz
x,y,z
-x,y,-z
-x,-y,-z
x,-y,z
1/2+x,1/2+y,z
1/2-x,1/2+y,-z
1/2-x,1/2-y,-z
1/2+x,1/2-y,z
loop_
_atom_site_type_symbol
_atom_site_label
_atom_site_fract_x
_atom_site_fract_y
_atom_site_fract_z
Si Si1 0.557157 0.823698 0.292800
Si Si2 0.706473 0.827714 0.300688
Si Si3 0.572879 0.669032 0.873488
Si Si4 0.170451 0.675352 0.002104
Si Si5 0.633591 0.323803 0.428403
Si Si6 0.761842 0.827001 0.125059
Si Si7 0.209227 0.323701 0.567001
O O1 0.608587 0.763267 0.314880
O O2 0.637539 0.770067 0.209629
O O3 0.423313 0.769057 0.353767
O O4 0.569377 0.000000 0.288760
O O5 0.835972 0.803621 0.213877
O O6 0.699016 0.737033 0.350929
O O7 0.682796 0.000000 0.323425
O O8 0.524881 0.500000 0.896469
O O9 0.465604 0.781523 0.921074
O O10 0.634495 0.698348 0.890833
O O11 0.183741 0.500000 0.999325
O O12 0.250000 0.750000 0.000000
O O13 0.213674 0.726679 0.930773
O O14 0.500000 0.262037 0.500000
O O15 0.634469 0.500000 0.424905
O O16 0.705050 0.267801 0.436387
O O17 0.755421 0.000000 0.113882
O O18 0.213143 0.500000 0.558982
O O19 0.250000 0.250000 0.500000
#
# Coordination Sequence:
#
# PCOD8097001 Si02
#       7
#     8   8   8   8   8   8   8
#     4   8  16  33  56  79 102 133 174 215 258 312
#     4   9  18  34  57  81 103 132 174 219 259 311
#     4   9  19  37  59  82 109 140 175 219 272 328
#     4  12  25  38  54  79 111 144 181 224 267 316
#     4  10  21  34  48  73 110 145 176 218 271 317
#     4   9  18  36  60  81 106 141 177 219 273 326
#     4  10  20  34  52  74 102 137 177 217 259 311
#
# _framework density 18.855094999999999
#
# number of rings (size 3 to 8) (size 9 to 14) (size 15 to 20)
#    0.000    2.429    0.000    4.286    0.000    4.857 
#    0.000    4.286    0.000    0.000    0.000    0.000 
#    0.000    0.000    0.000    0.000    0.000    0.000 
#
# Total GULP energy -347225.182227 kJ/mol
# GULP energy per Si atom -12400.899365 kJ/mol
# Density = 1.881218 g / cm^3
# Si number density = 18.855095 Si / 1000 Ang^3
#
#
#
# Elastic Constant Matrix: (Units=GPa)
#
#
# Indices 1 2 3 4 5 6 
#
# 1 141.5218 52.0109 87.4194 -0.0001 -1.7313 -0.0014
# 2 52.0109 67.8440 45.6684 -0.0003 1.6439 -0.0026
# 3 87.4194 45.6684 129.7750 0.0000 1.3071 -0.0001
# 4 -0.0001 -0.0003 0.0000 30.8032 0.0001 5.8971
# 5 -1.7313 1.6439 1.3071 0.0001 37.6095 -0.0001
# 6 -0.0014 -0.0026 -0.0001 5.8971 -0.0001 24.9826
#
#
#
# Elastic Compliance Matrix: (Units=1/GPa)
#
#
# Indices 1 2 3 4 5 6 
#
# 1 0.013576 -0.005597 -0.007187 0.000000 0.001119 0.000000
# 2 -0.005597 0.021637 -0.003833 0.000000 -0.001070 0.000002
# 3 -0.007187 -0.003833 0.013902 0.000000 -0.000646 -0.000001
# 4 0.000000 0.000000 0.000000 0.034001 0.000000 -0.008026
# 5 0.001119 -0.001070 -0.000646 0.000000 0.026710 0.000000
# 6 0.000000 0.000002 -0.000001 -0.008026 0.000000 0.041922
#
#
# Mechanical properties :
#
#
# Convention : Reuss Voigt Hill
#
# Bulk Modulus (GPa) = 62.96747 78.81535 70.89141
# Shear Modulus (GPa) = 26.27776 28.94854 27.61315
#
# Velocity S-wave (km/s) = 3.73724 3.92256 3.83102
# Velocity P-wave (km/s) = 7.21738 7.89979 7.56628
#
# Compressibility (1/GPa) = 0.01588122
#
# Stress axis : x y z
#
# Youngs Moduli (GPa) = 73.65866 46.21794 71.93151
#
# Poissons Ratio (x) = 0.25869 0.51696
# Poissons Ratio (y) = 0.41228 0.27570
# Poissons Ratio (z) = 0.52937 0.17714
#
# Static dielectric constant tensor:
#      x y z
#    x 3.610000 0.000000 -0.182170 
#    y 0.000000 3.183620 0.000000 
#    z -0.182170 0.000000 3.665170 
# 
# 
# High freq. dielectric constant tensor:
#      x y z
#    x 1.736450 0.000000 -0.001740 
#    y 0.000000 1.707570 0.000000 
#    z -0.001740 0.000000 1.747180 
# 
# From -- ./inp_files/363005.got.cif
#   From: 2010.06.25/outbox.cif.g09.slc.cpg/sg12_182_cif.got.tgz:363005.got - 2010.06.28 00:19:55.
