data_PCOD8097940
_publ_section_title
;
Structure prediction by ZEFSAII (Michael W. Deem and Ramdas Pophale) SiO2 
 PCOD8097940
Probable space group: C 2/M
;
_chemical_formula_sum "Si O2"
_cell_formula_units_Z 56
_cell_length_a 8.964935
_cell_length_b 10.007804
_cell_length_c 32.510792
_cell_angle_alpha 90.000000
_cell_angle_beta 113.006388
_cell_angle_gamma 90.000000
_cell_volume 2684.843726
_symmetry_space_group_name_H-M "C 2/M"
_symmetry_group_IT_number 12
_symmetry_cell_setting 'monoclinic'
loop_
_space_group_symop_operation_xyz
x,y,z
-x,y,-z
-x,-y,-z
x,-y,z
1/2+x,1/2+y,z
1/2-x,1/2+y,-z
1/2-x,1/2-y,-z
1/2+x,1/2-y,z
loop_
_atom_site_type_symbol
_atom_site_label
_atom_site_fract_x
_atom_site_fract_y
_atom_site_fract_z
Si Si1 0.092616 0.651848 0.903736
Si Si2 0.289428 0.656196 0.542834
Si Si3 0.036863 0.645632 0.193286
Si Si4 0.864716 0.350173 0.952760
Si Si5 0.144695 0.712620 0.746576
Si Si6 0.932046 0.653908 0.405602
Si Si7 0.677209 0.355377 0.312581
O O1 0.161824 0.500000 0.907121
O O2 0.221862 0.743746 0.940738
O O3 0.046607 0.720950 0.854358
O O4 0.932071 0.652956 0.913807
O O5 0.334796 0.500000 0.536022
O O6 0.250000 0.750000 0.500000
O O7 0.133090 0.652635 0.554951
O O8 0.429847 0.733563 0.582872
O O9 0.059419 0.500000 0.177264
O O10 0.218291 0.686239 0.223903
O O11 0.919448 0.636885 0.220213
O O12 0.801302 0.500000 0.956342
O O13 0.000000 0.307203 0.000000
O O14 0.232156 0.623669 0.721509
O O15 0.989385 0.776814 0.708147
O O16 0.988283 0.500000 0.400743
O O17 0.797415 0.708393 0.359082
O O18 0.628056 0.500000 0.323996
#
# Coordination Sequence:
#
# PCOD8097940 Si02
#       7
#     8   8   8   8   8   8   8
#     4  10  21  36  55  80 110 144 182 225 274 327
#     4  11  23  39  60  86 114 147 186 226 273 327
#     4  10  20  35  53  77 109 141 178 224 270 320
#     4  10  21  37  56  80 109 141 181 227 274 327
#     4  10  20  34  55  80 106 141 181 220 269 322
#     4  10  22  39  58  83 115 147 183 229 274 322
#     4  10  20  36  56  79 108 142 181 223 269 319
#
# _framework density 20.857824000000001
#
# number of rings (size 3 to 8) (size 9 to 14) (size 15 to 20)
#    0.000    1.857    0.000    3.857    0.000    3.714 
#    0.000    7.143    0.000    0.000    0.000    0.000 
#    0.000    0.000    0.000    0.000    0.000    0.000 
#
# Total GULP energy -346922.684751 kJ/mol
# GULP energy per Si atom -12390.095884 kJ/mol
# Density = 2.081035 g / cm^3
# Si number density = 20.857824 Si / 1000 Ang^3
#
#
#
# Elastic Constant Matrix: (Units=GPa)
#
#
# Indices 1 2 3 4 5 6 
#
# 1 62.3317 28.1985 3.7198 0.0000 10.6134 0.0000
# 2 28.1985 97.5218 16.8090 0.0000 17.3461 0.0000
# 3 3.7198 16.8090 89.7811 0.0000 7.0761 0.0000
# 4 0.0000 0.0000 0.0000 29.2326 0.0000 4.7537
# 5 10.6134 17.3461 7.0761 0.0000 30.4982 0.0000
# 6 0.0000 0.0000 0.0000 4.7537 0.0000 23.4243
#
#
#
# Elastic Compliance Matrix: (Units=1/GPa)
#
#
# Indices 1 2 3 4 5 6 
#
# 1 0.018872 -0.004834 0.000432 0.000000 -0.003918 0.000000
# 2 -0.004834 0.012893 -0.001801 0.000000 -0.005233 0.000000
# 3 0.000432 -0.001801 0.011601 0.000000 -0.001817 0.000000
# 4 0.000000 0.000000 0.000000 0.035376 0.000000 -0.007179
# 5 -0.003918 -0.005233 -0.001817 0.000000 0.037550 0.000000
# 6 0.000000 0.000000 0.000000 -0.007179 0.000000 0.044148
#
#
# Mechanical properties :
#
#
# Convention : Reuss Voigt Hill
#
# Bulk Modulus (GPa) = 32.30124 38.56546 35.43335
# Shear Modulus (GPa) = 27.29770 30.02483 28.66127
#
# Velocity S-wave (km/s) = 3.62159 3.79819 3.71094
# Velocity P-wave (km/s) = 5.74525 6.14531 5.94864
#
# Compressibility (1/GPa) = 0.03095856
#
# Stress axis : x y z
#
# Youngs Moduli (GPa) = 52.98977 77.56043 86.20121
#
# Poissons Ratio (x) = 0.37495 -0.03724
# Poissons Ratio (y) = 0.25617 0.15526
# Poissons Ratio (z) = -0.02289 0.13970
#
# Static dielectric constant tensor:
#      x y z
#    x 3.660670 0.000000 -0.000470 
#    y 0.000000 3.704360 0.000000 
#    z -0.000470 0.000000 3.962780 
# 
# 
# High freq. dielectric constant tensor:
#      x y z
#    x 1.805820 0.000000 -0.000570 
#    y 0.000000 1.805850 0.000000 
#    z -0.000570 0.000000 1.839440 
# 
# From -- ./inp_files/372024.got.cif
#   From: 2010.06.25/outbox.cif.g09.slc.cpg/sg12_187_cif.got.tgz:372024.got - 2010.06.28 00:19:55.
