data_PCOD8097693
_publ_section_title
;
Structure prediction by ZEFSAII (Michael W. Deem and Ramdas Pophale) SiO2 
 PCOD8097693
Probable space group: C 2/M
;
_chemical_formula_sum "Si O2"
_cell_formula_units_Z 64
_cell_length_a 14.590105
_cell_length_b 9.386770
_cell_length_c 26.671435
_cell_angle_alpha 90.000000
_cell_angle_beta 105.234137
_cell_angle_gamma 90.000000
_cell_volume 3524.401103
_symmetry_space_group_name_H-M "C 2/M"
_symmetry_group_IT_number 12
_symmetry_cell_setting 'monoclinic'
loop_
_space_group_symop_operation_xyz
x,y,z
-x,y,-z
-x,-y,-z
x,-y,z
1/2+x,1/2+y,z
1/2-x,1/2+y,-z
1/2-x,1/2-y,-z
1/2+x,1/2-y,z
loop_
_atom_site_type_symbol
_atom_site_label
_atom_site_fract_x
_atom_site_fract_y
_atom_site_fract_z
Si Si1 0.215372 0.662648 0.754660
Si Si2 0.277175 0.165531 0.575109
Si Si3 0.815606 0.834870 0.871598
Si Si4 0.278837 0.665630 0.053208
Si Si5 0.674084 0.832279 0.306627
Si Si6 0.975660 0.160540 0.128136
Si Si7 0.983323 0.663668 0.228365
Si Si8 0.108318 0.333310 0.506301
O O1 0.240925 0.500000 0.745717
O O2 0.273439 0.711737 0.812013
O O3 0.240618 0.758994 0.710922
O O4 0.103882 0.683987 0.746623
O O5 0.321262 0.210646 0.634566
O O6 0.179729 0.251914 0.553599
O O7 0.358171 0.201191 0.545628
O O8 0.249827 0.000000 0.569290
O O9 0.774140 0.731375 0.907058
O O10 0.927857 0.807405 0.887556
O O11 0.790037 0.000000 0.879672
O O12 0.250627 0.500000 0.043825
O O13 0.391506 0.684472 0.076469
O O14 0.250000 0.750000 0.000000
O O15 0.575327 0.773998 0.269670
O O16 0.683614 0.000000 0.301116
O O17 0.961195 0.259867 0.173488
O O18 0.975900 0.000000 0.149084
O O19 0.998622 0.500000 0.216585
O O20 0.115900 0.500000 0.519586
O O21 0.000000 0.280473 0.500000
#
# Coordination Sequence:
#
# PCOD8097693 Si02
#       8
#     8   8   8   8   8   8   8   8
#     4  10  20  34  55  81 108 143 183 223 266 318
#     4   9  19  35  52  77 113 146 179 225 275 322
#     4  10  20  37  59  82 109 140 178 223 269 321
#     4  11  24  40  59  83 110 143 180 226 277 327
#     4  10  21  35  52  78 114 148 179 221 271 322
#     4  10  21  37  58  81 108 142 178 218 270 325
#     4  10  20  34  54  80 108 142 180 220 266 316
#     4   9  18  34  58  82 104 141 188 230 275 326
#
# _framework density 18.159113999999999
#
# number of rings (size 3 to 8) (size 9 to 14) (size 15 to 20)
#    0.000    2.125    2.500    0.375    0.000    4.250 
#    0.000    5.000    0.000    0.000    0.000    0.000 
#    0.000    0.000    0.000    0.000    0.000    0.000 
#
# Total GULP energy -396876.273531 kJ/mol
# GULP energy per Si atom -12402.383548 kJ/mol
# Density = 1.811778 g / cm^3
# Si number density = 18.159114 Si / 1000 Ang^3
#
#
#
# Elastic Constant Matrix: (Units=GPa)
#
#
# Indices 1 2 3 4 5 6 
#
# 1 98.4274 34.7848 30.2588 0.0000 0.2189 0.0000
# 2 34.7848 59.3634 41.8956 0.0000 -3.0555 0.0000
# 3 30.2588 41.8956 84.5557 0.0000 -2.5553 0.0000
# 4 0.0000 0.0000 0.0000 32.0647 0.0000 -2.1606
# 5 0.2189 -3.0555 -2.5553 0.0000 22.1234 0.0000
# 6 0.0000 0.0000 0.0000 -2.1606 0.0000 30.7219
#
#
#
# Elastic Compliance Matrix: (Units=1/GPa)
#
#
# Indices 1 2 3 4 5 6 
#
# 1 0.012943 -0.006692 -0.001353 0.000000 -0.001209 0.000000
# 2 -0.006692 0.029461 -0.012120 0.000000 0.002735 0.000000
# 3 -0.001353 -0.012120 0.018330 0.000000 0.000457 0.000000
# 4 0.000000 0.000000 0.000000 0.031335 0.000000 0.002204
# 5 -0.001209 0.002735 0.000457 0.000000 0.045643 0.000000
# 6 0.000000 0.000000 0.000000 0.002204 0.000000 0.032705
#
#
# Mechanical properties :
#
#
# Convention : Reuss Voigt Hill
#
# Bulk Modulus (GPa) = 49.00782 50.69163 49.84973
# Shear Modulus (GPa) = 22.98344 26.00916 24.49630
#
# Velocity S-wave (km/s) = 3.56148 3.78867 3.67683
# Velocity P-wave (km/s) = 6.63014 6.86400 6.74809
#
# Compressibility (1/GPa) = 0.02040491
#
# Stress axis : x y z
#
# Youngs Moduli (GPa) = 77.26055 33.94331 54.55670
#
# Poissons Ratio (x) = 0.22714 0.07380
# Poissons Ratio (y) = 0.51701 0.66122
# Poissons Ratio (z) = 0.10451 0.41139
#
# Static dielectric constant tensor:
#      x y z
#    x 3.556920 0.000000 0.013030 
#    y 0.000000 3.345220 0.000000 
#    z 0.013030 0.000000 3.499400 
# 
# 
# High freq. dielectric constant tensor:
#      x y z
#    x 1.713300 0.000000 0.003210 
#    y 0.000000 1.700960 0.000000 
#    z 0.003210 0.000000 1.698460 
# 
# From -- ./inp_files/359876.got.cif
#   From: 2010.06.25/outbox.cif.g09.slc.cpg/sg12_180_cif.got.tgz:359876.got - 2010.06.28 00:19:55.
