data_PCOD8097649
_publ_section_title
;
Structure prediction by ZEFSAII (Michael W. Deem and Ramdas Pophale) SiO2 
 PCOD8097649
Probable space group: C 2/M
;
_chemical_formula_sum "Si O2"
_cell_formula_units_Z 48
_cell_length_a 18.082538
_cell_length_b 9.063533
_cell_length_c 27.427946
_cell_angle_alpha 90.000000
_cell_angle_beta 34.075950
_cell_angle_gamma 90.000000
_cell_volume 2518.628551
_symmetry_space_group_name_H-M "C 2/M"
_symmetry_group_IT_number 12
_symmetry_cell_setting 'monoclinic'
loop_
_space_group_symop_operation_xyz
x,y,z
-x,y,-z
-x,-y,-z
x,-y,z
1/2+x,1/2+y,z
1/2-x,1/2+y,-z
1/2-x,1/2-y,-z
1/2+x,1/2-y,z
loop_
_atom_site_type_symbol
_atom_site_label
_atom_site_fract_x
_atom_site_fract_y
_atom_site_fract_z
Si Si1 0.722626 0.671118 0.586724
Si Si2 0.647773 0.324828 0.915845
Si Si3 0.948939 0.172670 0.411427
Si Si4 0.585600 0.330166 0.761621
Si Si5 0.777891 0.671245 0.745871
Si Si6 0.312149 0.825354 0.919387
O O1 0.759862 0.500000 0.561933
O O2 0.854445 0.763621 0.505003
O O3 0.609101 0.713666 0.609968
O O4 0.672603 0.712888 0.667489
O O5 0.640439 0.500000 0.917090
O O6 0.718931 0.264764 0.828429
O O7 0.729711 0.271153 0.917694
O O8 0.500000 0.259018 0.000000
O O9 0.091951 0.241644 0.339460
O O10 0.960760 0.000000 0.412857
O O11 0.538147 0.500000 0.784357
O O12 0.669530 0.302036 0.763897
O O13 0.461796 0.222944 0.830634
O O14 0.814979 0.500000 0.730493
O O15 0.304395 0.000000 0.929959
O O16 0.250000 0.750000 0.000000
#
# Coordination Sequence:
#
# PCOD8097649 Si02
#       6
#     8   8   8   8   8   8
#     4   9  19  36  56  78 106 141 180 220 266 319
#     4   9  18  34  56  80 105 136 176 217 258 310
#     4  10  20  34  54  79 108 141 178 222 266 313
#     4  10  21  37  57  80 107 140 178 221 266 314
#     4  10  20  35  56  79 106 141 178 218 266 319
#     4  11  22  36  57  82 109 141 176 217 263 313
#
# _framework density 19.057991000000001
#
# number of rings (size 3 to 8) (size 9 to 14) (size 15 to 20)
#    0.000    2.167    0.000    3.000    0.000    5.333 
#    0.000    4.167    0.000    3.500    0.000    0.000 
#    0.000    0.000    0.000    0.000    0.000    0.000 
#
# Total GULP energy -297703.447696 kJ/mol
# GULP energy per Si atom -12404.310321 kJ/mol
# Density = 1.901461 g / cm^3
# Si number density = 19.057991 Si / 1000 Ang^3
#
#
#
# Elastic Constant Matrix: (Units=GPa)
#
#
# Indices 1 2 3 4 5 6 
#
# 1 123.6032 46.6081 77.6384 0.0013 16.3588 -0.0099
# 2 46.6081 65.2989 58.7174 0.0035 -3.0782 -0.0054
# 3 77.6384 58.7174 144.9018 0.0016 0.0890 0.0001
# 4 0.0013 0.0035 0.0016 33.1805 0.0019 -2.9402
# 5 16.3588 -3.0782 0.0890 0.0019 37.3047 0.0023
# 6 -0.0099 -0.0054 0.0001 -2.9402 0.0023 25.8850
#
#
#
# Elastic Compliance Matrix: (Units=1/GPa)
#
#
# Indices 1 2 3 4 5 6 
#
# 1 0.014649 -0.005863 -0.005469 0.000001 -0.006895 0.000005
# 2 -0.005863 0.026592 -0.007637 -0.000002 0.004784 0.000003
# 3 -0.005469 -0.007637 0.012925 0.000000 0.001737 -0.000004
# 4 0.000001 -0.000002 0.000000 0.030445 -0.000002 0.003458
# 5 -0.006895 0.004784 0.001737 -0.000002 0.030220 -0.000005
# 6 0.000005 0.000003 -0.000004 0.003458 -0.000005 0.039025
#
#
# Mechanical properties :
#
#
# Convention : Reuss Voigt Hill
#
# Bulk Modulus (GPa) = 61.62283 77.74798 69.68540
# Shear Modulus (GPa) = 25.35452 29.33002 27.34227
#
# Velocity S-wave (km/s) = 3.65141 3.92725 3.79184
# Velocity P-wave (km/s) = 7.08390 7.83890 7.47094
#
# Compressibility (1/GPa) = 0.01622775
#
# Stress axis : x y z
#
# Youngs Moduli (GPa) = 68.26465 37.60514 77.36967
#
# Poissons Ratio (x) = 0.22049 0.42311
# Poissons Ratio (y) = 0.40026 0.59088
# Poissons Ratio (z) = 0.37332 0.28719
#
# Static dielectric constant tensor:
#      x y z
#    x 3.594740 0.000000 0.096230 
#    y 0.000000 3.352260 0.000000 
#    z 0.096230 0.000000 3.663690 
# 
# 
# High freq. dielectric constant tensor:
#      x y z
#    x 1.748940 0.000000 0.004070 
#    y 0.000000 1.722480 0.000000 
#    z 0.004070 0.000000 1.755310 
# 
# From -- ./inp_files/295906.got.cif
#   From: 2010.06.25/outbox.cif.g09.slc.cpg/sg12_148_cif.got.tgz:295906.got - 2010.06.28 00:19:55.
