data_PCOD8097016
_publ_section_title
;
Structure prediction by ZEFSAII (Michael W. Deem and Ramdas Pophale) SiO2 
 PCOD8097016
Probable space group: C 2/M
;
_chemical_formula_sum "Si O2"
_cell_formula_units_Z 56
_cell_length_a 17.218697
_cell_length_b 13.531261
_cell_length_c 17.482596
_cell_angle_alpha 90.000000
_cell_angle_beta 134.960584
_cell_angle_gamma 90.000000
_cell_volume 2882.226065
_symmetry_space_group_name_H-M "C 2/M"
_symmetry_group_IT_number 12
_symmetry_cell_setting 'monoclinic'
loop_
_space_group_symop_operation_xyz
x,y,z
-x,y,-z
-x,-y,-z
x,-y,z
1/2+x,1/2+y,z
1/2-x,1/2+y,-z
1/2-x,1/2-y,-z
1/2+x,1/2-y,z
loop_
_atom_site_type_symbol
_atom_site_label
_atom_site_fract_x
_atom_site_fract_y
_atom_site_fract_z
Si Si1 0.833573 0.305822 0.275151
Si Si2 0.884523 0.110893 0.381281
Si Si3 0.089597 0.208099 0.127499
Si Si4 0.150418 0.610115 0.268779
Si Si5 0.913134 0.111685 0.720125
Si Si6 0.534778 0.801359 0.330291
Si Si7 0.844351 0.613092 0.447621
O O1 0.859674 0.188415 0.297065
O O2 0.705344 0.327684 0.171162
O O3 0.873533 0.358507 0.380979
O O4 0.909269 0.340693 0.256471
O O5 0.782539 0.121935 0.370407
O O6 0.000000 0.136432 0.500000
O O7 0.886873 0.000000 0.348576
O O8 0.103351 0.317277 0.171701
O O9 0.049623 0.134577 0.166804
O O10 0.000000 0.208615 0.000000
O O11 0.119834 0.500000 0.220861
O O12 0.095222 0.629815 0.311714
O O13 0.967325 0.186855 0.697673
O O14 0.783694 0.128642 0.626928
O O15 0.947240 0.000000 0.722160
O O16 0.594760 0.811566 0.453559
O O17 0.879856 0.500000 0.487454
#
# Coordination Sequence:
#
# PCOD8097016 Si02
#       7
#     8   8   8   8   8   8   8
#     4  10  21  34  50  77 105 133 176 218 254 303
#     4   9  17  31  50  71 100 137 174 209 244 292
#     4   9  19  38  60  75  94 132 178 221 261 302
#     4   9  19  34  52  79 109 136 171 211 256 309
#     4   9  20  36  53  77 105 135 173 212 251 301
#     4  11  20  32  52  77 110 141 164 203 259 314
#     4  10  20  34  52  74 105 144 178 204 239 298
#
# _framework density 19.429427
#
# number of rings (size 3 to 8) (size 9 to 14) (size 15 to 20)
#    0.000    2.429    0.000    3.000    0.000    4.000 
#    0.000    7.857    0.000    1.714    0.000    0.000 
#    0.000    0.000    0.000    0.000    0.000    0.000 
#
# Total GULP energy -347063.747092 kJ/mol
# GULP energy per Si atom -12395.133825 kJ/mol
# Density = 1.938520 g / cm^3
# Si number density = 19.429427 Si / 1000 Ang^3
#
#
#
# Elastic Constant Matrix: (Units=GPa)
#
#
# Indices 1 2 3 4 5 6 
#
# 1 129.1591 24.5801 48.5489 0.0000 4.0671 0.0000
# 2 24.5801 72.5370 31.6393 0.0000 -3.2714 0.0000
# 3 48.5489 31.6393 114.5052 0.0000 2.3925 0.0000
# 4 0.0000 0.0000 0.0000 12.6043 0.0000 -1.9378
# 5 4.0671 -3.2714 2.3925 0.0000 11.0887 0.0000
# 6 0.0000 0.0000 0.0000 -1.9378 0.0000 10.4419
#
#
#
# Elastic Compliance Matrix: (Units=1/GPa)
#
#
# Indices 1 2 3 4 5 6 
#
# 1 0.009494 -0.001865 -0.003442 0.000000 -0.003290 0.000000
# 2 -0.001865 0.016393 -0.003872 0.000000 0.006356 0.000000
# 3 -0.003442 -0.003872 0.011311 0.000000 -0.002320 0.000000
# 4 0.000000 0.000000 0.000000 0.081668 0.000000 0.015156
# 5 -0.003290 0.006356 -0.002320 0.000000 0.093765 0.000000
# 6 0.000000 0.000000 0.000000 0.015156 0.000000 0.098581
#
#
# Mechanical properties :
#
#
# Convention : Reuss Voigt Hill
#
# Bulk Modulus (GPa) = 53.07167 58.41531 55.74349
# Shear Modulus (GPa) = 14.88763 20.92251 17.90507
#
# Velocity S-wave (km/s) = 2.77111 3.28509 3.03899
# Velocity P-wave (km/s) = 6.13295 6.67231 6.40831
#
# Compressibility (1/GPa) = 0.01884244
#
# Stress axis : x y z
#
# Youngs Moduli (GPa) = 105.32446 61.00006 88.41105
#
# Poissons Ratio (x) = 0.11374 0.30428
# Poissons Ratio (y) = 0.19638 0.34233
# Poissons Ratio (z) = 0.36249 0.23619
#
# Static dielectric constant tensor:
#      x y z
#    x 3.713510 0.000000 0.180490 
#    y 0.000000 3.807700 0.000000 
#    z 0.180490 0.000000 3.077660 
# 
# 
# High freq. dielectric constant tensor:
#      x y z
#    x 1.765510 0.000000 0.014510 
#    y 0.000000 1.767830 0.000000 
#    z 0.014510 0.000000 1.704710 
# 
# From -- ./inp_files/277889.got.cif
#   From: 2010.06.25/outbox.cif.g09.slc.cpg/sg12_139_cif.got.tgz:277889.got - 2010.06.28 00:19:55.
