data_PCOD8097613
_publ_section_title
;
Structure prediction by ZEFSAII (Michael W. Deem and Ramdas Pophale) SiO2 
 PCOD8097613
Probable space group: C 2/M
;
_chemical_formula_sum "Si O2"
_cell_formula_units_Z 56
_cell_length_a 18.305579
_cell_length_b 9.337324
_cell_length_c 28.867046
_cell_angle_alpha 90.000000
_cell_angle_beta 141.732030
_cell_angle_gamma 90.000000
_cell_volume 3055.888674
_symmetry_space_group_name_H-M "C 2/M"
_symmetry_group_IT_number 12
_symmetry_cell_setting 'monoclinic'
loop_
_space_group_symop_operation_xyz
x,y,z
-x,y,-z
-x,-y,-z
x,-y,z
1/2+x,1/2+y,z
1/2-x,1/2+y,-z
1/2-x,1/2-y,-z
1/2+x,1/2-y,z
loop_
_atom_site_type_symbol
_atom_site_label
_atom_site_fract_x
_atom_site_fract_y
_atom_site_fract_z
Si Si1 0.740414 0.665860 0.858006
Si Si2 0.058729 0.333405 0.712487
Si Si3 0.364085 0.665400 0.423868
Si Si4 0.279760 0.168250 0.293273
Si Si5 0.096782 0.334068 0.146556
Si Si6 0.326771 0.831530 0.001184
Si Si7 0.792584 0.666972 0.565803
O O1 0.706718 0.500000 0.841941
O O2 0.622464 0.750890 0.785908
O O3 0.844513 0.697881 0.873695
O O4 0.785850 0.719085 0.930175
O O5 0.069463 0.500000 0.729167
O O6 0.118434 0.295549 0.693122
O O7 0.923946 0.282021 0.644155
O O8 0.500000 0.700583 0.500000
O O9 0.345581 0.500000 0.400425
O O10 0.316925 0.766557 0.360364
O O11 0.293547 0.704013 0.435025
O O12 0.157140 0.239165 0.216348
O O13 0.259936 0.000000 0.289114
O O14 0.110708 0.500000 0.167212
O O15 0.961816 0.287164 0.075706
O O16 0.309419 0.000000 0.998767
O O17 0.250000 0.750000 0.000000
O O18 0.791568 0.500000 0.553113
O O19 0.750000 0.750000 0.500000
#
# Coordination Sequence:
#
# PCOD8097613 Si02
#       7
#     8   8   8   8   8   8   8
#     4   9  18  34  56  78  99 131 177 217 249 298
#     4   9  19  35  53  76 105 134 166 208 260 309
#     4  10  21  36  54  77 105 138 175 212 253 306
#     4  10  20  34  54  79 105 133 169 214 259 306
#     4   9  18  35  57  76 100 137 175 212 255 303
#     4  10  21  35  52  77 107 137 171 213 259 305
#     4  10  21  36  54  76 103 135 171 211 254 303
#
# _framework density 18.325274
#
# number of rings (size 3 to 8) (size 9 to 14) (size 15 to 20)
#    0.000    2.429    0.000    1.714    0.000    6.000 
#    0.000    4.286    0.000    4.286    0.000    0.000 
#    0.000    0.000    0.000    0.000    0.000    0.000 
#
# Total GULP energy -347310.990763 kJ/mol
# GULP energy per Si atom -12403.963956 kJ/mol
# Density = 1.828356 g / cm^3
# Si number density = 18.325274 Si / 1000 Ang^3
#
#
#
# Elastic Constant Matrix: (Units=GPa)
#
#
# Indices 1 2 3 4 5 6 
#
# 1 114.6950 54.9349 97.3696 0.0000 10.6281 0.0000
# 2 54.9349 69.9835 81.0629 0.0000 -3.8089 -0.0001
# 3 97.3696 81.0629 182.2443 0.0000 5.3324 0.0000
# 4 0.0000 0.0000 0.0000 34.0876 0.0000 -0.8983
# 5 10.6281 -3.8089 5.3324 0.0000 34.8582 0.0000
# 6 0.0000 -0.0001 0.0000 -0.8983 0.0000 27.3132
#
#
#
# Elastic Compliance Matrix: (Units=1/GPa)
#
#
# Indices 1 2 3 4 5 6 
#
# 1 0.017930 -0.007106 -0.006264 0.000000 -0.005285 0.000000
# 2 -0.007106 0.033281 -0.011227 0.000000 0.007521 0.000000
# 3 -0.006264 -0.011227 0.013870 0.000000 -0.001439 0.000000
# 4 0.000000 0.000000 0.000000 0.029362 0.000000 0.000966
# 5 -0.005285 0.007521 -0.001439 0.000000 0.031341 0.000000
# 6 0.000000 0.000000 0.000000 0.000966 0.000000 0.036644
#
#
# Mechanical properties :
#
#
# Convention : Reuss Voigt Hill
#
# Bulk Modulus (GPa) = 62.94782 92.62862 77.78822
# Shear Modulus (GPa) = 23.05033 28.15548 25.60290
#
# Velocity S-wave (km/s) = 3.55046 3.92398 3.74188
# Velocity P-wave (km/s) = 7.15769 8.43723 7.82366
#
# Compressibility (1/GPa) = 0.01588617
#
# Stress axis : x y z
#
# Youngs Moduli (GPa) = 55.77206 30.04751 72.10001
#
# Poissons Ratio (x) = 0.21353 0.45164
# Poissons Ratio (y) = 0.39634 0.80943
# Poissons Ratio (z) = 0.34936 0.33733
#
# Static dielectric constant tensor:
#      x y z
#    x 3.405180 0.000000 0.122670 
#    y 0.000000 3.323640 0.000000 
#    z 0.122670 0.000000 3.557340 
# 
# 
# High freq. dielectric constant tensor:
#      x y z
#    x 1.710870 0.000000 0.003420 
#    y 0.000000 1.705470 0.000000 
#    z 0.003420 0.000000 1.722600 
# 
# From -- ./inp_files/275172.got.cif
#   From: 2010.06.25/outbox.cif.g09.slc.cpg/sg12_138_cif.got.tgz:275172.got - 2010.06.28 00:19:55.
