data_PCOD8097146
_publ_section_title
;
Structure prediction by ZEFSAII (Michael W. Deem and Ramdas Pophale) SiO2 
 PCOD8097146
Probable space group: C 2/M
;
_chemical_formula_sum "Si O2"
_cell_formula_units_Z 64
_cell_length_a 15.133818
_cell_length_b 9.314048
_cell_length_c 25.143773
_cell_angle_alpha 90.000000
_cell_angle_beta 90.432971
_cell_angle_gamma 90.000000
_cell_volume 3544.092313
_symmetry_space_group_name_H-M "C 2/M"
_symmetry_group_IT_number 12
_symmetry_cell_setting 'monoclinic'
loop_
_space_group_symop_operation_xyz
x,y,z
-x,y,-z
-x,-y,-z
x,-y,z
1/2+x,1/2+y,z
1/2-x,1/2+y,-z
1/2-x,1/2-y,-z
1/2+x,1/2-y,z
loop_
_atom_site_type_symbol
_atom_site_label
_atom_site_fract_x
_atom_site_fract_y
_atom_site_fract_z
Si Si1 0.288040 0.667156 0.710277
Si Si2 0.126177 0.666689 0.637595
Si Si3 0.029464 0.838133 0.335631
Si Si4 0.392956 0.669652 0.107065
Si Si5 0.463236 0.338183 0.444961
Si Si6 0.263305 0.833256 0.816269
Si Si7 0.074691 0.667996 0.108782
Si Si8 0.103486 0.157470 0.009499
O O1 0.291078 0.500000 0.724382
O O2 0.222620 0.696622 0.661031
O O3 0.383508 0.724152 0.692018
O O4 0.255083 0.749667 0.761516
O O5 0.105138 0.500000 0.631382
O O6 0.054170 0.736099 0.678345
O O7 0.117384 0.742252 0.579306
O O8 0.040912 0.839030 0.400349
O O9 0.009984 0.000000 0.315352
O O10 0.413043 0.500000 0.110955
O O11 0.316401 0.719833 0.146537
O O12 0.483047 0.753040 0.121696
O O13 0.357266 0.707833 0.047371
O O14 0.500000 0.270975 0.500000
O O15 0.428385 0.500000 0.455455
O O16 0.358229 0.801890 0.842869
O O17 0.252082 0.000000 0.804071
O O18 0.056693 0.500000 0.100447
O O19 0.122251 0.727358 0.055605
O O20 0.141058 0.000000 0.026035
O O21 0.000000 0.144215 0.000000
#
# Coordination Sequence:
#
# PCOD8097146 Si02
#       8
#     8   8   8   8   8   8   8   8
#     4  10  21  37  54  73 101 137 176 215 255 302
#     4   9  18  32  52  78 105 132 167 215 259 292
#     4   8  17  34  53  73 102 139 172 203 248 306
#     4   9  19  37  55  73 101 137 170 202 252 315
#     4   8  15  31  55  79 106 140 173 204 246 306
#     4  10  23  38  52  73 103 135 171 216 257 301
#     4  10  20  34  52  78 106 129 162 214 264 299
#     4   8  15  30  53  75  99 133 167 199 246 316
#
# _framework density 18.058219999999999
#
# number of rings (size 3 to 8) (size 9 to 14) (size 15 to 20)
#    0.750    2.250    0.000    1.125    0.000    7.000 
#    0.000    5.625    0.000    0.000    0.000    0.000 
#    0.000    0.000    0.000    0.000    0.000    0.000 
#
# Total GULP energy -396519.591258 kJ/mol
# GULP energy per Si atom -12391.237227 kJ/mol
# Density = 1.801712 g / cm^3
# Si number density = 18.058220 Si / 1000 Ang^3
#
#
#
# Elastic Constant Matrix: (Units=GPa)
#
#
# Indices 1 2 3 4 5 6 
#
# 1 52.3558 26.8109 1.2171 0.0000 -2.5507 0.0000
# 2 26.8109 65.5423 19.0577 0.0000 8.9458 0.0000
# 3 1.2171 19.0577 53.5885 0.0000 1.7357 0.0000
# 4 0.0000 0.0000 0.0000 29.3283 0.0000 3.1235
# 5 -2.5507 8.9458 1.7357 0.0000 26.5597 0.0000
# 6 0.0000 0.0000 0.0000 3.1235 0.0000 24.4164
#
#
#
# Elastic Compliance Matrix: (Units=1/GPa)
#
#
# Indices 1 2 3 4 5 6 
#
# 1 0.025703 -0.012448 0.003635 0.000000 0.006424 0.000000
# 2 -0.012448 0.023839 -0.007913 0.000000 -0.008708 0.000000
# 3 0.003635 -0.007913 0.021340 0.000000 0.001620 0.000000
# 4 0.000000 0.000000 0.000000 0.034568 0.000000 -0.004422
# 5 0.006424 -0.008708 0.001620 0.000000 0.041095 0.000000
# 6 0.000000 0.000000 0.000000 -0.004422 0.000000 0.041522
#
#
# Mechanical properties :
#
#
# Convention : Reuss Voigt Hill
#
# Bulk Modulus (GPa) = 26.71672 29.51755 28.11713
# Shear Modulus (GPa) = 21.36806 24.35427 22.86117
#
# Velocity S-wave (km/s) = 3.44363 3.67639 3.56191
# Velocity P-wave (km/s) = 5.53519 5.86535 5.70266
#
# Compressibility (1/GPa) = 0.03742975
#
# Stress axis : x y z
#
# Youngs Moduli (GPa) = 38.90605 41.94872 46.86081
#
# Poissons Ratio (x) = 0.52217 -0.17034
# Poissons Ratio (y) = 0.48430 0.37081
# Poissons Ratio (z) = -0.14142 0.33194
#
# Static dielectric constant tensor:
#      x y z
#    x 3.139420 0.000000 -0.059430 
#    y 0.000000 3.295860 0.000000 
#    z -0.059430 0.000000 3.344390 
# 
# 
# High freq. dielectric constant tensor:
#      x y z
#    x 1.681850 0.000000 -0.000900 
#    y 0.000000 1.697370 0.000000 
#    z -0.000900 0.000000 1.689920 
# 
# From -- ./inp_files/359823.got.cif
#   From: 2010.06.25/outbox.cif.g09.slc.cpg/sg12_180_cif.got.tgz:359823.got - 2010.06.28 00:19:55.
