data_PCOD8097798
_publ_section_title
;
Structure prediction by ZEFSAII (Michael W. Deem and Ramdas Pophale) SiO2 
 PCOD8097798
Probable space group: C 2/M
;
_chemical_formula_sum "Si O2"
_cell_formula_units_Z 32
_cell_length_a 28.727111
_cell_length_b 9.299736
_cell_length_c 12.068314
_cell_angle_alpha 90.000000
_cell_angle_beta 30.798513
_cell_angle_gamma 90.000000
_cell_volume 1650.808074
_symmetry_space_group_name_H-M "C 2/M"
_symmetry_group_IT_number 12
_symmetry_cell_setting 'monoclinic'
loop_
_space_group_symop_operation_xyz
x,y,z
-x,y,-z
-x,-y,-z
x,-y,z
1/2+x,1/2+y,z
1/2-x,1/2+y,-z
1/2-x,1/2-y,-z
1/2+x,1/2-y,z
loop_
_atom_site_type_symbol
_atom_site_label
_atom_site_fract_x
_atom_site_fract_y
_atom_site_fract_z
Si Si1 0.110846 0.329822 0.996509
Si Si2 0.606916 0.841661 0.762374
Si Si3 0.740850 0.665102 0.131161
Si Si4 0.074665 0.166173 0.623397
O O1 0.091904 0.500000 0.041565
O O2 0.017602 0.249028 0.215624
O O3 0.148254 0.290556 0.796348
O O4 0.185908 0.277152 0.930002
O O5 0.627407 0.728605 0.623267
O O6 0.644250 0.000000 0.652634
O O7 0.500000 0.851068 0.000000
O O8 0.761187 0.500000 0.063562
O O9 0.639774 0.685689 0.384988
O O10 0.750000 0.750000 0.000000
O O11 0.053147 0.000000 0.691120
#
# Coordination Sequence:
#
# PCOD8097798 Si02
#       4
#     8   8   8   8
#     4   9  19  37  57  77 106 143 176 208 256 319
#     4   8  15  30  53  79 107 139 172 205 252 319
#     4  10  23  40  55  75 105 140 180 222 261 307
#     4  10  20  34  54  82 111 135 168 220 269 304
#
# _framework density 19.384447000000002
#
# number of rings (size 3 to 8) (size 9 to 14) (size 15 to 20)
#    0.000    2.750    0.000    2.250    0.000    9.500 
#    0.000    5.000    0.000    0.000    0.000    0.000 
#    0.000    0.000    0.000    0.000    0.000    0.000 
#
# Total GULP energy -198357.097825 kJ/mol
# GULP energy per Si atom -12397.318614 kJ/mol
# Density = 1.934033 g / cm^3
# Si number density = 19.384447 Si / 1000 Ang^3
#
#
#
# Elastic Constant Matrix: (Units=GPa)
#
#
# Indices 1 2 3 4 5 6 
#
# 1 98.3012 26.9828 13.7568 0.0000 7.6768 0.0000
# 2 26.9828 67.9268 27.5692 0.0000 7.0403 0.0000
# 3 13.7568 27.5692 46.9743 0.0000 7.6941 0.0000
# 4 0.0000 0.0000 0.0000 30.0958 0.0000 7.5914
# 5 7.6768 7.0403 7.6941 0.0000 29.2206 0.0000
# 6 0.0000 0.0000 0.0000 7.5914 0.0000 32.5259
#
#
#
# Elastic Compliance Matrix: (Units=1/GPa)
#
#
# Indices 1 2 3 4 5 6 
#
# 1 0.011543 -0.004127 -0.000653 0.000000 -0.001866 0.000000
# 2 -0.004127 0.020886 -0.010872 0.000000 -0.001085 0.000000
# 3 -0.000653 -0.010872 0.028638 0.000000 -0.004750 0.000000
# 4 0.000000 0.000000 0.000000 0.035306 0.000000 -0.008240
# 5 -0.001866 -0.001085 -0.004750 0.000000 0.036225 0.000000
# 6 0.000000 0.000000 0.000000 -0.008240 0.000000 0.032668
#
#
# Mechanical properties :
#
#
# Convention : Reuss Voigt Hill
#
# Bulk Modulus (GPa) = 33.59721 38.86888 36.23305
# Shear Modulus (GPa) = 24.21439 28.02802 26.12121
#
# Velocity S-wave (km/s) = 3.53819 3.80663 3.67486
# Velocity P-wave (km/s) = 5.83621 6.27819 6.06123
#
# Compressibility (1/GPa) = 0.02976438
#
# Stress axis : x y z
#
# Youngs Moduli (GPa) = 86.63500 47.87900 34.91877
#
# Poissons Ratio (x) = 0.19759 0.02279
# Poissons Ratio (y) = 0.35753 0.37962
# Poissons Ratio (z) = 0.05654 0.52052
#
# Static dielectric constant tensor:
#      x y z
#    x 3.834500 0.000000 0.107700 
#    y 0.000000 3.527570 0.000000 
#    z 0.107700 0.000000 3.291500 
# 
# 
# High freq. dielectric constant tensor:
#      x y z
#    x 1.758510 0.000000 0.002660 
#    y 0.000000 1.751430 0.000000 
#    z 0.002660 0.000000 1.739090 
# 
# From -- ./inp_files/138347.got.cif
#   From: 2010.06.25/outbox.cif.g09.slc.cpg/sg12_70_cif.got.tgz:138347.got - 2010.06.28 00:19:55.
