data_PCOD8097865
_publ_section_title
;
Structure prediction by ZEFSAII (Michael W. Deem and Ramdas Pophale) SiO2 
 PCOD8097865
Probable space group: C 2/M
;
_chemical_formula_sum "Si O2"
_cell_formula_units_Z 64
_cell_length_a 18.659465
_cell_length_b 8.855797
_cell_length_c 20.893822
_cell_angle_alpha 90.000000
_cell_angle_beta 91.896636
_cell_angle_gamma 90.000000
_cell_volume 3450.696331
_symmetry_space_group_name_H-M "C 2/M"
_symmetry_group_IT_number 12
_symmetry_cell_setting 'monoclinic'
loop_
_space_group_symop_operation_xyz
x,y,z
-x,y,-z
-x,-y,-z
x,-y,z
1/2+x,1/2+y,z
1/2-x,1/2+y,-z
1/2-x,1/2-y,-z
1/2+x,1/2-y,z
loop_
_atom_site_type_symbol
_atom_site_label
_atom_site_fract_x
_atom_site_fract_y
_atom_site_fract_z
Si Si1 0.456119 0.671000 0.063848
Si Si2 0.113510 0.824969 0.458282
Si Si3 0.985166 0.677142 0.642826
Si Si4 0.614207 0.674545 0.258234
Si Si5 0.765626 0.828736 0.637059
Si Si6 0.623772 0.675633 0.605688
Si Si7 0.085267 0.322797 0.127216
Si Si8 0.828097 0.677912 0.996844
O O1 0.440113 0.500000 0.084733
O O2 0.505953 0.750642 0.118302
O O3 0.500000 0.677694 0.000000
O O4 0.380270 0.756741 0.053726
O O5 0.187412 0.791615 0.424091
O O6 0.122682 0.775605 0.531507
O O7 0.050214 0.727854 0.425136
O O8 0.091701 0.000000 0.450365
O O9 0.976953 0.500000 0.651758
O O10 0.067786 0.724912 0.643592
O O11 0.950310 0.758542 0.702321
O O12 0.597594 0.500000 0.244825
O O13 0.688575 0.696327 0.297667
O O14 0.622421 0.761212 0.191951
O O15 0.701068 0.711139 0.637414
O O16 0.736683 0.000000 0.632470
O O17 0.606223 0.500000 0.613549
O O18 0.074153 0.500000 0.131194
O O19 0.138140 0.279300 0.070743
O O20 0.821688 0.500000 0.006418
O O21 0.750000 0.750000 0.000000
#
# Coordination Sequence:
#
# PCOD8097865 Si02
#       8
#     8   8   8   8   8   8   8   8
#     4   9  17  31  53  80 109 142 179 215 254 302
#     4   9  19  35  53  75 104 136 171 214 266 323
#     4  11  22  35  53  76 103 135 174 220 265 313
#     4  10  21  39  59  77 102 138 178 218 262 315
#     4   9  19  35  53  75 104 136 173 218 265 315
#     4  11  21  33  52  77 105 136 171 216 270 322
#     4  10  20  35  57  83 109 140 179 220 260 308
#     4  10  20  34  54  83 118 148 177 218 265 310
#
# _framework density 18.546980999999999
#
# number of rings (size 3 to 8) (size 9 to 14) (size 15 to 20)
#    0.000    2.125    0.000    4.500    0.000    8.000 
#    0.000    1.250    0.000    3.000    0.000    0.000 
#    0.000    0.000    0.000    0.000    0.000    0.000 
#
# Total GULP energy -396907.724643 kJ/mol
# GULP energy per Si atom -12403.366395 kJ/mol
# Density = 1.850477 g / cm^3
# Si number density = 18.546981 Si / 1000 Ang^3
#
#
#
# Elastic Constant Matrix: (Units=GPa)
#
#
# Indices 1 2 3 4 5 6 
#
# 1 117.3946 45.9304 34.1451 0.0000 2.6574 0.0000
# 2 45.9304 70.0409 29.6680 0.0000 2.4298 0.0000
# 3 34.1451 29.6680 76.5951 0.0000 6.2671 0.0000
# 4 0.0000 0.0000 0.0000 29.6917 0.0000 4.1042
# 5 2.6574 2.4298 6.2671 0.0000 11.5613 0.0000
# 6 0.0000 0.0000 0.0000 4.1042 0.0000 37.7946
#
#
#
# Elastic Compliance Matrix: (Units=1/GPa)
#
#
# Indices 1 2 3 4 5 6 
#
# 1 0.011919 -0.006658 -0.002747 0.000000 0.000149 0.000000
# 2 -0.006658 0.020798 -0.005081 0.000000 -0.000087 0.000000
# 3 -0.002747 -0.005081 0.016857 0.000000 -0.007438 0.000000
# 4 0.000000 0.000000 0.000000 0.034193 0.000000 -0.003713
# 5 0.000149 -0.000087 -0.007438 0.000000 0.090511 0.000000
# 6 0.000000 0.000000 0.000000 -0.003713 0.000000 0.026862
#
#
# Mechanical properties :
#
#
# Convention : Reuss Voigt Hill
#
# Bulk Modulus (GPa) = 48.53573 53.72420 51.12996
# Shear Modulus (GPa) = 21.09902 26.09532 23.59717
#
# Velocity S-wave (km/s) = 3.37649 3.75505 3.57079
# Velocity P-wave (km/s) = 6.43636 6.91592 6.68045
#
# Compressibility (1/GPa) = 0.02060338
#
# Stress axis : x y z
#
# Youngs Moduli (GPa) = 83.90301 48.08071 59.32346
#
# Poissons Ratio (x) = 0.32010 0.16294
# Poissons Ratio (y) = 0.55859 0.30142
# Poissons Ratio (z) = 0.23045 0.24430
#
# Static dielectric constant tensor:
#      x y z
#    x 3.363550 0.000000 0.081460 
#    y 0.000000 3.457640 0.000000 
#    z 0.081460 0.000000 3.298890 
# 
# 
# High freq. dielectric constant tensor:
#      x y z
#    x 1.719060 0.000000 0.008980 
#    y 0.000000 1.730180 0.000000 
#    z 0.008980 0.000000 1.700950 
# 
# From -- ./inp_files/314091.got.cif
#   From: 2010.06.25/outbox.cif.g09.slc.cpg/sg12_158_cif.got.tgz:314091.got - 2010.06.28 00:19:55.
