data_PCOD8097102
_publ_section_title
;
Structure prediction by ZEFSAII (Michael W. Deem and Ramdas Pophale) SiO2 
 PCOD8097102
Probable space group: C 2/M
;
_chemical_formula_sum "Si O2"
_cell_formula_units_Z 44
_cell_length_a 16.876592
_cell_length_b 11.543408
_cell_length_c 28.282710
_cell_angle_alpha 90.000000
_cell_angle_beta 25.570185
_cell_angle_gamma 90.000000
_cell_volume 2378.141872
_symmetry_space_group_name_H-M "C 2/M"
_symmetry_group_IT_number 12
_symmetry_cell_setting 'monoclinic'
loop_
_space_group_symop_operation_xyz
x,y,z
-x,y,-z
-x,-y,-z
x,-y,z
1/2+x,1/2+y,z
1/2-x,1/2+y,-z
1/2-x,1/2-y,-z
1/2+x,1/2-y,z
loop_
_atom_site_type_symbol
_atom_site_label
_atom_site_fract_x
_atom_site_fract_y
_atom_site_fract_z
Si Si1 0.501464 0.257078 0.679064
Si Si2 0.121835 0.369187 0.524584
Si Si3 0.612346 0.130345 0.896149
Si Si4 0.609252 0.129216 0.713326
Si Si5 0.500000 0.725328 0.500000
Si Si6 0.627007 0.133149 0.067748
O O1 0.659380 0.353001 0.586243
O O2 0.521760 0.160933 0.627552
O O3 0.299094 0.305776 0.783563
O O4 0.523684 0.209947 0.719706
O O5 0.078490 0.500000 0.535649
O O6 0.039195 0.298704 0.525612
O O7 0.485460 0.133844 0.919311
O O8 0.664451 0.000000 0.882950
O O9 0.500000 0.189288 0.000000
O O10 0.825416 0.146298 0.605032
O O11 0.509520 0.155009 0.815831
O O12 0.575151 0.000000 0.714083
O O13 0.717605 0.000000 0.023587
O O14 0.750000 0.250000 0.000000
#
# Coordination Sequence:
#
# PCOD8097102 Si02
#       6
#     8   8   8   8   4   8
#     4  10  20  34  54  78 104 137 175 214 264 317
#     4  10  20  34  52  76 107 138 172 216 262 314
#     4  10  20  35  56  79 105 137 176 221 266 317
#     4  10  20  35  55  78 107 139 176 220 264 316
#     4  10  20  34  54  78 104 138 176 214 264 316
#     4  10  21  38  58  81 109 142 181 224 269 320
#
# _framework density 18.501840000000001
#
# number of rings (size 3 to 8) (size 9 to 14) (size 15 to 20)
#    0.000    2.000    0.000    3.818    0.000    0.000 
#    0.000   13.636    0.000    4.909    0.000    0.000 
#    0.000    0.000    0.000    0.000    0.000    0.000 
#
# Total GULP energy -272648.594956 kJ/mol
# GULP energy per Si atom -12393.117953 kJ/mol
# Density = 1.845973 g / cm^3
# Si number density = 18.501840 Si / 1000 Ang^3
#
#
#
# Elastic Constant Matrix: (Units=GPa)
#
#
# Indices 1 2 3 4 5 6 
#
# 1 82.5505 17.6892 32.0326 -0.0018 17.8737 0.0031
# 2 17.6892 94.2921 51.7420 0.0006 3.6059 0.0015
# 3 32.0326 51.7420 112.3056 0.0182 11.7289 0.0018
# 4 -0.0018 0.0006 0.0182 21.4042 -0.0044 -0.9814
# 5 17.8737 3.6059 11.7289 -0.0044 34.8725 -0.0016
# 6 0.0031 0.0015 0.0018 -0.9814 -0.0016 19.0216
#
#
#
# Elastic Compliance Matrix: (Units=1/GPa)
#
#
# Indices 1 2 3 4 5 6 
#
# 1 0.014937 -0.000787 -0.003220 0.000003 -0.006492 -0.000002
# 2 -0.000787 0.014255 -0.006458 0.000005 0.001102 0.000000
# 3 -0.003220 -0.006458 0.013013 -0.000012 -0.002059 -0.000001
# 4 0.000003 0.000005 -0.000012 0.046831 0.000008 0.002416
# 5 -0.006492 0.001102 -0.002059 0.000008 0.032582 0.000004
# 6 -0.000002 0.000000 -0.000001 0.002416 0.000004 0.052697
#
#
# Mechanical properties :
#
#
# Convention : Reuss Voigt Hill
#
# Bulk Modulus (GPa) = 47.00333 54.67507 50.83920
# Shear Modulus (GPa) = 24.71139 27.57196 26.14167
#
# Velocity S-wave (km/s) = 3.65858 3.86453 3.76296
# Velocity P-wave (km/s) = 6.58078 7.03762 6.81303
#
# Compressibility (1/GPa) = 0.02127509
#
# Stress axis : x y z
#
# Youngs Moduli (GPa) = 66.94563 70.15254 76.84591
#
# Poissons Ratio (x) = 0.05522 0.24744
# Poissons Ratio (y) = 0.05269 0.49627
# Poissons Ratio (z) = 0.21556 0.45305
#
# Static dielectric constant tensor:
#      x y z
#    x 3.452310 0.000010 0.128090 
#    y 0.000010 3.571460 0.000010 
#    z 0.128090 0.000010 3.489110 
# 
# 
# High freq. dielectric constant tensor:
#      x y z
#    x 1.733460 0.000000 0.015580 
#    y 0.000000 1.714550 0.000000 
#    z 0.015580 0.000000 1.720180 
# 
# From -- ./inp_files/379018.got.cif
#   From: 2010.06.25/outbox.cif.g09.slc.cpg/sg12_190_cif.got.tgz:379018.got - 2010.06.28 00:19:55.
