data_PCOD8097768
_publ_section_title
;
Structure prediction by ZEFSAII (Michael W. Deem and Ramdas Pophale) SiO2 
 PCOD8097768
Probable space group: C 2/M
;
_chemical_formula_sum "Si O2"
_cell_formula_units_Z 64
_cell_length_a 15.210312
_cell_length_b 9.607758
_cell_length_c 26.403583
_cell_angle_alpha 90.000000
_cell_angle_beta 64.624969
_cell_angle_gamma 90.000000
_cell_volume 3486.276585
_symmetry_space_group_name_H-M "C 2/M"
_symmetry_group_IT_number 12
_symmetry_cell_setting 'monoclinic'
loop_
_space_group_symop_operation_xyz
x,y,z
-x,y,-z
-x,-y,-z
x,-y,z
1/2+x,1/2+y,z
1/2-x,1/2+y,-z
1/2-x,1/2-y,-z
1/2+x,1/2-y,z
loop_
_atom_site_type_symbol
_atom_site_label
_atom_site_fract_x
_atom_site_fract_y
_atom_site_fract_z
Si Si1 0.071010 0.164721 0.740861
Si Si2 0.185692 0.659537 0.449098
Si Si3 0.045692 0.836375 0.326930
Si Si4 0.765301 0.839211 0.946529
Si Si5 0.014956 0.836940 0.131749
Si Si6 0.927923 0.338804 0.063361
Si Si7 0.110162 0.840514 0.551238
Si Si8 0.210885 0.336443 0.327421
O O1 0.008450 0.221410 0.709394
O O2 0.024025 0.216395 0.804731
O O3 0.180578 0.219886 0.708718
O O4 0.072215 0.000000 0.737084
O O5 0.159461 0.500000 0.465672
O O6 0.109256 0.749947 0.500257
O O7 0.295464 0.693423 0.438529
O O8 0.176847 0.697975 0.392639
O O9 0.982342 0.802336 0.392133
O O10 0.144899 0.750344 0.305281
O O11 0.068372 0.000000 0.317217
O O12 0.682662 0.803438 0.925573
O O13 0.870290 0.803884 0.897370
O O14 0.757047 0.000000 0.964629
O O15 0.750000 0.750000 0.000000
O O16 0.955641 0.755109 0.103941
O O17 0.994941 0.000000 0.128451
O O18 0.939228 0.500000 0.075858
O O19 0.000000 0.300356 0.000000
O O20 0.108579 0.000000 0.534600
O O21 0.202196 0.500000 0.317912
#
# Coordination Sequence:
#
# PCOD8097768 Si02
#       8
#     8   8   8   8   8   8   8   8
#     4   9  19  39  59  75 106 146 181 221 270 319
#     4   9  17  31  52  76 103 139 177 216 268 325
#     4  10  20  36  58  80 105 142 183 222 270 323
#     4  10  20  34  54  81 111 143 177 213 259 315
#     4  10  21  36  58  84 106 140 188 226 257 311
#     4  10  20  35  55  81 116 148 171 211 273 321
#     4   9  17  31  52  77 104 137 176 219 268 322
#     4  10  20  36  57  78 105 142 181 221 271 325
#
# _framework density 18.357695
#
# number of rings (size 3 to 8) (size 9 to 14) (size 15 to 20)
#    0.000    2.375    2.500    0.000    0.000    3.250 
#    0.000    5.625    0.000    0.000    0.000    0.000 
#    0.000    0.000    0.000    0.000    0.000    0.000 
#
# Total GULP energy -396852.547789 kJ/mol
# GULP energy per Si atom -12401.642118 kJ/mol
# Density = 1.831591 g / cm^3
# Si number density = 18.357695 Si / 1000 Ang^3
#
#
#
# Elastic Constant Matrix: (Units=GPa)
#
#
# Indices 1 2 3 4 5 6 
#
# 1 151.0522 57.6452 77.9511 0.0000 4.7176 0.0000
# 2 57.6452 56.5577 57.1552 0.0000 2.3151 0.0000
# 3 77.9511 57.1552 128.5729 0.0000 0.7370 0.0000
# 4 0.0000 0.0000 0.0000 21.3906 0.0000 4.4607
# 5 4.7176 2.3151 0.7370 0.0000 12.3141 0.0000
# 6 0.0000 0.0000 0.0000 4.4607 0.0000 32.5120
#
#
#
# Elastic Compliance Matrix: (Units=1/GPa)
#
#
# Indices 1 2 3 4 5 6 
#
# 1 0.011604 -0.008395 -0.003288 0.000000 -0.002671 0.000000
# 2 -0.008395 0.038510 -0.012010 0.000000 -0.003305 0.000000
# 3 -0.003288 -0.012010 0.015095 0.000000 0.002614 0.000000
# 4 0.000000 0.000000 0.000000 0.048127 0.000000 -0.006603
# 5 -0.002671 -0.003305 0.002614 0.000000 0.082695 0.000000
# 6 0.000000 0.000000 0.000000 -0.006603 0.000000 0.031664
#
#
# Mechanical properties :
#
#
# Convention : Reuss Voigt Hill
#
# Bulk Modulus (GPa) = 56.10945 80.18730 68.14838
# Shear Modulus (GPa) = 17.79208 22.80544 20.29876
#
# Velocity S-wave (km/s) = 3.11656 3.52843 3.32887
# Velocity P-wave (km/s) = 6.60163 7.77014 7.20959
#
# Compressibility (1/GPa) = 0.01782231
#
# Stress axis : x y z
#
# Youngs Moduli (GPa) = 86.17477 25.96712 66.24575
#
# Poissons Ratio (x) = 0.21800 0.21783
# Poissons Ratio (y) = 0.72346 0.79564
# Poissons Ratio (z) = 0.28336 0.31188
#
# Static dielectric constant tensor:
#      x y z
#    x 3.455530 0.000000 -0.065110 
#    y 0.000000 3.194020 0.000000 
#    z -0.065110 0.000000 3.448720 
# 
# 
# High freq. dielectric constant tensor:
#      x y z
#    x 1.720330 0.000000 -0.002620 
#    y 0.000000 1.692740 0.000000 
#    z -0.002620 0.000000 1.709530 
# 
# From -- ./inp_files/359788.got.cif
#   From: 2010.06.25/outbox.cif.g09.slc.cpg/sg12_180_cif.got.tgz:359788.got - 2010.06.28 00:19:55.
