data_PCOD8097048
_publ_section_title
;
Structure prediction by ZEFSAII (Michael W. Deem and Ramdas Pophale) SiO2 
 PCOD8097048
Probable space group: C 2/M
;
_chemical_formula_sum "Si O2"
_cell_formula_units_Z 40
_cell_length_a 8.405635
_cell_length_b 12.195291
_cell_length_c 22.564547
_cell_angle_alpha 90.000000
_cell_angle_beta 65.403635
_cell_angle_gamma 90.000000
_cell_volume 2103.190459
_symmetry_space_group_name_H-M "C 2/M"
_symmetry_group_IT_number 12
_symmetry_cell_setting 'monoclinic'
loop_
_space_group_symop_operation_xyz
x,y,z
-x,y,-z
-x,-y,-z
x,-y,z
1/2+x,1/2+y,z
1/2-x,1/2+y,-z
1/2-x,1/2-y,-z
1/2+x,1/2-y,z
loop_
_atom_site_type_symbol
_atom_site_label
_atom_site_fract_x
_atom_site_fract_y
_atom_site_fract_z
Si Si1 0.241510 0.373875 0.270602
Si Si2 0.043445 0.875967 0.877717
Si Si3 0.676027 0.201175 0.952182
Si Si4 0.565567 0.724700 0.651277
Si Si5 0.126018 0.126762 0.427456
O O1 0.184579 0.500000 0.275543
O O2 0.371152 0.341349 0.197549
O O3 0.334950 0.353454 0.318605
O O4 0.068566 0.300624 0.291541
O O5 0.118561 0.797731 0.916681
O O6 0.832161 0.870928 0.900449
O O7 0.093396 0.000000 0.887659
O O8 0.500000 0.134370 0.000000
O O9 0.750000 0.250000 0.000000
O O10 0.698860 0.801789 0.594594
O O11 0.466790 0.646117 0.620966
O O12 0.000000 0.163757 0.500000
O O13 0.178310 0.000000 0.425297
#
# Coordination Sequence:
#
# PCOD8097048 Si02
#       5
#     8   8   8   8   8
#     4  10  20  34  53  76 101 132 169 207 251 301
#     4  10  20  35  54  75 102 134 166 206 253 297
#     4   9  19  34  52  75 101 129 166 204 243 297
#     4  10  20  34  53  75 103 134 168 210 254 296
#     4  10  20  34  52  75 103 135 171 209 251 300
#
# _framework density 19.018725
#
# number of rings (size 3 to 8) (size 9 to 14) (size 15 to 20)
#    0.000    2.200    0.000    3.000    0.000    4.000 
#    0.000    3.000    0.000   26.400    0.000    0.000 
#    0.000    0.000    0.000    0.000    0.000    0.000 
#
# Total GULP energy -247938.932023 kJ/mol
# GULP energy per Si atom -12396.946601 kJ/mol
# Density = 1.897544 g / cm^3
# Si number density = 19.018725 Si / 1000 Ang^3
#
#
#
# Elastic Constant Matrix: (Units=GPa)
#
#
# Indices 1 2 3 4 5 6 
#
# 1 58.0011 8.7805 18.4724 0.0000 -11.0351 0.0000
# 2 8.7805 57.6491 28.7031 0.0000 -5.4251 0.0000
# 3 18.4724 28.7031 111.9766 0.0000 -23.7323 0.0000
# 4 0.0000 0.0000 0.0000 24.6787 0.0000 4.8284
# 5 -11.0351 -5.4251 -23.7323 0.0000 36.5867 0.0000
# 6 0.0000 0.0000 0.0000 4.8284 0.0000 -0.2058
#
#
#
# Elastic Compliance Matrix: (Units=1/GPa)
#
#
# Indices 1 2 3 4 5 6 
#
# 1 0.018869 -0.001574 -0.001800 0.000000 0.004290 0.000000
# 2 -0.001574 0.020021 -0.005036 0.000000 -0.000773 0.000000
# 3 -0.001800 -0.005036 0.011878 0.000000 0.006415 0.000000
# 4 0.000000 0.000000 0.000000 0.007248 0.000000 0.170062
# 5 0.004290 -0.000773 0.006415 0.000000 0.032673 0.000000
# 6 0.000000 0.000000 0.000000 0.170062 0.000000 -0.869209
#
#
# Mechanical properties :
#
#
# Convention : Reuss Voigt Hill
#
# Bulk Modulus (GPa) = 29.45733 37.72652 33.59192
# Shear Modulus (GPa) = -6.66325 23.65663 8.49669
#
# Velocity S-wave (km/s) = -1.87380 3.53067 2.11595
# Velocity P-wave (km/s) = 3.29252 6.04155 4.86524
#
# Compressibility (1/GPa) = 0.03394741
#
# Stress axis : x y z
#
# Youngs Moduli (GPa) = 52.99740 49.94811 84.19010
#
# Poissons Ratio (x) = 0.07862 0.15154
# Poissons Ratio (y) = 0.08342 0.42399
# Poissons Ratio (z) = 0.09540 0.25154
#
# Static dielectric constant tensor:
#      x y z
#    x 3.781190 0.000000 -0.418970 
#    y 0.000000 3.265600 0.000000 
#    z -0.418970 0.000000 3.865610 
# 
# 
# High freq. dielectric constant tensor:
#      x y z
#    x 1.743910 0.000000 -0.011790 
#    y 0.000000 1.726420 0.000000 
#    z -0.011790 0.000000 1.756490 
# 
# From -- ./inp_files/254607.got.cif
#   From: 2010.06.25/outbox.cif.g09.slc.cpg/sg12_128_cif.got.tgz:254607.got - 2010.06.28 00:19:55.
