data_PCOD8097699
_publ_section_title
;
Structure prediction by ZEFSAII (Michael W. Deem and Ramdas Pophale) SiO2 
 PCOD8097699
Probable space group: C 2/M
;
_chemical_formula_sum "Si O2"
_cell_formula_units_Z 56
_cell_length_a 19.509961
_cell_length_b 8.743921
_cell_length_c 18.486069
_cell_angle_alpha 90.000000
_cell_angle_beta 74.370678
_cell_angle_gamma 90.000000
_cell_volume 3036.999183
_symmetry_space_group_name_H-M "C 2/M"
_symmetry_group_IT_number 12
_symmetry_cell_setting 'monoclinic'
loop_
_space_group_symop_operation_xyz
x,y,z
-x,y,-z
-x,-y,-z
x,-y,z
1/2+x,1/2+y,z
1/2-x,1/2+y,-z
1/2-x,1/2-y,-z
1/2+x,1/2-y,z
loop_
_atom_site_type_symbol
_atom_site_label
_atom_site_fract_x
_atom_site_fract_y
_atom_site_fract_z
Si Si1 0.617332 0.822781 0.344423
Si Si2 0.435629 0.323228 0.062667
Si Si3 0.081933 0.172207 0.497678
Si Si4 0.255864 0.680287 0.775848
Si Si5 0.779178 0.822774 0.063848
Si Si6 0.613106 0.318386 0.770661
Si Si7 0.954825 0.322801 0.348997
O O1 0.625320 0.763885 0.424398
O O2 0.669038 0.726003 0.279414
O O3 0.538064 0.794887 0.337769
O O4 0.638363 0.000000 0.336225
O O5 0.454542 0.500000 0.067030
O O6 0.363837 0.299062 0.037945
O O7 0.426257 0.254198 0.145945
O O8 0.500000 0.242134 0.000000
O O9 0.091345 0.258372 0.571125
O O10 0.000000 0.169436 0.500000
O O11 0.112061 0.000000 0.495521
O O12 0.247698 0.500000 0.778739
O O13 0.255329 0.740725 0.857686
O O14 0.192609 0.750814 0.745460
O O15 0.758468 0.000000 0.073978
O O16 0.750000 0.750000 0.000000
O O17 0.620419 0.500000 0.771394
O O18 0.567099 0.268052 0.715881
O O19 0.936574 0.500000 0.344805
#
# Coordination Sequence:
#
# PCOD8097699 Si02
#       7
#     8   8   8   8   8   8   8
#     4  10  20  35  55  80 110 141 177 222 269 316
#     4   8  16  32  53  76 101 132 171 213 257 307
#     4   9  17  31  52  78 107 139 177 218 262 314
#     4  11  22  37  56  77 106 144 183 222 268 319
#     4  10  20  35  55  79 107 139 175 218 268 318
#     4  10  20  35  55  78 108 143 177 218 268 320
#     4  10  20  34  54  80 109 141 177 219 267 317
#
# _framework density 18.439253999999998
#
# number of rings (size 3 to 8) (size 9 to 14) (size 15 to 20)
#    0.000    2.286    0.000    4.286    0.000    4.571 
#    0.000    2.143    0.000   14.571    0.000    0.000 
#    0.000    0.000    0.000    0.000    0.000    0.000 
#
# Total GULP energy -347222.927656 kJ/mol
# GULP energy per Si atom -12400.818845 kJ/mol
# Density = 1.839729 g / cm^3
# Si number density = 18.439254 Si / 1000 Ang^3
#
#
#
# Elastic Constant Matrix: (Units=GPa)
#
#
# Indices 1 2 3 4 5 6 
#
# 1 58.5330 41.0548 57.2384 0.0000 3.7157 0.0000
# 2 41.0548 121.2540 55.2785 0.0000 2.3714 0.0000
# 3 57.2384 55.2785 123.8170 0.0000 2.8240 0.0000
# 4 0.0000 0.0000 0.0000 34.1214 0.0000 4.8360
# 5 3.7157 2.3714 2.8240 0.0000 25.2069 0.0000
# 6 0.0000 0.0000 0.0000 4.8360 0.0000 27.5554
#
#
#
# Elastic Compliance Matrix: (Units=1/GPa)
#
#
# Indices 1 2 3 4 5 6 
#
# 1 0.034029 -0.005427 -0.013239 0.000000 -0.003022 0.000000
# 2 -0.005427 0.011225 -0.002503 0.000000 0.000024 0.000000
# 3 -0.013239 -0.002503 0.015304 0.000000 0.000473 0.000000
# 4 0.000000 0.000000 0.000000 0.030055 0.000000 -0.005275
# 5 -0.003022 0.000024 0.000473 0.000000 0.040062 0.000000
# 6 0.000000 0.000000 0.000000 -0.005275 0.000000 0.037216
#
#
# Mechanical properties :
#
#
# Convention : Reuss Voigt Hill
#
# Bulk Modulus (GPa) = 54.88805 67.86081 61.37443
# Shear Modulus (GPa) = 23.11571 27.37890 25.24730
#
# Velocity S-wave (km/s) = 3.54448 3.85751 3.70430
# Velocity P-wave (km/s) = 6.82515 7.53145 7.18698
#
# Compressibility (1/GPa) = 0.01821890
#
# Stress axis : x y z
#
# Youngs Moduli (GPa) = 29.38661 89.08336 65.34436
#
# Poissons Ratio (x) = 0.48346 0.86511
# Poissons Ratio (y) = 0.15948 0.16358
# Poissons Ratio (z) = 0.38906 0.22301
#
# Static dielectric constant tensor:
#      x y z
#    x 3.206280 0.000000 -0.063170 
#    y 0.000000 3.438610 0.000000 
#    z -0.063170 0.000000 3.648730 
# 
# 
# High freq. dielectric constant tensor:
#      x y z
#    x 1.695940 0.000000 0.001050 
#    y 0.000000 1.719350 0.000000 
#    z 0.001050 0.000000 1.727010 
# 
# From -- ./inp_files/275068.got.cif
#   From: 2010.06.25/outbox.cif.g09.slc.cpg/sg12_138_cif.got.tgz:275068.got - 2010.06.28 00:19:55.
