data_PCOD8097036
_publ_section_title
;
Structure prediction by ZEFSAII (Michael W. Deem and Ramdas Pophale) SiO2 
 PCOD8097036
Probable space group: C 2/M
;
_chemical_formula_sum "Si O2"
_cell_formula_units_Z 40
_cell_length_a 8.650395
_cell_length_b 10.822484
_cell_length_c 23.873409
_cell_angle_alpha 90.000000
_cell_angle_beta 118.293061
_cell_angle_gamma 90.000000
_cell_volume 1967.994300
_symmetry_space_group_name_H-M "C 2/M"
_symmetry_group_IT_number 12
_symmetry_cell_setting 'monoclinic'
loop_
_space_group_symop_operation_xyz
x,y,z
-x,y,-z
-x,-y,-z
x,-y,z
1/2+x,1/2+y,z
1/2-x,1/2+y,-z
1/2-x,1/2-y,-z
1/2+x,1/2-y,z
loop_
_atom_site_type_symbol
_atom_site_label
_atom_site_fract_x
_atom_site_fract_y
_atom_site_fract_z
Si Si1 0.525758 0.362264 0.570165
Si Si2 0.032967 0.710014 0.849588
Si Si3 0.298098 0.863724 0.232210
Si Si4 0.422624 0.858114 0.628446
Si Si5 0.866525 0.362443 0.932698
O O1 0.500000 0.347987 0.500000
O O2 0.454732 0.500000 0.576532
O O3 0.426824 0.246218 0.580975
O O4 0.729734 0.354569 0.621765
O O5 0.122818 0.629105 0.816893
O O6 0.180115 0.796391 0.902087
O O7 0.876647 0.784296 0.793265
O O8 0.950923 0.629982 0.885327
O O9 0.442965 0.814460 0.300494
O O10 0.241175 0.000000 0.240091
O O11 0.461300 0.000000 0.613570
O O12 0.828074 0.500000 0.947248
O O13 0.000000 0.297990 0.000000
#
# Coordination Sequence:
#
# PCOD8097036 Si02
#       5
#     8   8   8   8   8
#     4  10  21  37  56  80 110 142 178 220 265 315
#     4  10  20  34  53  75 101 135 170 208 258 308
#     4  10  20  35  53  75 104 135 171 214 258 308
#     4  10  21  36  55  80 108 140 179 221 265 315
#     4  10  20  34  52  75 102 132 169 211 254 304
#
# _framework density 20.325261000000001
#
# number of rings (size 3 to 8) (size 9 to 14) (size 15 to 20)
#    0.000    2.000    0.000    3.600    0.000    1.200 
#    0.000    5.000    0.000    9.600    0.000    0.000 
#    0.000    0.000    0.000    0.000    0.000    0.000 
#
# Total GULP energy -247894.499689 kJ/mol
# GULP energy per Si atom -12394.724984 kJ/mol
# Density = 2.027900 g / cm^3
# Si number density = 20.325261 Si / 1000 Ang^3
#
#
#
# Elastic Constant Matrix: (Units=GPa)
#
#
# Indices 1 2 3 4 5 6 
#
# 1 50.0690 13.5251 -0.6303 0.0000 10.7125 0.0000
# 2 13.5251 89.4320 10.4885 0.0000 -4.4303 0.0000
# 3 -0.6303 10.4885 77.4834 0.0000 18.7563 0.0000
# 4 0.0000 0.0000 0.0000 28.3334 0.0000 -11.3883
# 5 10.7125 -4.4303 18.7563 0.0000 37.9467 0.0000
# 6 0.0000 0.0000 0.0000 -11.3883 0.0000 28.7802
#
#
#
# Elastic Compliance Matrix: (Units=1/GPa)
#
#
# Indices 1 2 3 4 5 6 
#
# 1 0.022926 -0.004205 0.002773 0.000000 -0.008334 0.000000
# 2 -0.004205 0.012324 -0.002656 0.000000 0.003939 0.000000
# 3 0.002773 -0.002656 0.015395 0.000000 -0.008702 0.000000
# 4 0.000000 0.000000 0.000000 0.041969 0.000000 0.016607
# 5 -0.008334 0.003939 -0.008702 0.000000 0.033467 0.000000
# 6 0.000000 0.000000 0.000000 0.016607 0.000000 0.041318
#
#
# Mechanical properties :
#
#
# Convention : Reuss Voigt Hill
#
# Bulk Modulus (GPa) = 23.54658 29.30566 26.42612
# Shear Modulus (GPa) = 26.35306 31.91878 29.13592
#
# Velocity S-wave (km/s) = 3.60469 3.96713 3.79024
# Velocity P-wave (km/s) = 5.37914 5.95263 5.67313
#
# Compressibility (1/GPa) = 0.04246901
#
# Stress axis : x y z
#
# Youngs Moduli (GPa) = 43.61783 81.14061 64.95780
#
# Poissons Ratio (x) = 0.34122 -0.18014
# Poissons Ratio (y) = 0.18343 0.17252
# Poissons Ratio (z) = -0.12096 0.21551
#
# Static dielectric constant tensor:
#      x y z
#    x 3.501180 0.000000 0.246490 
#    y 0.000000 3.636030 0.000000 
#    z 0.246490 0.000000 3.781970 
# 
# 
# High freq. dielectric constant tensor:
#      x y z
#    x 1.780290 0.000000 0.019080 
#    y 0.000000 1.791900 0.000000 
#    z 0.019080 0.000000 1.807610 
# 
# From -- ./inp_files/254608.got.cif
#   From: 2010.06.25/outbox.cif.g09.slc.cpg/sg12_128_cif.got.tgz:254608.got - 2010.06.28 00:19:55.
