data_PCOD8097820
_publ_section_title
;
Structure prediction by ZEFSAII (Michael W. Deem and Ramdas Pophale) SiO2 
 PCOD8097820
Probable space group: C 2/M
;
_chemical_formula_sum "Si O2"
_cell_formula_units_Z 56
_cell_length_a 14.377482
_cell_length_b 8.899973
_cell_length_c 25.728050
_cell_angle_alpha 90.000000
_cell_angle_beta 113.349086
_cell_angle_gamma 90.000000
_cell_volume 3022.538034
_symmetry_space_group_name_H-M "C 2/M"
_symmetry_group_IT_number 12
_symmetry_cell_setting 'monoclinic'
loop_
_space_group_symop_operation_xyz
x,y,z
-x,y,-z
-x,-y,-z
x,-y,z
1/2+x,1/2+y,z
1/2-x,1/2+y,-z
1/2-x,1/2-y,-z
1/2+x,1/2-y,z
loop_
_atom_site_type_symbol
_atom_site_label
_atom_site_fract_x
_atom_site_fract_y
_atom_site_fract_z
Si Si1 0.771621 0.324124 0.345209
Si Si2 0.574312 0.175439 0.265424
Si Si3 0.505739 0.824490 0.639421
Si Si4 0.223487 0.327112 0.939966
Si Si5 0.563636 0.329048 0.060500
Si Si6 0.972064 0.178235 0.144706
Si Si7 0.808376 0.175721 0.559891
O O1 0.759172 0.500000 0.331481
O O2 0.688117 0.239489 0.292257
O O3 0.753503 0.285018 0.401526
O O4 0.882869 0.267778 0.352725
O O5 0.512556 0.212227 0.304210
O O6 0.512671 0.251497 0.206125
O O7 0.581460 0.000000 0.256578
O O8 0.422492 0.738407 0.586855
O O9 0.493423 0.000000 0.624886
O O10 0.191186 0.500000 0.942485
O O11 0.318245 0.317926 0.922758
O O12 0.140843 0.233865 0.890603
O O13 0.250000 0.250000 0.000000
O O14 0.524113 0.500000 0.054097
O O15 0.539157 0.259156 0.111323
O O16 0.500000 0.247751 0.000000
O O17 0.974381 0.000000 0.151090
O O18 0.750000 0.250000 0.500000
O O19 0.814607 0.000000 0.551662
#
# Coordination Sequence:
#
# PCOD8097820 Si02
#       7
#     8   8   8   8   8   8   8
#     4   9  19  37  59  80 105 146 190 224 264 322
#     4  10  21  37  56  81 110 138 176 229 278 320
#     4   9  19  37  59  79 107 147 187 225 272 323
#     4  11  21  36  57  80 106 136 174 216 263 319
#     4   9  18  35  56  76 102 139 175 205 255 324
#     4  11  22  38  58  79 107 143 180 219 266 325
#     4  10  20  34  54  82 116 148 185 228 270 317
#
# _framework density 18.527476
#
# number of rings (size 3 to 8) (size 9 to 14) (size 15 to 20)
#    0.000    2.143    1.429    1.714    0.000    3.429 
#    0.000   12.143    0.000    0.000    0.000    0.000 
#    0.000    0.000    0.000    0.000    0.000    0.000 
#
# Total GULP energy -347222.534142 kJ/mol
# GULP energy per Si atom -12400.804791 kJ/mol
# Density = 1.848531 g / cm^3
# Si number density = 18.527476 Si / 1000 Ang^3
#
#
#
# Elastic Constant Matrix: (Units=GPa)
#
#
# Indices 1 2 3 4 5 6 
#
# 1 128.0325 36.2544 61.7639 0.0000 16.5307 0.0000
# 2 36.2544 56.5480 59.6725 0.0000 9.4965 0.0000
# 3 61.7639 59.6725 164.2755 0.0000 20.1982 0.0000
# 4 0.0000 0.0000 0.0000 37.7090 0.0000 6.0619
# 5 16.5307 9.4965 20.1982 0.0000 23.6435 0.0000
# 6 0.0000 0.0000 0.0000 6.0619 0.0000 29.1760
#
#
#
# Elastic Compliance Matrix: (Units=1/GPa)
#
#
# Indices 1 2 3 4 5 6 
#
# 1 0.010392 -0.003871 -0.002010 0.000000 -0.003994 0.000000
# 2 -0.003871 0.030300 -0.009372 0.000000 -0.001458 0.000000
# 3 -0.002010 -0.009372 0.010740 0.000000 -0.004005 0.000000
# 4 0.000000 0.000000 0.000000 0.027435 0.000000 -0.005700
# 5 -0.003994 -0.001458 -0.004005 0.000000 0.049094 0.000000
# 6 0.000000 0.000000 0.000000 -0.005700 0.000000 0.035459
#
#
# Mechanical properties :
#
#
# Convention : Reuss Voigt Hill
#
# Bulk Modulus (GPa) = 47.78598 73.80418 60.79508
# Shear Modulus (GPa) = 24.88783 30.85005 27.86894
#
# Velocity S-wave (km/s) = 3.66907 4.08499 3.88260
# Velocity P-wave (km/s) = 6.61796 7.88486 7.27902
#
# Compressibility (1/GPa) = 0.02092664
#
# Stress axis : x y z
#
# Youngs Moduli (GPa) = 96.22890 33.00301 93.11120
#
# Poissons Ratio (x) = 0.12774 0.18716
# Poissons Ratio (y) = 0.37247 0.87263
# Poissons Ratio (z) = 0.19343 0.30930
#
# Static dielectric constant tensor:
#      x y z
#    x 3.563710 0.000000 -0.024960 
#    y 0.000000 3.394350 0.000000 
#    z -0.024960 0.000000 3.457920 
# 
# 
# High freq. dielectric constant tensor:
#      x y z
#    x 1.725270 0.000000 0.002170 
#    y 0.000000 1.714070 0.000000 
#    z 0.002170 0.000000 1.722890 
# 
# From -- ./inp_files/360021.got.cif
#   From: 2010.06.25/outbox.cif.g09.slc.cpg/sg12_181_cif.got.tgz:360021.got - 2010.06.28 00:19:55.
