data_PCOD8097398
_publ_section_title
;
Structure prediction by ZEFSAII (Michael W. Deem and Ramdas Pophale) SiO2 
 PCOD8097398
Probable space group: C 2/M
;
_chemical_formula_sum "Si O2"
_cell_formula_units_Z 56
_cell_length_a 31.269188
_cell_length_b 9.267817
_cell_length_c 21.206470
_cell_angle_alpha 90.000000
_cell_angle_beta 151.814590
_cell_angle_gamma 90.000000
_cell_volume 2902.716310
_symmetry_space_group_name_H-M "C 2/M"
_symmetry_group_IT_number 12
_symmetry_cell_setting 'monoclinic'
loop_
_space_group_symop_operation_xyz
x,y,z
-x,y,-z
-x,-y,-z
x,-y,z
1/2+x,1/2+y,z
1/2-x,1/2+y,-z
1/2-x,1/2-y,-z
1/2+x,1/2-y,z
loop_
_atom_site_type_symbol
_atom_site_label
_atom_site_fract_x
_atom_site_fract_y
_atom_site_fract_z
Si Si1 0.611705 0.833218 0.799078
Si Si2 0.697749 0.333675 0.016387
Si Si3 0.347471 0.663962 0.906374
Si Si4 0.970765 0.830127 0.532584
Si Si5 0.715421 0.830673 0.392832
Si Si6 0.959165 0.164866 0.879422
Si Si7 0.280417 0.666260 0.343297
O O1 0.625583 0.763298 0.885494
O O2 0.531063 0.753591 0.660260
O O3 0.587325 0.000000 0.775411
O O4 0.701331 0.807040 0.875424
O O5 0.668007 0.500000 0.970769
O O6 0.698114 0.281292 0.088683
O O7 0.320941 0.500000 0.857376
O O8 0.308288 0.752751 0.796990
O O9 0.455278 0.679891 0.056035
O O10 0.000000 0.782715 0.500000
O O11 0.868896 0.783322 0.419130
O O12 0.985334 0.000000 0.560563
O O13 0.750000 0.750000 0.500000
O O14 0.617769 0.771311 0.245236
O O15 0.785888 0.805331 0.426104
O O16 0.706507 0.000000 0.396614
O O17 0.922038 0.000000 0.832982
O O18 0.000000 0.210059 0.000000
O O19 0.263270 0.500000 0.307670
#
# Coordination Sequence:
#
# PCOD8097398 Si02
#       7
#     8   8   8   8   8   8   8
#     4  10  20  34  53  78 109 144 184 229 274 323
#     4   9  19  35  54  78 109 145 182 223 275 333
#     4  10  20  35  59  86 111 144 185 230 281 336
#     4  10  21  37  57  80 110 148 185 225 280 339
#     4  11  24  41  61  85 118 157 196 241 292 345
#     4  10  20  37  61  87 115 146 185 233 285 343
#     4  10  22  38  57  83 113 147 188 235 283 338
#
# _framework density 19.292276000000001
#
# number of rings (size 3 to 8) (size 9 to 14) (size 15 to 20)
#    0.000    2.000    1.429    1.714    0.000    4.571 
#    0.000    5.714    0.000    0.000    0.000    0.000 
#    0.000    0.000    0.000    0.000    0.000    0.000 
#
# Total GULP energy -347166.047094 kJ/mol
# GULP energy per Si atom -12398.787396 kJ/mol
# Density = 1.924837 g / cm^3
# Si number density = 19.292276 Si / 1000 Ang^3
#
#
#
# Elastic Constant Matrix: (Units=GPa)
#
#
# Indices 1 2 3 4 5 6 
#
# 1 110.8958 43.1293 44.9466 0.0000 -6.1588 0.0000
# 2 43.1293 68.1679 58.5209 0.0000 -6.3971 0.0000
# 3 44.9466 58.5209 111.4473 0.0000 -8.9826 0.0000
# 4 0.0000 0.0000 0.0000 28.5886 0.0000 1.6479
# 5 -6.1588 -6.3971 -8.9826 0.0000 20.9000 0.0000
# 6 0.0000 0.0000 0.0000 1.6479 0.0000 23.4905
#
#
#
# Elastic Compliance Matrix: (Units=1/GPa)
#
#
# Indices 1 2 3 4 5 6 
#
# 1 0.012129 -0.006282 -0.001513 0.000000 0.001001 0.000000
# 2 -0.006282 0.030064 -0.013115 0.000000 0.001714 0.000000
# 3 -0.001513 -0.013115 0.016688 0.000000 0.002712 0.000000
# 4 0.000000 0.000000 0.000000 0.035121 0.000000 -0.002464
# 5 0.001001 0.001714 0.002712 0.000000 0.049832 0.000000
# 6 0.000000 0.000000 0.000000 -0.002464 0.000000 0.042743
#
#
# Mechanical properties :
#
#
# Convention : Reuss Voigt Hill
#
# Bulk Modulus (GPa) = 58.60642 64.85606 61.73124
# Shear Modulus (GPa) = 21.35990 24.19009 22.77499
#
# Velocity S-wave (km/s) = 3.33103 3.54485 3.43960
# Velocity P-wave (km/s) = 6.72596 7.10248 6.91678
#
# Compressibility (1/GPa) = 0.01706298
#
# Stress axis : x y z
#
# Youngs Moduli (GPa) = 82.44615 33.26265 59.92286
#
# Poissons Ratio (x) = 0.20894 0.09063
# Poissons Ratio (y) = 0.51789 0.78588
# Poissons Ratio (z) = 0.12470 0.43624
#
# Static dielectric constant tensor:
#      x y z
#    x 3.891030 0.000000 0.073960 
#    y 0.000000 3.497460 0.000000 
#    z 0.073960 0.000000 3.442860 
# 
# 
# High freq. dielectric constant tensor:
#      x y z
#    x 1.763340 0.000000 -0.000140 
#    y 0.000000 1.748450 0.000000 
#    z -0.000140 0.000000 1.742820 
# 
# From -- ./inp_files/329616.got.cif
#   From: 2010.06.25/outbox.cif.g09.slc.cpg/sg12_165_cif.got.tgz:329616.got - 2010.06.28 00:19:55.
