data_PCOD8097500
_publ_section_title
;
Structure prediction by ZEFSAII (Michael W. Deem and Ramdas Pophale) SiO2 
 PCOD8097500
Probable space group: C 2/M
;
_chemical_formula_sum "Si O2"
_cell_formula_units_Z 56
_cell_length_a 19.872880
_cell_length_b 20.079605
_cell_length_c 11.993357
_cell_angle_alpha 90.000000
_cell_angle_beta 141.680547
_cell_angle_gamma 90.000000
_cell_volume 2967.428451
_symmetry_space_group_name_H-M "C 2/M"
_symmetry_group_IT_number 12
_symmetry_cell_setting 'monoclinic'
loop_
_space_group_symop_operation_xyz
x,y,z
-x,y,-z
-x,-y,-z
x,-y,z
1/2+x,1/2+y,z
1/2-x,1/2+y,-z
1/2-x,1/2-y,-z
1/2+x,1/2-y,z
loop_
_atom_site_type_symbol
_atom_site_label
_atom_site_fract_x
_atom_site_fract_y
_atom_site_fract_z
Si Si1 0.393621 0.312943 0.301575
Si Si2 0.479360 0.428481 0.843658
Si Si3 0.929734 0.573619 0.299610
Si Si4 0.583022 0.286612 0.208519
Si Si5 0.014171 0.299337 0.325536
Si Si6 0.307746 0.616411 0.981766
Si Si7 0.766984 0.276268 0.283966
O O1 0.500000 0.344754 0.500000
O O2 0.429822 0.246735 0.282414
O O3 0.301600 0.293804 0.272953
O O4 0.337141 0.364493 0.146315
O O5 0.422164 0.500000 0.736272
O O6 0.411064 0.360872 0.725647
O O7 0.500000 0.428577 0.000000
O O8 0.595448 0.429374 0.934828
O O9 0.957206 0.500000 0.289185
O O10 0.803033 0.575603 0.165803
O O11 0.000000 0.589607 0.500000
O O12 0.957408 0.628328 0.240271
O O13 0.542722 0.232024 0.243697
O O14 0.698757 0.264494 0.308628
O O15 0.500000 0.288802 0.000000
O O16 0.122279 0.312596 0.537411
O O17 0.301417 0.680920 0.893371
#
# Coordination Sequence:
#
# PCOD8097500 Si02
#       7
#     8   8   8   8   8   8   8
#     4  10  21  34  58  86 112 143 187 239 284 329
#     4  10  20  34  53  81 116 145 183 230 283 342
#     4  11  23  37  57  88 118 145 186 235 289 339
#     4  11  21  34  54  84 112 148 192 226 283 337
#     4  11  20  37  55  81 119 145 187 239 279 332
#     4  12  19  35  58  84 113 147 188 230 284 344
#     4  11  20  33  52  88 113 148 185 232 290 330
#
# _framework density 18.871559999999999
#
# number of rings (size 3 to 8) (size 9 to 14) (size 15 to 20)
#    0.000    1.143    7.143    1.714    2.000    0.000 
#    0.000    0.714    0.000    2.143    0.000    0.000 
#    0.000    0.000    0.000    0.000    0.000    0.000 
#
# Total GULP energy -347035.696064 kJ/mol
# GULP energy per Si atom -12394.132002 kJ/mol
# Density = 1.882861 g / cm^3
# Si number density = 18.871560 Si / 1000 Ang^3
#
#
#
# Elastic Constant Matrix: (Units=GPa)
#
#
# Indices 1 2 3 4 5 6 
#
# 1 126.7443 55.8551 18.7242 0.0000 8.5039 0.0000
# 2 55.8551 100.4709 26.6094 0.0000 -5.8559 0.0000
# 3 18.7242 26.6094 59.0719 0.0000 -4.7648 0.0000
# 4 0.0000 0.0000 0.0000 14.7669 0.0000 -5.7425
# 5 8.5039 -5.8559 -4.7648 0.0000 23.0857 0.0000
# 6 0.0000 0.0000 0.0000 -5.7425 0.0000 27.3866
#
#
#
# Elastic Compliance Matrix: (Units=1/GPa)
#
#
# Indices 1 2 3 4 5 6 
#
# 1 0.011235 -0.006272 -0.001218 0.000000 -0.005981 0.000000
# 2 -0.006272 0.014881 -0.004296 0.000000 0.005198 0.000000
# 3 -0.001218 -0.004296 0.019523 0.000000 0.003389 0.000000
# 4 0.000000 0.000000 0.000000 0.073731 0.000000 0.015460
# 5 -0.005981 0.005198 0.003389 0.000000 0.047538 0.000000
# 6 0.000000 0.000000 0.000000 0.015460 0.000000 0.039756
#
#
# Mechanical properties :
#
#
# Convention : Reuss Voigt Hill
#
# Bulk Modulus (GPa) = 45.31723 54.29607 49.80665
# Shear Modulus (GPa) = 21.04449 25.38773 23.21611
#
# Velocity S-wave (km/s) = 3.34300 3.67180 3.51125
# Velocity P-wave (km/s) = 6.24231 6.84178 6.54891
#
# Compressibility (1/GPa) = 0.02206666
#
# Stress axis : x y z
#
# Youngs Moduli (GPa) = 89.00617 67.20166 51.22130
#
# Poissons Ratio (x) = 0.42148 0.06241
# Poissons Ratio (y) = 0.55824 0.22003
# Poissons Ratio (z) = 0.10845 0.28868
#
# Static dielectric constant tensor:
#      x y z
#    x 3.571070 0.000000 0.136170 
#    y 0.000000 3.596910 0.000000 
#    z 0.136170 0.000000 3.364620 
# 
# 
# High freq. dielectric constant tensor:
#      x y z
#    x 1.739530 0.000000 0.013520 
#    y 0.000000 1.711210 0.000000 
#    z 0.013520 0.000000 1.713900 
# 
# From -- ./inp_files/169473.got.cif
#   From: 2010.06.25/outbox.cif.g09.slc.cpg/sg12_85_cif.got.tgz:169473.got - 2010.06.28 00:19:55.
