data_PCOD8097933
_publ_section_title
;
Structure prediction by ZEFSAII (Michael W. Deem and Ramdas Pophale) SiO2 
 PCOD8097933
Probable space group: C 2/M
;
_chemical_formula_sum "Si O2"
_cell_formula_units_Z 64
_cell_length_a 18.020335
_cell_length_b 9.136938
_cell_length_c 30.252437
_cell_angle_alpha 90.000000
_cell_angle_beta 42.583461
_cell_angle_gamma 90.000000
_cell_volume 3370.517826
_symmetry_space_group_name_H-M "C 2/M"
_symmetry_group_IT_number 12
_symmetry_cell_setting 'monoclinic'
loop_
_space_group_symop_operation_xyz
x,y,z
-x,y,-z
-x,-y,-z
x,-y,z
1/2+x,1/2+y,z
1/2-x,1/2+y,-z
1/2-x,1/2-y,-z
1/2+x,1/2-y,z
loop_
_atom_site_type_symbol
_atom_site_label
_atom_site_fract_x
_atom_site_fract_y
_atom_site_fract_z
Si Si1 0.318137 0.169694 0.313399
Si Si2 0.723113 0.171262 0.190592
Si Si3 0.863247 0.826430 0.939250
Si Si4 0.345288 0.670741 0.691917
Si Si5 0.565118 0.169140 0.179227
Si Si6 0.748199 0.671376 0.569434
Si Si7 0.588147 0.329747 0.561229
Si Si8 0.463681 0.673598 0.063239
O O1 0.249867 0.216103 0.300194
O O2 0.444353 0.205405 0.249309
O O3 0.276776 0.264515 0.372002
O O4 0.299538 0.000000 0.332955
O O5 0.669920 0.245988 0.255948
O O6 0.649895 0.207578 0.180417
O O7 0.844381 0.235681 0.128581
O O8 0.727300 0.000000 0.198431
O O9 0.908585 0.774710 0.872631
O O10 0.949550 0.775690 0.938364
O O11 0.846902 0.000000 0.946239
O O12 0.750000 0.750000 0.000000
O O13 0.342692 0.500000 0.703931
O O14 0.461694 0.716071 0.620121
O O15 0.575685 0.000000 0.159725
O O16 0.765575 0.500000 0.566468
O O17 0.647936 0.711137 0.580884
O O18 0.860439 0.739753 0.501691
O O19 0.602785 0.500000 0.543887
O O20 0.457059 0.500000 0.062806
O O21 0.500000 0.739234 0.000000
#
# Coordination Sequence:
#
# PCOD8097933 Si02
#       8
#     8   8   8   8   8   8   8   8
#     4  10  21  36  54  78 110 144 174 212 266 321
#     4  10  20  35  57  81 105 138 178 220 264 309
#     4  11  22  36  57  82 109 142 178 219 265 312
#     4  10  21  36  54  77 107 142 176 214 263 319
#     4  10  21  37  57  81 109 141 177 217 263 315
#     4  10  20  34  55  80 104 135 178 225 265 308
#     4   9  19  36  55  75 103 140 178 216 264 318
#     4   9  18  34  55  78 106 140 177 215 257 308
#
# _framework density 18.98818
#
# number of rings (size 3 to 8) (size 9 to 14) (size 15 to 20)
#    0.000    2.125    0.000    3.000    0.000    5.000 
#    0.000    3.125    0.000    2.625    0.000    0.000 
#    0.000    0.000    0.000    0.000    0.000    0.000 
#
# Total GULP energy -396941.010264 kJ/mol
# GULP energy per Si atom -12404.406571 kJ/mol
# Density = 1.894496 g / cm^3
# Si number density = 18.988180 Si / 1000 Ang^3
#
#
#
# Elastic Constant Matrix: (Units=GPa)
#
#
# Indices 1 2 3 4 5 6 
#
# 1 129.9703 51.2499 79.2970 0.0005 -9.6408 0.0013
# 2 51.2499 61.0938 58.5528 0.0016 7.3666 0.0046
# 3 79.2970 58.5528 134.6968 0.0000 1.2876 0.0007
# 4 0.0005 0.0016 0.0000 37.4038 0.0000 6.1903
# 5 -9.6408 7.3666 1.2876 0.0000 38.4421 0.0002
# 6 0.0013 0.0046 0.0007 6.1903 0.0002 24.6913
#
#
#
# Elastic Compliance Matrix: (Units=1/GPa)
#
#
# Indices 1 2 3 4 5 6 
#
# 1 0.014204 -0.007681 -0.005073 0.000000 0.005204 0.000001
# 2 -0.007681 0.033194 -0.009831 0.000000 -0.007958 -0.000005
# 3 -0.005073 -0.009831 0.014683 0.000000 0.000120 0.000002
# 4 0.000000 0.000000 0.000000 0.027893 0.000000 -0.006993
# 5 0.005204 -0.007958 0.000120 0.000000 0.028839 0.000001
# 6 0.000001 -0.000005 0.000002 -0.006993 0.000001 0.042253
#
#
# Mechanical properties :
#
#
# Convention : Reuss Voigt Hill
#
# Bulk Modulus (GPa) = 59.13550 78.21782 68.67666
# Shear Modulus (GPa) = 23.59915 29.21818 26.40867
#
# Velocity S-wave (km/s) = 3.52921 3.92695 3.73338
# Velocity P-wave (km/s) = 6.91506 7.86407 7.40478
#
# Compressibility (1/GPa) = 0.01691032
#
# Stress axis : x y z
#
# Youngs Moduli (GPa) = 70.40400 30.12633 68.10601
#
# Poissons Ratio (x) = 0.23140 0.34548
# Poissons Ratio (y) = 0.54076 0.66958
# Poissons Ratio (z) = 0.35714 0.29618
#
# Static dielectric constant tensor:
#      x y z
#    x 3.634960 0.000000 -0.168510 
#    y 0.000000 3.514970 -0.000010 
#    z -0.168510 -0.000010 3.746980 
# 
# 
# High freq. dielectric constant tensor:
#      x y z
#    x 1.748860 0.000000 -0.004390 
#    y 0.000000 1.722000 0.000000 
#    z -0.004390 0.000000 1.753300 
# 
# From -- ./inp_files/377979.got.cif
#   From: 2010.06.25/outbox.cif.g09.slc.cpg/sg12_189_cif.got.tgz:377979.got - 2010.06.28 00:19:55.
