data_PCOD8097995
_publ_section_title
;
Structure prediction by ZEFSAII (Michael W. Deem and Ramdas Pophale) SiO2 
 PCOD8097995
Probable space group: C 2/M
;
_chemical_formula_sum "Si O2"
_cell_formula_units_Z 64
_cell_length_a 20.052459
_cell_length_b 9.247018
_cell_length_c 17.316220
_cell_angle_alpha 90.000000
_cell_angle_beta 97.712093
_cell_angle_gamma 90.000000
_cell_volume 3181.825247
_symmetry_space_group_name_H-M "C 2/M"
_symmetry_group_IT_number 12
_symmetry_cell_setting 'monoclinic'
loop_
_space_group_symop_operation_xyz
x,y,z
-x,y,-z
-x,-y,-z
x,-y,z
1/2+x,1/2+y,z
1/2-x,1/2+y,-z
1/2-x,1/2-y,-z
1/2+x,1/2-y,z
loop_
_atom_site_type_symbol
_atom_site_label
_atom_site_fract_x
_atom_site_fract_y
_atom_site_fract_z
Si Si1 0.596974 0.332145 0.184897
Si Si2 0.241141 0.839909 0.160563
Si Si3 0.863548 0.834287 0.140370
Si Si4 0.283157 0.160592 0.344217
Si Si5 0.138617 0.831759 0.364731
Si Si6 0.523578 0.831606 0.417416
Si Si7 0.406117 0.665970 0.323281
Si Si8 0.480275 0.831402 0.084339
O O1 0.576738 0.500000 0.172273
O O2 0.662655 0.295618 0.142917
O O3 0.611318 0.294949 0.275665
O O4 0.536287 0.232433 0.149311
O O5 0.287431 0.726095 0.122223
O O6 0.260464 0.844121 0.252714
O O7 0.251980 0.000000 0.126780
O O8 0.891571 0.815742 0.230863
O O9 0.909342 0.745365 0.088633
O O10 0.862420 0.000000 0.114110
O O11 0.217947 0.208433 0.383946
O O12 0.344691 0.271077 0.365168
O O13 0.307428 0.000000 0.373110
O O14 0.098218 0.734334 0.419592
O O15 0.127621 0.000000 0.381954
O O16 0.500000 0.800880 0.500000
O O17 0.474012 0.752296 0.350337
O O18 0.524588 0.000000 0.397432
O O19 0.415899 0.500000 0.348325
O O20 0.472681 0.000000 0.100856
O O21 0.500000 0.799471 0.000000
#
# Coordination Sequence:
#
# PCOD8097995 Si02
#       8
#     8   8   8   8   8   8   8   8
#     4   9  18  34  57  83 107 133 169 212 259 311
#     4   8  15  30  53  80 108 134 162 204 257 308
#     4  10  20  34  55  82 107 133 170 213 256 307
#     4   8  15  30  53  80 108 134 162 204 257 308
#     4   9  18  34  57  83 107 133 169 212 259 311
#     4  11  24  38  51  72 104 141 180 218 256 303
#     4  10  20  34  55  82 107 133 170 213 256 307
#     4  11  24  38  51  72 104 141 180 218 256 303
#
# _framework density 20.114241
#
# number of rings (size 3 to 8) (size 9 to 14) (size 15 to 20)
#    0.000    2.500    0.000    3.750    0.000    8.000 
#    0.000    3.750    0.000    0.000    0.000    0.000 
#    0.000    0.000    0.000    0.000    0.000    0.000 
#
# Total GULP energy -396810.162668 kJ/mol
# GULP energy per Si atom -12400.317583 kJ/mol
# Density = 2.006846 g / cm^3
# Si number density = 20.114241 Si / 1000 Ang^3
#
#
#
# Elastic Constant Matrix: (Units=GPa)
#
#
# Indices 1 2 3 4 5 6 
#
# 1 108.3243 56.3184 16.8903 0.0000 -38.5029 0.0000
# 2 56.3184 114.2396 33.2928 0.0000 -30.7495 0.0000
# 3 16.8903 33.2928 28.5740 0.0000 -18.4123 0.0000
# 4 0.0000 0.0000 0.0000 23.0461 0.0000 -5.0817
# 5 -38.5029 -30.7495 -18.4123 0.0000 27.0464 0.0000
# 6 0.0000 0.0000 0.0000 -5.0817 0.0000 40.0959
#
#
#
# Elastic Compliance Matrix: (Units=1/GPa)
#
#
# Indices 1 2 3 4 5 6 
#
# 1 0.023520 -0.006651 0.018794 0.000000 0.038715 0.000000
# 2 -0.006651 0.016217 -0.016361 0.000000 -0.002170 0.000000
# 3 0.018794 -0.016361 0.085876 0.000000 0.066614 0.000000
# 4 0.000000 0.000000 0.000000 0.044639 0.000000 0.005657
# 5 0.038715 -0.002170 0.066614 0.000000 0.134970 0.000000
# 6 0.000000 0.000000 0.000000 0.005657 0.000000 0.025657
#
#
# Mechanical properties :
#
#
# Convention : Reuss Voigt Hill
#
# Bulk Modulus (GPa) = 8.53428 51.57124 30.05276
# Shear Modulus (GPa) = 13.21444 27.68010 20.44727
#
# Velocity S-wave (km/s) = 2.56592 3.71367 3.19181
# Velocity P-wave (km/s) = 3.60981 6.63952 5.34387
#
# Compressibility (1/GPa) = 0.11717443
#
# Stress axis : x y z
#
# Youngs Moduli (GPa) = 42.51672 61.66509 11.64476
#
# Poissons Ratio (x) = 0.41015 -0.21885
# Poissons Ratio (y) = 0.28279 0.19052
# Poissons Ratio (z) = -0.79905 1.00893
#
# Static dielectric constant tensor:
#      x y z
#    x 3.965020 0.000000 -0.190250 
#    y 0.000000 3.702100 0.000000 
#    z -0.190250 0.000000 3.243690 
# 
# 
# High freq. dielectric constant tensor:
#      x y z
#    x 1.801110 0.000000 -0.013840 
#    y 0.000000 1.785220 0.000000 
#    z -0.013840 0.000000 1.748730 
# 
# From -- ./inp_files/314127.got.cif
#   From: 2010.06.25/outbox.cif.g09.slc.cpg/sg12_158_cif.got.tgz:314127.got - 2010.06.28 00:19:55.
