data_PCOD8097428
_publ_section_title
;
Structure prediction by ZEFSAII (Michael W. Deem and Ramdas Pophale) SiO2 
 PCOD8097428
Probable space group: C 2/M
;
_chemical_formula_sum "Si O2"
_cell_formula_units_Z 64
_cell_length_a 25.220087
_cell_length_b 9.365153
_cell_length_c 20.532026
_cell_angle_alpha 90.000000
_cell_angle_beta 134.661878
_cell_angle_gamma 90.000000
_cell_volume 3449.261491
_symmetry_space_group_name_H-M "C 2/M"
_symmetry_group_IT_number 12
_symmetry_cell_setting 'monoclinic'
loop_
_space_group_symop_operation_xyz
x,y,z
-x,y,-z
-x,-y,-z
x,-y,z
1/2+x,1/2+y,z
1/2-x,1/2+y,-z
1/2-x,1/2-y,-z
1/2+x,1/2-y,z
loop_
_atom_site_type_symbol
_atom_site_label
_atom_site_fract_x
_atom_site_fract_y
_atom_site_fract_z
Si Si1 0.583752 0.663643 0.093399
Si Si2 0.914806 0.331497 0.639967
Si Si3 0.639001 0.331617 0.283872
Si Si4 0.707396 0.661409 0.909578
Si Si5 0.790626 0.340623 0.848541
Si Si6 0.661888 0.835642 0.678563
Si Si7 0.191335 0.332954 0.563320
Si Si8 0.421226 0.834609 0.265831
O O1 0.606739 0.500000 0.102275
O O2 0.599714 0.707629 0.181831
O O3 0.630635 0.761436 0.085106
O O4 0.500000 0.692348 0.000000
O O5 0.906331 0.500000 0.644937
O O6 0.908118 0.249394 0.701914
O O7 0.852016 0.269252 0.536352
O O8 0.993919 0.295915 0.675405
O O9 0.635458 0.500000 0.294286
O O10 0.724325 0.273267 0.358420
O O11 0.689560 0.500000 0.918005
O O12 0.763496 0.657330 0.898424
O O13 0.630298 0.738135 0.824548
O O14 0.750000 0.750000 0.000000
O O15 0.799038 0.500000 0.828067
O O16 0.734071 0.257108 0.754226
O O17 0.642146 0.800801 0.586184
O O18 0.595119 0.800817 0.671501
O O19 0.686391 0.000000 0.706539
O O20 0.196520 0.500000 0.557155
O O21 0.403663 0.000000 0.235424
#
# Coordination Sequence:
#
# PCOD8097428 Si02
#       8
#     8   8   8   8   8   8   8   8
#     4  10  21  37  57  80 105 138 182 225 269 325
#     4  10  21  35  52  80 114 146 181 226 274 323
#     4  10  20  36  55  77 107 144 186 226 269 329
#     4  10  21  36  56  81 108 141 181 222 267 323
#     4  10  20  34  53  79 108 135 170 221 273 319
#     4   9  16  32  57  78 103 141 178 220 266 318
#     4   9  17  32  56  81 106 139 185 230 270 321
#     4   9  19  34  53  79 111 144 180 221 272 326
#
# _framework density 18.554697000000001
#
# number of rings (size 3 to 8) (size 9 to 14) (size 15 to 20)
#    0.000    2.375    1.250    1.125    0.000    4.250 
#    0.000    5.625    0.000    0.000    0.000    4.375 
#    0.000    0.000    0.000    0.000    0.000    0.000 
#
# Total GULP energy -396716.708887 kJ/mol
# GULP energy per Si atom -12397.397153 kJ/mol
# Density = 1.851247 g / cm^3
# Si number density = 18.554697 Si / 1000 Ang^3
#
#
#
# Elastic Constant Matrix: (Units=GPa)
#
#
# Indices 1 2 3 4 5 6 
#
# 1 95.1290 37.6106 47.3021 0.0000 12.8020 0.0000
# 2 37.6106 67.8713 40.8813 0.0000 7.5938 0.0000
# 3 47.3021 40.8813 116.4814 0.0000 3.4802 0.0000
# 4 0.0000 0.0000 0.0000 17.5432 0.0000 -1.8480
# 5 12.8020 7.5938 3.4802 0.0000 20.8030 0.0000
# 6 0.0000 0.0000 0.0000 -1.8480 0.0000 30.6860
#
#
#
# Elastic Compliance Matrix: (Units=1/GPa)
#
#
# Indices 1 2 3 4 5 6 
#
# 1 0.015696 -0.005328 -0.004295 0.000000 -0.006995 0.000000
# 2 -0.005328 0.021203 -0.005170 0.000000 -0.003596 0.000000
# 3 -0.004295 -0.005170 0.012069 0.000000 0.002511 0.000000
# 4 0.000000 0.000000 0.000000 0.057366 0.000000 0.003455
# 5 -0.006995 -0.003596 0.002511 0.000000 0.053267 0.000000
# 6 0.000000 0.000000 0.000000 0.003455 0.000000 0.032796
#
#
# Mechanical properties :
#
#
# Convention : Reuss Voigt Hill
#
# Bulk Modulus (GPa) = 51.59783 59.00773 55.30278
# Shear Modulus (GPa) = 21.88723 24.05230 22.96977
#
# Velocity S-wave (km/s) = 3.43827 3.60431 3.52227
# Velocity P-wave (km/s) = 6.60538 7.01374 6.81262
#
# Compressibility (1/GPa) = 0.01938066
#
# Stress axis : x y z
#
# Youngs Moduli (GPa) = 63.71244 47.16332 82.85824
#
# Poissons Ratio (x) = 0.25128 0.35586
# Poissons Ratio (y) = 0.33946 0.42842
# Poissons Ratio (z) = 0.27364 0.24386
#
# Static dielectric constant tensor:
#      x y z
#    x 3.607790 0.000000 -0.012790 
#    y 0.000000 3.425710 0.000000 
#    z -0.012790 0.000000 3.473040 
# 
# 
# High freq. dielectric constant tensor:
#      x y z
#    x 1.724750 0.000000 -0.005520 
#    y 0.000000 1.706810 0.000000 
#    z -0.005520 0.000000 1.715340 
# 
# From -- ./inp_files/324313.got.cif
#   From: 2010.06.25/outbox.cif.g09.slc.cpg/sg12_163_cif.got.tgz:324313.got - 2010.06.28 00:19:55.
