data_PCOD8097835
_publ_section_title
;
Structure prediction by ZEFSAII (Michael W. Deem and Ramdas Pophale) SiO2 
 PCOD8097835
Probable space group: C 2/M
;
_chemical_formula_sum "Si O2"
_cell_formula_units_Z 64
_cell_length_a 16.003608
_cell_length_b 17.481018
_cell_length_c 14.591208
_cell_angle_alpha 90.000000
_cell_angle_beta 49.310204
_cell_angle_gamma 90.000000
_cell_volume 3095.198848
_symmetry_space_group_name_H-M "C 2/M"
_symmetry_group_IT_number 12
_symmetry_cell_setting 'monoclinic'
loop_
_space_group_symop_operation_xyz
x,y,z
-x,y,-z
-x,-y,-z
x,-y,z
1/2+x,1/2+y,z
1/2-x,1/2+y,-z
1/2-x,1/2-y,-z
1/2+x,1/2-y,z
loop_
_atom_site_type_symbol
_atom_site_label
_atom_site_fract_x
_atom_site_fract_y
_atom_site_fract_z
Si Si1 0.971117 0.791836 0.421540
Si Si2 0.208006 0.164945 0.206957
Si Si3 0.357339 0.146098 0.438363
Si Si4 0.251111 0.839074 0.980313
Si Si5 0.906036 0.586049 0.738848
Si Si6 0.701897 0.589793 0.401664
Si Si7 0.758353 0.089374 0.303465
Si Si8 0.375010 0.305117 0.095942
O O1 0.888358 0.735454 0.426703
O O2 0.911136 0.873288 0.479458
O O3 0.000000 0.755322 0.500000
O O4 0.084673 0.800697 0.285095
O O5 0.232672 0.121246 0.092785
O O6 0.213972 0.103884 0.284476
O O7 0.294833 0.232487 0.164094
O O8 0.465643 0.094987 0.371771
O O9 0.305489 0.130732 0.376005
O O10 0.268731 0.118698 0.576052
O O11 0.250000 0.750000 0.000000
O O12 0.367845 0.863547 0.853069
O O13 0.155830 0.855045 0.973112
O O14 0.877321 0.500000 0.786162
O O15 0.844014 0.608967 0.689860
O O16 0.699251 0.500000 0.424473
O O17 0.862336 0.138148 0.192007
O O18 0.788425 0.000000 0.284281
O O19 0.500000 0.275949 0.000000
#
# Coordination Sequence:
#
# PCOD8097835 Si02
#       8
#     8   8   8   8   8   8   8   8
#     4  10  21  39  64  88 116 157 207 252 296 357
#     4  10  22  40  61  83 111 161 210 244 288 354
#     4  12  21  37  61  90 122 153 195 250 308 357
#     4   9  19  37  57  80 111 152 200 243 290 355
#     4  10  20  34  56  86 118 151 192 249 310 366
#     4  11  25  40  57  90 130 162 199 249 300 355
#     4  10  20  34  54  82 117 156 193 233 300 376
#     4  10  21  37  59  88 117 143 190 259 312 352
#
# _framework density 20.677185999999999
#
# number of rings (size 3 to 8) (size 9 to 14) (size 15 to 20)
#    0.000    1.750    0.000    6.375    0.000    8.000 
#    0.000    0.000    0.000    1.875    0.000    0.000 
#    0.000    0.000    0.000    0.000    0.000    0.000 
#
# Total GULP energy -396768.694661 kJ/mol
# GULP energy per Si atom -12399.021708 kJ/mol
# Density = 2.063012 g / cm^3
# Si number density = 20.677186 Si / 1000 Ang^3
#
#
#
# Elastic Constant Matrix: (Units=GPa)
#
#
# Indices 1 2 3 4 5 6 
#
# 1 69.4134 28.0829 30.6761 0.0000 -0.9113 0.0000
# 2 28.0829 95.3447 34.4791 0.0000 -0.2485 0.0000
# 3 30.6761 34.4791 104.1908 0.0000 4.8975 0.0000
# 4 0.0000 0.0000 0.0000 23.3075 0.0000 -0.7953
# 5 -0.9113 -0.2485 4.8975 0.0000 39.2464 0.0000
# 6 0.0000 0.0000 0.0000 -0.7953 0.0000 23.5428
#
#
#
# Elastic Compliance Matrix: (Units=1/GPa)
#
#
# Indices 1 2 3 4 5 6 
#
# 1 0.017714 -0.003765 -0.004011 0.000000 0.000888 0.000000
# 2 -0.003765 0.012727 -0.003121 0.000000 0.000383 0.000000
# 3 -0.004011 -0.003121 0.011887 0.000000 -0.001596 0.000000
# 4 0.000000 0.000000 0.000000 0.042954 0.000000 0.001451
# 5 0.000888 0.000383 -0.001596 0.000000 0.025702 0.000000
# 6 0.000000 0.000000 0.000000 0.001451 0.000000 0.042525
#
#
# Mechanical properties :
#
#
# Convention : Reuss Voigt Hill
#
# Bulk Modulus (GPa) = 48.70160 50.60280 49.65220
# Shear Modulus (GPa) = 27.45033 28.93340 28.19187
#
# Velocity S-wave (km/s) = 3.64753 3.74477 3.69647
# Velocity P-wave (km/s) = 6.42991 6.57447 6.50259
#
# Compressibility (1/GPa) = 0.02053321
#
# Stress axis : x y z
#
# Youngs Moduli (GPa) = 56.45293 78.57444 84.12758
#
# Poissons Ratio (x) = 0.29580 0.33746
# Poissons Ratio (y) = 0.21252 0.26258
# Poissons Ratio (z) = 0.22645 0.24525
#
# Static dielectric constant tensor:
#      x y z
#    x 3.885930 0.000000 0.343120 
#    y 0.000000 3.535930 0.000000 
#    z 0.343120 0.000000 4.111290 
# 
# 
# High freq. dielectric constant tensor:
#      x y z
#    x 1.801740 0.000000 0.007490 
#    y 0.000000 1.794660 0.000000 
#    z 0.007490 0.000000 1.813750 
# 
# From -- ./inp_files/216778.got.cif
#   From: 2010.06.25/outbox.cif.g09.slc.cpg/sg12_109_cif.got.tgz:216778.got - 2010.06.28 00:19:55.
