data_PCOD8097438
_publ_section_title
;
Structure prediction by ZEFSAII (Michael W. Deem and Ramdas Pophale) SiO2 
 PCOD8097438
Probable space group: C 2/M
;
_chemical_formula_sum "Si O2"
_cell_formula_units_Z 64
_cell_length_a 25.630273
_cell_length_b 9.441854
_cell_length_c 13.927099
_cell_angle_alpha 90.000000
_cell_angle_beta 86.925289
_cell_angle_gamma 90.000000
_cell_volume 3365.468523
_symmetry_space_group_name_H-M "C 2/M"
_symmetry_group_IT_number 12
_symmetry_cell_setting 'monoclinic'
loop_
_space_group_symop_operation_xyz
x,y,z
-x,y,-z
-x,-y,-z
x,-y,z
1/2+x,1/2+y,z
1/2-x,1/2+y,-z
1/2-x,1/2-y,-z
1/2+x,1/2-y,z
loop_
_atom_site_type_symbol
_atom_site_label
_atom_site_fract_x
_atom_site_fract_y
_atom_site_fract_z
Si Si1 0.029266 0.162661 0.404666
Si Si2 0.130262 0.659475 0.404736
Si Si3 0.507248 0.335233 0.800415
Si Si4 0.100172 0.337118 0.879925
Si Si5 0.589051 0.163754 0.106047
Si Si6 0.293424 0.163452 0.441161
Si Si7 0.809149 0.662466 0.788280
Si Si8 0.709180 0.834515 0.777238
O O1 0.083832 0.237920 0.382356
O O2 0.000000 0.228822 0.500000
O O3 0.993845 0.182839 0.314340
O O4 0.042444 0.000000 0.423369
O O5 0.109011 0.500000 0.395923
O O6 0.151535 0.687663 0.509739
O O7 0.177223 0.685428 0.324993
O O8 0.506366 0.500000 0.830056
O O9 0.560382 0.264419 0.829684
O O10 0.458113 0.259834 0.853681
O O11 0.088320 0.500000 0.852800
O O12 0.158361 0.293759 0.843209
O O13 0.095089 0.313514 0.992982
O O14 0.642287 0.213768 0.151765
O O15 0.576877 0.000000 0.132721
O O16 0.250000 0.250000 0.500000
O O17 0.300409 0.214879 0.331447
O O18 0.276698 0.000000 0.447388
O O19 0.795851 0.500000 0.812690
O O20 0.758341 0.754105 0.818704
O O21 0.721381 0.000000 0.781900
#
# Coordination Sequence:
#
# PCOD8097438 Si02
#       8
#     8   8   8   8   8   8   8   8
#     4  10  23  40  56  82 118 151 182 225 286 343
#     4  10  20  35  56  83 111 144 190 236 276 330
#     4  11  23  39  61  88 116 147 190 239 284 338
#     4  10  23  41  60  83 115 154 192 234 290 346
#     4  10  21  40  63  85 112 150 192 237 290 344
#     4  10  20  34  53  79 110 143 182 225 271 326
#     4  10  20  36  59  85 114 148 190 235 281 336
#     4  10  22  38  56  83 117 151 189 233 283 340
#
# _framework density 19.016667999999999
#
# number of rings (size 3 to 8) (size 9 to 14) (size 15 to 20)
#    0.000    1.875    2.500    0.750    1.750    5.250 
#    0.000    0.000    0.000    0.000    0.000    0.000 
#    0.000    0.000    0.000    0.000    0.000    0.000 
#
# Total GULP energy -396904.899052 kJ/mol
# GULP energy per Si atom -12403.278095 kJ/mol
# Density = 1.897339 g / cm^3
# Si number density = 19.016668 Si / 1000 Ang^3
#
#
#
# Elastic Constant Matrix: (Units=GPa)
#
#
# Indices 1 2 3 4 5 6 
#
# 1 127.4914 64.8396 35.1449 0.0000 -1.4741 0.0000
# 2 64.8396 76.3379 34.6384 0.0000 -2.6093 0.0000
# 3 35.1449 34.6384 73.7736 0.0000 -7.5759 0.0000
# 4 0.0000 0.0000 0.0000 23.0684 0.0000 4.9559
# 5 -1.4741 -2.6093 -7.5759 0.0000 27.5398 0.0000
# 6 0.0000 0.0000 0.0000 4.9559 0.0000 38.5707
#
#
#
# Elastic Compliance Matrix: (Units=1/GPa)
#
#
# Indices 1 2 3 4 5 6 
#
# 1 0.013931 -0.011198 -0.001452 0.000000 -0.000715 0.000000
# 2 -0.011198 0.025657 -0.006713 0.000000 -0.000015 0.000000
# 3 -0.001452 -0.006713 0.017829 0.000000 0.004191 0.000000
# 4 0.000000 0.000000 0.000000 0.044580 0.000000 -0.005728
# 5 -0.000715 -0.000015 0.004191 0.000000 0.037424 0.000000
# 6 0.000000 0.000000 0.000000 -0.005728 0.000000 0.026662
#
#
# Mechanical properties :
#
#
# Convention : Reuss Voigt Hill
#
# Bulk Modulus (GPa) = 53.50564 60.76097 57.13331
# Shear Modulus (GPa) = 23.69221 27.36779 25.53000
#
# Velocity S-wave (km/s) = 3.53351 3.79773 3.66800
# Velocity P-wave (km/s) = 6.69663 7.15899 6.93166
#
# Compressibility (1/GPa) = 0.01868962
#
# Stress axis : x y z
#
# Youngs Moduli (GPa) = 71.78347 38.97632 56.08777
#
# Poissons Ratio (x) = 0.43646 0.08145
# Poissons Ratio (y) = 0.80383 0.37654
# Poissons Ratio (z) = 0.10424 0.26166
#
# Static dielectric constant tensor:
#      x y z
#    x 3.392010 0.000000 0.060890 
#    y 0.000000 3.465130 0.000000 
#    z 0.060890 0.000000 3.697310 
# 
# 
# High freq. dielectric constant tensor:
#      x y z
#    x 1.738170 0.000000 0.006740 
#    y 0.000000 1.734380 0.000000 
#    z 0.006740 0.000000 1.749150 
# 
# From -- ./inp_files/238736.got.cif
#   From: 2010.06.25/outbox.cif.g09.slc.cpg/sg12_120_cif.got.tgz:238736.got - 2010.06.28 00:19:55.
