data_PCOD8097823
_publ_section_title
;
Structure prediction by ZEFSAII (Michael W. Deem and Ramdas Pophale) SiO2 
 PCOD8097823
Probable space group: C 2/M
;
_chemical_formula_sum "Si O2"
_cell_formula_units_Z 40
_cell_length_a 27.570247
_cell_length_b 9.045929
_cell_length_c 10.646094
_cell_angle_alpha 90.000000
_cell_angle_beta 48.418352
_cell_angle_gamma 90.000000
_cell_volume 1986.058076
_symmetry_space_group_name_H-M "C 2/M"
_symmetry_group_IT_number 12
_symmetry_cell_setting 'monoclinic'
loop_
_space_group_symop_operation_xyz
x,y,z
-x,y,-z
-x,-y,-z
x,-y,z
1/2+x,1/2+y,z
1/2-x,1/2+y,-z
1/2-x,1/2-y,-z
1/2+x,1/2-y,z
loop_
_atom_site_type_symbol
_atom_site_label
_atom_site_fract_x
_atom_site_fract_y
_atom_site_fract_z
Si Si1 0.514356 0.670596 0.338003
Si Si2 0.660527 0.666185 0.104682
Si Si3 0.046128 0.175224 0.811151
Si Si4 0.711450 0.168243 0.248574
Si Si5 0.309301 0.327350 0.465987
O O1 0.500000 0.744827 0.500000
O O2 0.494223 0.500000 0.383721
O O3 0.589338 0.691789 0.171844
O O4 0.473670 0.741925 0.292304
O O5 0.667124 0.500000 0.150205
O O6 0.673902 0.787708 0.187205
O O7 0.711166 0.685641 0.903760
O O8 0.120902 0.215380 0.713897
O O9 0.036113 0.000000 0.822115
O O10 0.000000 0.241718 0.000000
O O11 0.688273 0.279321 0.394387
O O12 0.693747 0.000000 0.314572
O O13 0.296921 0.500000 0.477624
O O14 0.250000 0.250000 0.500000
#
# Coordination Sequence:
#
# PCOD8097823 Si02
#       5
#     8   8   8   8   8
#     4   9  16  28  51  81 109 138 182 239 289 326
#     4   9  18  32  55  83 111 145 187 237 285 332
#     4   9  19  34  56  84 112 144 190 245 288 331
#     4  10  20  34  54  82 116 150 188 232 285 341
#     4  11  23  38  59  84 113 149 193 238 287 342
#
# _framework density 20.140398000000001
#
# number of rings (size 3 to 8) (size 9 to 14) (size 15 to 20)
#    0.000    2.400    0.000    2.400    2.800    4.000 
#    0.000    0.000    0.000    9.000    0.000    0.000 
#    0.000    0.000    0.000    0.000    0.000    0.000 
#
# Total GULP energy -247927.099639 kJ/mol
# GULP energy per Si atom -12396.354982 kJ/mol
# Density = 2.009456 g / cm^3
# Si number density = 20.140398 Si / 1000 Ang^3
#
#
#
# Elastic Constant Matrix: (Units=GPa)
#
#
# Indices 1 2 3 4 5 6 
#
# 1 111.1624 32.2847 59.4273 0.0000 -8.5372 0.0000
# 2 32.2847 52.0111 38.1352 0.0000 -12.0435 0.0000
# 3 59.4273 38.1352 129.3299 0.0000 -5.6294 0.0000
# 4 0.0000 0.0000 0.0000 22.2242 0.0000 1.0204
# 5 -8.5372 -12.0435 -5.6294 0.0000 32.6575 0.0000
# 6 0.0000 0.0000 0.0000 1.0204 0.0000 26.9929
#
#
#
# Elastic Compliance Matrix: (Units=1/GPa)
#
#
# Indices 1 2 3 4 5 6 
#
# 1 0.012763 -0.004382 -0.004532 0.000000 0.000939 0.000000
# 2 -0.004382 0.028214 -0.005947 0.000000 0.008234 0.000000
# 3 -0.004532 -0.005947 0.011507 0.000000 -0.001394 0.000000
# 4 0.000000 0.000000 0.000000 0.045074 0.000000 -0.001704
# 5 0.000939 0.008234 -0.001394 0.000000 0.033663 0.000000
# 6 0.000000 0.000000 0.000000 -0.001704 0.000000 0.037111
#
#
# Mechanical properties :
#
#
# Convention : Reuss Voigt Hill
#
# Bulk Modulus (GPa) = 43.93239 61.35532 52.64386
# Shear Modulus (GPa) = 24.31392 27.21865 25.76628
#
# Velocity S-wave (km/s) = 3.47828 3.68019 3.58066
# Velocity P-wave (km/s) = 6.16374 6.97053 6.57951
#
# Compressibility (1/GPa) = 0.02276225
#
# Stress axis : x y z
#
# Youngs Moduli (GPa) = 78.34902 35.44310 86.90003
#
# Poissons Ratio (x) = 0.15533 0.39380
# Poissons Ratio (y) = 0.34336 0.51682
# Poissons Ratio (z) = 0.35505 0.21079
#
# Static dielectric constant tensor:
#      x y z
#    x 3.674550 0.000000 -0.033700 
#    y 0.000000 3.275190 0.000000 
#    z -0.033700 0.000000 3.943820 
# 
# 
# High freq. dielectric constant tensor:
#      x y z
#    x 1.786670 0.000000 -0.009270 
#    y 0.000000 1.736420 0.000000 
#    z -0.009270 0.000000 1.798720 
# 
# From -- ./inp_files/180305.got.cif
#   From: 2010.06.25/outbox.cif.g09.slc.cpg/sg12_91_cif.got.tgz:180305.got - 2010.06.28 00:19:55.
