data_PCOD8097899
_publ_section_title
;
Structure prediction by ZEFSAII (Michael W. Deem and Ramdas Pophale) SiO2 
 PCOD8097899
Probable space group: C 2/M
;
_chemical_formula_sum "Si O2"
_cell_formula_units_Z 48
_cell_length_a 24.062841
_cell_length_b 24.020790
_cell_length_c 9.160608
_cell_angle_alpha 90.000000
_cell_angle_beta 26.908064
_cell_angle_gamma 90.000000
_cell_volume 2396.265104
_symmetry_space_group_name_H-M "C 2/M"
_symmetry_group_IT_number 12
_symmetry_cell_setting 'monoclinic'
loop_
_space_group_symop_operation_xyz
x,y,z
-x,y,-z
-x,-y,-z
x,-y,z
1/2+x,1/2+y,z
1/2-x,1/2+y,-z
1/2-x,1/2-y,-z
1/2+x,1/2-y,z
loop_
_atom_site_type_symbol
_atom_site_label
_atom_site_fract_x
_atom_site_fract_y
_atom_site_fract_z
Si Si1 0.498329 0.063723 0.170888
Si Si2 0.867696 0.791711 0.731823
Si Si3 0.762109 0.436695 0.212377
Si Si4 0.075482 0.061246 0.180263
Si Si5 0.785156 0.396374 0.838021
Si Si6 0.453216 0.356351 0.262767
O O1 0.417294 0.108522 0.451444
O O2 0.451986 0.000000 0.300462
O O3 0.500000 0.082073 0.000000
O O4 0.634849 0.069365 0.908654
O O5 0.903819 0.806589 0.480598
O O6 0.000000 0.772824 0.500000
O O7 0.750000 0.750000 0.000000
O O8 0.805843 0.843393 0.960825
O O9 0.718042 0.500000 0.297258
O O10 0.652203 0.399980 0.529473
O O11 0.809104 0.414569 0.946875
O O12 0.000000 0.080121 0.500000
O O13 0.058303 0.107704 0.096679
O O14 0.033781 0.000000 0.222699
O O15 0.216599 0.057282 0.900342
O O16 0.500000 0.330549 0.000000
#
# Coordination Sequence:
#
# PCOD8097899 Si02
#       6
#     8   8   8   8   8   8
#     4  10  22  35  51  83 126 168 204 244 299 364
#     4  11  24  46  70  91 117 158 212 273 323 380
#     4  10  20  34  54  85 124 166 208 242 290 371
#     4  11  19  33  61  93 126 162 201 238 298 370
#     4  11  20  38  61  84 117 158 210 252 303 364
#     4  11  23  39  61  92 129 158 200 259 318 369
#
# _framework density 20.031172000000002
#
# number of rings (size 3 to 8) (size 9 to 14) (size 15 to 20)
#    0.000    1.333    5.000    2.500    2.333    5.333 
#    0.000    1.667    0.000    0.000    0.000    0.000 
#    0.000    0.000    0.000    0.000    0.000    0.000 
#
# Total GULP energy -297319.340843 kJ/mol
# GULP energy per Si atom -12388.305868 kJ/mol
# Density = 1.998558 g / cm^3
# Si number density = 20.031172 Si / 1000 Ang^3
#
#
#
# Elastic Constant Matrix: (Units=GPa)
#
#
# Indices 1 2 3 4 5 6 
#
# 1 125.5449 38.4544 47.1054 0.0004 3.9559 -0.0003
# 2 38.4544 65.0834 37.4626 0.0000 -1.1705 0.0000
# 3 47.1054 37.4626 89.5360 0.0009 12.2380 -0.0004
# 4 0.0004 0.0000 0.0009 25.8900 -0.0002 -7.5922
# 5 3.9559 -1.1705 12.2380 -0.0002 36.2863 0.0002
# 6 -0.0003 0.0000 -0.0004 -7.5922 0.0002 21.9931
#
#
#
# Elastic Compliance Matrix: (Units=1/GPa)
#
#
# Indices 1 2 3 4 5 6 
#
# 1 0.010678 -0.004047 -0.003928 0.000000 0.000030 0.000000
# 2 -0.004047 0.022253 -0.007695 0.000000 0.003754 0.000000
# 3 -0.003928 -0.007695 0.017224 -0.000001 -0.005629 0.000000
# 4 0.000000 0.000000 -0.000001 0.042975 0.000000 0.014835
# 5 0.000030 0.003754 -0.005629 0.000000 0.029575 0.000000
# 6 0.000000 0.000000 0.000000 0.014835 0.000000 0.050590
#
#
# Mechanical properties :
#
#
# Convention : Reuss Voigt Hill
#
# Bulk Modulus (GPa) = 53.15050 58.46766 55.80908
# Shear Modulus (GPa) = 23.70706 27.31003 25.50855
#
# Velocity S-wave (km/s) = 3.44395 3.69640 3.57240
# Velocity P-wave (km/s) = 6.51198 6.88981 6.70356
#
# Compressibility (1/GPa) = 0.01881450
#
# Stress axis : x y z
#
# Youngs Moduli (GPa) = 93.65060 44.93815 58.05738
#
# Poissons Ratio (x) = 0.18188 0.22808
# Poissons Ratio (y) = 0.37903 0.44673
# Poissons Ratio (z) = 0.36790 0.34578
#
# Static dielectric constant tensor:
#      x y z
#    x 3.872690 0.000000 -0.282850 
#    y 0.000000 3.447050 0.000000 
#    z -0.282850 0.000000 3.826160 
# 
# 
# High freq. dielectric constant tensor:
#      x y z
#    x 1.794330 0.000000 -0.015010 
#    y 0.000000 1.745420 0.000000 
#    z -0.015010 0.000000 1.780190 
# 
# From -- ./inp_files/99769.got.cif
#   From: 2010.06.25/outbox.cif.g09.slc.cpg/sg12_50_cif.got.tgz:99769.got - 2010.06.28 00:19:55.
