data_PCOD8097034
_publ_section_title
;
Structure prediction by ZEFSAII (Michael W. Deem and Ramdas Pophale) SiO2 
 PCOD8097034
Probable space group: C 2/M
;
_chemical_formula_sum "Si O2"
_cell_formula_units_Z 48
_cell_length_a 8.879269
_cell_length_b 10.685218
_cell_length_c 27.898320
_cell_angle_alpha 90.000000
_cell_angle_beta 112.652726
_cell_angle_gamma 90.000000
_cell_volume 2442.714314
_symmetry_space_group_name_H-M "C 2/M"
_symmetry_group_IT_number 12
_symmetry_cell_setting 'monoclinic'
loop_
_space_group_symop_operation_xyz
x,y,z
-x,y,-z
-x,-y,-z
x,-y,z
1/2+x,1/2+y,z
1/2-x,1/2+y,-z
1/2-x,1/2-y,-z
1/2+x,1/2-y,z
loop_
_atom_site_type_symbol
_atom_site_label
_atom_site_fract_x
_atom_site_fract_y
_atom_site_fract_z
Si Si1 0.807919 0.361965 0.474204
Si Si2 0.968993 0.860773 0.944508
Si Si3 0.364480 0.356432 0.306450
Si Si4 0.737881 0.640575 0.356212
Si Si5 0.267768 0.861741 0.809224
Si Si6 0.118522 0.712623 0.876676
O O1 0.742961 0.500000 0.483056
O O2 0.750000 0.250000 0.500000
O O3 0.743096 0.334904 0.413305
O O4 0.000000 0.363726 0.500000
O O5 0.776582 0.868530 0.909060
O O6 0.075775 0.796210 0.917075
O O7 0.039307 0.000000 0.955998
O O8 0.000000 0.794210 0.000000
O O9 0.315193 0.500000 0.315979
O O10 0.553225 0.353500 0.315322
O O11 0.337214 0.253584 0.344278
O O12 0.261555 0.308493 0.247742
O O13 0.809078 0.500000 0.353347
O O14 0.161628 0.790396 0.835048
O O15 0.459930 0.868552 0.844877
O O16 0.195259 0.000000 0.801035
#
# Coordination Sequence:
#
# PCOD8097034 Si02
#       6
#     8   8   8   8   8   8
#     4  10  21  36  55  80 109 141 179 221 265 315
#     4  10  20  34  52  75 102 132 168 208 251 303
#     4  10  21  36  55  79 106 139 178 219 264 316
#     4  10  21  37  55  79 110 141 177 221 266 315
#     4  10  20  35  53  75 103 133 170 213 256 306
#     4  10  20  34  53  75 101 134 168 207 257 304
#
# _framework density 19.650272999999999
#
# number of rings (size 3 to 8) (size 9 to 14) (size 15 to 20)
#    0.000    2.000    0.000    3.500    0.000    1.667 
#    0.000    4.167    0.000    8.000    0.000    0.000 
#    0.000    0.000    0.000    0.000    0.000    0.000 
#
# Total GULP energy -297456.159338 kJ/mol
# GULP energy per Si atom -12394.006639 kJ/mol
# Density = 1.960555 g / cm^3
# Si number density = 19.650273 Si / 1000 Ang^3
#
#
#
# Elastic Constant Matrix: (Units=GPa)
#
#
# Indices 1 2 3 4 5 6 
#
# 1 54.7016 34.3426 14.6444 0.0000 -12.0975 0.0000
# 2 34.3426 121.4315 49.2874 0.0000 -28.7710 0.0000
# 3 14.6444 49.2874 101.1338 0.0000 -7.3801 0.0000
# 4 0.0000 0.0000 0.0000 36.6504 0.0000 -2.9467
# 5 -12.0975 -28.7710 -7.3801 0.0000 29.1958 0.0000
# 6 0.0000 0.0000 0.0000 -2.9467 0.0000 24.3326
#
#
#
# Elastic Compliance Matrix: (Units=1/GPa)
#
#
# Indices 1 2 3 4 5 6 
#
# 1 0.022593 -0.005256 -0.000412 0.000000 0.004078 0.000000
# 2 -0.005256 0.014504 -0.005525 0.000000 0.010718 0.000000
# 3 -0.000412 -0.005525 0.012460 0.000000 -0.002466 0.000000
# 4 0.000000 0.000000 0.000000 0.027553 0.000000 0.003337
# 5 0.004078 0.010718 -0.002466 0.000000 0.045880 0.000000
# 6 0.000000 0.000000 0.000000 0.003337 0.000000 0.041501
#
#
# Mechanical properties :
#
#
# Convention : Reuss Voigt Hill
#
# Bulk Modulus (GPa) = 36.80555 52.64619 44.72587
# Shear Modulus (GPa) = 25.51866 29.96859 27.74362
#
# Velocity S-wave (km/s) = 3.60758 3.90949 3.76156
# Velocity P-wave (km/s) = 6.01031 6.87230 6.45571
#
# Compressibility (1/GPa) = 0.02716982
#
# Stress axis : x y z
#
# Youngs Moduli (GPa) = 44.26124 68.94834 80.25485
#
# Poissons Ratio (x) = 0.36240 0.03310
# Poissons Ratio (y) = 0.23264 0.44341
# Poissons Ratio (z) = 0.01825 0.38094
#
# Static dielectric constant tensor:
#      x y z
#    x 3.376430 0.000000 0.159600 
#    y 0.000000 3.714820 0.000000 
#    z 0.159600 0.000000 3.798890 
# 
# 
# High freq. dielectric constant tensor:
#      x y z
#    x 1.753430 0.000000 0.013420 
#    y 0.000000 1.767060 0.000000 
#    z 0.013420 0.000000 1.784040 
# 
# From -- ./inp_files/331988.got.cif
#   From: 2010.06.25/outbox.cif.g09.slc.cpg/sg12_166_cif.got.tgz:331988.got - 2010.06.28 00:19:55.
