data_PCOD8097314
_publ_section_title
;
Structure prediction by ZEFSAII (Michael W. Deem and Ramdas Pophale) SiO2 
 PCOD8097314
Probable space group: C 2/M
;
_chemical_formula_sum "Si O2"
_cell_formula_units_Z 48
_cell_length_a 27.308661
_cell_length_b 9.029621
_cell_length_c 10.342731
_cell_angle_alpha 90.000000
_cell_angle_beta 79.111464
_cell_angle_gamma 90.000000
_cell_volume 2504.465827
_symmetry_space_group_name_H-M "C 2/M"
_symmetry_group_IT_number 12
_symmetry_cell_setting 'monoclinic'
loop_
_space_group_symop_operation_xyz
x,y,z
-x,y,-z
-x,-y,-z
x,-y,z
1/2+x,1/2+y,z
1/2-x,1/2+y,-z
1/2-x,1/2-y,-z
1/2+x,1/2-y,z
loop_
_atom_site_type_symbol
_atom_site_label
_atom_site_fract_x
_atom_site_fract_y
_atom_site_fract_z
Si Si1 0.303238 0.325325 0.480465
Si Si2 0.529556 0.825035 0.857396
Si Si3 0.802734 0.173538 0.977475
Si Si4 0.365087 0.327077 0.197577
Si Si5 0.862181 0.824191 0.700222
Si Si6 0.525230 0.674136 0.351934
O O1 0.294809 0.500000 0.491564
O O2 0.250000 0.250000 0.500000
O O3 0.336149 0.280778 0.341035
O O4 0.332132 0.263752 0.591545
O O5 0.585477 0.767683 0.840461
O O6 0.503793 0.756160 0.745891
O O7 0.530065 0.000000 0.841939
O O8 0.500000 0.774725 0.000000
O O9 0.835801 0.234674 0.842743
O O10 0.794148 0.000000 0.967738
O O11 0.750000 0.250000 0.000000
O O12 0.829788 0.214794 0.096336
O O13 0.379385 0.500000 0.190979
O O14 0.918502 0.764067 0.670534
O O15 0.863577 0.000000 0.694497
O O16 0.500000 0.712757 0.500000
O O17 0.523324 0.500000 0.323611
#
# Coordination Sequence:
#
# PCOD8097314 Si02
#       6
#     8   8   8   8   8   8
#     4  10  20  35  55  80 109 140 178 222 269 324
#     4  11  24  39  56  83 117 150 186 233 289 342
#     4  10  20  34  53  77 105 138 177 220 267 319
#     4  10  21  37  57  80 107 144 189 230 270 329
#     4   9  18  33  53  77 105 137 173 215 264 319
#     4  10  20  37  62  86 109 144 188 231 278 335
#
# _framework density 19.165763999999999
#
# number of rings (size 3 to 8) (size 9 to 14) (size 15 to 20)
#    0.000    2.000    0.000    3.500    0.000    7.000 
#    0.000    1.667    0.000    0.000    0.000    0.000 
#    0.000    0.000    0.000    0.000    0.000    0.000 
#
# Total GULP energy -297693.625276 kJ/mol
# GULP energy per Si atom -12403.901053 kJ/mol
# Density = 1.912214 g / cm^3
# Si number density = 19.165764 Si / 1000 Ang^3
#
#
#
# Elastic Constant Matrix: (Units=GPa)
#
#
# Indices 1 2 3 4 5 6 
#
# 1 134.9256 44.7297 45.4213 0.0000 -6.3171 0.0000
# 2 44.7297 43.7616 43.1388 0.0000 -0.6314 0.0000
# 3 45.4213 43.1388 132.0366 0.0000 -1.3135 0.0000
# 4 0.0000 0.0000 0.0000 -1.5358 0.0000 12.7252
# 5 -6.3171 -0.6314 -1.3135 0.0000 40.1729 0.0000
# 6 0.0000 0.0000 0.0000 12.7252 0.0000 31.1497
#
#
#
# Elastic Compliance Matrix: (Units=1/GPa)
#
#
# Indices 1 2 3 4 5 6 
#
# 1 0.011314 -0.011388 -0.000156 0.000000 0.001595 0.000000
# 2 -0.011388 0.045170 -0.010855 0.000000 -0.001436 0.000000
# 3 -0.000156 -0.010855 0.011175 0.000000 0.000170 0.000000
# 4 0.000000 0.000000 0.000000 -0.148495 0.000000 0.060663
# 5 0.001595 -0.001436 0.000170 0.000000 0.025126 0.000000
# 6 0.000000 0.000000 0.000000 0.060663 0.000000 0.007321
#
#
# Mechanical properties :
#
#
# Convention : Reuss Voigt Hill
#
# Bulk Modulus (GPa) = 43.73833 64.14484 53.94159
# Shear Modulus (GPa) = 1241.06931 25.78630 633.42780
#
# Velocity S-wave (km/s) = 25.47451 3.67200 18.19937
# Velocity P-wave (km/s) = 29.80165 7.17769 21.67553
#
# Compressibility (1/GPa) = 0.02286324
#
# Stress axis : x y z
#
# Youngs Moduli (GPa) = 88.38853 22.13850 89.48277
#
# Poissons Ratio (x) = 0.25210 0.01392
# Poissons Ratio (y) = 1.00653 0.97132
# Poissons Ratio (z) = 0.01375 0.24031
#
# Static dielectric constant tensor:
#      x y z
#    x 3.602930 0.000000 0.398540 
#    y 0.000000 3.211600 0.000000 
#    z 0.398540 0.000000 6.927070 
# 
# 
# High freq. dielectric constant tensor:
#      x y z
#    x 1.764640 0.000000 0.000040 
#    y 0.000000 1.717810 0.000000 
#    z 0.000040 0.000000 1.768480 
# 
# From -- ./inp_files/108568.got.cif
#   From: 2010.06.25/outbox.cif.g09.slc.cpg/sg12_55_cif.got.tgz:108568.got - 2010.06.28 00:19:55.
