data_PCOD8097505
_publ_section_title
;
Structure prediction by ZEFSAII (Michael W. Deem and Ramdas Pophale) SiO2 
 PCOD8097505
Probable space group: C 2/M
;
_chemical_formula_sum "Si O2"
_cell_formula_units_Z 64
_cell_length_a 15.289126
_cell_length_b 9.084762
_cell_length_c 23.991320
_cell_angle_alpha 90.000000
_cell_angle_beta 90.749641
_cell_angle_gamma 90.000000
_cell_volume 3332.062849
_symmetry_space_group_name_H-M "C 2/M"
_symmetry_group_IT_number 12
_symmetry_cell_setting 'monoclinic'
loop_
_space_group_symop_operation_xyz
x,y,z
-x,y,-z
-x,-y,-z
x,-y,z
1/2+x,1/2+y,z
1/2-x,1/2+y,-z
1/2-x,1/2-y,-z
1/2+x,1/2-y,z
loop_
_atom_site_type_symbol
_atom_site_label
_atom_site_fract_x
_atom_site_fract_y
_atom_site_fract_z
Si Si1 0.395760 0.671465 0.360186
Si Si2 0.606308 0.833512 0.750461
Si Si3 0.259236 0.825171 0.559215
Si Si4 0.993013 0.675194 0.062489
Si Si5 0.095946 0.826086 0.366878
Si Si6 0.670555 0.825027 0.869245
Si Si7 0.098400 0.333180 0.255502
Si Si8 0.344230 0.173651 0.864915
O O1 0.394627 0.500000 0.349024
O O2 0.362281 0.743217 0.302794
O O3 0.328668 0.717204 0.407924
O O4 0.494654 0.720690 0.376867
O O5 0.650376 0.769244 0.806432
O O6 0.503315 0.822710 0.759015
O O7 0.635955 0.000000 0.740225
O O8 0.250000 0.750000 0.500000
O O9 0.345711 0.760089 0.588330
O O10 0.269529 0.000000 0.553291
O O11 0.994140 0.500000 0.062297
O O12 0.903685 0.732790 0.089353
O O13 0.073291 0.734519 0.100016
O O14 0.000000 0.738312 0.000000
O O15 0.125087 0.776908 0.305256
O O16 0.110033 0.000000 0.373793
O O17 0.760381 0.753158 0.890223
O O18 0.676757 0.000000 0.870801
O O19 0.123462 0.500000 0.273258
O O20 0.148187 0.283738 0.200156
O O21 0.335098 0.000000 0.872185
#
# Coordination Sequence:
#
# PCOD8097505 Si02
#       8
#     8   8   8   8   8   8   8   8
#     4   9  21  39  58  82 114 149 184 226 280 333
#     4   9  17  32  55  80 110 144 183 228 275 331
#     4  11  24  42  61  84 115 152 192 232 275 331
#     4   9  18  36  59  78 106 152 197 232 275 338
#     4  10  21  38  59  85 114 147 186 230 280 333
#     4  10  20  34  53  82 112 143 185 234 283 331
#     4   9  17  33  55  79 111 147 183 226 276 336
#     4  10  20  34  54  81 110 145 187 229 280 338
#
# _framework density 19.207321
#
# number of rings (size 3 to 8) (size 9 to 14) (size 15 to 20)
#    0.000    2.375    1.250    0.750    1.750    3.500 
#    0.000    3.125    0.000    0.750    0.000    0.000 
#    0.000    0.000    0.000    0.000    0.000    0.000 
#
# Total GULP energy -396830.160507 kJ/mol
# GULP energy per Si atom -12400.942516 kJ/mol
# Density = 1.916360 g / cm^3
# Si number density = 19.207321 Si / 1000 Ang^3
#
#
#
# Elastic Constant Matrix: (Units=GPa)
#
#
# Indices 1 2 3 4 5 6 
#
# 1 115.6784 37.2480 70.1375 0.0000 -16.0271 0.0000
# 2 37.2480 44.8393 43.6407 0.0000 -7.2411 0.0000
# 3 70.1375 43.6407 134.5968 0.0000 -15.3162 0.0000
# 4 0.0000 0.0000 0.0000 19.5144 0.0000 -1.0986
# 5 -16.0271 -7.2411 -15.3162 0.0000 25.0386 0.0000
# 6 0.0000 0.0000 0.0000 -1.0986 0.0000 31.1150
#
#
#
# Elastic Compliance Matrix: (Units=1/GPa)
#
#
# Indices 1 2 3 4 5 6 
#
# 1 0.014251 -0.006418 -0.004856 0.000000 0.004295 0.000000
# 2 -0.006418 0.035713 -0.008090 0.000000 0.001271 0.000000
# 3 -0.004856 -0.008090 0.012858 0.000000 0.002417 0.000000
# 4 0.000000 0.000000 0.000000 0.051346 0.000000 0.001813
# 5 0.004295 0.001271 0.002417 0.000000 0.044534 0.000000
# 6 0.000000 0.000000 0.000000 0.001813 0.000000 0.032203
#
#
# Mechanical properties :
#
#
# Convention : Reuss Voigt Hill
#
# Bulk Modulus (GPa) = 41.50632 66.35188 53.92910
# Shear Modulus (GPa) = 21.03804 24.73946 22.88875
#
# Velocity S-wave (km/s) = 3.31314 3.59280 3.45580
# Velocity P-wave (km/s) = 6.02432 7.19938 6.63790
#
# Compressibility (1/GPa) = 0.02409272
#
# Stress axis : x y z
#
# Youngs Moduli (GPa) = 70.17167 28.00139 77.77043
#
# Poissons Ratio (x) = 0.17971 0.37768
# Poissons Ratio (y) = 0.45036 0.62918
# Poissons Ratio (z) = 0.34077 0.22654
#
# Static dielectric constant tensor:
#      x y z
#    x 3.654910 0.000000 -0.022900 
#    y 0.000000 3.307050 0.000000 
#    z -0.022900 0.000000 3.598010 
# 
# 
# High freq. dielectric constant tensor:
#      x y z
#    x 1.755490 0.000000 -0.000650 
#    y 0.000000 1.726390 0.000000 
#    z -0.000650 0.000000 1.746930 
# 
# From -- ./inp_files/338689.got.cif
#   From: 2010.06.25/outbox.cif.g09.slc.cpg/sg12_170_cif.got.tgz:338689.got - 2010.06.28 00:19:55.
