data_PCOD8097200
_publ_section_title
;
Structure prediction by ZEFSAII (Michael W. Deem and Ramdas Pophale) SiO2 
 PCOD8097200
Probable space group: C 2/M
;
_chemical_formula_sum "Si O2"
_cell_formula_units_Z 64
_cell_length_a 31.444477
_cell_length_b 8.779372
_cell_length_c 24.392651
_cell_angle_alpha 90.000000
_cell_angle_beta 28.063693
_cell_angle_gamma 90.000000
_cell_volume 3167.983348
_symmetry_space_group_name_H-M "C 2/M"
_symmetry_group_IT_number 12
_symmetry_cell_setting 'monoclinic'
loop_
_space_group_symop_operation_xyz
x,y,z
-x,y,-z
-x,-y,-z
x,-y,z
1/2+x,1/2+y,z
1/2-x,1/2+y,-z
1/2-x,1/2-y,-z
1/2+x,1/2-y,z
loop_
_atom_site_type_symbol
_atom_site_label
_atom_site_fract_x
_atom_site_fract_y
_atom_site_fract_z
Si Si1 0.754319 0.820663 0.724615
Si Si2 0.437698 0.181332 0.021708
Si Si3 0.846335 0.180568 0.909098
Si Si4 0.594018 0.679412 0.366172
Si Si5 0.644519 0.173469 0.482304
Si Si6 0.845749 0.320898 0.405335
Si Si7 0.941984 0.324512 0.701596
Si Si8 0.030357 0.681632 0.139023
O O1 0.660373 0.752022 0.852050
O O2 0.829664 0.759945 0.680145
O O3 0.778559 0.769317 0.635710
O O4 0.749638 0.000000 0.729701
O O5 0.439698 0.000000 0.019890
O O6 0.500000 0.245604 0.000000
O O7 0.464410 0.237151 0.930294
O O8 0.918695 0.222471 0.780338
O O9 0.886479 0.246232 0.920731
O O10 0.835507 0.000000 0.927140
O O11 0.750000 0.250000 0.000000
O O12 0.500000 0.726569 0.500000
O O13 0.599488 0.500000 0.348546
O O14 0.613671 0.766894 0.287335
O O15 0.634437 0.229867 0.555560
O O16 0.546693 0.197663 0.566387
O O17 0.676187 0.000000 0.443746
O O18 0.837543 0.500000 0.407281
O O19 0.750000 0.250000 0.500000
O O20 0.931446 0.262086 0.272283
O O21 0.919253 0.500000 0.741106
O O22 0.039859 0.500000 0.133757
#
# Coordination Sequence:
#
# PCOD8097200 Si02
#       8
#     8   8   8   8   8   8   8   8
#     4  10  21  36  58  87 118 157 207 249 296 363
#     4   9  20  38  62  89 118 159 209 256 300 354
#     4  12  26  43  65  92 124 164 209 255 312 379
#     4  10  20  34  52  85 125 158 195 245 300 359
#     4  10  21  38  58  85 122 156 196 250 309 366
#     4  10  22  39  61  90 121 156 201 255 316 375
#     4  11  22  39  61  86 120 161 204 249 307 370
#     4  10  21  42  66  92 128 164 207 263 314 369
#
# _framework density 20.202126
#
# number of rings (size 3 to 8) (size 9 to 14) (size 15 to 20)
#    0.000    1.750    2.500    1.500    3.500    2.250 
#    0.000    0.625    0.000    0.750    0.000    0.000 
#    0.000    0.000    0.000    0.000    0.000    0.000 
#
# Total GULP energy -396735.368063 kJ/mol
# GULP energy per Si atom -12397.980252 kJ/mol
# Density = 2.015615 g / cm^3
# Si number density = 20.202126 Si / 1000 Ang^3
#
#
#
# Elastic Constant Matrix: (Units=GPa)
#
#
# Indices 1 2 3 4 5 6 
#
# 1 152.4770 39.2221 85.4670 -0.0013 3.4998 0.0013
# 2 39.2221 47.5812 30.5872 -0.0133 -1.4040 0.0058
# 3 85.4670 30.5872 150.8343 -0.0185 1.5350 0.0025
# 4 -0.0013 -0.0133 -0.0185 26.3117 0.0036 4.3458
# 5 3.4998 -1.4040 1.5350 0.0036 41.2939 -0.0014
# 6 0.0013 0.0058 0.0025 4.3458 -0.0014 31.0015
#
#
#
# Elastic Compliance Matrix: (Units=1/GPa)
#
#
# Indices 1 2 3 4 5 6 
#
# 1 0.010850 -0.005779 -0.004967 -0.000006 -0.000931 0.000002
# 2 -0.005779 0.027287 -0.002274 0.000013 0.001502 -0.000006
# 3 -0.004967 -0.002274 0.009905 0.000006 -0.000025 -0.000001
# 4 -0.000006 0.000013 0.000006 0.038907 -0.000003 -0.005454
# 5 -0.000931 0.001502 -0.000025 -0.000003 0.024348 0.000001
# 6 0.000002 -0.000006 -0.000001 -0.005454 0.000001 0.033021
#
#
# Mechanical properties :
#
#
# Convention : Reuss Voigt Hill
#
# Bulk Modulus (GPa) = 45.44855 73.49390 59.47123
# Shear Modulus (GPa) = 28.13872 32.76251 30.45061
#
# Velocity S-wave (km/s) = 3.73615 4.03145 3.88660
# Velocity P-wave (km/s) = 6.41541 7.62420 7.04577
#
# Compressibility (1/GPa) = 0.02200290
#
# Stress axis : x y z
#
# Youngs Moduli (GPa) = 92.16455 36.64811 100.95407
#
# Poissons Ratio (x) = 0.21178 0.50141
# Poissons Ratio (y) = 0.53259 0.22960
# Poissons Ratio (z) = 0.45775 0.08335
#
# Static dielectric constant tensor:
#      x y z
#    x 3.676620 0.000010 -0.062860 
#    y 0.000010 3.381370 0.000050 
#    z -0.062860 0.000050 3.810370 
# 
# 
# High freq. dielectric constant tensor:
#      x y z
#    x 1.800500 0.000000 0.002850 
#    y 0.000000 1.761110 0.000000 
#    z 0.002850 0.000000 1.796920 
# 
# From -- ./inp_files/249994.got.cif
#   From: 2010.06.25/outbox.cif.g09.slc.cpg/sg12_125_cif.got.tgz:249994.got - 2010.06.28 00:19:55.
