data_PCOD8097958
_publ_section_title
;
Structure prediction by ZEFSAII (Michael W. Deem and Ramdas Pophale) SiO2 
 PCOD8097958
Probable space group: C 2/M
;
_chemical_formula_sum "Si O2"
_cell_formula_units_Z 56
_cell_length_a 18.881126
_cell_length_b 8.908146
_cell_length_c 22.617538
_cell_angle_alpha 90.000000
_cell_angle_beta 51.079773
_cell_angle_gamma 90.000000
_cell_volume 2959.730000
_symmetry_space_group_name_H-M "C 2/M"
_symmetry_group_IT_number 12
_symmetry_cell_setting 'monoclinic'
loop_
_space_group_symop_operation_xyz
x,y,z
-x,y,-z
-x,-y,-z
x,-y,z
1/2+x,1/2+y,z
1/2-x,1/2+y,-z
1/2-x,1/2-y,-z
1/2+x,1/2-y,z
loop_
_atom_site_type_symbol
_atom_site_label
_atom_site_fract_x
_atom_site_fract_y
_atom_site_fract_z
Si Si1 0.102398 0.323448 0.928314
Si Si2 0.095082 0.175827 0.807750
Si Si3 0.421729 0.178435 0.500080
Si Si4 0.778300 0.825216 0.366536
Si Si5 0.077945 0.676822 0.631788
Si Si6 0.248532 0.176061 0.937057
Si Si7 0.952470 0.674488 0.802942
O O1 0.119902 0.500000 0.919821
O O2 0.121680 0.260113 0.853418
O O3 0.169731 0.247581 0.939367
O O4 0.000000 0.282455 0.000000
O O5 0.176865 0.213731 0.719907
O O6 0.999220 0.233792 0.831745
O O7 0.086006 0.000000 0.825298
O O8 0.500000 0.248896 0.500000
O O9 0.325860 0.228817 0.578447
O O10 0.436648 0.242554 0.426158
O O11 0.428996 0.000000 0.495189
O O12 0.827815 0.739536 0.393238
O O13 0.787022 0.000000 0.375886
O O14 0.087038 0.500000 0.624358
O O15 0.994432 0.725545 0.718020
O O16 0.345617 0.208501 0.855542
O O17 0.230018 0.000000 0.953230
O O18 0.250000 0.250000 0.000000
O O19 0.971910 0.500000 0.805604
#
# Coordination Sequence:
#
# PCOD8097958 Si02
#       7
#     8   8   8   8   8   8   8
#     4  11  24  40  57  78 106 139 175 217 262 308
#     4  10  20  34  55  81 107 137 173 215 262 312
#     4   9  17  29  48  74 102 134 173 214 254 299
#     4   9  18  32  51  76 104 133 168 212 256 301
#     4   9  17  31  53  76  99 134 174 209 251 305
#     4  11  23  38  57  81 109 140 175 216 261 310
#     4   9  19  35  54  78 107 137 172 216 262 309
#
# _framework density 18.920645
#
# number of rings (size 3 to 8) (size 9 to 14) (size 15 to 20)
#    0.000    2.286    0.000    2.571    0.000    7.429 
#    0.000    4.286    0.000    1.714    0.000    0.000 
#    0.000    0.000    0.000    0.000    0.000    0.000 
#
# Total GULP energy -347244.690619 kJ/mol
# GULP energy per Si atom -12401.596094 kJ/mol
# Density = 1.887758 g / cm^3
# Si number density = 18.920645 Si / 1000 Ang^3
#
#
#
# Elastic Constant Matrix: (Units=GPa)
#
#
# Indices 1 2 3 4 5 6 
#
# 1 177.4482 56.6976 91.0150 0.0000 3.5671 0.0000
# 2 56.6976 57.5870 43.5022 0.0000 -0.5199 0.0002
# 3 91.0150 43.5022 115.3069 0.0000 1.7903 0.0000
# 4 0.0000 0.0000 0.0000 18.6216 0.0000 -2.6964
# 5 3.5671 -0.5199 1.7903 0.0000 36.9164 0.0000
# 6 0.0000 0.0002 0.0000 -2.6964 0.0000 30.1099
#
#
#
# Elastic Compliance Matrix: (Units=1/GPa)
#
#
# Indices 1 2 3 4 5 6 
#
# 1 0.010724 -0.005847 -0.006246 0.000000 -0.000816 0.000000
# 2 -0.005847 0.027498 -0.005778 0.000000 0.001232 0.000000
# 3 -0.006246 -0.005778 0.015786 0.000000 -0.000243 0.000000
# 4 0.000000 0.000000 0.000000 0.054407 0.000000 0.004872
# 5 -0.000816 0.001232 -0.000243 0.000000 0.027196 0.000000
# 6 0.000000 0.000000 0.000000 0.004872 0.000000 0.033648
#
#
# Mechanical properties :
#
#
# Convention : Reuss Voigt Hill
#
# Bulk Modulus (GPa) = 54.74752 81.41908 68.08330
# Shear Modulus (GPa) = 23.68669 27.73807 25.71238
#
# Velocity S-wave (km/s) = 3.54205 3.83302 3.69041
# Velocity P-wave (km/s) = 6.76213 7.91926 7.36346
#
# Compressibility (1/GPa) = 0.01826567
#
# Stress axis : x y z
#
# Youngs Moduli (GPa) = 93.25148 36.36649 63.34654
#
# Poissons Ratio (x) = 0.21264 0.39565
# Poissons Ratio (y) = 0.54526 0.36601
# Poissons Ratio (z) = 0.58244 0.21012
#
# Static dielectric constant tensor:
#      x y z
#    x 3.514210 0.000000 -0.086950 
#    y 0.000000 3.367990 0.000000 
#    z -0.086950 0.000000 3.607040 
# 
# 
# High freq. dielectric constant tensor:
#      x y z
#    x 1.735800 0.000000 0.001390 
#    y 0.000000 1.722190 0.000000 
#    z 0.001390 0.000000 1.749660 
# 
# From -- ./inp_files/342216.got.cif
#   From: 2010.06.25/outbox.cif.g09.slc.cpg/sg12_172_cif.got.tgz:342216.got - 2010.06.28 00:19:55.
