data_PCOD8097452
_publ_section_title
;
Structure prediction by ZEFSAII (Michael W. Deem and Ramdas Pophale) SiO2 
 PCOD8097452
Probable space group: C 2/M
;
_chemical_formula_sum "Si O2"
_cell_formula_units_Z 64
_cell_length_a 15.495184
_cell_length_b 14.560404
_cell_length_c 24.682804
_cell_angle_alpha 90.000000
_cell_angle_beta 35.061825
_cell_angle_gamma 90.000000
_cell_volume 3199.075263
_symmetry_space_group_name_H-M "C 2/M"
_symmetry_group_IT_number 12
_symmetry_cell_setting 'monoclinic'
loop_
_space_group_symop_operation_xyz
x,y,z
-x,y,-z
-x,-y,-z
x,-y,z
1/2+x,1/2+y,z
1/2-x,1/2+y,-z
1/2-x,1/2-y,-z
1/2+x,1/2-y,z
loop_
_atom_site_type_symbol
_atom_site_label
_atom_site_fract_x
_atom_site_fract_y
_atom_site_fract_z
Si Si1 0.594485 0.396543 0.208904
Si Si2 0.542600 0.608231 0.353927
Si Si3 0.698863 0.797218 0.715863
Si Si4 0.371983 0.600064 0.225183
Si Si5 0.065040 0.143315 0.023550
Si Si6 0.397625 0.100957 0.889130
Si Si7 0.154546 0.897891 0.451838
Si Si8 0.607594 0.848559 0.989030
O O1 0.657457 0.500000 0.183799
O O2 0.524358 0.360098 0.301277
O O3 0.468461 0.392648 0.229290
O O4 0.731201 0.331620 0.121311
O O5 0.552044 0.500000 0.355486
O O6 0.701137 0.644732 0.294502
O O7 0.394381 0.641100 0.463617
O O8 0.732155 0.690565 0.715548
O O9 0.522741 0.822250 0.812136
O O10 0.741335 0.822874 0.631851
O O11 0.286343 0.500000 0.269763
O O12 0.474631 0.598118 0.119089
O O13 0.034474 0.251466 0.042335
O O14 0.242336 0.123878 0.938493
O O15 0.000000 0.103934 0.000000
O O16 0.371404 0.093541 0.967215
O O17 0.451632 0.000000 0.841952
O O18 0.000000 0.909262 0.500000
O O19 0.231648 0.000000 0.415296
O O20 0.500000 0.898067 0.000000
#
# Coordination Sequence:
#
# PCOD8097452 Si02
#       8
#     8   8   8   8   8   8   8   8
#     4  10  20  34  53  79 112 147 184 224 274 338
#     4   9  18  34  60  91 118 145 175 214 279 354
#     4  11  20  34  55  87 116 144 179 232 281 329
#     4  11  23  40  56  73 103 150 199 236 273 323
#     4  11  24  41  57  72 105 157 206 240 270 322
#     4  12  22  34  55  84 116 147 184 232 285 335
#     4   8  15  31  56  86 120 148 172 210 273 351
#     4  11  21  33  52  81 114 146 182 229 282 337
#
# _framework density 20.005782
#
# number of rings (size 3 to 8) (size 9 to 14) (size 15 to 20)
#    0.000    1.625    2.500    4.500    1.750    3.000 
#    0.000    0.625    0.000    3.375    0.000    0.000 
#    0.000    0.000    0.000    0.000    0.000    0.000 
#
# Total GULP energy -396532.707360 kJ/mol
# GULP energy per Si atom -12391.647105 kJ/mol
# Density = 1.996025 g / cm^3
# Si number density = 20.005782 Si / 1000 Ang^3
#
#
#
# Elastic Constant Matrix: (Units=GPa)
#
#
# Indices 1 2 3 4 5 6 
#
# 1 107.9582 6.1186 39.8920 0.0001 17.3970 0.0000
# 2 6.1186 79.0795 30.6015 0.0000 2.3153 0.0001
# 3 39.8920 30.6015 112.0820 0.0010 28.4981 0.0003
# 4 0.0001 0.0000 0.0010 30.6738 -0.0005 4.5740
# 5 17.3970 2.3153 28.4981 -0.0005 25.6035 -0.0001
# 6 0.0000 0.0001 0.0003 4.5740 -0.0001 15.6659
#
#
#
# Elastic Compliance Matrix: (Units=1/GPa)
#
#
# Indices 1 2 3 4 5 6 
#
# 1 0.011014 0.000417 -0.002959 0.000000 -0.004228 0.000000
# 2 0.000417 0.014488 -0.005159 0.000000 0.004149 0.000000
# 3 -0.002959 -0.005159 0.014999 -0.000001 -0.014217 0.000000
# 4 0.000000 0.000000 -0.000001 0.034085 0.000001 -0.009952
# 5 -0.004228 0.004149 -0.014217 0.000001 0.057380 0.000000
# 6 0.000000 0.000000 0.000000 -0.009952 0.000000 0.066739
#
#
# Mechanical properties :
#
#
# Convention : Reuss Voigt Hill
#
# Bulk Modulus (GPa) = 39.84297 50.26045 45.05171
# Shear Modulus (GPa) = 22.47476 29.22248 25.84862
#
# Velocity S-wave (km/s) = 3.35537 3.82606 3.59842
# Velocity P-wave (km/s) = 5.91357 6.68549 6.31134
#
# Compressibility (1/GPa) = 0.02509853
#
# Stress axis : x y z
#
# Youngs Moduli (GPa) = 90.79468 69.02210 66.67331
#
# Poissons Ratio (x) = -0.02875 0.19727
# Poissons Ratio (y) = -0.03782 0.34396
# Poissons Ratio (z) = 0.26863 0.35607
#
# Static dielectric constant tensor:
#      x y z
#    x 3.637110 0.000000 0.525550 
#    y 0.000000 3.883930 0.000000 
#    z 0.525550 0.000000 4.064800 
# 
# 
# High freq. dielectric constant tensor:
#      x y z
#    x 1.765430 0.000000 0.028350 
#    y 0.000000 1.777380 0.000000 
#    z 0.028350 0.000000 1.764400 
# 
# From -- ./inp_files/340139.got.cif
#   From: 2010.06.25/outbox.cif.g09.slc.cpg/sg12_171_cif.got.tgz:340139.got - 2010.06.28 00:19:55.
