data_PCOD8097169
_publ_section_title
;
Structure prediction by ZEFSAII (Michael W. Deem and Ramdas Pophale) SiO2 
 PCOD8097169
Probable space group: C 2/M
;
_chemical_formula_sum "Si O2"
_cell_formula_units_Z 56
_cell_length_a 14.372397
_cell_length_b 8.799091
_cell_length_c 24.760415
_cell_angle_alpha 90.000000
_cell_angle_beta 108.299370
_cell_angle_gamma 90.000000
_cell_volume 2972.948559
_symmetry_space_group_name_H-M "C 2/M"
_symmetry_group_IT_number 12
_symmetry_cell_setting 'monoclinic'
loop_
_space_group_symop_operation_xyz
x,y,z
-x,y,-z
-x,-y,-z
x,-y,z
1/2+x,1/2+y,z
1/2-x,1/2+y,-z
1/2-x,1/2-y,-z
1/2+x,1/2-y,z
loop_
_atom_site_type_symbol
_atom_site_label
_atom_site_fract_x
_atom_site_fract_y
_atom_site_fract_z
Si Si1 0.368340 0.323040 0.233652
Si Si2 0.669594 0.820274 0.141796
Si Si3 0.466520 0.178981 0.154528
Si Si4 0.182581 0.673504 0.565076
Si Si5 0.231956 0.320541 0.938934
Si Si6 0.625502 0.174308 0.436496
Si Si7 0.431412 0.676755 0.364102
O O1 0.382021 0.500000 0.226486
O O2 0.258205 0.272520 0.197768
O O3 0.449939 0.242310 0.211619
O O4 0.385134 0.277301 0.298477
O O5 0.568170 0.757501 0.148503
O O6 0.685813 0.742412 0.086842
O O7 0.664783 0.000000 0.131998
O O8 0.376296 0.230100 0.100181
O O9 0.472799 0.000000 0.160539
O O10 0.175475 0.500000 0.584211
O O11 0.294476 0.712006 0.572608
O O12 0.116953 0.696654 0.499487
O O13 0.148218 0.788570 0.604774
O O14 0.241683 0.500000 0.943971
O O15 0.250000 0.250000 0.000000
O O16 0.523933 0.216517 0.390588
O O17 0.652648 0.000000 0.427916
O O18 0.460857 0.500000 0.371777
#
# Coordination Sequence:
#
# PCOD8097169 Si02
#       7
#     8   8   8   8   8   8   8
#     4   9  20  36  53  76 105 135 172 216 260 307
#     4   9  18  36  57  75 101 138 174 212 258 304
#     4   9  19  35  56  78 102 137 178 216 258 307
#     4  10  21  37  56  79 106 137 176 222 272 325
#     4  10  20  34  52  79 110 138 172 213 256 305
#     4  10  21  37  56  78 105 139 178 220 269 324
#     4  11  22  35  53  80 111 142 177 218 266 322
#
# _framework density 18.836517000000001
#
# number of rings (size 3 to 8) (size 9 to 14) (size 15 to 20)
#    0.000    2.286    0.000    2.143    0.000    7.429 
#    0.000    4.286    0.000    0.000    0.000    0.000 
#    0.000    0.000    0.000    0.000    0.000    0.000 
#
# Total GULP energy -347278.532678 kJ/mol
# GULP energy per Si atom -12402.804739 kJ/mol
# Density = 1.879364 g / cm^3
# Si number density = 18.836517 Si / 1000 Ang^3
#
#
#
# Elastic Constant Matrix: (Units=GPa)
#
#
# Indices 1 2 3 4 5 6 
#
# 1 154.5708 35.4743 75.4981 0.0000 -32.6178 0.0000
# 2 35.4743 46.9119 42.6109 0.0000 -11.0621 0.0000
# 3 75.4981 42.6109 135.7424 0.0000 -31.0862 0.0000
# 4 0.0000 0.0000 0.0000 27.8217 0.0000 -5.1804
# 5 -32.6178 -11.0621 -31.0862 0.0000 43.2626 0.0000
# 6 0.0000 0.0000 0.0000 -5.1804 0.0000 33.6202
#
#
#
# Elastic Compliance Matrix: (Units=1/GPa)
#
#
# Indices 1 2 3 4 5 6 
#
# 1 0.009773 -0.003275 -0.003486 0.000000 0.004027 0.000000
# 2 -0.003275 0.030958 -0.007959 0.000000 -0.000272 0.000000
# 3 -0.003486 -0.007959 0.012851 0.000000 0.004571 0.000000
# 4 0.000000 0.000000 0.000000 0.037005 0.000000 0.005702
# 5 0.004027 -0.000272 0.004571 0.000000 0.029365 0.000000
# 6 0.000000 0.000000 0.000000 0.005702 0.000000 0.030623
#
#
# Mechanical properties :
#
#
# Convention : Reuss Voigt Hill
#
# Bulk Modulus (GPa) = 41.41958 71.59906 56.50932
# Shear Modulus (GPa) = 26.58705 33.18369 29.88537
#
# Velocity S-wave (km/s) = 3.76102 4.20178 3.98749
# Velocity P-wave (km/s) = 6.39508 7.85068 7.15997
#
# Compressibility (1/GPa) = 0.02414317
#
# Stress axis : x y z
#
# Youngs Moduli (GPa) = 102.31902 32.30176 77.81689
#
# Poissons Ratio (x) = 0.10579 0.27124
# Poissons Ratio (y) = 0.33509 0.61934
# Poissons Ratio (z) = 0.35665 0.25709
#
# Static dielectric constant tensor:
#      x y z
#    x 3.538450 0.000000 0.026120 
#    y 0.000000 3.401950 0.000000 
#    z 0.026120 0.000000 3.494130 
# 
# 
# High freq. dielectric constant tensor:
#      x y z
#    x 1.734840 0.000000 -0.002100 
#    y 0.000000 1.733280 0.000000 
#    z -0.002100 0.000000 1.729080 
# 
# From -- ./inp_files/338172.got.cif
#   From: 2010.06.25/outbox.cif.g09.slc.cpg/sg12_170_cif.got.tgz:338172.got - 2010.06.28 00:19:55.
