data_PCOD8097786
_publ_section_title
;
Structure prediction by ZEFSAII (Michael W. Deem and Ramdas Pophale) SiO2 
 PCOD8097786
Probable space group: C 2/M
;
_chemical_formula_sum "Si O2"
_cell_formula_units_Z 56
_cell_length_a 23.422586
_cell_length_b 8.941437
_cell_length_c 14.597053
_cell_angle_alpha 90.000000
_cell_angle_beta 109.883052
_cell_angle_gamma 90.000000
_cell_volume 2874.847302
_symmetry_space_group_name_H-M "C 2/M"
_symmetry_group_IT_number 12
_symmetry_cell_setting 'monoclinic'
loop_
_space_group_symop_operation_xyz
x,y,z
-x,y,-z
-x,-y,-z
x,-y,z
1/2+x,1/2+y,z
1/2-x,1/2+y,-z
1/2-x,1/2-y,-z
1/2+x,1/2-y,z
loop_
_atom_site_type_symbol
_atom_site_label
_atom_site_fract_x
_atom_site_fract_y
_atom_site_fract_z
Si Si1 0.758879 0.325970 0.408710
Si Si2 0.935559 0.825788 0.305780
Si Si3 0.685193 0.825417 0.071731
Si Si4 0.322785 0.672759 0.119061
Si Si5 0.104745 0.673960 0.540152
Si Si6 0.645934 0.322763 0.229012
Si Si7 0.445351 0.176521 0.684598
O O1 0.751927 0.500000 0.423099
O O2 0.750000 0.250000 0.500000
O O3 0.824824 0.287441 0.404399
O O4 0.708288 0.268036 0.310640
O O5 0.870957 0.791241 0.224276
O O6 0.934721 0.768018 0.409672
O O7 0.986279 0.737154 0.276860
O O8 0.951514 0.000000 0.314036
O O9 0.756411 0.785431 0.121421
O O10 0.646562 0.737150 0.126133
O O11 0.672782 0.000000 0.076815
O O12 0.661322 0.773452 0.959844
O O13 0.324809 0.500000 0.089697
O O14 0.090407 0.500000 0.548566
O O15 0.086883 0.722636 0.428031
O O16 0.639359 0.500000 0.225093
O O17 0.589166 0.252940 0.250487
O O18 0.444986 0.000000 0.699053
#
# Coordination Sequence:
#
# PCOD8097786 Si02
#       7
#     8   8   8   8   8   8   8
#     4  10  20  34  54  81 113 148 185 227 276 328
#     4  11  23  38  58  83 112 148 191 236 281 333
#     4  10  20  36  62  90 115 146 183 227 282 342
#     4   9  20  39  60  86 117 146 181 231 285 334
#     4  10  21  37  56  81 113 151 191 233 282 331
#     4  11  22  36  57  85 117 152 189 231 282 337
#     4  11  23  39  57  78 113 155 194 237 279 330
#
# _framework density 19.479296000000001
#
# number of rings (size 3 to 8) (size 9 to 14) (size 15 to 20)
#    0.000    1.714    1.429    3.000    0.000    5.714 
#    0.000    0.714    0.000    4.286    0.000    0.000 
#    0.000    0.000    0.000    0.000    0.000    0.000 
#
# Total GULP energy -347357.379252 kJ/mol
# GULP energy per Si atom -12405.620688 kJ/mol
# Density = 1.943496 g / cm^3
# Si number density = 19.479296 Si / 1000 Ang^3
#
#
#
# Elastic Constant Matrix: (Units=GPa)
#
#
# Indices 1 2 3 4 5 6 
#
# 1 92.9896 41.2393 32.6741 0.0000 -24.7879 0.0000
# 2 41.2393 76.9760 40.0715 0.0000 -16.6062 0.0000
# 3 32.6741 40.0715 72.8136 0.0000 -23.7176 0.0000
# 4 0.0000 0.0000 0.0000 33.5570 0.0000 -6.8125
# 5 -24.7879 -16.6062 -23.7176 0.0000 33.4692 0.0000
# 6 0.0000 0.0000 0.0000 -6.8125 0.0000 36.0125
#
#
#
# Elastic Compliance Matrix: (Units=1/GPa)
#
#
# Indices 1 2 3 4 5 6 
#
# 1 0.016073 -0.006291 -0.001157 0.000000 0.007963 0.000000
# 2 -0.006291 0.020834 -0.008832 0.000000 -0.000581 0.000000
# 3 -0.001157 -0.008832 0.022630 0.000000 0.010798 0.000000
# 4 0.000000 0.000000 0.000000 0.030990 0.000000 0.005862
# 5 0.007963 -0.000581 0.010798 0.000000 0.043140 0.000000
# 6 0.000000 0.000000 0.000000 0.005862 0.000000 0.028877
#
#
# Mechanical properties :
#
#
# Convention : Reuss Voigt Hill
#
# Bulk Modulus (GPa) = 37.06657 52.30546 44.68601
# Shear Modulus (GPa) = 24.49845 29.19403 26.84624
#
# Velocity S-wave (km/s) = 3.55021 3.87553 3.71643
# Velocity P-wave (km/s) = 5.98960 6.85102 6.43474
#
# Compressibility (1/GPa) = 0.02697849
#
# Stress axis : x y z
#
# Youngs Moduli (GPa) = 62.21673 47.99949 44.18862
#
# Poissons Ratio (x) = 0.30196 0.05111
# Poissons Ratio (y) = 0.39140 0.39025
# Poissons Ratio (z) = 0.07196 0.42391
#
# Static dielectric constant tensor:
#      x y z
#    x 3.612420 0.000000 -0.024670 
#    y 0.000000 3.566290 0.000000 
#    z -0.024670 0.000000 3.784020 
# 
# 
# High freq. dielectric constant tensor:
#      x y z
#    x 1.760970 0.000000 -0.006020 
#    y 0.000000 1.762820 0.000000 
#    z -0.006020 0.000000 1.751150 
# 
# From -- ./inp_files/237780.got.cif
#   From: 2010.06.25/outbox.cif.g09.slc.cpg/sg12_119_cif.got.tgz:237780.got - 2010.06.28 00:19:55.
