data_PCOD8097442
_publ_section_title
;
Structure prediction by ZEFSAII (Michael W. Deem and Ramdas Pophale) SiO2 
 PCOD8097442
Probable space group: C 2/M
;
_chemical_formula_sum "Si O2"
_cell_formula_units_Z 64
_cell_length_a 18.093826
_cell_length_b 8.820235
_cell_length_c 30.428821
_cell_angle_alpha 90.000000
_cell_angle_beta 42.856942
_cell_angle_gamma 90.000000
_cell_volume 3303.035728
_symmetry_space_group_name_H-M "C 2/M"
_symmetry_group_IT_number 12
_symmetry_cell_setting 'monoclinic'
loop_
_space_group_symop_operation_xyz
x,y,z
-x,y,-z
-x,-y,-z
x,-y,z
1/2+x,1/2+y,z
1/2-x,1/2+y,-z
1/2-x,1/2-y,-z
1/2+x,1/2-y,z
loop_
_atom_site_type_symbol
_atom_site_label
_atom_site_fract_x
_atom_site_fract_y
_atom_site_fract_z
Si Si1 0.782142 0.321701 0.940288
Si Si2 0.083569 0.823195 0.698361
Si Si3 0.415733 0.829884 0.439482
Si Si4 0.971926 0.677857 0.186439
Si Si5 0.751649 0.170395 0.567143
Si Si6 0.080811 0.822956 0.307793
Si Si7 0.619529 0.680474 0.937062
Si Si8 0.689561 0.320581 0.811056
O O1 0.768304 0.500000 0.950560
O O2 0.702690 0.256832 0.937273
O O3 0.903426 0.275596 0.874452
O O4 0.750000 0.250000 0.000000
O O5 0.062820 0.722001 0.749703
O O6 0.199396 0.774022 0.627869
O O7 0.987695 0.786201 0.705967
O O8 0.087705 0.000000 0.708781
O O9 0.327025 0.832113 0.440072
O O10 0.367166 0.741669 0.502714
O O11 0.523740 0.746500 0.375646
O O12 0.446165 0.000000 0.440579
O O13 0.952322 0.500000 0.187747
O O14 0.904228 0.772978 0.181151
O O15 0.770324 0.000000 0.576673
O O16 0.198273 0.751402 0.252596
O O17 0.091953 0.000000 0.310844
O O18 0.618015 0.500000 0.937638
O O19 0.657645 0.741087 0.873108
O O20 0.500000 0.745016 0.000000
O O21 0.702328 0.500000 0.805321
#
# Coordination Sequence:
#
# PCOD8097442 Si02
#       8
#     8   8   8   8   8   8   8   8
#     4  10  21  37  58  84 113 145 181 223 273 327
#     4  10  20  34  54  80 109 144 186 229 275 331
#     4   9  16  27  46  74 107 142 182 225 271 327
#     4  11  23  38  55  78 111 147 185 231 279 326
#     4   9  16  27  46  74 108 143 179 225 279 326
#     4  10  20  34  53  79 111 143 180 229 281 330
#     4   9  18  34  57  83 110 141 179 222 268 322
#     4  11  22  37  58  80 106 144 188 230 276 331
#
# _framework density 19.376116
#
# number of rings (size 3 to 8) (size 9 to 14) (size 15 to 20)
#    0.000    2.125    0.000    3.750    0.000    7.500 
#    0.000    1.250    0.000    4.125    0.000    5.250 
#    0.000    0.000    0.000    0.000    0.000    0.000 
#
# Total GULP energy -396887.459994 kJ/mol
# GULP energy per Si atom -12402.733125 kJ/mol
# Density = 1.933201 g / cm^3
# Si number density = 19.376116 Si / 1000 Ang^3
#
#
#
# Elastic Constant Matrix: (Units=GPa)
#
#
# Indices 1 2 3 4 5 6 
#
# 1 82.9424 18.7116 52.5360 -0.0004 -13.0173 -0.0017
# 2 18.7116 51.3695 18.8535 -0.0020 -9.7806 0.0021
# 3 52.5360 18.8535 146.8912 0.0008 -14.7593 0.0017
# 4 -0.0004 -0.0020 0.0008 29.4912 0.0000 4.4397
# 5 -13.0173 -9.7806 -14.7593 0.0000 23.2612 -0.0004
# 6 -0.0017 0.0021 0.0017 4.4397 -0.0004 23.4681
#
#
#
# Elastic Compliance Matrix: (Units=1/GPa)
#
#
# Indices 1 2 3 4 5 6 
#
# 1 0.016784 -0.003338 -0.005097 0.000000 0.004755 0.000002
# 2 -0.003338 0.022359 -0.000982 0.000002 0.006910 -0.000002
# 3 -0.005097 -0.000982 0.009002 0.000000 0.002447 -0.000001
# 4 0.000000 0.000002 0.000000 0.034902 0.000000 -0.006603
# 5 0.004755 0.006910 0.002447 0.000000 0.050110 0.000000
# 6 0.000002 -0.000002 -0.000001 -0.006603 0.000000 0.043860
#
#
# Mechanical properties :
#
#
# Convention : Reuss Voigt Hill
#
# Bulk Modulus (GPa) = 34.11445 51.26726 42.69085
# Shear Modulus (GPa) = 24.31663 27.98423 26.15043
#
# Velocity S-wave (km/s) = 3.54641 3.80447 3.67771
# Velocity P-wave (km/s) = 5.86635 6.76868 6.33361
#
# Compressibility (1/GPa) = 0.02931309
#
# Stress axis : x y z
#
# Youngs Moduli (GPa) = 59.58006 44.72559 111.08050
#
# Poissons Ratio (x) = 0.14928 0.56614
# Poissons Ratio (y) = 0.19886 0.10904
# Poissons Ratio (z) = 0.30366 0.04390
#
# Static dielectric constant tensor:
#      x y z
#    x 3.401230 0.000000 -0.032850 
#    y 0.000000 3.518130 0.000000 
#    z -0.032850 0.000000 3.721420 
# 
# 
# High freq. dielectric constant tensor:
#      x y z
#    x 1.728520 0.000000 -0.001670 
#    y 0.000000 1.752790 0.000000 
#    z -0.001670 0.000000 1.774380 
# 
# From -- ./inp_files/378193.got.cif
#   From: 2010.06.25/outbox.cif.g09.slc.cpg/sg12_190_cif.got.tgz:378193.got - 2010.06.28 00:19:55.
