data_PCOD8097611
_publ_section_title
;
Structure prediction by ZEFSAII (Michael W. Deem and Ramdas Pophale) SiO2 
 PCOD8097611
Probable space group: C 2/M
;
_chemical_formula_sum "Si O2"
_cell_formula_units_Z 48
_cell_length_a 27.350682
_cell_length_b 8.923412
_cell_length_c 11.710584
_cell_angle_alpha 90.000000
_cell_angle_beta 58.123084
_cell_angle_gamma 90.000000
_cell_volume 2427.055618
_symmetry_space_group_name_H-M "C 2/M"
_symmetry_group_IT_number 12
_symmetry_cell_setting 'monoclinic'
loop_
_space_group_symop_operation_xyz
x,y,z
-x,y,-z
-x,-y,-z
x,-y,z
1/2+x,1/2+y,z
1/2-x,1/2+y,-z
1/2-x,1/2-y,-z
1/2+x,1/2-y,z
loop_
_atom_site_type_symbol
_atom_site_label
_atom_site_fract_x
_atom_site_fract_y
_atom_site_fract_z
Si Si1 0.871419 0.324781 0.411384
Si Si2 0.409525 0.171416 0.886338
Si Si3 0.723196 0.677858 0.334630
Si Si4 0.987349 0.678940 0.388271
Si Si5 0.799112 0.328048 0.867737
Si Si6 0.146572 0.675560 0.819733
O O1 0.859729 0.500000 0.445548
O O2 0.813422 0.235725 0.512798
O O3 0.884920 0.292110 0.261386
O O4 0.924736 0.268145 0.422294
O O5 0.465747 0.246339 0.758883
O O6 0.358640 0.185906 0.859308
O O7 0.424919 0.000000 0.893109
O O8 0.390765 0.248200 0.030265
O O9 0.721614 0.500000 0.333266
O O10 0.692382 0.744359 0.261638
O O11 0.788422 0.740310 0.261835
O O12 0.991420 0.500000 0.384818
O O13 0.000000 0.741549 0.500000
O O14 0.782110 0.500000 0.867842
O O15 0.750000 0.250000 0.000000
O O16 0.152256 0.500000 0.837695
#
# Coordination Sequence:
#
# PCOD8097611 Si02
#       6
#     8   8   8   8   8   8
#     4  10  20  34  54  79 104 138 184 224 265 319
#     4   9  17  31  52  78 110 139 167 219 274 311
#     4  11  21  35  53  76 110 145 179 221 268 316
#     4   9  17  30  50  78 107 135 174 222 270 318
#     4  11  20  33  55  81 110 140 174 217 266 317
#     4   9  18  32  50  77 109 138 177 224 268 316
#
# _framework density 19.777051
#
# number of rings (size 3 to 8) (size 9 to 14) (size 15 to 20)
#    0.000    2.167    1.667    2.500    0.000    3.333 
#    0.000    4.167    0.000    5.500    0.000    1.167 
#    0.000    0.000    0.000    0.000    0.000    0.000 
#
# Total GULP energy -297536.674024 kJ/mol
# GULP energy per Si atom -12397.361418 kJ/mol
# Density = 1.973204 g / cm^3
# Si number density = 19.777051 Si / 1000 Ang^3
#
#
#
# Elastic Constant Matrix: (Units=GPa)
#
#
# Indices 1 2 3 4 5 6 
#
# 1 100.1020 18.2941 68.6237 0.0000 4.5770 0.0000
# 2 18.2941 39.5686 19.9250 0.0000 -0.1147 0.0000
# 3 68.6237 19.9250 162.6121 0.0000 -3.4270 0.0000
# 4 0.0000 0.0000 0.0000 23.6173 0.0000 0.0957
# 5 4.5770 -0.1147 -3.4270 0.0000 39.0523 0.0000
# 6 0.0000 0.0000 0.0000 0.0957 0.0000 17.0340
#
#
#
# Elastic Compliance Matrix: (Units=1/GPa)
#
#
# Indices 1 2 3 4 5 6 
#
# 1 0.014792 -0.003920 -0.005810 0.000000 -0.002255 0.000000
# 2 -0.003920 0.027975 -0.001765 0.000000 0.000387 0.000000
# 3 -0.005810 -0.001765 0.008848 0.000000 0.001452 0.000000
# 4 0.000000 0.000000 0.000000 0.042343 0.000000 -0.000238
# 5 -0.002255 0.000387 0.001452 0.000000 0.026000 0.000000
# 6 0.000000 0.000000 0.000000 -0.000238 0.000000 0.058708
#
#
# Mechanical properties :
#
#
# Convention : Reuss Voigt Hill
#
# Bulk Modulus (GPa) = 34.93408 57.32983 46.13196
# Shear Modulus (GPa) = 23.67459 28.97003 26.32231
#
# Velocity S-wave (km/s) = 3.46363 3.83146 3.65218
# Velocity P-wave (km/s) = 5.80499 6.97312 6.41570
#
# Compressibility (1/GPa) = 0.02862534
#
# Stress axis : x y z
#
# Youngs Moduli (GPa) = 67.60416 35.74613 113.01728
#
# Poissons Ratio (x) = 0.14013 0.65658
# Poissons Ratio (y) = 0.26501 0.19952
# Poissons Ratio (z) = 0.39275 0.06311
#
# Static dielectric constant tensor:
#      x y z
#    x 3.157500 0.000000 0.003820 
#    y 0.000000 3.721670 0.000000 
#    z 0.003820 0.000000 3.902500 
# 
# 
# High freq. dielectric constant tensor:
#      x y z
#    x 1.772110 0.000000 0.004120 
#    y 0.000000 1.709800 0.000000 
#    z 0.004120 0.000000 1.793370 
# 
# From -- ./inp_files/172099.got.cif
#   From: 2010.06.25/outbox.cif.g09.slc.cpg/sg12_87_cif.got.tgz:172099.got - 2010.06.28 00:19:55.
