data_PCOD8097927
_publ_section_title
;
Structure prediction by ZEFSAII (Michael W. Deem and Ramdas Pophale) SiO2 
 PCOD8097927
Probable space group: C 2/M
;
_chemical_formula_sum "Si O2"
_cell_formula_units_Z 64
_cell_length_a 18.014009
_cell_length_b 9.341286
_cell_length_c 30.564388
_cell_angle_alpha 90.000000
_cell_angle_beta 138.284321
_cell_angle_gamma 90.000000
_cell_volume 3422.458244
_symmetry_space_group_name_H-M "C 2/M"
_symmetry_group_IT_number 12
_symmetry_cell_setting 'monoclinic'
loop_
_space_group_symop_operation_xyz
x,y,z
-x,y,-z
-x,-y,-z
x,-y,z
1/2+x,1/2+y,z
1/2-x,1/2+y,-z
1/2-x,1/2-y,-z
1/2+x,1/2-y,z
loop_
_atom_site_type_symbol
_atom_site_label
_atom_site_fract_x
_atom_site_fract_y
_atom_site_fract_z
Si Si1 0.144335 0.166036 0.183600
Si Si2 0.171311 0.665505 0.806043
Si Si3 0.052234 0.831873 0.309446
Si Si4 0.256340 0.334990 0.938210
Si Si5 0.732399 0.333112 0.317462
Si Si6 0.137651 0.832576 0.441288
Si Si7 0.577954 0.832905 0.932251
Si Si8 0.456908 0.332434 0.434005
O O1 0.248842 0.203583 0.199057
O O2 0.176293 0.206492 0.246892
O O3 0.042239 0.262591 0.123982
O O4 0.110346 0.000000 0.164268
O O5 0.136562 0.500000 0.790517
O O6 0.233884 0.705498 0.878304
O O7 0.060674 0.756923 0.754047
O O8 0.148989 0.784556 0.318886
O O9 0.087604 0.781601 0.373180
O O10 0.030580 0.000000 0.297766
O O11 0.292340 0.500000 0.959499
O O12 0.145055 0.302856 0.917087
O O13 0.357504 0.236392 0.998559
O O14 0.761050 0.500000 0.332943
O O15 0.845538 0.247767 0.372214
O O16 0.250000 0.750000 0.500000
O O17 0.050227 0.791231 0.440049
O O18 0.165005 0.000000 0.452840
O O19 0.563600 0.000000 0.935265
O O20 0.500000 0.279943 0.500000
O O21 0.430507 0.500000 0.422539
#
# Coordination Sequence:
#
# PCOD8097927 Si02
#       8
#     8   8   8   8   8   8   8   8
#     4  10  21  36  53  76 107 138 170 212 259 307
#     4  10  21  36  55  78 103 137 177 211 253 310
#     4  10  21  36  54  78 107 136 170 216 264 306
#     4   9  19  36  55  76 104 136 172 214 256 302
#     4  10  21  36  55  79 105 137 175 212 258 312
#     4  10  21  36  54  78 107 139 175 214 259 308
#     4  10  20  34  55  80 103 134 175 213 255 307
#     4  10  21  36  54  78 107 138 174 216 260 305
#
# _framework density 18.700009999999999
#
# number of rings (size 3 to 8) (size 9 to 14) (size 15 to 20)
#    0.000    2.125    0.000    2.625    0.000    4.250 
#    0.000    2.500    0.000    0.000    0.000    0.000 
#    0.000    0.000    0.000    0.000    0.000    0.000 
#
# Total GULP energy -396973.263161 kJ/mol
# GULP energy per Si atom -12405.414474 kJ/mol
# Density = 1.865745 g / cm^3
# Si number density = 18.700010 Si / 1000 Ang^3
#
#
#
# Elastic Constant Matrix: (Units=GPa)
#
#
# Indices 1 2 3 4 5 6 
#
# 1 121.6684 47.9789 68.7923 0.0000 -7.8965 0.0000
# 2 47.9789 69.1814 64.0301 0.0000 13.8551 0.0000
# 3 68.7923 64.0301 117.6164 0.0000 7.7032 0.0000
# 4 0.0000 0.0000 0.0000 41.2468 0.0000 11.8662
# 5 -7.8965 13.8551 7.7032 0.0000 38.9297 0.0000
# 6 0.0000 0.0000 0.0000 11.8662 0.0000 22.9997
#
#
#
# Elastic Compliance Matrix: (Units=1/GPa)
#
#
# Indices 1 2 3 4 5 6 
#
# 1 0.013968 -0.005977 -0.005310 0.000000 0.006011 0.000000
# 2 -0.005977 0.033911 -0.014281 0.000000 -0.010456 0.000000
# 3 -0.005310 -0.014281 0.019371 0.000000 0.000172 0.000000
# 4 0.000000 0.000000 0.000000 0.028470 0.000000 -0.014688
# 5 0.006011 -0.010456 0.000172 0.000000 0.030594 0.000000
# 6 0.000000 0.000000 0.000000 -0.014688 0.000000 0.051057
#
#
# Mechanical properties :
#
#
# Convention : Reuss Voigt Hill
#
# Bulk Modulus (GPa) = 62.05069 74.45209 68.25139
# Shear Modulus (GPa) = 21.37876 29.14623 25.26250
#
# Velocity S-wave (km/s) = 3.38486 3.95222 3.67949
# Velocity P-wave (km/s) = 6.96639 7.79276 7.39113
#
# Compressibility (1/GPa) = 0.01611586
#
# Stress axis : x y z
#
# Youngs Moduli (GPa) = 71.59061 29.48901 51.62378
#
# Poissons Ratio (x) = 0.17625 0.27412
# Poissons Ratio (y) = 0.42788 0.73722
# Poissons Ratio (z) = 0.38014 0.42112
#
# Static dielectric constant tensor:
#      x y z
#    x 3.864260 0.000000 -0.441990 
#    y 0.000000 3.440540 0.000000 
#    z -0.441990 0.000000 3.656950 
# 
# 
# High freq. dielectric constant tensor:
#      x y z
#    x 1.738340 0.000000 -0.005840 
#    y 0.000000 1.721510 0.000000 
#    z -0.005840 0.000000 1.736950 
# 
# From -- ./inp_files/378465.got.cif
#   From: 2010.06.25/outbox.cif.g09.slc.cpg/sg12_190_cif.got.tgz:378465.got - 2010.06.28 00:19:55.
