data_PCOD8097023
_publ_section_title
;
Structure prediction by ZEFSAII (Michael W. Deem and Ramdas Pophale) SiO2 
 PCOD8097023
Probable space group: C 2/M
;
_chemical_formula_sum "Si O2"
_cell_formula_units_Z 64
_cell_length_a 14.138275
_cell_length_b 9.288346
_cell_length_c 26.920619
_cell_angle_alpha 90.000000
_cell_angle_beta 76.265489
_cell_angle_gamma 90.000000
_cell_volume 3434.161872
_symmetry_space_group_name_H-M "C 2/M"
_symmetry_group_IT_number 12
_symmetry_cell_setting 'monoclinic'
loop_
_space_group_symop_operation_xyz
x,y,z
-x,y,-z
-x,-y,-z
x,-y,z
1/2+x,1/2+y,z
1/2-x,1/2+y,-z
1/2-x,1/2-y,-z
1/2+x,1/2-y,z
loop_
_atom_site_type_symbol
_atom_site_label
_atom_site_fract_x
_atom_site_fract_y
_atom_site_fract_z
Si Si1 0.638637 0.168081 0.894747
Si Si2 0.546499 0.332067 0.442976
Si Si3 0.398441 0.167328 0.710806
Si Si4 0.114923 0.163007 0.993316
Si Si5 0.785849 0.331988 0.626005
Si Si6 0.934253 0.167972 0.357964
Si Si7 0.086221 0.335488 0.090360
Si Si8 0.800108 0.332303 0.824920
O O1 0.665983 0.249453 0.942550
O O2 0.528037 0.197254 0.893344
O O3 0.703517 0.236695 0.843064
O O4 0.661401 0.000000 0.898312
O O5 0.500000 0.277077 0.500000
O O6 0.571111 0.500000 0.442249
O O7 0.647658 0.249692 0.422194
O O8 0.470110 0.296069 0.408974
O O9 0.321529 0.203515 0.677104
O O10 0.498910 0.251764 0.690475
O O11 0.351794 0.218388 0.768154
O O12 0.424775 0.000000 0.708741
O O13 0.154959 0.000000 0.988043
O O14 0.140418 0.237787 0.042528
O O15 0.000000 0.167266 0.000000
O O16 0.792879 0.500000 0.612940
O O17 0.675775 0.275697 0.634063
O O18 0.941024 0.000000 0.345133
O O19 0.105273 0.500000 0.072582
O O20 0.126759 0.298711 0.139296
O O21 0.770803 0.500000 0.826290
#
# Coordination Sequence:
#
# PCOD8097023 Si02
#       8
#     8   8   8   8   8   8   8   8
#     4  10  20  34  52  74  99 127 160 198 241 291
#     4   9  18  32  49  73 106 138 168 205 246 289
#     4   9  19  35  52  71  97 128 164 206 248 292
#     4   9  17  31  52  75  98 126 160 197 238 288
#     4   9  18  33  52  74 100 132 169 206 247 293
#     4   9  18  33  52  73  99 132 168 206 248 292
#     4   9  19  35  52  71  98 129 159 195 241 292
#     4  10  21  36  52  72  99 129 161 200 247 295
#
# _framework density 18.636279999999999
#
# number of rings (size 3 to 8) (size 9 to 14) (size 15 to 20)
#    0.000    2.750    0.000    0.750    0.000    5.750 
#    0.000    0.000    0.000    0.000    0.000    0.000 
#    0.000    0.000    0.000    0.000    0.000    0.000 
#
# Total GULP energy -396900.923681 kJ/mol
# GULP energy per Si atom -12403.153865 kJ/mol
# Density = 1.859386 g / cm^3
# Si number density = 18.636280 Si / 1000 Ang^3
#
#
#
# Elastic Constant Matrix: (Units=GPa)
#
#
# Indices 1 2 3 4 5 6 
#
# 1 93.0683 34.7313 44.0388 0.0000 -17.6491 0.0000
# 2 34.7313 67.8244 49.1381 0.0000 -12.6388 0.0000
# 3 44.0388 49.1381 142.1226 0.0000 -20.9307 0.0000
# 4 0.0000 0.0000 0.0000 33.1756 0.0000 -8.2527
# 5 -17.6491 -12.6388 -20.9307 0.0000 24.4829 0.0000
# 6 0.0000 0.0000 0.0000 -8.2527 0.0000 25.0683
#
#
#
# Elastic Compliance Matrix: (Units=1/GPa)
#
#
# Indices 1 2 3 4 5 6 
#
# 1 0.014712 -0.004963 -0.001897 0.000000 0.006422 0.000000
# 2 -0.004963 0.021888 -0.005597 0.000000 0.002936 0.000000
# 3 -0.001897 -0.005597 0.010219 0.000000 0.004479 0.000000
# 4 0.000000 0.000000 0.000000 0.032831 0.000000 0.010808
# 5 0.006422 0.002936 0.004479 0.000000 0.050819 0.000000
# 6 0.000000 0.000000 0.000000 0.010808 0.000000 0.043449
#
#
# Mechanical properties :
#
#
# Convention : Reuss Voigt Hill
#
# Bulk Modulus (GPa) = 45.65276 62.09242 53.87259
# Shear Modulus (GPa) = 24.25601 28.21919 26.23760
#
# Velocity S-wave (km/s) = 3.61161 3.89550 3.75624
# Velocity P-wave (km/s) = 6.47623 7.32282 6.91249
#
# Compressibility (1/GPa) = 0.02190448
#
# Stress axis : x y z
#
# Youngs Moduli (GPa) = 67.97022 45.68798 97.85717
#
# Poissons Ratio (x) = 0.22673 0.18566
# Poissons Ratio (y) = 0.33731 0.54774
# Poissons Ratio (z) = 0.12896 0.25573
#
# Static dielectric constant tensor:
#      x y z
#    x 3.418720 0.000000 -0.043000 
#    y 0.000000 3.397920 0.000000 
#    z -0.043000 0.000000 3.460760 
# 
# 
# High freq. dielectric constant tensor:
#      x y z
#    x 1.724290 0.000000 -0.004960 
#    y 0.000000 1.719590 0.000000 
#    z -0.004960 0.000000 1.720510 
# 
# From -- ./inp_files/359754.got.cif
#   From: 2010.06.25/outbox.cif.g09.slc.cpg/sg12_180_cif.got.tgz:359754.got - 2010.06.28 00:19:55.
