data_PCOD8097975
_publ_section_title
;
Structure prediction by ZEFSAII (Michael W. Deem and Ramdas Pophale) SiO2 
 PCOD8097975
Probable space group: C 2/M
;
_chemical_formula_sum "Si O2"
_cell_formula_units_Z 64
_cell_length_a 24.326286
_cell_length_b 9.239246
_cell_length_c 15.009649
_cell_angle_alpha 90.000000
_cell_angle_beta 87.757437
_cell_angle_gamma 90.000000
_cell_volume 3370.933089
_symmetry_space_group_name_H-M "C 2/M"
_symmetry_group_IT_number 12
_symmetry_cell_setting 'monoclinic'
loop_
_space_group_symop_operation_xyz
x,y,z
-x,y,-z
-x,-y,-z
x,-y,z
1/2+x,1/2+y,z
1/2-x,1/2+y,-z
1/2-x,1/2-y,-z
1/2+x,1/2-y,z
loop_
_atom_site_type_symbol
_atom_site_label
_atom_site_fract_x
_atom_site_fract_y
_atom_site_fract_z
Si Si1 0.522142 0.171166 0.902364
Si Si2 0.337481 0.830355 0.508212
Si Si3 0.762018 0.169817 0.171685
Si Si4 0.446668 0.668676 0.560875
Si Si5 0.843265 0.836675 0.873702
Si Si6 0.627834 0.667353 0.930960
Si Si7 0.268760 0.668890 0.372171
Si Si8 0.450207 0.334152 0.765578
O O1 0.582486 0.236658 0.884762
O O2 0.484951 0.228179 0.824794
O O3 0.524815 0.000000 0.895531
O O4 0.500000 0.222522 0.000000
O O5 0.395204 0.761675 0.531826
O O6 0.315941 0.758565 0.418880
O O7 0.292187 0.799117 0.586951
O O8 0.346092 0.000000 0.491867
O O9 0.707902 0.232470 0.130814
O O10 0.813472 0.218899 0.109543
O O11 0.769806 0.226093 0.271427
O O12 0.754091 0.000000 0.172469
O O13 0.500000 0.711089 0.500000
O O14 0.431742 0.500000 0.550810
O O15 0.460347 0.706183 0.662338
O O16 0.885702 0.810800 0.790498
O O17 0.820623 0.000000 0.875330
O O18 0.874962 0.803769 0.963511
O O19 0.616855 0.500000 0.908249
O O20 0.283594 0.500000 0.379780
O O21 0.467232 0.500000 0.784709
#
# Coordination Sequence:
#
# PCOD8097975 Si02
#       8
#     8   8   8   8   8   8   8   8
#     4  11  23  38  58  84 111 143 186 236 282 322
#     4  10  20  35  58  83 108 143 184 228 278 323
#     4  10  21  35  54  81 112 146 181 221 275 330
#     4  10  22  39  58  82 113 149 187 228 278 335
#     4  10  20  34  55  81 109 143 183 226 272 325
#     4  10  21  37  56  79 110 148 184 222 272 331
#     4   9  19  36  56  80 110 144 182 224 272 332
#     4  10  21  38  61  84 109 148 190 228 276 333
#
# _framework density 18.985841000000001
#
# number of rings (size 3 to 8) (size 9 to 14) (size 15 to 20)
#    0.000    2.000    1.250    1.875    0.000    4.750 
#    0.000    5.000    0.000    0.000    0.000    0.000 
#    0.000    0.000    0.000    0.000    0.000    0.000 
#
# Total GULP energy -396929.352421 kJ/mol
# GULP energy per Si atom -12404.042263 kJ/mol
# Density = 1.894263 g / cm^3
# Si number density = 18.985841 Si / 1000 Ang^3
#
#
#
# Elastic Constant Matrix: (Units=GPa)
#
#
# Indices 1 2 3 4 5 6 
#
# 1 115.9715 59.3165 55.9905 0.0000 8.5935 0.0000
# 2 59.3165 68.1442 35.3386 0.0000 10.3068 0.0000
# 3 55.9905 35.3386 83.7572 0.0000 -6.1831 0.0000
# 4 0.0000 0.0000 0.0000 23.9179 0.0000 6.3744
# 5 8.5935 10.3068 -6.1831 0.0000 28.2144 0.0000
# 6 0.0000 0.0000 0.0000 6.3744 0.0000 39.8328
#
#
#
# Elastic Compliance Matrix: (Units=1/GPa)
#
#
# Indices 1 2 3 4 5 6 
#
# 1 0.018539 -0.011688 -0.007688 0.000000 -0.003062 0.000000
# 2 -0.011688 0.028543 -0.004815 0.000000 -0.007922 0.000000
# 3 -0.007688 -0.004815 0.019732 0.000000 0.008425 0.000000
# 4 0.000000 0.000000 0.000000 0.043672 0.000000 -0.006989
# 5 -0.003062 -0.007922 0.008425 0.000000 0.041116 0.000000
# 6 0.000000 0.000000 0.000000 -0.006989 0.000000 0.026223
#
#
# Mechanical properties :
#
#
# Convention : Reuss Voigt Hill
#
# Bulk Modulus (GPa) = 54.24830 63.24044 58.74437
# Shear Modulus (GPa) = 21.51906 26.20819 23.86362
#
# Velocity S-wave (km/s) = 3.37029 3.71941 3.54915
# Velocity P-wave (km/s) = 6.61666 7.19909 6.91401
#
# Compressibility (1/GPa) = 0.01843376
#
# Stress axis : x y z
#
# Youngs Moduli (GPa) = 53.93899 35.03436 50.67892
#
# Poissons Ratio (x) = 0.40947 0.38963
# Poissons Ratio (y) = 0.63042 0.24401
# Poissons Ratio (z) = 0.41469 0.16868
#
# Static dielectric constant tensor:
#      x y z
#    x 3.380950 0.000000 -0.132200 
#    y 0.000000 3.395750 0.000000 
#    z -0.132200 0.000000 3.627150 
# 
# 
# High freq. dielectric constant tensor:
#      x y z
#    x 1.740460 0.000000 -0.001010 
#    y 0.000000 1.732840 0.000000 
#    z -0.001010 0.000000 1.743610 
# 
# From -- ./inp_files/238577.got.cif
#   From: 2010.06.25/outbox.cif.g09.slc.cpg/sg12_120_cif.got.tgz:238577.got - 2010.06.28 00:19:55.
