data_PCOD8097393
_publ_section_title
;
Structure prediction by ZEFSAII (Michael W. Deem and Ramdas Pophale) SiO2 
 PCOD8097393
Probable space group: C 2/M
;
_chemical_formula_sum "Si O2"
_cell_formula_units_Z 64
_cell_length_a 34.206860
_cell_length_b 8.885355
_cell_length_c 18.223466
_cell_angle_alpha 90.000000
_cell_angle_beta 142.002744
_cell_angle_gamma 90.000000
_cell_volume 3409.842588
_symmetry_space_group_name_H-M "C 2/M"
_symmetry_group_IT_number 12
_symmetry_cell_setting 'monoclinic'
loop_
_space_group_symop_operation_xyz
x,y,z
-x,y,-z
-x,-y,-z
x,-y,z
1/2+x,1/2+y,z
1/2-x,1/2+y,-z
1/2-x,1/2-y,-z
1/2+x,1/2-y,z
loop_
_atom_site_type_symbol
_atom_site_label
_atom_site_fract_x
_atom_site_fract_y
_atom_site_fract_z
Si Si1 0.898736 0.677705 0.865223
Si Si2 0.206643 0.823506 0.059736
Si Si3 0.279313 0.675420 0.750893
Si Si4 0.163146 0.822788 0.763500
Si Si5 0.149933 0.823683 0.576176
Si Si6 0.487899 0.822369 0.868022
Si Si7 0.467503 0.825543 0.674616
Si Si8 0.396827 0.174355 0.191280
O O1 0.888914 0.500000 0.858014
O O2 0.831347 0.758082 0.772896
O O3 0.927225 0.721499 0.827869
O O4 0.947217 0.739412 0.999348
O O5 0.200483 0.784884 0.136337
O O6 0.266495 0.736444 0.113772
O O7 0.215849 0.000000 0.059279
O O8 0.143404 0.766124 0.927570
O O9 0.273680 0.500000 0.728899
O O10 0.211447 0.746932 0.631360
O O11 0.143894 0.778408 0.652577
O O12 0.113518 0.739987 0.742949
O O13 0.160765 0.000000 0.774234
O O14 0.087886 0.769838 0.443074
O O15 0.158053 0.000000 0.578981
O O16 0.479516 0.758501 0.773811
O O17 0.495028 0.000000 0.875830
O O18 0.529629 0.802717 0.717701
O O19 0.447385 0.000000 0.648442
O O20 0.377223 0.000000 0.158752
#
# Coordination Sequence:
#
# PCOD8097393 Si02
#       8
#     8   8   8   8   8   8   8   8
#     4   9  16  31  57  84 110 139 173 209 249 308
#     4  10  20  34  53  78 109 140 171 212 261 311
#     4  10  20  34  54  80 108 138 173 215 263 310
#     4  10  21  37  55  75 103 137 174 218 264 310
#     4  10  22  39  57  75  98 136 182 222 260 305
#     4   8  16  32  55  82 110 141 172 207 255 307
#     4  10  21  37  55  76 105 139 175 216 261 307
#     4  11  22  34  53  80 107 137 173 213 261 316
#
# _framework density 18.769193999999999
#
# number of rings (size 3 to 8) (size 9 to 14) (size 15 to 20)
#    0.000    2.250    0.000    3.750    0.000    5.500 
#    0.000    5.625    0.000    0.000    0.000    0.000 
#    0.000    0.000    0.000    0.000    0.000    0.000 
#
# Total GULP energy -396889.422414 kJ/mol
# GULP energy per Si atom -12402.794450 kJ/mol
# Density = 1.872647 g / cm^3
# Si number density = 18.769194 Si / 1000 Ang^3
#
#
#
# Elastic Constant Matrix: (Units=GPa)
#
#
# Indices 1 2 3 4 5 6 
#
# 1 108.1053 42.0919 36.2475 0.0000 19.3978 0.0000
# 2 42.0919 57.8436 27.0556 0.0000 6.5638 0.0000
# 3 36.2475 27.0556 81.8181 0.0000 11.6117 0.0000
# 4 0.0000 0.0000 0.0000 33.1922 0.0000 4.6192
# 5 19.3978 6.5638 11.6117 0.0000 21.1653 0.0000
# 6 0.0000 0.0000 0.0000 4.6192 0.0000 28.4989
#
#
#
# Elastic Compliance Matrix: (Units=1/GPa)
#
#
# Indices 1 2 3 4 5 6 
#
# 1 0.015304 -0.008869 -0.002437 0.000000 -0.009938 0.000000
# 2 -0.008869 0.025751 -0.004995 0.000000 0.002883 0.000000
# 3 -0.002437 -0.004995 0.015634 0.000000 -0.004795 0.000000
# 4 0.000000 0.000000 0.000000 0.030823 0.000000 -0.004996
# 5 -0.009938 0.002883 -0.004795 0.000000 0.058092 0.000000
# 6 0.000000 0.000000 0.000000 -0.004996 0.000000 0.035899
#
#
# Mechanical properties :
#
#
# Convention : Reuss Voigt Hill
#
# Bulk Modulus (GPa) = 41.51598 50.95078 46.23338
# Shear Modulus (GPa) = 22.50900 26.06274 24.28587
#
# Velocity S-wave (km/s) = 3.46678 3.73042 3.60101
# Velocity P-wave (km/s) = 6.17997 6.76459 6.47887
#
# Compressibility (1/GPa) = 0.02408711
#
# Stress axis : x y z
#
# Youngs Moduli (GPa) = 65.34364 38.83338 63.96263
#
# Poissons Ratio (x) = 0.34440 0.15586
# Poissons Ratio (y) = 0.57952 0.31952
# Poissons Ratio (z) = 0.15923 0.19399
#
# Static dielectric constant tensor:
#      x y z
#    x 3.605800 0.000000 -0.077520 
#    y 0.000000 3.334870 0.000000 
#    z -0.077520 0.000000 3.381920 
# 
# 
# High freq. dielectric constant tensor:
#      x y z
#    x 1.735290 0.000000 0.005250 
#    y 0.000000 1.722920 0.000000 
#    z 0.005250 0.000000 1.718670 
# 
# From -- ./inp_files/295760.got.cif
#   From: 2010.06.25/outbox.cif.g09.slc.cpg/sg12_148_cif.got.tgz:295760.got - 2010.06.28 00:19:55.
