data_PCOD8097126
_publ_section_title
;
Structure prediction by ZEFSAII (Michael W. Deem and Ramdas Pophale) SiO2 
 PCOD8097126
Probable space group: C 2/M
;
_chemical_formula_sum "Si O2"
_cell_formula_units_Z 56
_cell_length_a 19.460890
_cell_length_b 9.387236
_cell_length_c 20.907680
_cell_angle_alpha 90.000000
_cell_angle_beta 125.582766
_cell_angle_gamma 90.000000
_cell_volume 3106.305313
_symmetry_space_group_name_H-M "C 2/M"
_symmetry_group_IT_number 12
_symmetry_cell_setting 'monoclinic'
loop_
_space_group_symop_operation_xyz
x,y,z
-x,y,-z
-x,-y,-z
x,-y,z
1/2+x,1/2+y,z
1/2-x,1/2+y,-z
1/2-x,1/2-y,-z
1/2+x,1/2-y,z
loop_
_atom_site_type_symbol
_atom_site_label
_atom_site_fract_x
_atom_site_fract_y
_atom_site_fract_z
Si Si1 0.478299 0.834529 0.189849
Si Si2 0.248918 0.833072 0.627574
Si Si3 0.165153 0.162970 0.952250
Si Si4 0.417126 0.168344 0.494713
Si Si5 0.092858 0.838955 0.053409
Si Si6 0.593112 0.168419 0.365498
Si Si7 0.860642 0.338723 0.808113
O O1 0.398135 0.736704 0.131957
O O2 0.517646 0.779209 0.278388
O O3 0.547567 0.812322 0.172446
O O4 0.450444 0.000000 0.178688
O O5 0.162974 0.745490 0.578730
O O6 0.315015 0.776740 0.609195
O O7 0.288324 0.801143 0.718126
O O8 0.229599 0.000000 0.607810
O O9 0.179919 0.000000 0.938356
O O10 0.250000 0.250000 0.000000
O O11 0.131410 0.169888 0.005056
O O12 0.500000 0.213957 0.500000
O O13 0.426490 0.219541 0.573324
O O14 0.402343 0.000000 0.482868
O O15 0.151587 0.756760 0.135741
O O16 0.085741 0.000000 0.074744
O O17 0.000000 0.768479 0.000000
O O18 0.596332 0.000000 0.360640
O O19 0.851211 0.500000 0.825672
#
# Coordination Sequence:
#
# PCOD8097126 Si02
#       7
#     8   8   8   8   8   8   8
#     4   9  17  33  56  78 103 138 178 218 262 310
#     4   9  18  34  55  78 104 135 174 217 257 301
#     4  11  23  38  54  76 108 142 177 218 261 311
#     4  10  20  34  52  77 108 140 172 209 258 314
#     4  10  20  35  55  79 107 137 172 219 267 307
#     4   8  16  33  56  78 102 135 175 215 256 308
#     4   9  18  32  54  82 106 134 174 220 264 310
#
# _framework density 18.027847999999999
#
# number of rings (size 3 to 8) (size 9 to 14) (size 15 to 20)
#    0.000    2.571    1.429    2.571    0.000    2.286 
#    2.571    2.857    0.000    0.000    0.000    0.000 
#    0.000    0.000    0.000    0.000    0.000    0.000 
#
# Total GULP energy -347153.228005 kJ/mol
# GULP energy per Si atom -12398.329572 kJ/mol
# Density = 1.798682 g / cm^3
# Si number density = 18.027848 Si / 1000 Ang^3
#
#
#
# Elastic Constant Matrix: (Units=GPa)
#
#
# Indices 1 2 3 4 5 6 
#
# 1 91.7448 43.7325 60.8494 0.0000 15.7646 0.0000
# 2 43.7325 73.7911 60.8491 0.0000 12.7110 0.0000
# 3 60.8494 60.8491 129.9872 0.0000 14.5538 0.0000
# 4 0.0000 0.0000 0.0000 31.6201 0.0000 6.1711
# 5 15.7646 12.7110 14.5538 0.0000 30.0945 0.0000
# 6 0.0000 0.0000 0.0000 6.1711 0.0000 23.8640
#
#
#
# Elastic Compliance Matrix: (Units=1/GPa)
#
#
# Indices 1 2 3 4 5 6 
#
# 1 0.017738 -0.005389 -0.005281 0.000000 -0.004462 0.000000
# 2 -0.005389 0.024321 -0.008488 0.000000 -0.003345 0.000000
# 3 -0.005281 -0.008488 0.014196 0.000000 -0.000514 0.000000
# 4 0.000000 0.000000 0.000000 0.033306 0.000000 -0.008613
# 5 -0.004462 -0.003345 -0.000514 0.000000 0.037227 0.000000
# 6 0.000000 0.000000 0.000000 -0.008613 0.000000 0.044131
#
#
# Mechanical properties :
#
#
# Convention : Reuss Voigt Hill
#
# Bulk Modulus (GPa) = 55.74475 69.59835 62.67155
# Shear Modulus (GPa) = 23.23251 25.78852 24.51052
#
# Velocity S-wave (km/s) = 3.59374 3.78628 3.69126
# Velocity P-wave (km/s) = 6.94324 7.60292 7.28055
#
# Compressibility (1/GPa) = 0.01793891
#
# Stress axis : x y z
#
# Youngs Moduli (GPa) = 56.37603 41.11695 70.44143
#
# Poissons Ratio (x) = 0.22157 0.37203
# Poissons Ratio (y) = 0.30380 0.59790
# Poissons Ratio (z) = 0.29774 0.34900
#
# Static dielectric constant tensor:
#      x y z
#    x 3.207840 0.000000 -0.049100 
#    y 0.000000 3.227190 0.000000 
#    z -0.049100 0.000000 3.452980 
# 
# 
# High freq. dielectric constant tensor:
#      x y z
#    x 1.684540 0.000000 -0.001140 
#    y 0.000000 1.682420 0.000000 
#    z -0.001140 0.000000 1.708710 
# 
# From -- ./inp_files/320255.got.cif
#   From: 2010.06.25/outbox.cif.g09.slc.cpg/sg12_161_cif.got.tgz:320255.got - 2010.06.28 00:19:55.
