data_PCOD8097257
_publ_section_title
;
Structure prediction by ZEFSAII (Michael W. Deem and Ramdas Pophale) SiO2 
 PCOD8097257
Probable space group: C 2/M
;
_chemical_formula_sum "Si O2"
_cell_formula_units_Z 48
_cell_length_a 30.455785
_cell_length_b 9.116377
_cell_length_c 15.189920
_cell_angle_alpha 90.000000
_cell_angle_beta 140.904345
_cell_angle_gamma 90.000000
_cell_volume 2659.580892
_symmetry_space_group_name_H-M "C 2/M"
_symmetry_group_IT_number 12
_symmetry_cell_setting 'monoclinic'
loop_
_space_group_symop_operation_xyz
x,y,z
-x,y,-z
-x,-y,-z
x,-y,z
1/2+x,1/2+y,z
1/2-x,1/2+y,-z
1/2-x,1/2-y,-z
1/2+x,1/2-y,z
loop_
_atom_site_type_symbol
_atom_site_label
_atom_site_fract_x
_atom_site_fract_y
_atom_site_fract_z
Si Si1 0.820165 0.329898 0.083922
Si Si2 0.342251 0.330179 0.580486
Si Si3 0.127909 0.670108 0.030143
Si Si4 0.211879 0.829644 0.311681
Si Si5 0.952899 0.830128 0.345842
Si Si6 0.504256 0.330241 0.233235
O O1 0.813472 0.500000 0.096592
O O2 0.882531 0.263474 0.238722
O O3 0.750000 0.250000 0.000000
O O4 0.834211 0.302563 0.003270
O O5 0.330474 0.500000 0.537908
O O6 0.289222 0.235100 0.440337
O O7 0.331197 0.301573 0.666427
O O8 0.419390 0.277571 0.676016
O O9 0.121759 0.500000 0.043864
O O10 0.172823 0.749129 0.173163
O O11 0.050654 0.737047 0.908277
O O12 0.217933 0.000000 0.298233
O O13 0.995992 0.801054 0.324056
O O14 0.000000 0.776913 0.500000
O O15 0.932169 0.000000 0.323312
O O16 0.492251 0.500000 0.191015
#
# Coordination Sequence:
#
# PCOD8097257 Si02
#       6
#     8   8   8   8   8   8
#     4  10  21  36  54  76 103 135 170 210 254 302
#     4   9  19  35  53  75 104 137 173 213 257 304
#     4  10  21  36  53  75 104 135 169 211 257 304
#     4  10  20  34  53  76 103 136 174 214 255 303
#     4   9  18  33  53  77 104 134 169 208 252 304
#     4   9  18  34  54  74 101 136 171 209 253 303
#
# _framework density 18.047957
#
# number of rings (size 3 to 8) (size 9 to 14) (size 15 to 20)
#    0.000    2.500    0.000    1.500    0.000    5.667 
#    0.000    6.667    0.000    0.000    0.000    0.000 
#    0.000    0.000    0.000    0.000    0.000    0.000 
#
# Total GULP energy -297700.212743 kJ/mol
# GULP energy per Si atom -12404.175531 kJ/mol
# Density = 1.800688 g / cm^3
# Si number density = 18.047957 Si / 1000 Ang^3
#
#
#
# Elastic Constant Matrix: (Units=GPa)
#
#
# Indices 1 2 3 4 5 6 
#
# 1 88.9751 61.4695 76.2615 0.0000 31.8886 0.0000
# 2 61.4695 117.1969 102.4231 0.0000 12.5065 0.0000
# 3 76.2615 102.4231 181.1629 0.0000 10.5545 0.0000
# 4 0.0000 0.0000 0.0000 40.0426 0.0000 3.6807
# 5 31.8886 12.5065 10.5545 0.0000 33.0762 0.0000
# 6 0.0000 0.0000 0.0000 3.6807 0.0000 27.5088
#
#
#
# Elastic Compliance Matrix: (Units=1/GPa)
#
#
# Indices 1 2 3 4 5 6 
#
# 1 0.032436 -0.007176 -0.008084 0.000000 -0.025978 0.000000
# 2 -0.007176 0.018837 -0.007761 0.000000 0.002272 0.000000
# 3 -0.008084 -0.007761 0.012926 0.000000 0.006603 0.000000
# 4 0.000000 0.000000 0.000000 0.025284 0.000000 -0.003383
# 5 -0.025978 0.002272 0.006603 0.000000 0.052313 0.000000
# 6 0.000000 0.000000 0.000000 -0.003383 0.000000 0.036805
#
#
# Mechanical properties :
#
#
# Convention : Reuss Voigt Hill
#
# Bulk Modulus (GPa) = 55.07451 96.40479 75.73965
# Shear Modulus (GPa) = 21.67376 29.93758 25.80567
#
# Velocity S-wave (km/s) = 3.46916 4.07723 3.78542
# Velocity P-wave (km/s) = 6.82852 8.70040 7.82066
#
# Compressibility (1/GPa) = 0.01815722
#
# Stress axis : x y z
#
# Youngs Moduli (GPa) = 30.83030 53.08774 77.36298
#
# Poissons Ratio (x) = 0.38093 0.62538
# Poissons Ratio (y) = 0.22122 0.60045
# Poissons Ratio (z) = 0.24922 0.41204
#
# Static dielectric constant tensor:
#      x y z
#    x 3.352950 0.000000 0.060620 
#    y 0.000000 3.423090 0.000000 
#    z 0.060620 0.000000 3.394490 
# 
# 
# High freq. dielectric constant tensor:
#      x y z
#    x 1.695640 0.000000 0.004570 
#    y 0.000000 1.704830 0.000000 
#    z 0.004570 0.000000 1.705800 
# 
# From -- ./inp_files/229878.got.cif
#   From: 2010.06.25/outbox.cif.g09.slc.cpg/sg12_115_cif.got.tgz:229878.got - 2010.06.28 00:19:55.
