data_PCOD8097632
_publ_section_title
;
Structure prediction by ZEFSAII (Michael W. Deem and Ramdas Pophale) SiO2 
 PCOD8097632
Probable space group: C 2/M
;
_chemical_formula_sum "Si O2"
_cell_formula_units_Z 56
_cell_length_a 18.140464
_cell_length_b 8.797464
_cell_length_c 20.199277
_cell_angle_alpha 90.000000
_cell_angle_beta 63.589227
_cell_angle_gamma 90.000000
_cell_volume 2887.150651
_symmetry_space_group_name_H-M "C 2/M"
_symmetry_group_IT_number 12
_symmetry_cell_setting 'monoclinic'
loop_
_space_group_symop_operation_xyz
x,y,z
-x,y,-z
-x,-y,-z
x,-y,z
1/2+x,1/2+y,z
1/2-x,1/2+y,-z
1/2-x,1/2-y,-z
1/2+x,1/2-y,z
loop_
_atom_site_type_symbol
_atom_site_label
_atom_site_fract_x
_atom_site_fract_y
_atom_site_fract_z
Si Si1 0.283470 0.823068 0.280902
Si Si2 0.957331 0.180532 0.419094
Si Si3 0.941371 0.820160 0.278361
Si Si4 0.581996 0.180373 0.000971
Si Si5 0.594975 0.179294 0.145678
Si Si6 0.744537 0.177001 0.861080
Si Si7 0.123285 0.180651 0.417335
O O1 0.366630 0.735553 0.263677
O O2 0.260028 0.793234 0.214845
O O3 0.209825 0.755519 0.355712
O O4 0.298926 0.000000 0.288386
O O5 0.930971 0.242300 0.357733
O O6 0.891049 0.234451 0.500945
O O7 0.048092 0.242455 0.402211
O O8 0.960832 0.000000 0.417599
O O9 0.026707 0.759811 0.216717
O O10 0.944268 0.000000 0.276382
O O11 0.588076 0.240216 0.073428
O O12 0.577721 0.000000 0.001569
O O13 0.500000 0.249187 0.000000
O O14 0.660624 0.235646 0.928073
O O15 0.683705 0.221315 0.137936
O O16 0.581450 0.000000 0.154468
O O17 0.761154 0.000000 0.869990
O O18 0.125139 0.000000 0.411526
#
# Coordination Sequence:
#
# PCOD8097632 Si02
#       7
#     8   8   8   8   8   8   8
#     4  10  20  34  54  79 106 139 176 214 261 313
#     4   8  15  29  50  75 101 133 173 215 259 307
#     4  11  22  35  52  76 107 141 177 218 264 310
#     4   9  18  34  56  80 107 139 173 210 255 308
#     4  11  22  36  56  80 106 138 177 218 260 308
#     4  10  20  36  58  81 107 139 175 214 258 311
#     4   8  14  28  51  76 101 131 172 216 256 308
#
# _framework density 19.396287000000001
#
# number of rings (size 3 to 8) (size 9 to 14) (size 15 to 20)
#    0.000    2.429    0.000    3.857    0.000    5.714 
#    0.000    0.714    0.000    3.857    0.000    6.000 
#    0.000    0.000    0.000    0.000    0.000    0.000 
#
# Total GULP energy -347184.257648 kJ/mol
# GULP energy per Si atom -12399.437773 kJ/mol
# Density = 1.935214 g / cm^3
# Si number density = 19.396287 Si / 1000 Ang^3
#
#
#
# Elastic Constant Matrix: (Units=GPa)
#
#
# Indices 1 2 3 4 5 6 
#
# 1 127.4228 27.0760 63.5533 -0.0001 -4.6420 -0.0002
# 2 27.0760 33.6763 30.0776 -0.0002 4.7939 -0.0009
# 3 63.5533 30.0776 147.5060 0.0000 -5.3843 -0.0001
# 4 -0.0001 -0.0002 0.0000 19.2703 0.0000 -3.0609
# 5 -4.6420 4.7939 -5.3843 0.0000 29.3318 -0.0001
# 6 -0.0002 -0.0009 -0.0001 -3.0609 -0.0001 26.1924
#
#
#
# Elastic Compliance Matrix: (Units=1/GPa)
#
#
# Indices 1 2 3 4 5 6 
#
# 1 0.010895 -0.006031 -0.003388 0.000000 0.002088 0.000000
# 2 -0.006031 0.041286 -0.006142 0.000001 -0.008830 0.000001
# 3 -0.003388 -0.006142 0.009573 0.000000 0.002225 0.000000
# 4 0.000000 0.000001 0.000000 0.052875 0.000000 0.006179
# 5 0.002088 -0.008830 0.002225 0.000000 0.036275 0.000000
# 6 0.000000 0.000001 0.000000 0.006179 0.000000 0.038901
#
#
# Mechanical properties :
#
#
# Convention : Reuss Voigt Hill
#
# Bulk Modulus (GPa) = 32.64641 61.11321 46.87981
# Shear Modulus (GPa) = 21.63196 27.48545 24.55871
#
# Velocity S-wave (km/s) = 3.34318 3.76845 3.56217
# Velocity P-wave (km/s) = 5.63651 7.10711 6.41410
#
# Compressibility (1/GPa) = 0.03063124
#
# Stress axis : x y z
#
# Youngs Moduli (GPa) = 91.78150 24.22105 104.46069
#
# Poissons Ratio (x) = 0.14608 0.35395
# Poissons Ratio (y) = 0.55353 0.64165
# Poissons Ratio (z) = 0.31099 0.14878
#
# Static dielectric constant tensor:
#      x y z
#    x 3.639060 0.000000 -0.017680 
#    y 0.000000 3.078830 0.000000 
#    z -0.017680 0.000000 3.964290 
# 
# 
# High freq. dielectric constant tensor:
#      x y z
#    x 1.762710 0.000000 -0.002200 
#    y 0.000000 1.707610 0.000000 
#    z -0.002200 0.000000 1.776500 
# 
# From -- ./inp_files/275332.got.cif
#   From: 2010.06.25/outbox.cif.g09.slc.cpg/sg12_138_cif.got.tgz:275332.got - 2010.06.28 00:19:55.
