data_PCOD8097136
_publ_section_title
;
Structure prediction by ZEFSAII (Michael W. Deem and Ramdas Pophale) SiO2 
 PCOD8097136
Probable space group: C 2/M
;
_chemical_formula_sum "Si O2"
_cell_formula_units_Z 64
_cell_length_a 14.533970
_cell_length_b 9.088849
_cell_length_c 30.385938
_cell_angle_alpha 90.000000
_cell_angle_beta 122.313648
_cell_angle_gamma 90.000000
_cell_volume 3392.279585
_symmetry_space_group_name_H-M "C 2/M"
_symmetry_group_IT_number 12
_symmetry_cell_setting 'monoclinic'
loop_
_space_group_symop_operation_xyz
x,y,z
-x,y,-z
-x,-y,-z
x,-y,z
1/2+x,1/2+y,z
1/2-x,1/2+y,-z
1/2-x,1/2-y,-z
1/2+x,1/2-y,z
loop_
_atom_site_type_symbol
_atom_site_label
_atom_site_fract_x
_atom_site_fract_y
_atom_site_fract_z
Si Si1 0.958880 0.171303 0.359662
Si Si2 0.263487 0.672310 0.373468
Si Si3 0.696609 0.326986 0.094344
Si Si4 0.651363 0.169328 0.997307
Si Si5 0.981323 0.672494 0.711519
Si Si6 0.795366 0.172545 0.554377
Si Si7 0.551791 0.168148 0.118186
Si Si8 0.935817 0.673556 0.174868
O O1 0.861567 0.226308 0.366758
O O2 0.952920 0.253356 0.311501
O O3 0.075604 0.205551 0.411309
O O4 0.944247 0.000000 0.346122
O O5 0.276387 0.500000 0.387537
O O6 0.147542 0.707043 0.321298
O O7 0.268846 0.761534 0.420308
O O8 0.689358 0.500000 0.083988
O O9 0.630134 0.243479 0.039124
O O10 0.644200 0.281991 0.127346
O O11 0.819869 0.267944 0.128242
O O12 0.680876 0.000000 0.012360
O O13 0.750000 0.250000 0.000000
O O14 0.549561 0.187618 0.939870
O O15 0.002199 0.500000 0.712957
O O16 0.028745 0.739769 0.769051
O O17 0.750000 0.250000 0.500000
O O18 0.771376 0.000000 0.546301
O O19 0.523846 0.215956 0.160632
O O20 0.593719 0.000000 0.127409
O O21 0.926998 0.500000 0.177549
#
# Coordination Sequence:
#
# PCOD8097136 Si02
#       8
#     8   8   8   8   8   8   8   8
#     4   9  19  35  54  78 108 139 174 222 270 307
#     4   9  18  34  55  78 103 138 181 218 260 313
#     4  11  22  37  55  79 108 140 175 216 262 317
#     4  11  21  36  58  80 105 139 175 214 264 319
#     4   9  18  34  57  78 100 137 179 218 260 315
#     4  10  20  34  52  77 111 145 176 217 263 308
#     4  10  21  38  56  77 106 140 174 216 266 319
#     4   9  19  37  55  75 108 141 170 212 270 317
#
# _framework density 18.86637
#
# number of rings (size 3 to 8) (size 9 to 14) (size 15 to 20)
#    0.000    2.250    1.250    1.500    0.000    5.000 
#    0.000    5.625    0.000    0.000    0.000    0.000 
#    0.000    0.000    0.000    0.000    0.000    0.000 
#
# Total GULP energy -396790.099421 kJ/mol
# GULP energy per Si atom -12399.690607 kJ/mol
# Density = 1.882343 g / cm^3
# Si number density = 18.866370 Si / 1000 Ang^3
#
#
#
# Elastic Constant Matrix: (Units=GPa)
#
#
# Indices 1 2 3 4 5 6 
#
# 1 119.5036 37.0751 39.1158 0.0000 -24.8313 0.0000
# 2 37.0751 62.7688 43.1866 0.0000 -9.9216 0.0000
# 3 39.1158 43.1866 119.0881 0.0000 -29.1719 0.0000
# 4 0.0000 0.0000 0.0000 25.4647 0.0000 -7.4276
# 5 -24.8313 -9.9216 -29.1719 0.0000 24.1794 0.0000
# 6 0.0000 0.0000 0.0000 -7.4276 0.0000 33.8731
#
#
#
# Elastic Compliance Matrix: (Units=1/GPa)
#
#
# Indices 1 2 3 4 5 6 
#
# 1 0.012301 -0.006134 0.000940 0.000000 0.011249 0.000000
# 2 -0.006134 0.024298 -0.008372 0.000000 -0.006430 0.000000
# 3 0.000940 -0.008372 0.014933 0.000000 0.015546 0.000000
# 4 0.000000 0.000000 0.000000 0.041953 0.000000 0.009199
# 5 0.011249 -0.006430 0.015546 0.000000 0.069027 0.000000
# 6 0.000000 0.000000 0.000000 0.009199 0.000000 0.031539
#
#
# Mechanical properties :
#
#
# Convention : Reuss Voigt Hill
#
# Bulk Modulus (GPa) = 40.98452 60.01282 50.49867
# Shear Modulus (GPa) = 21.80388 28.83565 25.31977
#
# Velocity S-wave (km/s) = 3.40325 3.91374 3.66739
# Velocity P-wave (km/s) = 6.10029 7.23198 6.69011
#
# Compressibility (1/GPa) = 0.02439946
#
# Stress axis : x y z
#
# Youngs Moduli (GPa) = 81.29508 41.15488 66.96798
#
# Poissons Ratio (x) = 0.25245 -0.06294
# Poissons Ratio (y) = 0.49867 0.56065
# Poissons Ratio (z) = -0.07640 0.34454
#
# Static dielectric constant tensor:
#      x y z
#    x 3.640770 0.000000 -0.069790 
#    y 0.000000 3.392610 0.000000 
#    z -0.069790 0.000000 3.698310 
# 
# 
# High freq. dielectric constant tensor:
#      x y z
#    x 1.740570 0.000000 -0.009160 
#    y 0.000000 1.720150 0.000000 
#    z -0.009160 0.000000 1.731690 
# 
# From -- ./inp_files/338868.got.cif
#   From: 2010.06.25/outbox.cif.g09.slc.cpg/sg12_170_cif.got.tgz:338868.got - 2010.06.28 00:19:55.
