data_PCOD8097987
_publ_section_title
;
Structure prediction by ZEFSAII (Michael W. Deem and Ramdas Pophale) SiO2 
 PCOD8097987
Probable space group: C 2/M
;
_chemical_formula_sum "Si O2"
_cell_formula_units_Z 48
_cell_length_a 19.823441
_cell_length_b 8.684863
_cell_length_c 14.764319
_cell_angle_alpha 90.000000
_cell_angle_beta 80.252337
_cell_angle_gamma 90.000000
_cell_volume 2505.185045
_symmetry_space_group_name_H-M "C 2/M"
_symmetry_group_IT_number 12
_symmetry_cell_setting 'monoclinic'
loop_
_space_group_symop_operation_xyz
x,y,z
-x,y,-z
-x,-y,-z
x,-y,z
1/2+x,1/2+y,z
1/2-x,1/2+y,-z
1/2-x,1/2-y,-z
1/2+x,1/2-y,z
loop_
_atom_site_type_symbol
_atom_site_label
_atom_site_fract_x
_atom_site_fract_y
_atom_site_fract_z
Si Si1 0.785841 0.682612 0.743413
Si Si2 0.947584 0.316953 0.386322
Si Si3 0.420620 0.178905 0.029153
Si Si4 0.811934 0.819313 0.929941
Si Si5 0.906073 0.317200 0.589936
Si Si6 0.362358 0.182217 0.236355
O O1 0.784601 0.500000 0.749661
O O2 0.813491 0.747456 0.830871
O O3 0.837873 0.743881 0.654376
O O4 0.711282 0.742401 0.735714
O O5 0.947350 0.500000 0.382451
O O6 0.907235 0.259717 0.485444
O O7 0.910438 0.251453 0.305456
O O8 0.025959 0.256702 0.373041
O O9 0.396137 0.231038 0.133919
O O10 0.403918 0.000000 0.015913
O O11 0.500000 0.214151 0.000000
O O12 0.382754 0.280607 0.963001
O O13 0.800999 0.000000 0.924431
O O14 0.750000 0.750000 0.000000
O O15 0.907587 0.500000 0.591330
O O16 0.353980 0.000000 0.244657
#
# Coordination Sequence:
#
# PCOD8097987 Si02
#       6
#     8   8   8   8   8   8
#     4  11  22  35  56  83 113 148 186 230 280 336
#     4   8  15  31  54  81 110 142 185 234 274 322
#     4  10  22  38  58  85 116 150 188 227 276 337
#     4  12  24  40  60  82 112 150 188 233 282 334
#     4   8  16  31  54  82 109 141 186 231 275 325
#     4  10  20  34  55  81 113 148 184 229 278 327
#
# _framework density 19.160261999999999
#
# number of rings (size 3 to 8) (size 9 to 14) (size 15 to 20)
#    0.000    2.167    1.667    3.000    2.333    1.000 
#    0.000    0.000    0.000    1.000    0.000    5.833 
#    0.000    0.000    0.000    0.000    0.000    0.000 
#
# Total GULP energy -297591.608555 kJ/mol
# GULP energy per Si atom -12399.650356 kJ/mol
# Density = 1.911665 g / cm^3
# Si number density = 19.160262 Si / 1000 Ang^3
#
#
#
# Elastic Constant Matrix: (Units=GPa)
#
#
# Indices 1 2 3 4 5 6 
#
# 1 143.7061 24.0197 73.4699 0.0000 -5.5847 0.0000
# 2 24.0197 22.4140 19.1400 0.0000 -1.0905 0.0000
# 3 73.4699 19.1400 106.4626 0.0000 6.9652 0.0000
# 4 0.0000 0.0000 0.0000 11.9500 0.0000 2.9274
# 5 -5.5847 -1.0905 6.9652 0.0000 44.8109 0.0000
# 6 0.0000 0.0000 0.0000 2.9274 0.0000 30.6531
#
#
#
# Elastic Compliance Matrix: (Units=1/GPa)
#
#
# Indices 1 2 3 4 5 6 
#
# 1 0.011767 -0.006407 -0.007127 0.000000 0.002418 0.000000
# 2 -0.006407 0.056541 -0.005841 0.000000 0.001485 0.000000
# 3 -0.007127 -0.005841 0.015587 0.000000 -0.003453 0.000000
# 4 0.000000 0.000000 0.000000 0.085686 0.000000 -0.008183
# 5 0.002418 0.001485 -0.003453 0.000000 0.023190 0.000000
# 6 0.000000 0.000000 0.000000 -0.008183 0.000000 0.033405
#
#
# Mechanical properties :
#
#
# Convention : Reuss Voigt Hill
#
# Bulk Modulus (GPa) = 22.15030 56.20466 39.17748
# Shear Modulus (GPa) = 17.85880 27.87968 22.86924
#
# Velocity S-wave (km/s) = 3.05630 3.81869 3.45857
# Velocity P-wave (km/s) = 4.90309 6.98862 6.03660
#
# Compressibility (1/GPa) = 0.04514611
#
# Stress axis : x y z
#
# Youngs Moduli (GPa) = 84.98262 17.68640 64.15475
#
# Poissons Ratio (x) = 0.11331 0.45723
# Poissons Ratio (y) = 0.54444 0.37473
# Poissons Ratio (z) = 0.60567 0.10331
#
# Static dielectric constant tensor:
#      x y z
#    x 3.680820 0.000000 -0.085050 
#    y 0.000000 3.201440 0.000000 
#    z -0.085050 0.000000 3.586460 
# 
# 
# High freq. dielectric constant tensor:
#      x y z
#    x 1.756420 0.000000 0.000290 
#    y 0.000000 1.709720 0.000000 
#    z 0.000290 0.000000 1.757290 
# 
# From -- ./inp_files/221650.got.cif
#   From: 2010.06.25/outbox.cif.g09.slc.cpg/sg12_111_cif.got.tgz:221650.got - 2010.06.28 00:19:55.
