data_PCOD8097374
_publ_section_title
;
Structure prediction by ZEFSAII (Michael W. Deem and Ramdas Pophale) SiO2 
 PCOD8097374
Probable space group: C 2/M
;
_chemical_formula_sum "Si O2"
_cell_formula_units_Z 56
_cell_length_a 17.049939
_cell_length_b 24.561544
_cell_length_c 8.839046
_cell_angle_alpha 90.000000
_cell_angle_beta 59.494177
_cell_angle_gamma 90.000000
_cell_volume 3189.174436
_symmetry_space_group_name_H-M "C 2/M"
_symmetry_group_IT_number 12
_symmetry_cell_setting 'monoclinic'
loop_
_space_group_symop_operation_xyz
x,y,z
-x,y,-z
-x,-y,-z
x,-y,z
1/2+x,1/2+y,z
1/2-x,1/2+y,-z
1/2-x,1/2-y,-z
1/2+x,1/2-y,z
loop_
_atom_site_type_symbol
_atom_site_label
_atom_site_fract_x
_atom_site_fract_y
_atom_site_fract_z
Si Si1 0.806612 0.200455 0.874265
Si Si2 0.896381 0.500000 0.416492
Si Si3 0.995698 0.662819 0.671689
Si Si4 0.330253 0.889697 0.978595
Si Si5 0.108229 0.500000 0.221568
Si Si6 0.701335 0.698463 0.474487
Si Si7 0.005694 0.789003 0.660639
Si Si8 0.844277 0.607713 0.317905
O O1 0.808051 0.211585 0.693795
O O2 0.910327 0.198920 0.840023
O O3 0.750000 0.250000 0.000000
O O4 0.766598 0.140400 0.948343
O O5 0.890000 0.500000 0.601354
O O6 0.839956 0.550202 0.405025
O O7 0.003641 0.500000 0.262495
O O8 0.897364 0.654296 0.839347
O O9 0.000000 0.635008 0.500000
O O10 0.020856 0.724997 0.631636
O O11 0.064275 0.636217 0.720380
O O12 0.336595 0.947309 0.888648
O O13 0.350969 0.900441 0.132825
O O14 0.750000 0.750000 0.500000
O O15 0.599454 0.689195 0.645900
O O16 0.757378 0.643581 0.451411
O O17 0.000000 0.815807 0.500000
#
# Coordination Sequence:
#
# PCOD8097374 Si02
#       8
#     8   4   8   8   4   8   8   8
#     4  10  20  34  53  78 107 141 176 213 259 309
#     4  11  23  37  55  76 102 141 181 212 262 326
#     4  11  19  30  52  77 108 146 178 206 252 316
#     4  11  22  34  52  79 110 138 174 222 264 303
#     4  11  23  37  55  76 102 141 181 212 262 326
#     4  10  20  34  53  78 107 141 176 213 259 309
#     4   9  18  33  52  75 108 145 176 208 250 311
#     4  11  22  34  52  79 110 138 174 222 264 303
#
# _framework density 17.559403
#
# number of rings (size 3 to 8) (size 9 to 14) (size 15 to 20)
#    0.000    1.571    4.286    1.714    0.000    1.714 
#    0.000    0.714    0.000    0.857    0.000    6.000 
#    0.000    0.000    0.000    0.000    0.000    0.000 
#
# Total GULP energy -347033.876201 kJ/mol
# GULP energy per Si atom -12394.067007 kJ/mol
# Density = 1.751944 g / cm^3
# Si number density = 17.559403 Si / 1000 Ang^3
#
#
#
# Elastic Constant Matrix: (Units=GPa)
#
#
# Indices 1 2 3 4 5 6 
#
# 1 89.6614 45.7448 46.6974 0.0000 -23.3994 0.0000
# 2 45.7448 100.6504 44.4177 0.0000 -8.7535 0.0000
# 3 46.6974 44.4177 78.9233 0.0000 -15.5168 0.0000
# 4 0.0000 0.0000 0.0000 29.5364 0.0000 -1.0330
# 5 -23.3994 -8.7535 -15.5168 0.0000 32.6438 0.0000
# 6 0.0000 0.0000 0.0000 -1.0330 0.0000 29.4981
#
#
#
# Elastic Compliance Matrix: (Units=1/GPa)
#
#
# Indices 1 2 3 4 5 6 
#
# 1 0.019921 -0.005123 -0.007023 0.000000 0.009568 0.000000
# 2 -0.005123 0.014536 -0.005631 0.000000 -0.002451 0.000000
# 3 -0.007023 -0.005631 0.020637 0.000000 0.003265 0.000000
# 4 0.000000 0.000000 0.000000 0.033898 0.000000 0.001187
# 5 0.009568 -0.002451 0.003265 0.000000 0.038387 0.000000
# 6 0.000000 0.000000 0.000000 0.001187 0.000000 0.033942
#
#
# Mechanical properties :
#
#
# Convention : Reuss Voigt Hill
#
# Bulk Modulus (GPa) = 51.17713 60.32832 55.75272
# Shear Modulus (GPa) = 24.58343 27.16066 25.87205
#
# Velocity S-wave (km/s) = 3.74574 3.93719 3.84266
# Velocity P-wave (km/s) = 6.92212 7.42293 7.17690
#
# Compressibility (1/GPa) = 0.01953998
#
# Stress axis : x y z
#
# Youngs Moduli (GPa) = 50.19748 68.79637 48.45602
#
# Poissons Ratio (x) = 0.35242 0.34030
# Poissons Ratio (y) = 0.25715 0.27288
# Poissons Ratio (z) = 0.35253 0.38743
#
# Static dielectric constant tensor:
#      x y z
#    x 3.466690 0.000000 -0.118730 
#    y 0.000000 3.240930 0.000000 
#    z -0.118730 0.000000 3.372530 
# 
# 
# High freq. dielectric constant tensor:
#      x y z
#    x 1.674240 0.000000 -0.002520 
#    y 0.000000 1.667100 0.000000 
#    z -0.002520 0.000000 1.676250 
# 
# From -- ./inp_files/66870.got.cif
#   From: 2010.06.25/outbox.cif.g09.slc.cpg/sg12_34_cif.got.tgz:66870.got - 2010.06.28 00:19:55.
