data_PCOD8097313
_publ_section_title
;
Structure prediction by ZEFSAII (Michael W. Deem and Ramdas Pophale) SiO2 
 PCOD8097313
Probable space group: C 2/M
;
_chemical_formula_sum "Si O2"
_cell_formula_units_Z 64
_cell_length_a 22.449845
_cell_length_b 9.075514
_cell_length_c 17.153484
_cell_angle_alpha 90.000000
_cell_angle_beta 102.287839
_cell_angle_gamma 90.000000
_cell_volume 3414.851556
_symmetry_space_group_name_H-M "C 2/M"
_symmetry_group_IT_number 12
_symmetry_cell_setting 'monoclinic'
loop_
_space_group_symop_operation_xyz
x,y,z
-x,y,-z
-x,-y,-z
x,-y,z
1/2+x,1/2+y,z
1/2-x,1/2+y,-z
1/2-x,1/2-y,-z
1/2+x,1/2-y,z
loop_
_atom_site_type_symbol
_atom_site_label
_atom_site_fract_x
_atom_site_fract_y
_atom_site_fract_z
Si Si1 0.445189 0.330215 0.261073
Si Si2 0.593421 0.825496 0.044189
Si Si3 0.967878 0.830070 0.570508
Si Si4 0.729313 0.826552 0.072562
Si Si5 0.514091 0.174383 0.880158
Si Si6 0.341398 0.172555 0.549395
Si Si7 0.757873 0.672886 0.381607
Si Si8 0.807380 0.173367 0.243921
O O1 0.443175 0.500000 0.236429
O O2 0.483198 0.301855 0.349044
O O3 0.477589 0.243499 0.201460
O O4 0.376876 0.272294 0.256607
O O5 0.661848 0.767367 0.075553
O O6 0.550576 0.769495 0.102806
O O7 0.590884 0.000000 0.043734
O O8 0.567515 0.771177 0.953466
O O9 0.910157 0.728025 0.569181
O O10 0.000000 0.781108 0.500000
O O11 0.946681 0.000000 0.560931
O O12 0.774354 0.783232 0.154585
O O13 0.728565 0.000000 0.057500
O O14 0.750000 0.750000 0.000000
O O15 0.514961 0.000000 0.870930
O O16 0.304953 0.254507 0.607577
O O17 0.311623 0.209421 0.457555
O O18 0.339896 0.000000 0.567012
O O19 0.747084 0.500000 0.369914
O O20 0.774955 0.739902 0.303706
O O21 0.802888 0.000000 0.260436
#
# Coordination Sequence:
#
# PCOD8097313 Si02
#       8
#     8   8   8   8   8   8   8   8
#     4  10  21  35  51  76 108 138 173 220 271 317
#     4   8  16  32  52  74 101 134 173 214 258 312
#     4  10  21  37  56  76 104 144 182 219 267 320
#     4  10  20  34  53  77 105 138 177 220 266 317
#     4   9  17  32  54  75  99 136 176 214 261 317
#     4  10  21  37  58  83 110 140 176 220 267 318
#     4  10  21  37  58  83 110 141 177 217 264 318
#     4  10  21  36  54  77 108 145 182 222 269 320
#
# _framework density 18.741664
#
# number of rings (size 3 to 8) (size 9 to 14) (size 15 to 20)
#    0.000    2.375    0.000    3.000    0.000    5.250 
#    0.000    3.125    0.000    0.000    0.000    0.000 
#    0.000    0.000    0.000    0.000    0.000    0.000 
#
# Total GULP energy -396864.386954 kJ/mol
# GULP energy per Si atom -12402.012092 kJ/mol
# Density = 1.869901 g / cm^3
# Si number density = 18.741664 Si / 1000 Ang^3
#
#
#
# Elastic Constant Matrix: (Units=GPa)
#
#
# Indices 1 2 3 4 5 6 
#
# 1 151.9694 48.7365 72.1370 0.0000 -3.8871 0.0000
# 2 48.7365 58.1693 54.5520 0.0000 -7.0753 0.0000
# 3 72.1370 54.5520 136.4696 0.0000 -19.1852 0.0000
# 4 0.0000 0.0000 0.0000 25.3834 0.0000 -4.7875
# 5 -3.8871 -7.0753 -19.1852 0.0000 30.7283 0.0000
# 6 0.0000 0.0000 0.0000 -4.7875 0.0000 29.5171
#
#
#
# Elastic Compliance Matrix: (Units=1/GPa)
#
#
# Indices 1 2 3 4 5 6 
#
# 1 0.009834 -0.005348 -0.003353 0.000000 -0.002081 0.000000
# 2 -0.005348 0.030418 -0.009255 0.000000 0.000549 0.000000
# 3 -0.003353 -0.009255 0.013637 0.000000 0.005959 0.000000
# 4 0.000000 0.000000 0.000000 0.040639 0.000000 0.006591
# 5 -0.002081 0.000549 0.005959 0.000000 0.036127 0.000000
# 6 0.000000 0.000000 0.000000 0.006591 0.000000 0.034948
#
#
# Mechanical properties :
#
#
# Convention : Reuss Voigt Hill
#
# Bulk Modulus (GPa) = 55.62518 77.49547 66.56033
# Shear Modulus (GPa) = 24.09549 28.53794 26.31672
#
# Velocity S-wave (km/s) = 3.58951 3.90641 3.75131
# Velocity P-wave (km/s) = 6.85010 7.86040 7.37257
#
# Compressibility (1/GPa) = 0.01797747
#
# Stress axis : x y z
#
# Youngs Moduli (GPa) = 101.69246 32.87485 73.32778
#
# Poissons Ratio (x) = 0.17581 0.24585
# Poissons Ratio (y) = 0.54383 0.67868
# Poissons Ratio (z) = 0.34095 0.30427
#
# Static dielectric constant tensor:
#      x y z
#    x 3.887150 0.000000 0.044590 
#    y 0.000000 3.252030 0.000000 
#    z 0.044590 0.000000 3.417200 
# 
# 
# High freq. dielectric constant tensor:
#      x y z
#    x 1.741040 0.000000 -0.003540 
#    y 0.000000 1.710550 0.000000 
#    z -0.003540 0.000000 1.732670 
# 
# From -- ./inp_files/281424.got.cif
#   From: 2010.06.25/outbox.cif.g09.slc.cpg/sg12_141_cif.got.tgz:281424.got - 2010.06.28 00:19:55.
