data_PCOD8097593
_publ_section_title
;
Structure prediction by ZEFSAII (Michael W. Deem and Ramdas Pophale) SiO2 
 PCOD8097593
Probable space group: C 2/M
;
_chemical_formula_sum "Si O2"
_cell_formula_units_Z 64
_cell_length_a 9.857205
_cell_length_b 18.953211
_cell_length_c 21.190377
_cell_angle_alpha 90.000000
_cell_angle_beta 56.295514
_cell_angle_gamma 90.000000
_cell_volume 3293.456777
_symmetry_space_group_name_H-M "C 2/M"
_symmetry_group_IT_number 12
_symmetry_cell_setting 'monoclinic'
loop_
_space_group_symop_operation_xyz
x,y,z
-x,y,-z
-x,-y,-z
x,-y,z
1/2+x,1/2+y,z
1/2-x,1/2+y,-z
1/2-x,1/2-y,-z
1/2+x,1/2-y,z
loop_
_atom_site_type_symbol
_atom_site_label
_atom_site_fract_x
_atom_site_fract_y
_atom_site_fract_z
Si Si1 0.391604 0.818403 0.787413
Si Si2 0.308307 0.306621 0.035065
Si Si3 0.601611 0.078835 0.031732
Si Si4 0.928165 0.682488 0.585434
Si Si5 0.081372 0.775352 0.644777
Si Si6 0.270546 0.919905 0.717924
Si Si7 0.881293 0.577063 0.209588
Si Si8 0.509772 0.578007 0.302012
O O1 0.292341 0.793665 0.874384
O O2 0.452581 0.751263 0.731375
O O3 0.272968 0.869995 0.778564
O O4 0.554872 0.862620 0.760379
O O5 0.263671 0.380305 0.012436
O O6 0.500000 0.303130 0.000000
O O7 0.250000 0.250000 0.000000
O O8 0.478592 0.078676 0.120541
O O9 0.657609 0.000000 0.998057
O O10 0.500000 0.114123 0.000000
O O11 0.766474 0.730955 0.621308
O O12 0.893944 0.610913 0.633179
O O13 0.000000 0.659298 0.500000
O O14 0.062128 0.729944 0.586543
O O15 0.049862 0.858439 0.637316
O O16 0.086583 0.917581 0.739281
O O17 0.322951 0.000000 0.721016
O O18 0.900237 0.500000 0.237410
O O19 0.696643 0.591213 0.238059
O O20 0.480125 0.500000 0.340722
#
# Coordination Sequence:
#
# PCOD8097593 Si02
#       8
#     8   8   8   8   8   8   8   8
#     4  10  21  36  56  78 105 141 181 229 275 325
#     4  11  25  40  56  80 111 147 187 236 293 344
#     4   9  19  36  55  76 104 139 179 221 273 339
#     4  10  20  34  54  81 112 145 178 219 269 321
#     4  10  20  34  54  78 105 141 183 222 265 319
#     4   9  19  35  55  82 111 141 180 222 269 326
#     4   9  17  31  52  75  99 131 170 216 267 315
#     4   9  18  32  51  76 104 134 174 222 266 313
#
# _framework density 19.432471
#
# number of rings (size 3 to 8) (size 9 to 14) (size 15 to 20)
#    0.000    2.375    0.000    1.875    0.000    8.000 
#    0.000    1.250    0.000    0.375    0.000    0.000 
#    0.000    0.000    0.000    0.000    0.000    0.000 
#
# Total GULP energy -396639.720503 kJ/mol
# GULP energy per Si atom -12394.991266 kJ/mol
# Density = 1.938824 g / cm^3
# Si number density = 19.432471 Si / 1000 Ang^3
#
#
#
# Elastic Constant Matrix: (Units=GPa)
#
#
# Indices 1 2 3 4 5 6 
#
# 1 90.9240 23.2188 24.6175 0.0001 -2.1847 0.0001
# 2 23.2188 77.7635 27.1079 0.0001 4.7791 -0.0001
# 3 24.6175 27.1079 75.2853 0.0001 11.0403 0.0000
# 4 0.0001 0.0001 0.0001 16.0528 -0.0001 0.7947
# 5 -2.1847 4.7791 11.0403 -0.0001 25.8336 0.0000
# 6 0.0001 -0.0001 0.0000 0.7947 0.0000 24.1519
#
#
#
# Elastic Compliance Matrix: (Units=1/GPa)
#
#
# Indices 1 2 3 4 5 6 
#
# 1 0.012759 -0.002731 -0.003650 0.000000 0.003144 0.000000
# 2 -0.002731 0.015295 -0.004444 0.000000 -0.001161 0.000000
# 3 -0.003650 -0.004444 0.017071 0.000000 -0.006782 0.000000
# 4 0.000000 0.000000 0.000000 0.062396 0.000000 -0.002053
# 5 0.003144 -0.001161 -0.006782 0.000000 0.042088 0.000000
# 6 0.000000 0.000000 0.000000 -0.002053 0.000000 0.041472
#
#
# Mechanical properties :
#
#
# Convention : Reuss Voigt Hill
#
# Bulk Modulus (GPa) = 42.59641 43.76236 43.17938
# Shear Modulus (GPa) = 22.66986 24.47626 23.57306
#
# Velocity S-wave (km/s) = 3.41925 3.55287 3.48670
# Velocity P-wave (km/s) = 6.12831 6.27691 6.20306
#
# Compressibility (1/GPa) = 0.02347616
#
# Stress axis : x y z
#
# Youngs Moduli (GPa) = 78.37444 65.37920 58.57849
#
# Poissons Ratio (x) = 0.17852 0.21381
# Poissons Ratio (y) = 0.21400 0.26034
# Poissons Ratio (z) = 0.28607 0.29056
#
# Static dielectric constant tensor:
#      x y z
#    x 4.078510 0.000000 0.069910 
#    y 0.000000 3.979620 0.000000 
#    z 0.069910 0.000000 3.214830 
# 
# 
# High freq. dielectric constant tensor:
#      x y z
#    x 1.769700 0.000000 0.002420 
#    y 0.000000 1.765380 0.000000 
#    z 0.002420 0.000000 1.724320 
# 
# From -- ./inp_files/301719.got.cif
#   From: 2010.06.25/outbox.cif.g09.slc.cpg/sg12_151_cif.got.tgz:301719.got - 2010.06.28 00:19:55.
