data_PCOD8097387
_publ_section_title
;
Structure prediction by ZEFSAII (Michael W. Deem and Ramdas Pophale) SiO2 
 PCOD8097387
Probable space group: C 2/M
;
_chemical_formula_sum "Si O2"
_cell_formula_units_Z 48
_cell_length_a 30.095251
_cell_length_b 9.014794
_cell_length_c 9.538179
_cell_angle_alpha 90.000000
_cell_angle_beta 90.198331
_cell_angle_gamma 90.000000
_cell_volume 2587.716192
_symmetry_space_group_name_H-M "C 2/M"
_symmetry_group_IT_number 12
_symmetry_cell_setting 'monoclinic'
loop_
_space_group_symop_operation_xyz
x,y,z
-x,y,-z
-x,-y,-z
x,-y,z
1/2+x,1/2+y,z
1/2-x,1/2+y,-z
1/2-x,1/2-y,-z
1/2+x,1/2-y,z
loop_
_atom_site_type_symbol
_atom_site_label
_atom_site_fract_x
_atom_site_fract_y
_atom_site_fract_z
Si Si1 0.114768 0.827991 0.598520
Si Si2 0.042957 0.324207 0.411853
Si Si3 0.116428 0.328807 0.890034
Si Si4 0.717579 0.827898 0.893917
Si Si5 0.959857 0.675518 0.906185
Si Si6 0.783171 0.172405 0.396344
O O1 0.086422 0.746859 0.480055
O O2 0.104351 0.763604 0.751902
O O3 0.165991 0.802201 0.556771
O O4 0.102290 0.000000 0.601503
O O5 0.049017 0.500000 0.413956
O O6 0.038349 0.262524 0.252677
O O7 0.000000 0.274841 0.500000
O O8 0.107319 0.500000 0.851350
O O9 0.166756 0.303656 0.941070
O O10 0.085954 0.276657 0.019286
O O11 0.726300 0.749694 0.748991
O O12 0.729578 0.000000 0.881537
O O13 0.750000 0.750000 0.000000
O O14 0.964505 0.500000 0.898292
O O15 0.000000 0.741850 0.000000
O O16 0.750000 0.250000 0.500000
O O17 0.771652 0.000000 0.384065
#
# Coordination Sequence:
#
# PCOD8097387 Si02
#       6
#     8   8   8   8   8   8
#     4  10  21  36  54  78 108 140 174 217 269 319
#     4  10  20  34  55  81 107 140 180 219 262 314
#     4   9  18  34  55  77 102 136 177 218 262 313
#     4  10  20  34  53  78 108 142 180 223 271 323
#     4   9  17  31  53  79 103 129 169 218 259 301
#     4  10  21  37  56  79 107 141 181 224 273 328
#
# _framework density 18.549174000000001
#
# number of rings (size 3 to 8) (size 9 to 14) (size 15 to 20)
#    0.000    2.333    0.000    2.500    0.000    7.000 
#    0.000    2.500    0.000    2.000    0.000    0.000 
#    0.000    0.000    0.000    0.000    0.000    0.000 
#
# Total GULP energy -297620.643697 kJ/mol
# GULP energy per Si atom -12400.860154 kJ/mol
# Density = 1.850696 g / cm^3
# Si number density = 18.549174 Si / 1000 Ang^3
#
#
#
# Elastic Constant Matrix: (Units=GPa)
#
#
# Indices 1 2 3 4 5 6 
#
# 1 128.0459 60.7736 102.5834 0.0000 -1.6073 0.0000
# 2 60.7736 83.0018 62.3122 0.0000 2.2119 0.0000
# 3 102.5834 62.3122 155.2600 0.0000 -2.3215 0.0000
# 4 0.0000 0.0000 0.0000 28.2519 0.0000 5.9344
# 5 -1.6073 2.2119 -2.3215 0.0000 43.2680 0.0000
# 6 0.0000 0.0000 0.0000 5.9344 0.0000 28.4332
#
#
#
# Elastic Compliance Matrix: (Units=1/GPa)
#
#
# Indices 1 2 3 4 5 6 
#
# 1 0.018653 -0.006332 -0.009776 0.000000 0.000492 0.000000
# 2 -0.006332 0.019461 -0.003648 0.000000 -0.001426 0.000000
# 3 -0.009776 -0.003648 0.014373 0.000000 0.000595 0.000000
# 4 0.000000 0.000000 0.000000 0.037019 0.000000 -0.007726
# 5 0.000492 -0.001426 0.000595 0.000000 0.023235 0.000000
# 6 0.000000 0.000000 0.000000 -0.007726 0.000000 0.036783
#
#
# Mechanical properties :
#
#
# Convention : Reuss Voigt Hill
#
# Bulk Modulus (GPa) = 77.07031 90.84955 83.95993
# Shear Modulus (GPa) = 25.85854 29.36653 27.61253
#
# Velocity S-wave (km/s) = 3.73775 3.98323 3.86244
# Velocity P-wave (km/s) = 7.76319 8.38086 8.07793
#
# Compressibility (1/GPa) = 0.01297517
#
# Stress axis : x y z
#
# Youngs Moduli (GPa) = 53.61102 51.38525 69.57492
#
# Poissons Ratio (x) = 0.32535 0.68015
# Poissons Ratio (y) = 0.33945 0.25383
# Poissons Ratio (z) = 0.52409 0.18747
#
# Static dielectric constant tensor:
#      x y z
#    x 3.590230 0.000000 -0.151720 
#    y 0.000000 3.351000 0.000000 
#    z -0.151720 0.000000 2.987220 
# 
# 
# High freq. dielectric constant tensor:
#      x y z
#    x 1.730290 0.000000 -0.000880 
#    y 0.000000 1.706850 0.000000 
#    z -0.000880 0.000000 1.723460 
# 
# From -- ./inp_files/108599.got.cif
#   From: 2010.06.25/outbox.cif.g09.slc.cpg/sg12_55_cif.got.tgz:108599.got - 2010.06.28 00:19:55.
