data_PCOD8097104
_publ_section_title
;
Structure prediction by ZEFSAII (Michael W. Deem and Ramdas Pophale) SiO2 
 PCOD8097104
Probable space group: C 2/M
;
_chemical_formula_sum "Si O2"
_cell_formula_units_Z 56
_cell_length_a 18.611584
_cell_length_b 8.737385
_cell_length_c 29.330566
_cell_angle_alpha 90.000000
_cell_angle_beta 142.337776
_cell_angle_gamma 90.000000
_cell_volume 2914.272706
_symmetry_space_group_name_H-M "C 2/M"
_symmetry_group_IT_number 12
_symmetry_cell_setting 'monoclinic'
loop_
_space_group_symop_operation_xyz
x,y,z
-x,y,-z
-x,-y,-z
x,-y,z
1/2+x,1/2+y,z
1/2-x,1/2+y,-z
1/2-x,1/2-y,-z
1/2+x,1/2-y,z
loop_
_atom_site_type_symbol
_atom_site_label
_atom_site_fract_x
_atom_site_fract_y
_atom_site_fract_z
Si Si1 0.671994 0.181630 0.499872
Si Si2 0.708920 0.819961 0.932057
Si Si3 0.956958 0.180903 0.801861
Si Si4 0.635757 0.822214 0.067465
Si Si5 0.746330 0.819815 0.634353
Si Si6 0.094876 0.680982 0.642005
Si Si7 0.796800 0.678606 0.796631
O O1 0.750000 0.250000 0.500000
O O2 0.719252 0.252142 0.571346
O O3 0.539201 0.234912 0.423874
O O4 0.680519 0.000000 0.504175
O O5 0.580098 0.760808 0.854613
O O6 0.798902 0.776859 0.937540
O O7 0.705223 0.000000 0.935868
O O8 0.750000 0.750000 0.000000
O O9 0.873739 0.229393 0.717585
O O10 0.897759 0.233149 0.819409
O O11 0.975225 0.000000 0.813439
O O12 0.690532 0.784053 0.143918
O O13 0.650385 0.000000 0.062045
O O14 0.500000 0.774331 0.000000
O O15 0.646180 0.765631 0.619138
O O16 0.739813 0.000000 0.626302
O O17 0.109974 0.500000 0.656470
O O18 0.166535 0.765794 0.717754
O O19 0.812439 0.500000 0.794399
#
# Coordination Sequence:
#
# PCOD8097104 Si02
#       7
#     8   8   8   8   8   8   8
#     4  10  20  34  52  76 107 142 182 228 279 331
#     4  12  25  40  60  85 115 149 186 228 274 326
#     4  10  20  37  61  86 113 145 184 229 278 333
#     4  10  22  40  60  82 111 147 186 228 276 329
#     4   8  16  33  57  79 101 138 185 227 267 320
#     4   9  18  34  56  78 103 142 189 230 270 326
#     4  10  20  35  58  86 115 146 182 229 281 333
#
# _framework density 19.215771
#
# number of rings (size 3 to 8) (size 9 to 14) (size 15 to 20)
#    0.000    2.143    0.000    4.286    0.000    6.000 
#    0.000    7.857    0.000    4.286    0.000    0.000 
#    0.000    0.000    0.000    0.000    0.000    0.000 
#
# Total GULP energy -347240.979508 kJ/mol
# GULP energy per Si atom -12401.463554 kJ/mol
# Density = 1.917204 g / cm^3
# Si number density = 19.215771 Si / 1000 Ang^3
#
#
#
# Elastic Constant Matrix: (Units=GPa)
#
#
# Indices 1 2 3 4 5 6 
#
# 1 139.4786 50.2796 99.7539 0.0000 4.9476 0.0000
# 2 50.2796 70.4576 46.7502 -0.0001 5.3079 0.0000
# 3 99.7539 46.7502 160.0832 0.0000 6.1475 0.0000
# 4 0.0000 -0.0001 0.0000 24.0182 0.0000 0.9712
# 5 4.9476 5.3079 6.1475 0.0000 34.8232 0.0000
# 6 0.0000 0.0000 0.0000 0.9712 0.0000 35.5265
#
#
#
# Elastic Compliance Matrix: (Units=1/GPa)
#
#
# Indices 1 2 3 4 5 6 
#
# 1 0.014400 -0.005366 -0.007409 0.000000 0.000080 0.000000
# 2 -0.005366 0.019715 -0.002344 0.000000 -0.001829 0.000000
# 3 -0.007409 -0.002344 0.011572 0.000000 -0.000633 0.000000
# 4 0.000000 0.000000 0.000000 0.041681 0.000000 -0.001139
# 5 0.000080 -0.001829 -0.000633 0.000000 0.029096 0.000000
# 6 0.000000 0.000000 0.000000 -0.001139 0.000000 0.028179
#
#
# Mechanical properties :
#
#
# Convention : Reuss Voigt Hill
#
# Bulk Modulus (GPa) = 64.72489 84.84298 74.78393
# Shear Modulus (GPa) = 27.77302 30.42263 29.09782
#
# Velocity S-wave (km/s) = 3.80587 3.98328 3.89558
# Velocity P-wave (km/s) = 7.28486 8.08727 7.69653
#
# Compressibility (1/GPa) = 0.01545001
#
# Stress axis : x y z
#
# Youngs Moduli (GPa) = 69.44416 50.72299 86.41222
#
# Poissons Ratio (x) = 0.27218 0.64025
# Poissons Ratio (y) = 0.37263 0.20251
# Poissons Ratio (z) = 0.51453 0.11887
#
# Static dielectric constant tensor:
#      x y z
#    x 3.442850 0.000000 -0.034830 
#    y 0.000000 3.390310 0.000000 
#    z -0.034830 0.000000 3.895760 
# 
# 
# High freq. dielectric constant tensor:
#      x y z
#    x 1.747150 0.000000 0.000260 
#    y 0.000000 1.733770 0.000000 
#    z 0.000260 0.000000 1.766130 
# 
# From -- ./inp_files/377759.got.cif
#   From: 2010.06.25/outbox.cif.g09.slc.cpg/sg12_189_cif.got.tgz:377759.got - 2010.06.28 00:19:55.
