data_PCOD8097591
_publ_section_title
;
Structure prediction by ZEFSAII (Michael W. Deem and Ramdas Pophale) SiO2 
 PCOD8097591
Probable space group: C 2/M
;
_chemical_formula_sum "Si O2"
_cell_formula_units_Z 64
_cell_length_a 17.880156
_cell_length_b 8.871734
_cell_length_c 20.624850
_cell_angle_alpha 90.000000
_cell_angle_beta 90.314719
_cell_angle_gamma 90.000000
_cell_volume 3271.629100
_symmetry_space_group_name_H-M "C 2/M"
_symmetry_group_IT_number 12
_symmetry_cell_setting 'monoclinic'
loop_
_space_group_symop_operation_xyz
x,y,z
-x,y,-z
-x,-y,-z
x,-y,z
1/2+x,1/2+y,z
1/2-x,1/2+y,-z
1/2-x,1/2-y,-z
1/2+x,1/2-y,z
loop_
_atom_site_type_symbol
_atom_site_label
_atom_site_fract_x
_atom_site_fract_y
_atom_site_fract_z
Si Si1 0.956895 0.322978 0.180672
Si Si2 0.459595 0.321940 0.434707
Si Si3 0.038297 0.322298 0.312822
Si Si4 0.298757 0.325378 0.186519
Si Si5 0.704698 0.826103 0.056941
Si Si6 0.206843 0.678814 0.309693
Si Si7 0.288930 0.678595 0.438734
Si Si8 0.455703 0.322264 0.935829
O O1 0.965975 0.500000 0.167465
O O2 0.870657 0.278640 0.179985
O O3 0.992689 0.275358 0.249056
O O4 0.998579 0.231456 0.125665
O O5 0.500000 0.265241 0.500000
O O6 0.464659 0.500000 0.427662
O O7 0.499897 0.250594 0.374078
O O8 0.374274 0.266300 0.436235
O O9 0.038997 0.500000 0.322889
O O10 0.122491 0.258127 0.306836
O O11 0.322570 0.500000 0.195506
O O12 0.248380 0.303505 0.123594
O O13 0.252184 0.263564 0.247529
O O14 0.624573 0.752642 0.063982
O O15 0.694172 0.000000 0.039643
O O16 0.750000 0.750000 0.000000
O O17 0.205161 0.500000 0.308497
O O18 0.247371 0.738938 0.374413
O O19 0.283650 0.500000 0.444446
O O20 0.250000 0.750000 0.500000
O O21 0.445194 0.500000 0.932940
O O22 0.500000 0.272088 0.000000
#
# Coordination Sequence:
#
# PCOD8097591 Si02
#       8
#     8   8   8   8   8   8   8   8
#     4  11  23  38  58  86 117 148 188 239 290 340
#     4  10  21  36  54  80 113 146 183 231 285 338
#     4  10  21  37  57  82 111 145 187 232 279 336
#     4  10  21  39  61  83 112 151 190 229 280 341
#     4  11  23  39  61  88 118 152 190 236 287 340
#     4   9  18  35  57  78 104 142 185 225 270 328
#     4  10  20  34  54  78 105 140 180 222 271 327
#     4  11  24  41  61  86 116 153 196 237 284 344
#
# _framework density 19.562121000000001
#
# number of rings (size 3 to 8) (size 9 to 14) (size 15 to 20)
#    0.000    1.750    0.000    4.125    0.000    9.750 
#    0.000    1.250    0.000    0.000    0.000    0.000 
#    0.000    0.000    0.000    0.000    0.000    0.000 
#
# Total GULP energy -396948.326688 kJ/mol
# GULP energy per Si atom -12404.635209 kJ/mol
# Density = 1.951760 g / cm^3
# Si number density = 19.562121 Si / 1000 Ang^3
#
#
#
# Elastic Constant Matrix: (Units=GPa)
#
#
# Indices 1 2 3 4 5 6 
#
# 1 161.0689 37.6627 64.5139 0.0000 -8.5711 0.0000
# 2 37.6627 40.3750 39.9323 0.0000 4.2692 0.0000
# 3 64.5139 39.9323 148.4917 0.0000 -12.4862 0.0000
# 4 0.0000 0.0000 0.0000 36.8041 0.0000 -7.9434
# 5 -8.5711 4.2692 -12.4862 0.0000 42.1896 0.0000
# 6 0.0000 0.0000 0.0000 -7.9434 0.0000 26.7528
#
#
#
# Elastic Compliance Matrix: (Units=1/GPa)
#
#
# Indices 1 2 3 4 5 6 
#
# 1 0.008523 -0.006311 -0.001853 0.000000 0.001822 0.000000
# 2 -0.006311 0.040105 -0.008709 0.000000 -0.007918 0.000000
# 3 -0.001853 -0.008709 0.010177 0.000000 0.003517 0.000000
# 4 0.000000 0.000000 0.000000 0.029031 0.000000 0.008620
# 5 0.001822 -0.007918 0.003517 0.000000 0.025915 0.000000
# 6 0.000000 0.000000 0.000000 0.008620 0.000000 0.039939
#
#
# Mechanical properties :
#
#
# Convention : Reuss Voigt Hill
#
# Bulk Modulus (GPa) = 39.90353 70.46149 55.18251
# Shear Modulus (GPa) = 25.53766 35.00441 30.27104
#
# Velocity S-wave (km/s) = 3.61704 4.23472 3.93801
# Velocity P-wave (km/s) = 6.15521 7.74648 6.99624
#
# Compressibility (1/GPa) = 0.02506044
#
# Stress axis : x y z
#
# Youngs Moduli (GPa) = 117.32668 24.93424 98.26013
#
# Poissons Ratio (x) = 0.15736 0.18205
# Poissons Ratio (y) = 0.74043 0.85576
# Poissons Ratio (z) = 0.21737 0.21715
#
# Static dielectric constant tensor:
#      x y z
#    x 3.756800 0.000000 0.147140 
#    y 0.000000 3.412380 0.000000 
#    z 0.147140 0.000000 3.791040 
# 
# 
# High freq. dielectric constant tensor:
#      x y z
#    x 1.783410 0.000000 0.000330 
#    y 0.000000 1.747040 0.000000 
#    z 0.000330 0.000000 1.782950 
# 
# From -- ./inp_files/314103.got.cif
#   From: 2010.06.25/outbox.cif.g09.slc.cpg/sg12_158_cif.got.tgz:314103.got - 2010.06.28 00:19:55.
