data_PCOD8097571
_publ_section_title
;
Structure prediction by ZEFSAII (Michael W. Deem and Ramdas Pophale) SiO2 
 PCOD8097571
Probable space group: C 2/M
;
_chemical_formula_sum "Si O2"
_cell_formula_units_Z 64
_cell_length_a 11.045316
_cell_length_b 18.764306
_cell_length_c 19.771616
_cell_angle_alpha 90.000000
_cell_angle_beta 125.424642
_cell_angle_gamma 90.000000
_cell_volume 3339.225294
_symmetry_space_group_name_H-M "C 2/M"
_symmetry_group_IT_number 12
_symmetry_cell_setting 'monoclinic'
loop_
_space_group_symop_operation_xyz
x,y,z
-x,y,-z
-x,-y,-z
x,-y,z
1/2+x,1/2+y,z
1/2-x,1/2+y,-z
1/2-x,1/2-y,-z
1/2+x,1/2-y,z
loop_
_atom_site_type_symbol
_atom_site_label
_atom_site_fract_x
_atom_site_fract_y
_atom_site_fract_z
Si Si1 0.600776 0.919598 0.817730
Si Si2 0.183128 0.323472 0.455115
Si Si3 0.808337 0.274029 0.823281
Si Si4 0.154520 0.079466 0.584170
Si Si5 0.726421 0.923080 0.240616
Si Si6 0.825390 0.578707 0.429164
Si Si7 0.854126 0.340472 0.307760
Si Si8 0.654662 0.781593 0.908716
O O1 0.423922 0.921005 0.764115
O O2 0.640266 0.890332 0.756439
O O3 0.663639 0.867365 0.897953
O O4 0.666113 0.000000 0.848490
O O5 0.250000 0.250000 0.500000
O O6 0.238199 0.355980 0.402459
O O7 0.242513 0.377987 0.530981
O O8 0.008313 0.313895 0.389226
O O9 0.769427 0.357924 0.809550
O O10 0.738960 0.230698 0.738186
O O11 0.726873 0.252077 0.865438
O O12 0.985248 0.260509 0.873235
O O13 0.141744 0.083235 0.661575
O O14 0.000000 0.096189 0.500000
O O15 0.212414 0.000000 0.581683
O O16 0.737598 0.000000 0.205684
O O17 0.756041 0.500000 0.406196
O O18 0.777798 0.614412 0.342712
O O19 0.000000 0.575600 0.500000
O O20 0.750000 0.750000 0.000000
#
# Coordination Sequence:
#
# PCOD8097571 Si02
#       8
#     8   8   8   8   8   8   8   8
#     4   9  17  33  60  87 105 141 196 235 274 340
#     4  11  23  32  49  73 106 149 192 241 288 337
#     4  10  22  37  62  90 117 148 193 229 286 351
#     4  10  21  35  51  72 103 150 199 247 295 332
#     4   9  18  34  56  79 110 147 194 244 282 329
#     4   9  19  33  49  70  97 135 184 232 276 317
#     4  10  20  34  54  77 108 146 187 242 284 328
#     4  10  21  40  64  90 120 151 177 226 289 355
#
# _framework density 19.166122000000001
#
# number of rings (size 3 to 8) (size 9 to 14) (size 15 to 20)
#    0.000    2.250    1.250    1.125    3.500    1.500 
#    0.000    0.625    0.000   12.750    0.000    0.000 
#    0.000    0.000    0.000    0.000    0.000    0.000 
#
# Total GULP energy -396437.860169 kJ/mol
# GULP energy per Si atom -12388.683130 kJ/mol
# Density = 1.912250 g / cm^3
# Si number density = 19.166122 Si / 1000 Ang^3
#
#
#
# Elastic Constant Matrix: (Units=GPa)
#
#
# Indices 1 2 3 4 5 6 
#
# 1 60.5719 34.4691 23.9619 0.0000 0.7480 0.0000
# 2 34.4691 160.0304 59.5781 0.0000 -0.0806 0.0000
# 3 23.9619 59.5781 105.7090 0.0000 1.0873 0.0000
# 4 0.0000 0.0000 0.0000 27.4712 0.0000 -2.2524
# 5 0.7480 -0.0806 1.0873 0.0000 24.0821 0.0000
# 6 0.0000 0.0000 0.0000 -2.2524 0.0000 24.6365
#
#
#
# Elastic Compliance Matrix: (Units=1/GPa)
#
#
# Indices 1 2 3 4 5 6 
#
# 1 0.019361 -0.003213 -0.002573 0.000000 -0.000496 0.000000
# 2 -0.003213 0.008442 -0.004033 0.000000 0.000310 0.000000
# 3 -0.002573 -0.004033 0.012321 0.000000 -0.000490 0.000000
# 4 0.000000 0.000000 0.000000 0.036677 0.000000 0.003353
# 5 -0.000496 0.000310 -0.000490 0.000000 0.041563 0.000000
# 6 0.000000 0.000000 0.000000 0.003353 0.000000 0.040897
#
#
# Mechanical properties :
#
#
# Convention : Reuss Voigt Hill
#
# Bulk Modulus (GPa) = 48.81006 62.48104 55.64555
# Shear Modulus (GPa) = 26.92096 29.12477 28.02286
#
# Velocity S-wave (km/s) = 3.75188 3.90243 3.82790
# Velocity P-wave (km/s) = 6.65514 7.27845 6.97376
#
# Compressibility (1/GPa) = 0.02048758
#
# Stress axis : x y z
#
# Youngs Moduli (GPa) = 51.64891 118.44906 81.15994
#
# Poissons Ratio (x) = 0.38053 0.20883
# Poissons Ratio (y) = 0.16593 0.32733
# Poissons Ratio (z) = 0.13290 0.47772
#
# Static dielectric constant tensor:
#      x y z
#    x 3.378330 0.000000 -0.060640 
#    y 0.000000 3.865900 0.000000 
#    z -0.060640 0.000000 3.430350 
# 
# 
# High freq. dielectric constant tensor:
#      x y z
#    x 1.725550 0.000000 -0.006600 
#    y 0.000000 1.761740 0.000000 
#    z -0.006600 0.000000 1.724660 
# 
# From -- ./inp_files/306221.got.cif
#   From: 2010.06.25/outbox.cif.g09.slc.cpg/sg12_154_cif.got.tgz:306221.got - 2010.06.28 00:19:55.
