data_PCOD8097212
_publ_section_title
;
Structure prediction by ZEFSAII (Michael W. Deem and Ramdas Pophale) SiO2 
 PCOD8097212
Probable space group: C 2/M
;
_chemical_formula_sum "Si O2"
_cell_formula_units_Z 48
_cell_length_a 20.300023
_cell_length_b 20.730884
_cell_length_c 8.545558
_cell_angle_alpha 90.000000
_cell_angle_beta 138.091113
_cell_angle_gamma 90.000000
_cell_volume 2402.135097
_symmetry_space_group_name_H-M "C 2/M"
_symmetry_group_IT_number 12
_symmetry_cell_setting 'monoclinic'
loop_
_space_group_symop_operation_xyz
x,y,z
-x,y,-z
-x,-y,-z
x,-y,z
1/2+x,1/2+y,z
1/2-x,1/2+y,-z
1/2-x,1/2-y,-z
1/2+x,1/2-y,z
loop_
_atom_site_type_symbol
_atom_site_label
_atom_site_fract_x
_atom_site_fract_y
_atom_site_fract_z
Si Si1 0.039174 0.231791 0.396494
Si Si2 0.961401 0.427610 0.588406
Si Si3 0.648537 0.074202 0.129678
Si Si4 0.330823 0.707428 0.943753
Si Si5 0.665187 0.158178 0.463693
Si Si6 0.726784 0.336689 0.834667
O O1 0.082507 0.288892 0.365198
O O2 0.122581 0.177546 0.566182
O O3 0.000000 0.254906 0.500000
O O4 0.948715 0.200829 0.138462
O O5 0.937921 0.500000 0.500159
O O6 0.856830 0.399789 0.456299
O O7 0.000000 0.391597 0.500000
O O8 0.039054 0.421882 0.867289
O O9 0.656855 0.129620 0.275878
O O10 0.729886 0.094294 0.143418
O O11 0.669372 0.000000 0.222260
O O12 0.276202 0.685140 0.687180
O O13 0.306829 0.781841 0.935853
O O14 0.288426 0.661947 0.006100
#
# Coordination Sequence:
#
# PCOD8097212 Si02
#       6
#     8   8   8   8   8   8
#     4   9  18  33  56  83 109 138 177 227 274 316
#     4  10  20  34  53  75 101 139 182 218 256 308
#     4  11  23  37  53  77 112 147 177 214 261 320
#     4   9  18  33  57  83 105 135 176 226 275 318
#     4  11  20  32  53  80 113 141 170 213 269 325
#     4   9  18  35  56  79 107 140 180 223 269 316
#
# _framework density 19.982222
#
# number of rings (size 3 to 8) (size 9 to 14) (size 15 to 20)
#    0.000    2.167    0.000    4.500    0.000    4.000 
#    0.000    3.333    0.000    7.500    0.000    0.000 
#    0.000    0.000    0.000    0.000    0.000    0.000 
#
# Total GULP energy -297399.146284 kJ/mol
# GULP energy per Si atom -12391.631095 kJ/mol
# Density = 1.993674 g / cm^3
# Si number density = 19.982222 Si / 1000 Ang^3
#
#
#
# Elastic Constant Matrix: (Units=GPa)
#
#
# Indices 1 2 3 4 5 6 
#
# 1 42.6688 19.8532 11.4348 0.0000 -1.1856 0.0000
# 2 19.8532 60.9247 22.4593 0.0000 1.2276 0.0000
# 3 11.4348 22.4593 83.6806 0.0000 9.7371 0.0000
# 4 0.0000 0.0000 0.0000 17.7942 0.0000 -11.2794
# 5 -1.1856 1.2276 9.7371 0.0000 35.9005 0.0000
# 6 0.0000 0.0000 0.0000 -11.2794 0.0000 25.0471
#
#
#
# Elastic Compliance Matrix: (Units=1/GPa)
#
#
# Indices 1 2 3 4 5 6 
#
# 1 0.027895 -0.008486 -0.001730 0.000000 0.001681 0.000000
# 2 -0.008486 0.020816 -0.004452 0.000000 0.000216 0.000000
# 3 -0.001730 -0.004452 0.013806 0.000000 -0.003649 0.000000
# 4 0.000000 0.000000 0.000000 0.078649 0.000000 0.035418
# 5 0.001681 0.000216 -0.003649 0.000000 0.028893 0.000000
# 6 0.000000 0.000000 0.000000 0.035418 0.000000 0.055875
#
#
# Mechanical properties :
#
#
# Convention : Reuss Voigt Hill
#
# Bulk Modulus (GPa) = 30.13794 32.75207 31.44501
# Shear Modulus (GPa) = 18.77368 24.65013 21.71191
#
# Velocity S-wave (km/s) = 3.06848 3.51608 3.29988
# Velocity P-wave (km/s) = 5.26016 5.73672 5.50360
#
# Compressibility (1/GPa) = 0.03318076
#
# Stress axis : x y z
#
# Youngs Moduli (GPa) = 35.84854 48.03991 72.43127
#
# Poissons Ratio (x) = 0.40768 0.12529
# Poissons Ratio (y) = 0.30422 0.32249
# Poissons Ratio (z) = 0.06201 0.21389
#
# Static dielectric constant tensor:
#      x y z
#    x 3.638010 0.000000 0.022490 
#    y 0.000000 3.485180 0.000000 
#    z 0.022490 0.000000 3.673490 
# 
# 
# High freq. dielectric constant tensor:
#      x y z
#    x 1.774230 0.000000 -0.004700 
#    y 0.000000 1.750790 0.000000 
#    z -0.004700 0.000000 1.780160 
# 
# From -- ./inp_files/63603.got.cif
#   From: 2010.06.25/outbox.cif.g09.slc.cpg/sg12_32_cif.got.tgz:63603.got - 2010.06.28 00:19:55.
