data_PCOD8097144
_publ_section_title
;
Structure prediction by ZEFSAII (Michael W. Deem and Ramdas Pophale) SiO2 
 PCOD8097144
Probable space group: C 2/M
;
_chemical_formula_sum "Si O2"
_cell_formula_units_Z 56
_cell_length_a 9.520560
_cell_length_b 26.515612
_cell_length_c 19.478878
_cell_angle_alpha 90.000000
_cell_angle_beta 39.768250
_cell_angle_gamma 90.000000
_cell_volume 3145.527471
_symmetry_space_group_name_H-M "C 2/M"
_symmetry_group_IT_number 12
_symmetry_cell_setting 'monoclinic'
loop_
_space_group_symop_operation_xyz
x,y,z
-x,y,-z
-x,-y,-z
x,-y,z
1/2+x,1/2+y,z
1/2-x,1/2+y,-z
1/2-x,1/2-y,-z
1/2+x,1/2-y,z
loop_
_atom_site_type_symbol
_atom_site_label
_atom_site_fract_x
_atom_site_fract_y
_atom_site_fract_z
Si Si1 0.338640 0.163886 0.763014
Si Si2 0.498330 0.259084 0.921043
Si Si3 0.977873 0.278976 0.431146
Si Si4 0.416135 0.602661 0.605587
Si Si5 0.495485 0.055215 0.709302
Si Si6 0.683617 0.801614 0.736703
Si Si7 0.341651 0.944020 0.502984
O O1 0.091472 0.186679 0.857621
O O2 0.474070 0.175546 0.641449
O O3 0.337089 0.103741 0.781034
O O4 0.457497 0.193473 0.780069
O O5 0.639019 0.214993 0.831618
O O6 0.500000 0.253439 0.000000
O O7 0.250000 0.250000 0.000000
O O8 0.750000 0.250000 0.500000
O O9 0.000000 0.301680 0.500000
O O10 0.173307 0.239496 0.355555
O O11 0.500000 0.622959 0.500000
O O12 0.313473 0.646444 0.689574
O O13 0.610798 0.583789 0.580619
O O14 0.228951 0.560945 0.660848
O O15 0.529554 0.053564 0.615950
O O16 0.397042 0.000000 0.769201
O O17 0.500000 0.917312 0.500000
O O18 0.284487 0.000000 0.551093
#
# Coordination Sequence:
#
# PCOD8097144 Si02
#       7
#     8   8   8   8   8   8   8
#     4  10  21  35  55  82 105 143 182 220 270 317
#     4  11  22  40  60  77 104 137 173 227 278 326
#     4  11  21  32  49  75 116 151 174 212 260 317
#     4   9  17  30  52  75 105 142 183 212 253 311
#     4   9  18  33  52  74 104 141 184 219 256 313
#     4  10  20  34  52  78 105 141 179 215 264 323
#     4   9  17  29  44  68 106 146 178 216 259 298
#
# _framework density 17.803056000000002
#
# number of rings (size 3 to 8) (size 9 to 14) (size 15 to 20)
#    0.000    2.143    2.857    0.857    4.000    2.286 
#    2.571    0.000    0.000    0.429    0.000    0.000 
#    0.000   14.857    0.000    0.000    0.000    0.000 
#
# Total GULP energy -346880.653568 kJ/mol
# GULP energy per Si atom -12388.594770 kJ/mol
# Density = 1.776254 g / cm^3
# Si number density = 17.803056 Si / 1000 Ang^3
#
#
#
# Elastic Constant Matrix: (Units=GPa)
#
#
# Indices 1 2 3 4 5 6 
#
# 1 111.5826 44.3774 39.8517 0.0000 -2.0062 0.0001
# 2 44.3774 116.2529 50.1855 0.0000 -5.9956 0.0000
# 3 39.8517 50.1855 86.6647 0.0001 1.6436 0.0004
# 4 0.0000 0.0000 0.0001 16.1463 0.0000 -2.4365
# 5 -2.0062 -5.9956 1.6436 0.0000 34.2469 -0.0001
# 6 0.0001 0.0000 0.0004 -2.4365 -0.0001 20.0667
#
#
#
# Elastic Compliance Matrix: (Units=1/GPa)
#
#
# Indices 1 2 3 4 5 6 
#
# 1 0.011361 -0.002747 -0.003640 0.000000 0.000359 0.000000
# 2 -0.002747 0.012322 -0.005915 0.000000 0.002280 0.000000
# 3 -0.003640 -0.005915 0.016677 0.000000 -0.002049 0.000000
# 4 0.000000 0.000000 0.000000 0.063090 0.000000 0.007660
# 5 0.000359 0.002280 -0.002049 0.000000 0.029718 0.000000
# 6 0.000000 0.000000 0.000000 0.007660 0.000000 0.050764
#
#
# Mechanical properties :
#
#
# Convention : Reuss Voigt Hill
#
# Bulk Modulus (GPa) = 63.47361 64.81437 64.14399
# Shear Modulus (GPa) = 23.38762 26.09770 24.74266
#
# Velocity S-wave (km/s) = 3.62841 3.83288 3.73204
# Velocity P-wave (km/s) = 7.29962 7.48821 7.39452
#
# Compressibility (1/GPa) = 0.01575458
#
# Stress axis : x y z
#
# Youngs Moduli (GPa) = 88.02012 81.15771 59.96260
#
# Poissons Ratio (x) = 0.22292 0.21829
# Poissons Ratio (y) = 0.24177 0.35470
# Poissons Ratio (z) = 0.32043 0.48008
#
# Static dielectric constant tensor:
#      x y z
#    x 3.420950 0.000000 -0.013270 
#    y 0.000000 3.468480 0.000000 
#    z -0.013270 0.000000 3.340250 
# 
# 
# High freq. dielectric constant tensor:
#      x y z
#    x 1.697860 0.000000 -0.002170 
#    y 0.000000 1.684040 0.000000 
#    z -0.002170 0.000000 1.654550 
# 
# From -- ./inp_files/199410.got.cif
#   From: 2010.06.25/outbox.cif.g09.slc.cpg/sg12_100_cif.got.tgz:199410.got - 2010.06.28 00:19:55.
