data_PCOD8097434
_publ_section_title
;
Structure prediction by ZEFSAII (Michael W. Deem and Ramdas Pophale) SiO2 
 PCOD8097434
Probable space group: C 2/M
;
_chemical_formula_sum "Si O2"
_cell_formula_units_Z 56
_cell_length_a 19.161312
_cell_length_b 8.778129
_cell_length_c 25.696342
_cell_angle_alpha 90.000000
_cell_angle_beta 42.711133
_cell_angle_gamma 90.000000
_cell_volume 2931.715984
_symmetry_space_group_name_H-M "C 2/M"
_symmetry_group_IT_number 12
_symmetry_cell_setting 'monoclinic'
loop_
_space_group_symop_operation_xyz
x,y,z
-x,y,-z
-x,-y,-z
x,-y,z
1/2+x,1/2+y,z
1/2-x,1/2+y,-z
1/2-x,1/2-y,-z
1/2+x,1/2-y,z
loop_
_atom_site_type_symbol
_atom_site_label
_atom_site_fract_x
_atom_site_fract_y
_atom_site_fract_z
Si Si1 0.010190 0.322560 0.802594
Si Si2 0.592682 0.318763 0.485677
Si Si3 0.666610 0.674451 0.901753
Si Si4 0.120912 0.822456 0.210866
Si Si5 0.807923 0.819600 0.356708
Si Si6 0.516523 0.325125 0.075438
Si Si7 0.937767 0.179039 0.382269
O O1 0.031632 0.500000 0.783654
O O2 0.914068 0.272775 0.820033
O O3 0.979426 0.287826 0.878447
O O4 0.112974 0.230696 0.731319
O O5 0.500000 0.260454 0.500000
O O6 0.596534 0.500000 0.484001
O O7 0.698795 0.256154 0.404419
O O8 0.577125 0.249282 0.552319
O O9 0.703816 0.500000 0.879864
O O10 0.762094 0.785183 0.839771
O O11 0.587009 0.707306 0.899532
O O12 0.614705 0.710823 0.985623
O O13 0.050263 0.776363 0.298924
O O14 0.107264 0.000000 0.205564
O O15 0.850799 0.762134 0.389425
O O16 0.797066 0.000000 0.361038
O O17 0.519521 0.500000 0.092615
O O18 0.927444 0.000000 0.393108
#
# Coordination Sequence:
#
# PCOD8097434 Si02
#       7
#     8   8   8   8   8   8   8
#     4  11  22  36  56  81 107 138 181 227 272 322
#     4  10  20  34  53  79 110 139 171 215 264 315
#     4   9  19  36  57  80 108 144 181 217 263 321
#     4  10  20  35  55  79 109 143 181 226 270 314
#     4  10  20  36  56  76 103 139 178 219 265 318
#     4   9  19  37  57  78 109 145 179 218 267 321
#     4   8  17  34  53  74 102 138 175 211 258 313
#
# _framework density 19.10144
#
# number of rings (size 3 to 8) (size 9 to 14) (size 15 to 20)
#    0.000    2.429    0.000    4.286    0.000    3.143 
#    0.000    6.429    0.000    0.000    0.000    0.000 
#    0.000    0.000    0.000    0.000    0.000    0.000 
#
# Total GULP energy -347240.251809 kJ/mol
# GULP energy per Si atom -12401.437565 kJ/mol
# Density = 1.905796 g / cm^3
# Si number density = 19.101440 Si / 1000 Ang^3
#
#
#
# Elastic Constant Matrix: (Units=GPa)
#
#
# Indices 1 2 3 4 5 6 
#
# 1 58.7288 20.7036 20.1161 0.0000 -18.0721 -0.0006
# 2 20.7036 42.1721 14.1481 0.0000 -1.4487 -0.0019
# 3 20.1161 14.1481 52.4017 0.0001 -9.4111 0.0001
# 4 0.0000 0.0000 0.0001 28.8597 0.0001 -6.6641
# 5 -18.0721 -1.4487 -9.4111 0.0001 38.5838 0.0000
# 6 -0.0006 -0.0019 0.0001 -6.6641 0.0000 29.2075
#
#
#
# Elastic Compliance Matrix: (Units=1/GPa)
#
#
# Indices 1 2 3 4 5 6 
#
# 1 0.025702 -0.010531 -0.005158 0.000000 0.010385 0.000000
# 2 -0.010531 0.030411 -0.005071 0.000000 -0.005028 0.000002
# 3 -0.005158 -0.005071 0.022971 0.000000 0.002996 -0.000001
# 4 0.000000 0.000000 0.000000 0.036578 0.000000 0.008346
# 5 0.010385 -0.005028 0.002996 0.000000 0.031324 0.000000
# 6 0.000000 0.000002 -0.000001 0.008346 0.000000 0.036142
#
#
# Mechanical properties :
#
#
# Convention : Reuss Voigt Hill
#
# Bulk Modulus (GPa) = 26.62148 29.24869 27.93508
# Shear Modulus (GPa) = 21.08202 25.88585 23.48393
#
# Velocity S-wave (km/s) = 3.32578 3.68527 3.51013
# Velocity P-wave (km/s) = 5.35863 5.78393 5.57534
#
# Compressibility (1/GPa) = 0.03756365
#
# Stress axis : x y z
#
# Youngs Moduli (GPa) = 38.90691 32.88308 43.53343
#
# Poissons Ratio (x) = 0.34628 0.22456
# Poissons Ratio (y) = 0.40972 0.22076
# Poissons Ratio (z) = 0.20070 0.16675
#
# Static dielectric constant tensor:
#      x y z
#    x 3.509730 0.000000 0.061160 
#    y 0.000000 3.258310 0.000000 
#    z 0.061160 0.000000 3.546550 
# 
# 
# High freq. dielectric constant tensor:
#      x y z
#    x 1.739350 0.000000 -0.002830 
#    y 0.000000 1.727870 0.000000 
#    z -0.002830 0.000000 1.748170 
# 
# From -- ./inp_files/338498.got.cif
#   From: 2010.06.25/outbox.cif.g09.slc.cpg/sg12_170_cif.got.tgz:338498.got - 2010.06.28 00:19:55.
