data_PCOD8097234
_publ_section_title
;
Structure prediction by ZEFSAII (Michael W. Deem and Ramdas Pophale) SiO2 
 PCOD8097234
Probable space group: C 2/M
;
_chemical_formula_sum "Si O2"
_cell_formula_units_Z 48
_cell_length_a 14.257613
_cell_length_b 9.257246
_cell_length_c 19.163750
_cell_angle_alpha 90.000000
_cell_angle_beta 91.206450
_cell_angle_gamma 90.000000
_cell_volume 2528.790425
_symmetry_space_group_name_H-M "C 2/M"
_symmetry_group_IT_number 12
_symmetry_cell_setting 'monoclinic'
loop_
_space_group_symop_operation_xyz
x,y,z
-x,y,-z
-x,-y,-z
x,-y,z
1/2+x,1/2+y,z
1/2-x,1/2+y,-z
1/2-x,1/2-y,-z
1/2+x,1/2-y,z
loop_
_atom_site_type_symbol
_atom_site_label
_atom_site_fract_x
_atom_site_fract_y
_atom_site_fract_z
Si Si1 0.111335 0.163399 0.508048
Si Si2 0.620491 0.834132 0.374716
Si Si3 0.894514 0.669450 0.009139
Si Si4 0.270566 0.332650 0.262342
Si Si5 0.096137 0.668776 0.643019
Si Si6 0.760768 0.832562 0.102928
O O1 0.155718 0.238873 0.440639
O O2 0.142203 0.250294 0.577366
O O3 0.000000 0.168067 0.500000
O O4 0.149081 0.000000 0.514418
O O5 0.680706 0.794892 0.307954
O O6 0.513804 0.799122 0.353235
O O7 0.631486 0.000000 0.397544
O O8 0.894965 0.500000 0.024100
O O9 0.833953 0.709800 0.939753
O O10 0.849970 0.745158 0.075928
O O11 0.000000 0.727431 0.000000
O O12 0.299288 0.500000 0.270119
O O13 0.357843 0.234182 0.286738
O O14 0.243837 0.292564 0.183038
O O15 0.118091 0.500000 0.636934
O O16 0.784075 0.000000 0.093086
#
# Coordination Sequence:
#
# PCOD8097234 Si02
#       6
#     8   8   8   8   8   8
#     4   9  17  31  52  75 100 132 172 219 265 308
#     4   9  19  35  53  73 100 135 174 216 261 308
#     4   9  18  34  58  83 105 134 171 208 248 297
#     4  10  21  36  52  73 105 141 171 205 256 311
#     4  10  20  34  53  76 101 133 176 221 261 304
#     4   9  19  35  53  77 109 138 167 207 252 301
#
# _framework density 18.981407999999998
#
# number of rings (size 3 to 8) (size 9 to 14) (size 15 to 20)
#    0.000    2.667    0.000    1.000    0.000    6.333 
#    0.000    3.333    0.000    0.000    0.000    0.000 
#    0.000    0.000    0.000    0.000    0.000    0.000 
#
# Total GULP energy -297670.702740 kJ/mol
# GULP energy per Si atom -12402.945947 kJ/mol
# Density = 1.893821 g / cm^3
# Si number density = 18.981408 Si / 1000 Ang^3
#
#
#
# Elastic Constant Matrix: (Units=GPa)
#
#
# Indices 1 2 3 4 5 6 
#
# 1 87.2220 34.4470 44.5421 0.0000 -8.1948 0.0000
# 2 34.4470 74.9342 49.2072 0.0000 -1.9302 0.0000
# 3 44.5421 49.2072 135.0841 0.0000 -7.8967 0.0000
# 4 0.0000 0.0000 0.0000 33.0177 0.0000 -0.5925
# 5 -8.1948 -1.9302 -7.8967 0.0000 25.1980 0.0000
# 6 0.0000 0.0000 0.0000 -0.5925 0.0000 25.0769
#
#
#
# Elastic Compliance Matrix: (Units=1/GPa)
#
#
# Indices 1 2 3 4 5 6 
#
# 1 0.015313 -0.004955 -0.003031 0.000000 0.003651 0.000000
# 2 -0.004955 0.019155 -0.005452 0.000000 -0.001853 0.000000
# 3 -0.003031 -0.005452 0.010499 0.000000 0.001887 0.000000
# 4 0.000000 0.000000 0.000000 0.030300 0.000000 0.000716
# 5 0.003651 -0.001853 0.001887 0.000000 0.041322 0.000000
# 6 0.000000 0.000000 0.000000 0.000716 0.000000 0.039894
#
#
# Mechanical properties :
#
#
# Convention : Reuss Voigt Hill
#
# Bulk Modulus (GPa) = 55.27707 61.51476 58.39591
# Shear Modulus (GPa) = 26.40073 27.92813 27.16443
#
# Velocity S-wave (km/s) = 3.73349 3.83997 3.78710
# Velocity P-wave (km/s) = 6.91160 7.22072 7.06785
#
# Compressibility (1/GPa) = 0.01809069
#
# Stress axis : x y z
#
# Youngs Moduli (GPa) = 65.30584 52.20460 95.25124
#
# Poissons Ratio (x) = 0.25867 0.28869
# Poissons Ratio (y) = 0.32358 0.51933
# Poissons Ratio (z) = 0.19793 0.28463
#
# Static dielectric constant tensor:
#      x y z
#    x 3.444860 0.000000 0.030330 
#    y 0.000000 3.482950 0.000000 
#    z 0.030330 0.000000 3.499430 
# 
# 
# High freq. dielectric constant tensor:
#      x y z
#    x 1.736880 0.000000 0.001910 
#    y 0.000000 1.735890 0.000000 
#    z 0.001910 0.000000 1.733600 
# 
# From -- ./inp_files/267640.got.cif
#   From: 2010.06.25/outbox.cif.g09.slc.cpg/sg12_134_cif.got.tgz:267640.got - 2010.06.28 00:19:55.
