data_PCOD8097281
_publ_section_title
;
Structure prediction by ZEFSAII (Michael W. Deem and Ramdas Pophale) SiO2 
 PCOD8097281
Probable space group: C 2/M
;
_chemical_formula_sum "Si O2"
_cell_formula_units_Z 56
_cell_length_a 20.645415
_cell_length_b 9.386652
_cell_length_c 28.708674
_cell_angle_alpha 90.000000
_cell_angle_beta 147.650408
_cell_angle_gamma 90.000000
_cell_volume 2976.934220
_symmetry_space_group_name_H-M "C 2/M"
_symmetry_group_IT_number 12
_symmetry_cell_setting 'monoclinic'
loop_
_space_group_symop_operation_xyz
x,y,z
-x,y,-z
-x,-y,-z
x,-y,z
1/2+x,1/2+y,z
1/2-x,1/2+y,-z
1/2-x,1/2-y,-z
1/2+x,1/2-y,z
loop_
_atom_site_type_symbol
_atom_site_label
_atom_site_fract_x
_atom_site_fract_y
_atom_site_fract_z
Si Si1 0.252599 0.334765 0.570432
Si Si2 0.423390 0.161304 0.617303
Si Si3 0.072635 0.166105 0.908550
Si Si4 0.131895 0.331301 0.590918
Si Si5 0.728161 0.666538 0.915271
Si Si6 0.195761 0.336315 0.801601
Si Si7 0.692992 0.668640 0.225101
O O1 0.281429 0.500000 0.583989
O O2 0.374870 0.254691 0.630554
O O3 0.139559 0.290366 0.469023
O O4 0.221208 0.290202 0.603429
O O5 0.565955 0.180287 0.698298
O O6 0.388496 0.000000 0.607808
O O7 0.113085 0.191092 0.879515
O O8 0.935797 0.221298 0.833057
O O9 0.086736 0.000000 0.930607
O O10 0.154373 0.258698 0.992391
O O11 0.115349 0.500000 0.585418
O O12 0.196484 0.268435 0.676498
O O13 0.000000 0.262963 0.500000
O O14 0.755360 0.500000 0.925505
O O15 0.702305 0.734038 0.849586
O O16 0.218756 0.500000 0.831144
O O17 0.291163 0.287700 0.819584
O O18 0.699021 0.500000 0.233165
#
# Coordination Sequence:
#
# PCOD8097281 Si02
#       7
#     8   8   8   8   8   8   8
#     4   9  17  29  49  73  99 135 176 219 260 300
#     4   9  18  31  46  71 105 137 171 210 259 314
#     4   9  19  37  58  79 104 135 174 216 260 313
#     4   9  16  27  48  77 105 133 172 221 262 292
#     4  10  21  36  57  81 107 135 169 216 266 316
#     4  10  20  34  53  76 106 141 174 213 261 314
#     4   9  18  32  52  77 104 137 179 220 256 304
#
# _framework density 18.811299999999999
#
# number of rings (size 3 to 8) (size 9 to 14) (size 15 to 20)
#    0.000    2.714    0.000    1.286    2.000    5.143 
#    0.000    3.571    0.000    1.286    0.000    0.000 
#    0.000    0.000    0.000    0.000    0.000    0.000 
#
# Total GULP energy -347104.145529 kJ/mol
# GULP energy per Si atom -12396.576626 kJ/mol
# Density = 1.876848 g / cm^3
# Si number density = 18.811300 Si / 1000 Ang^3
#
#
#
# Elastic Constant Matrix: (Units=GPa)
#
#
# Indices 1 2 3 4 5 6 
#
# 1 115.8212 41.8661 62.0996 0.0000 1.8126 0.0000
# 2 41.8661 49.1240 29.5231 0.0000 -2.4995 -0.0001
# 3 62.0996 29.5231 81.9468 0.0002 3.0017 0.0000
# 4 0.0000 0.0000 0.0002 20.9273 0.0000 -2.0768
# 5 1.8126 -2.4995 3.0017 0.0000 31.3934 0.0000
# 6 0.0000 -0.0001 0.0000 -2.0768 0.0000 21.9364
#
#
#
# Elastic Compliance Matrix: (Units=1/GPa)
#
#
# Indices 1 2 3 4 5 6 
#
# 1 0.016998 -0.008678 -0.009728 0.000000 -0.000742 0.000000
# 2 -0.008678 0.030693 -0.004605 0.000000 0.003385 0.000000
# 3 -0.009728 -0.004605 0.021301 0.000000 -0.001842 0.000000
# 4 0.000000 0.000000 0.000000 0.048238 0.000000 0.004567
# 5 -0.000742 0.003385 -0.001842 0.000000 0.032342 0.000000
# 6 0.000000 0.000000 0.000000 0.004567 0.000000 0.046019
#
#
# Mechanical properties :
#
#
# Convention : Reuss Voigt Hill
#
# Bulk Modulus (GPa) = 43.53527 57.09665 50.31596
# Shear Modulus (GPa) = 20.05861 22.41165 21.23513
#
# Velocity S-wave (km/s) = 3.26898 3.45540 3.36348
# Velocity P-wave (km/s) = 6.11896 6.80720 6.47223
#
# Compressibility (1/GPa) = 0.02296988
#
# Stress axis : x y z
#
# Youngs Moduli (GPa) = 58.82976 32.58101 46.94576
#
# Poissons Ratio (x) = 0.28275 0.45667
# Poissons Ratio (y) = 0.51055 0.21619
# Poissons Ratio (z) = 0.57227 0.15004
#
# Static dielectric constant tensor:
#      x y z
#    x 3.627170 0.000000 0.043800 
#    y 0.000000 3.160280 0.000000 
#    z 0.043800 0.000000 3.492650 
# 
# 
# High freq. dielectric constant tensor:
#      x y z
#    x 1.740660 0.000000 0.000840 
#    y 0.000000 1.689020 0.000000 
#    z 0.000840 0.000000 1.730330 
# 
# From -- ./inp_files/237825.got.cif
#   From: 2010.06.25/outbox.cif.g09.slc.cpg/sg12_119_cif.got.tgz:237825.got - 2010.06.28 00:19:55.
