data_PCOD8097152
_publ_section_title
;
Structure prediction by ZEFSAII (Michael W. Deem and Ramdas Pophale) SiO2 
 PCOD8097152
Probable space group: C 2/M
;
_chemical_formula_sum "Si O2"
_cell_formula_units_Z 64
_cell_length_a 21.683855
_cell_length_b 9.247502
_cell_length_c 20.116555
_cell_angle_alpha 90.000000
_cell_angle_beta 53.432080
_cell_angle_gamma 90.000000
_cell_volume 3239.752527
_symmetry_space_group_name_H-M "C 2/M"
_symmetry_group_IT_number 12
_symmetry_cell_setting 'monoclinic'
loop_
_space_group_symop_operation_xyz
x,y,z
-x,y,-z
-x,-y,-z
x,-y,z
1/2+x,1/2+y,z
1/2-x,1/2+y,-z
1/2-x,1/2-y,-z
1/2+x,1/2-y,z
loop_
_atom_site_type_symbol
_atom_site_label
_atom_site_fract_x
_atom_site_fract_y
_atom_site_fract_z
Si Si1 0.076192 0.831154 0.727698
Si Si2 0.300590 0.665842 0.855823
Si Si3 0.623516 0.168711 0.961356
Si Si4 0.911025 0.169226 0.546026
Si Si5 0.357854 0.334487 0.178641
Si Si6 0.831655 0.828065 0.457465
Si Si7 0.322861 0.835208 0.716162
Si Si8 0.418982 0.666155 0.887116
O O1 0.115759 0.766578 0.768324
O O2 0.113298 0.767529 0.636799
O O3 0.985738 0.796691 0.790986
O O4 0.092830 0.000000 0.715374
O O5 0.312073 0.500000 0.826903
O O6 0.211779 0.704759 0.920932
O O7 0.343397 0.761857 0.773074
O O8 0.338897 0.698179 0.902149
O O9 0.601944 0.242039 0.905337
O O10 0.605871 0.000000 0.967769
O O11 0.572633 0.235999 0.052916
O O12 0.876724 0.214172 0.496132
O O13 0.863303 0.254875 0.630536
O O14 0.000000 0.211782 0.500000
O O15 0.899480 0.000000 0.565562
O O16 0.385139 0.500000 0.152690
O O17 0.267235 0.320988 0.236046
O O18 0.750000 0.750000 0.500000
O O19 0.817997 0.000000 0.462997
O O20 0.350834 0.000000 0.699755
O O21 0.425111 0.500000 0.906323
#
# Coordination Sequence:
#
# PCOD8097152 Si02
#       8
#     8   8   8   8   8   8   8   8
#     4   9  19  35  57  81 104 137 183 229 269 319
#     4   9  19  34  55  79 107 145 185 223 268 330
#     4  10  20  34  52  78 110 142 178 224 274 324
#     4  10  22  37  58  86 116 152 191 235 286 345
#     4   9  18  35  56  77 103 139 184 225 266 324
#     4  10  21  39  62  87 115 150 193 238 287 344
#     4  10  20  34  56  82 109 143 181 228 281 330
#     4  10  20  34  55  79 105 142 183 225 271 324
#
# _framework density 19.754594999999998
#
# number of rings (size 3 to 8) (size 9 to 14) (size 15 to 20)
#    0.000    2.375    0.000    1.875    1.750    3.750 
#    0.000    4.375    0.000    0.000    0.000    0.000 
#    0.000    0.000    0.000    0.000    0.000    0.000 
#
# Total GULP energy -396752.752331 kJ/mol
# GULP energy per Si atom -12398.523510 kJ/mol
# Density = 1.970963 g / cm^3
# Si number density = 19.754595 Si / 1000 Ang^3
#
#
#
# Elastic Constant Matrix: (Units=GPa)
#
#
# Indices 1 2 3 4 5 6 
#
# 1 85.9176 25.9314 31.3280 -0.0002 9.5973 0.0007
# 2 25.9314 61.9223 48.5216 -0.0010 11.4503 0.0020
# 3 31.3280 48.5216 130.0034 -0.0004 21.4164 0.0004
# 4 -0.0002 -0.0010 -0.0004 31.3184 0.0001 -0.6327
# 5 9.5973 11.4503 21.4164 0.0001 19.3980 -0.0001
# 6 0.0007 0.0020 0.0004 -0.6327 -0.0001 16.8565
#
#
#
# Elastic Compliance Matrix: (Units=1/GPa)
#
#
# Indices 1 2 3 4 5 6 
#
# 1 0.013692 -0.004220 -0.001245 0.000000 -0.002908 0.000000
# 2 -0.004220 0.024525 -0.007451 0.000001 -0.004162 -0.000003
# 3 -0.001245 -0.007451 0.012158 0.000000 -0.008409 0.000001
# 4 0.000000 0.000001 0.000000 0.031954 0.000000 0.001199
# 5 -0.002908 -0.004162 -0.008409 0.000000 0.064732 0.000001
# 6 0.000000 -0.000003 0.000001 0.001199 0.000001 0.059369
#
#
# Mechanical properties :
#
#
# Convention : Reuss Voigt Hill
#
# Bulk Modulus (GPa) = 40.74587 54.37838 47.56213
# Shear Modulus (GPa) = 20.79495 24.98541 22.89018
#
# Velocity S-wave (km/s) = 3.24800 3.56025 3.40770
# Velocity P-wave (km/s) = 5.89379 6.66987 6.29381
#
# Compressibility (1/GPa) = 0.02454236
#
# Stress axis : x y z
#
# Youngs Moduli (GPa) = 73.03710 40.77553 82.24809
#
# Poissons Ratio (x) = 0.17208 0.10241
# Poissons Ratio (y) = 0.30823 0.61280
# Poissons Ratio (z) = 0.09095 0.30380
#
# Static dielectric constant tensor:
#      x y z
#    x 3.775490 0.000000 0.107800 
#    y 0.000000 3.471300 0.000000 
#    z 0.107800 0.000000 3.666610 
# 
# 
# High freq. dielectric constant tensor:
#      x y z
#    x 1.775870 0.000000 0.005760 
#    y 0.000000 1.749820 0.000000 
#    z 0.005760 0.000000 1.777520 
# 
# From -- ./inp_files/324160.got.cif
#   From: 2010.06.25/outbox.cif.g09.slc.cpg/sg12_163_cif.got.tgz:324160.got - 2010.06.28 00:19:55.
