data_PCOD8097269
_publ_section_title
;
Structure prediction by ZEFSAII (Michael W. Deem and Ramdas Pophale) SiO2 
 PCOD8097269
Probable space group: C 2/M
;
_chemical_formula_sum "Si O2"
_cell_formula_units_Z 56
_cell_length_a 21.659648
_cell_length_b 8.732524
_cell_length_c 20.226032
_cell_angle_alpha 90.000000
_cell_angle_beta 50.934448
_cell_angle_gamma 90.000000
_cell_volume 2970.309020
_symmetry_space_group_name_H-M "C 2/M"
_symmetry_group_IT_number 12
_symmetry_cell_setting 'monoclinic'
loop_
_space_group_symop_operation_xyz
x,y,z
-x,y,-z
-x,-y,-z
x,-y,z
1/2+x,1/2+y,z
1/2-x,1/2+y,-z
1/2-x,1/2-y,-z
1/2+x,1/2-y,z
loop_
_atom_site_type_symbol
_atom_site_label
_atom_site_fract_x
_atom_site_fract_y
_atom_site_fract_z
Si Si1 0.587418 0.322988 0.450860
Si Si2 0.200096 0.326647 0.118604
Si Si3 0.318392 0.828233 0.719624
Si Si4 0.733618 0.317441 0.438624
Si Si5 0.664988 0.325035 0.744151
Si Si6 0.984304 0.322316 0.084420
Si Si7 0.630326 0.673199 0.044960
O O1 0.500000 0.244599 0.500000
O O2 0.574819 0.500000 0.474101
O O3 0.630323 0.297948 0.352384
O O4 0.646842 0.258573 0.468838
O O5 0.180739 0.500000 0.108613
O O6 0.169035 0.294619 0.212429
O O7 0.156194 0.204539 0.102581
O O8 0.294771 0.301296 0.053574
O O9 0.226515 0.810169 0.762715
O O10 0.347377 0.000000 0.681549
O O11 0.734807 0.500000 0.441631
O O12 0.750000 0.250000 0.500000
O O13 0.803775 0.264975 0.341698
O O14 0.651910 0.500000 0.731047
O O15 0.583825 0.260779 0.828281
O O16 0.962529 0.500000 0.095118
O O17 0.064670 0.296264 0.070336
O O18 0.000000 0.255309 0.000000
O O19 0.597456 0.500000 0.061801
#
# Coordination Sequence:
#
# PCOD8097269 Si02
#       7
#     8   8   8   8   8   8   8
#     4   9  19  36  56  80 109 140 179 230 276 326
#     4   9  18  34  53  75 106 140 177 220 269 321
#     4   9  18  33  55  80 105 137 175 219 268 320
#     4  10  20  37  60  84 113 151 191 233 288 343
#     4  10  20  36  58  83 111 143 185 230 273 332
#     4  11  23  37  54  79 111 145 182 227 277 327
#     4  10  20  34  53  76 104 142 182 222 267 318
#
# _framework density 18.853256999999999
#
# number of rings (size 3 to 8) (size 9 to 14) (size 15 to 20)
#    0.000    2.286    0.000    2.571    0.000    4.857 
#    2.571    0.000    0.000    0.000    0.000    0.000 
#    0.000    0.000    0.000    0.000    0.000    0.000 
#
# Total GULP energy -347069.776862 kJ/mol
# GULP energy per Si atom -12395.349174 kJ/mol
# Density = 1.881035 g / cm^3
# Si number density = 18.853257 Si / 1000 Ang^3
#
#
#
# Elastic Constant Matrix: (Units=GPa)
#
#
# Indices 1 2 3 4 5 6 
#
# 1 95.4120 29.8542 64.3949 0.0005 -6.8990 -0.0006
# 2 29.8542 54.9472 30.8591 0.0011 0.0203 -0.0018
# 3 64.3949 30.8591 104.6560 0.0001 2.5367 -0.0002
# 4 0.0005 0.0011 0.0001 26.7356 -0.0001 3.5594
# 5 -6.8990 0.0203 2.5367 -0.0001 26.0445 0.0002
# 6 -0.0006 -0.0018 -0.0002 3.5594 0.0002 25.6583
#
#
#
# Elastic Compliance Matrix: (Units=1/GPa)
#
#
# Indices 1 2 3 4 5 6 
#
# 1 0.019775 -0.004587 -0.010968 0.000000 0.006310 0.000000
# 2 -0.004587 0.022885 -0.003905 -0.000001 -0.000852 0.000002
# 3 -0.010968 -0.003905 0.017567 0.000000 -0.004613 0.000000
# 4 0.000000 -0.000001 0.000000 0.038107 0.000000 -0.005286
# 5 0.006310 -0.000852 -0.004613 0.000000 0.040517 0.000000
# 6 0.000000 0.000002 0.000000 -0.005286 0.000000 0.039707
#
#
# Mechanical properties :
#
#
# Convention : Reuss Voigt Hill
#
# Bulk Modulus (GPa) = 46.93240 56.13682 51.53461
# Shear Modulus (GPa) = 22.26384 24.34814 23.30599
#
# Velocity S-wave (km/s) = 3.44015 3.59758 3.51975
# Velocity P-wave (km/s) = 6.38178 6.86273 6.62662
#
# Compressibility (1/GPa) = 0.02130724
#
# Stress axis : x y z
#
# Youngs Moduli (GPa) = 50.56981 43.69716 56.92524
#
# Poissons Ratio (x) = 0.20043 0.62435
# Poissons Ratio (y) = 0.23195 0.22229
# Poissons Ratio (z) = 0.55464 0.17064
#
# Static dielectric constant tensor:
#      x y z
#    x 3.557620 0.000000 -0.014690 
#    y 0.000000 3.432850 0.000000 
#    z -0.014690 0.000000 3.372290 
# 
# 
# High freq. dielectric constant tensor:
#      x y z
#    x 1.732180 0.000000 0.001890 
#    y 0.000000 1.731160 0.000000 
#    z 0.001890 0.000000 1.727140 
# 
# From -- ./inp_files/287914.got.cif
#   From: 2010.06.25/outbox.cif.g09.slc.cpg/sg12_144_cif.got.tgz:287914.got - 2010.06.28 00:19:55.
