data_PCOD8097209
_publ_section_title
;
Structure prediction by ZEFSAII (Michael W. Deem and Ramdas Pophale) SiO2 
 PCOD8097209
Probable space group: C 2/M
;
_chemical_formula_sum "Si O2"
_cell_formula_units_Z 64
_cell_length_a 19.149165
_cell_length_b 29.818193
_cell_length_c 8.960557
_cell_angle_alpha 90.000000
_cell_angle_beta 138.794258
_cell_angle_gamma 90.000000
_cell_volume 3370.517570
_symmetry_space_group_name_H-M "C 2/M"
_symmetry_group_IT_number 12
_symmetry_cell_setting 'monoclinic'
loop_
_space_group_symop_operation_xyz
x,y,z
-x,y,-z
-x,-y,-z
x,-y,z
1/2+x,1/2+y,z
1/2-x,1/2+y,-z
1/2-x,1/2-y,-z
1/2+x,1/2-y,z
loop_
_atom_site_type_symbol
_atom_site_label
_atom_site_fract_x
_atom_site_fract_y
_atom_site_fract_z
Si Si1 0.701303 0.448092 0.651271
Si Si2 0.391438 0.053246 0.752728
Si Si3 0.205915 0.912347 0.981693
Si Si4 0.905369 0.551387 0.444607
Si Si5 0.115266 0.240486 0.612932
Si Si6 0.503813 0.306321 0.177804
Si Si7 0.494367 0.410366 0.817859
Si Si8 0.281481 0.690264 0.965464
O O1 0.720811 0.500000 0.723878
O O2 0.796076 0.428189 0.701593
O O3 0.687859 0.418744 0.777724
O O4 0.594180 0.443049 0.387725
O O5 0.389204 0.073972 0.581731
O O6 0.381279 0.000000 0.729839
O O7 0.500000 0.069539 0.000000
O O8 0.101611 0.924026 0.906928
O O9 0.297238 0.945983 0.179430
O O10 0.243172 0.862085 0.074980
O O11 0.937490 0.500000 0.523111
O O12 0.000000 0.574423 0.500000
O O13 0.092973 0.222859 0.408757
O O14 0.178232 0.287524 0.721537
O O15 0.000000 0.245691 0.500000
O O16 0.193327 0.205877 0.824706
O O17 0.533692 0.358238 0.253221
O O18 0.500000 0.292385 0.000000
O O19 0.385293 0.296485 0.040370
O O20 0.500000 0.421510 0.000000
#
# Coordination Sequence:
#
# PCOD8097209 Si02
#       8
#     8   8   8   8   8   8   8   8
#     4  11  22  34  52  77 103 137 179 220 261 304
#     4   9  18  34  53  72  97 130 170 214 259 306
#     4  11  21  34  52  75 104 133 172 218 261 308
#     4  10  20  34  53  75 100 135 176 216 260 309
#     4   9  17  33  54  75 102 131 166 203 245 304
#     4   9  18  33  54  78 103 133 167 206 253 305
#     4  10  21  36  52  74 106 140 173 212 262 314
#     4   9  19  33  52  76  99 133 169 203 250 305
#
# _framework density 18.988181999999998
#
# number of rings (size 3 to 8) (size 9 to 14) (size 15 to 20)
#    0.000    2.250    0.000    3.000    0.000    6.750 
#    0.000    0.000    0.000    0.750    0.000    0.000 
#    0.000    0.000    0.000    0.000    0.000    0.000 
#
# Total GULP energy -396749.397303 kJ/mol
# GULP energy per Si atom -12398.418666 kJ/mol
# Density = 1.894496 g / cm^3
# Si number density = 18.988182 Si / 1000 Ang^3
#
#
#
# Elastic Constant Matrix: (Units=GPa)
#
#
# Indices 1 2 3 4 5 6 
#
# 1 148.7496 25.5648 61.8454 0.0000 -8.7286 0.0000
# 2 25.5648 33.9893 21.9684 0.0000 3.5577 0.0000
# 3 61.8454 21.9684 120.0717 0.0000 -5.3157 0.0000
# 4 0.0000 0.0000 0.0000 31.9327 0.0000 3.6674
# 5 -8.7286 3.5577 -5.3157 0.0000 35.4193 0.0000
# 6 0.0000 0.0000 0.0000 3.6674 0.0000 3.2731
#
#
#
# Elastic Compliance Matrix: (Units=1/GPa)
#
#
# Indices 1 2 3 4 5 6 
#
# 1 0.009242 -0.004724 -0.003800 0.000000 0.002182 0.000000
# 2 -0.004724 0.036444 -0.004478 0.000000 -0.005497 0.000000
# 3 -0.003800 -0.004478 0.011157 0.000000 0.001188 0.000000
# 4 0.000000 0.000000 0.000000 0.035941 0.000000 -0.040270
# 5 0.002182 -0.005497 0.001188 0.000000 0.029501 0.000000
# 6 0.000000 0.000000 0.000000 -0.040270 0.000000 0.350640
#
#
# Mechanical properties :
#
#
# Convention : Reuss Voigt Hill
#
# Bulk Modulus (GPa) = 32.42515 57.95198 45.18857
# Shear Modulus (GPa) = 9.81916 27.02049 18.41982
#
# Velocity S-wave (km/s) = 2.27649 3.77638 3.11797
# Velocity P-wave (km/s) = 4.90137 7.04280 6.06731
#
# Compressibility (1/GPa) = 0.03084026
#
# Stress axis : x y z
#
# Youngs Moduli (GPa) = 108.19696 27.43950 89.62785
#
# Poissons Ratio (x) = 0.12963 0.34054
# Poissons Ratio (y) = 0.51115 0.40134
# Poissons Ratio (z) = 0.41110 0.12287
#
# Static dielectric constant tensor:
#      x y z
#    x 4.003580 0.000000 -0.087480 
#    y 0.000000 3.152410 0.000000 
#    z -0.087480 0.000000 3.467790 
# 
# 
# High freq. dielectric constant tensor:
#      x y z
#    x 1.747270 0.000000 -0.002630 
#    y 0.000000 1.704250 0.000000 
#    z -0.002630 0.000000 1.747490 
# 
# From -- ./inp_files/80789.got.cif
#   From: 2010.06.25/outbox.cif.g09.slc.cpg/sg12_41_cif.got.tgz:80789.got - 2010.06.28 00:19:55.
