data_PCOD8097701
_publ_section_title
;
Structure prediction by ZEFSAII (Michael W. Deem and Ramdas Pophale) SiO2 
 PCOD8097701
Probable space group: C 2/M
;
_chemical_formula_sum "Si O2"
_cell_formula_units_Z 56
_cell_length_a 20.496624
_cell_length_b 9.030751
_cell_length_c 27.929898
_cell_angle_alpha 90.000000
_cell_angle_beta 145.413217
_cell_angle_gamma 90.000000
_cell_volume 2934.669095
_symmetry_space_group_name_H-M "C 2/M"
_symmetry_group_IT_number 12
_symmetry_cell_setting 'monoclinic'
loop_
_space_group_symop_operation_xyz
x,y,z
-x,y,-z
-x,-y,-z
x,-y,z
1/2+x,1/2+y,z
1/2-x,1/2+y,-z
1/2-x,1/2-y,-z
1/2+x,1/2-y,z
loop_
_atom_site_type_symbol
_atom_site_label
_atom_site_fract_x
_atom_site_fract_y
_atom_site_fract_z
Si Si1 0.696027 0.172046 0.726212
Si Si2 0.797370 0.675784 0.160584
Si Si3 0.035828 0.328755 0.468091
Si Si4 0.409457 0.175200 0.812537
Si Si5 0.467490 0.175674 0.742620
Si Si6 0.570279 0.825560 0.995872
Si Si7 0.251039 0.324294 0.449236
O O1 0.705693 0.229416 0.786374
O O2 0.568210 0.203968 0.630755
O O3 0.784258 0.259541 0.746484
O O4 0.726417 0.000000 0.740795
O O5 0.790849 0.500000 0.153199
O O6 0.692085 0.744680 0.067901
O O7 0.913822 0.737753 0.207138
O O8 0.073945 0.500000 0.488127
O O9 0.140300 0.225315 0.516073
O O10 0.000000 0.285742 0.500000
O O11 0.452982 0.235524 0.787811
O O12 0.396782 0.000000 0.805290
O O13 0.499962 0.228019 0.907113
O O14 0.362592 0.231549 0.646754
O O15 0.469971 0.000000 0.744267
O O16 0.591816 0.000000 0.009042
O O17 0.500000 0.774542 0.000000
O O18 0.252747 0.500000 0.456404
O O19 0.250000 0.250000 0.500000
#
# Coordination Sequence:
#
# PCOD8097701 Si02
#       7
#     8   8   8   8   8   8   8
#     4  10  20  34  54  80 109 142 180 226 273 321
#     4  10  20  35  56  78 105 141 183 222 262 323
#     4  10  21  37  57  83 116 149 185 235 288 332
#     4  10  20  36  58  79 108 146 181 222 273 327
#     4   9  20  38  57  80 109 144 182 224 273 323
#     4  10  20  35  54  81 113 140 173 223 276 320
#     4  11  22  38  60  83 113 150 191 234 280 337
#
# _framework density 19.082218999999998
#
# number of rings (size 3 to 8) (size 9 to 14) (size 15 to 20)
#    0.000    2.000    1.429    2.143    0.000    4.571 
#    0.000    4.286    0.000    0.000    0.000    0.000 
#    0.000    0.000    0.000    0.000    0.000    0.000 
#
# Total GULP energy -347319.741488 kJ/mol
# GULP energy per Si atom -12404.276482 kJ/mol
# Density = 1.903879 g / cm^3
# Si number density = 19.082219 Si / 1000 Ang^3
#
#
#
# Elastic Constant Matrix: (Units=GPa)
#
#
# Indices 1 2 3 4 5 6 
#
# 1 141.9365 33.3375 68.2075 0.0000 3.9410 0.0000
# 2 33.3375 37.6222 35.5689 0.0000 4.0949 0.0000
# 3 68.2075 35.5689 132.2725 0.0001 2.8477 0.0000
# 4 0.0000 0.0000 0.0001 30.2359 0.0000 6.5211
# 5 3.9410 4.0949 2.8477 0.0000 39.3317 0.0000
# 6 0.0000 0.0000 0.0000 6.5211 0.0000 29.3810
#
#
#
# Elastic Compliance Matrix: (Units=1/GPa)
#
#
# Indices 1 2 3 4 5 6 
#
# 1 0.010128 -0.005392 -0.003769 0.000000 -0.000181 0.000000
# 2 -0.005392 0.038874 -0.007609 0.000000 -0.002956 0.000000
# 3 -0.003769 -0.007609 0.011543 0.000000 0.000334 0.000000
# 4 0.000000 0.000000 0.000000 0.034736 0.000000 -0.007710
# 5 -0.000181 -0.002956 0.000334 0.000000 0.025726 0.000000
# 6 0.000000 0.000000 0.000000 -0.007710 0.000000 0.035747
#
#
# Mechanical properties :
#
#
# Convention : Reuss Voigt Hill
#
# Bulk Modulus (GPa) = 37.03122 65.11765 51.07444
# Shear Modulus (GPa) = 25.08849 31.43753 28.26301
#
# Velocity S-wave (km/s) = 3.62989 4.06332 3.85270
# Velocity P-wave (km/s) = 6.08411 7.49753 6.82749
#
# Compressibility (1/GPa) = 0.02700424
#
# Stress axis : x y z
#
# Youngs Moduli (GPa) = 98.73724 25.72441 86.63571
#
# Poissons Ratio (x) = 0.13870 0.32651
# Poissons Ratio (y) = 0.53236 0.65925
# Poissons Ratio (z) = 0.37212 0.19575
#
# Static dielectric constant tensor:
#      x y z
#    x 2.360860 0.000000 -0.132560 
#    y 0.000000 3.232670 0.000000 
#    z -0.132560 0.000000 3.648630 
# 
# 
# High freq. dielectric constant tensor:
#      x y z
#    x 1.753330 0.000000 -0.002600 
#    y 0.000000 1.718530 0.000000 
#    z -0.002600 0.000000 1.757380 
# 
# From -- ./inp_files/362882.got.cif
#   From: 2010.06.25/outbox.cif.g09.slc.cpg/sg12_182_cif.got.tgz:362882.got - 2010.06.28 00:19:55.
