data_PCOD8097240
_publ_section_title
;
Structure prediction by ZEFSAII (Michael W. Deem and Ramdas Pophale) SiO2 
 PCOD8097240
Probable space group: C 2/M
;
_chemical_formula_sum "Si O2"
_cell_formula_units_Z 64
_cell_length_a 29.540644
_cell_length_b 9.146712
_cell_length_c 14.298336
_cell_angle_alpha 90.000000
_cell_angle_beta 121.204614
_cell_angle_gamma 90.000000
_cell_volume 3304.459090
_symmetry_space_group_name_H-M "C 2/M"
_symmetry_group_IT_number 12
_symmetry_cell_setting 'monoclinic'
loop_
_space_group_symop_operation_xyz
x,y,z
-x,y,-z
-x,-y,-z
x,-y,z
1/2+x,1/2+y,z
1/2-x,1/2+y,-z
1/2-x,1/2-y,-z
1/2+x,1/2-y,z
loop_
_atom_site_type_symbol
_atom_site_label
_atom_site_fract_x
_atom_site_fract_y
_atom_site_fract_z
Si Si1 0.163969 0.327973 0.123519
Si Si2 0.927128 0.835647 0.503487
Si Si3 0.316146 0.335219 0.489057
Si Si4 0.474714 0.171686 0.717340
Si Si5 0.908993 0.327365 0.120175
Si Si6 0.731547 0.171345 0.726305
Si Si7 0.867823 0.330446 0.702530
Si Si8 0.622591 0.829429 0.710220
O O1 0.175244 0.500000 0.124047
O O2 0.218412 0.241299 0.168516
O O3 0.137600 0.292485 0.194789
O O4 0.124187 0.264682 0.002425
O O5 0.871702 0.833334 0.496795
O O6 0.969651 0.751439 0.612233
O O7 0.920876 0.755516 0.397708
O O8 0.947110 0.000000 0.507373
O O9 0.294944 0.500000 0.480328
O O10 0.274322 0.246170 0.381760
O O11 0.323434 0.258723 0.597446
O O12 0.529909 0.223599 0.822549
O O13 0.427230 0.215320 0.736327
O O14 0.474935 0.000000 0.696621
O O15 0.906359 0.500000 0.111967
O O16 0.882946 0.273638 0.189393
O O17 0.681697 0.205301 0.739062
O O18 0.739752 0.000000 0.719635
O O19 0.857861 0.500000 0.670278
O O20 0.609470 0.000000 0.686808
#
# Coordination Sequence:
#
# PCOD8097240 Si02
#       8
#     8   8   8   8   8   8   8   8
#     4  10  21  36  52  73 102 134 171 211 249 293
#     4   9  17  30  50  78 107 132 162 202 251 303
#     4   9  17  31  53  78 103 132 165 202 249 305
#     4   9  17  32  54  77 102 133 167 203 247 298
#     4   9  19  35  54  75  99 132 174 212 245 291
#     4  10  20  34  53  76 102 132 167 208 252 298
#     4   9  18  32  52  78 105 132 163 204 251 297
#     4   9  18  34  54  75 101 133 168 206 249 297
#
# _framework density 19.367768999999999
#
# number of rings (size 3 to 8) (size 9 to 14) (size 15 to 20)
#    0.000    2.750    0.000    1.125    0.000    6.000 
#    0.000    6.875    0.000    0.000    0.000    4.375 
#    0.000    0.000    0.000    0.000    0.000    0.000 
#
# Total GULP energy -396814.002393 kJ/mol
# GULP energy per Si atom -12400.437575 kJ/mol
# Density = 1.932369 g / cm^3
# Si number density = 19.367769 Si / 1000 Ang^3
#
#
#
# Elastic Constant Matrix: (Units=GPa)
#
#
# Indices 1 2 3 4 5 6 
#
# 1 54.0661 17.3787 26.4387 0.0000 -8.6759 0.0000
# 2 17.3787 61.9637 34.2078 0.0000 -3.6229 0.0000
# 3 26.4387 34.2078 135.5526 0.0000 -7.6403 0.0000
# 4 0.0000 0.0000 0.0000 25.3032 0.0000 4.0138
# 5 -8.6759 -3.6229 -7.6403 0.0000 32.0241 0.0000
# 6 0.0000 0.0000 0.0000 4.0138 0.0000 15.3696
#
#
#
# Elastic Compliance Matrix: (Units=1/GPa)
#
#
# Indices 1 2 3 4 5 6 
#
# 1 0.022088 -0.004282 -0.002957 0.000000 0.004794 0.000000
# 2 -0.004282 0.019613 -0.004110 0.000000 0.000078 0.000000
# 3 -0.002957 -0.004110 0.009041 0.000000 0.000891 0.000000
# 4 0.000000 0.000000 0.000000 0.041229 0.000000 -0.010767
# 5 0.004794 0.000078 0.000891 0.000000 0.032747 0.000000
# 6 0.000000 0.000000 0.000000 -0.010767 0.000000 0.067875
#
#
# Mechanical properties :
#
#
# Convention : Reuss Voigt Hill
#
# Bulk Modulus (GPa) = 35.65858 45.29251 40.47554
# Shear Modulus (GPa) = 22.25800 26.10989 24.18394
#
# Velocity S-wave (km/s) = 3.39371 3.67565 3.53749
# Velocity P-wave (km/s) = 5.81443 6.43818 6.13424
#
# Compressibility (1/GPa) = 0.02804375
#
# Stress axis : x y z
#
# Youngs Moduli (GPa) = 45.27420 50.98687 110.60243
#
# Poissons Ratio (x) = 0.21832 0.32708
# Poissons Ratio (y) = 0.19386 0.45456
# Poissons Ratio (z) = 0.13389 0.20955
#
# Static dielectric constant tensor:
#      x y z
#    x 3.478130 0.000000 0.013160 
#    y 0.000000 3.448210 0.000000 
#    z 0.013160 0.000000 3.732690 
# 
# 
# High freq. dielectric constant tensor:
#      x y z
#    x 1.752100 0.000000 0.002220 
#    y 0.000000 1.736330 0.000000 
#    z 0.002220 0.000000 1.752480 
# 
# From -- ./inp_files/243855.got.cif
#   From: 2010.06.25/outbox.cif.g09.slc.cpg/sg12_122_cif.got.tgz:243855.got - 2010.06.28 00:19:55.
