data_PCOD8097685
_publ_section_title
;
Structure prediction by ZEFSAII (Michael W. Deem and Ramdas Pophale) SiO2 
 PCOD8097685
Probable space group: C 2/M
;
_chemical_formula_sum "Si O2"
_cell_formula_units_Z 64
_cell_length_a 19.758153
_cell_length_b 9.192788
_cell_length_c 23.344264
_cell_angle_alpha 90.000000
_cell_angle_beta 122.656666
_cell_angle_gamma 90.000000
_cell_volume 3569.802224
_symmetry_space_group_name_H-M "C 2/M"
_symmetry_group_IT_number 12
_symmetry_cell_setting 'monoclinic'
loop_
_space_group_symop_operation_xyz
x,y,z
-x,y,-z
-x,-y,-z
x,-y,z
1/2+x,1/2+y,z
1/2-x,1/2+y,-z
1/2-x,1/2-y,-z
1/2+x,1/2-y,z
loop_
_atom_site_type_symbol
_atom_site_label
_atom_site_fract_x
_atom_site_fract_y
_atom_site_fract_z
Si Si1 0.195055 0.170057 0.687678
Si Si2 0.093165 0.834680 0.031301
Si Si3 0.717314 0.668668 0.567873
Si Si4 0.125415 0.330898 0.429310
Si Si5 0.035014 0.171526 0.680746
Si Si6 0.617317 0.834187 0.814446
Si Si7 0.778096 0.165925 0.820846
Si Si8 0.334254 0.829863 0.038386
O O1 0.206021 0.222317 0.627649
O O2 0.106881 0.215511 0.670189
O O3 0.265068 0.241336 0.757638
O O4 0.207851 0.000000 0.698791
O O5 0.140111 0.785448 0.110194
O O6 0.119464 0.000000 0.027539
O O7 0.111645 0.726663 0.988347
O O8 0.000000 0.824012 0.000000
O O9 0.692605 0.500000 0.549111
O O10 0.809562 0.693088 0.591361
O O11 0.658383 0.766875 0.503552
O O12 0.106054 0.500000 0.429353
O O13 0.045118 0.246984 0.377179
O O14 0.055610 0.228284 0.753778
O O15 0.021405 0.000000 0.676791
O O16 0.707364 0.806641 0.833875
O O17 0.616257 0.797009 0.881062
O O18 0.590430 0.000000 0.790439
O O19 0.782144 0.000000 0.802639
O O20 0.317516 0.000000 0.023848
O O21 0.250000 0.750000 0.000000
#
# Coordination Sequence:
#
# PCOD8097685 Si02
#       8
#     8   8   8   8   8   8   8   8
#     4   9  19  35  55  79 103 135 177 219 262 309
#     4  10  21  38  56  77 112 148 182 227 280 328
#     4   9  19  37  57  76 104 141 178 215 256 307
#     4  10  20  35  56  79 107 141 174 213 261 310
#     4  10  20  34  54  80 108 137 173 217 264 314
#     4   9  18  34  54  77 106 138 176 222 268 315
#     4   9  17  33  54  76 105 141 175 216 269 320
#     4  11  21  35  58  83 108 141 186 230 274 329
#
# _framework density 17.928163999999999
#
# number of rings (size 3 to 8) (size 9 to 14) (size 15 to 20)
#    0.000    2.375    1.250    1.125    0.000    3.750 
#    2.250    2.500    0.000    0.000    0.000    0.000 
#    0.000    0.000    0.000    0.000    0.000    0.000 
#
# Total GULP energy -396867.297705 kJ/mol
# GULP energy per Si atom -12402.103053 kJ/mol
# Density = 1.788736 g / cm^3
# Si number density = 17.928164 Si / 1000 Ang^3
#
#
#
# Elastic Constant Matrix: (Units=GPa)
#
#
# Indices 1 2 3 4 5 6 
#
# 1 75.7099 50.2725 76.2388 0.0000 -5.4737 0.0000
# 2 50.2725 88.9849 78.4807 0.0000 -5.1705 0.0000
# 3 76.2388 78.4807 157.6385 0.0000 -2.2626 0.0000
# 4 0.0000 0.0000 0.0000 38.0543 0.0000 -0.6935
# 5 -5.4737 -5.1705 -2.2626 0.0000 30.9633 0.0000
# 6 0.0000 0.0000 0.0000 -0.6935 0.0000 24.8658
#
#
#
# Elastic Compliance Matrix: (Units=1/GPa)
#
#
# Indices 1 2 3 4 5 6 
#
# 1 0.028228 -0.006713 -0.010265 0.000000 0.003119 0.000000
# 2 -0.006713 0.021846 -0.007602 0.000000 0.001906 0.000000
# 3 -0.010265 -0.007602 0.015064 0.000000 -0.001983 0.000000
# 4 0.000000 0.000000 0.000000 0.026292 0.000000 0.000733
# 5 0.003119 0.001906 -0.001983 0.000000 0.033021 0.000000
# 6 0.000000 0.000000 0.000000 0.000733 0.000000 0.040236
#
#
# Mechanical properties :
#
#
# Convention : Reuss Voigt Hill
#
# Bulk Modulus (GPa) = 62.58602 81.36860 71.97731
# Shear Modulus (GPa) = 22.81293 26.59942 24.70617
#
# Velocity S-wave (km/s) = 3.57103 3.85602 3.71626
# Velocity P-wave (km/s) = 7.21028 8.08144 7.65825
#
# Compressibility (1/GPa) = 0.01597801
#
# Stress axis : x y z
#
# Youngs Moduli (GPa) = 35.42543 45.77548 66.38167
#
# Poissons Ratio (x) = 0.30729 0.68142
# Poissons Ratio (y) = 0.23781 0.50463
# Poissons Ratio (z) = 0.36365 0.34798
#
# Static dielectric constant tensor:
#      x y z
#    x 3.211390 0.000000 -0.070180 
#    y 0.000000 3.418920 0.000000 
#    z -0.070180 0.000000 3.431510 
# 
# 
# High freq. dielectric constant tensor:
#      x y z
#    x 1.679090 0.000000 -0.001390 
#    y 0.000000 1.698000 0.000000 
#    z -0.001390 0.000000 1.702760 
# 
# From -- ./inp_files/346198.got.cif
#   From: 2010.06.25/outbox.cif.g09.slc.cpg/sg12_174_cif.got.tgz:346198.got - 2010.06.28 00:19:55.
