data_PCOD8097418
_publ_section_title
;
Structure prediction by ZEFSAII (Michael W. Deem and Ramdas Pophale) SiO2 
 PCOD8097418
Probable space group: C 2/M
;
_chemical_formula_sum "Si O2"
_cell_formula_units_Z 44
_cell_length_a 9.177309
_cell_length_b 18.839989
_cell_length_c 16.162444
_cell_angle_alpha 90.000000
_cell_angle_beta 121.314826
_cell_angle_gamma 90.000000
_cell_volume 2387.403506
_symmetry_space_group_name_H-M "C 2/M"
_symmetry_group_IT_number 12
_symmetry_cell_setting 'monoclinic'
loop_
_space_group_symop_operation_xyz
x,y,z
-x,y,-z
-x,-y,-z
x,-y,z
1/2+x,1/2+y,z
1/2-x,1/2+y,-z
1/2-x,1/2-y,-z
1/2+x,1/2-y,z
loop_
_atom_site_type_symbol
_atom_site_label
_atom_site_fract_x
_atom_site_fract_y
_atom_site_fract_z
Si Si1 0.999281 0.580144 0.776066
Si Si2 0.400492 0.828412 0.890041
Si Si3 0.500000 0.740237 0.500000
Si Si4 0.514162 0.704061 0.813252
Si Si5 0.604812 0.581057 0.111286
Si Si6 0.629053 0.201432 0.370064
O O1 0.947440 0.500000 0.739655
O O2 0.896039 0.605401 0.826171
O O3 0.950638 0.628161 0.683947
O O4 0.198436 0.588106 0.854289
O O5 0.500570 0.762154 0.881011
O O6 0.210679 0.804619 0.851833
O O7 0.500000 0.854185 0.000000
O O8 0.449629 0.789129 0.562583
O O9 0.334436 0.692339 0.431182
O O10 0.436299 0.629682 0.821423
O O11 0.417133 0.731496 0.702427
O O12 0.556774 0.500000 0.120410
O O13 0.500000 0.606751 0.000000
#
# Coordination Sequence:
#
# PCOD8097418 Si02
#       6
#     8   8   4   8   8   8
#     4  10  21  37  54  76 111 144 174 215 261 309
#     4  11  21  32  52  79 109 147 183 216 251 296
#     4  10  20  36  60  78  98 122 170 224 270 330
#     4  11  20  34  54  78 109 139 179 223 260 308
#     4  10  20  34  53  78 111 150 184 214 250 298
#     4  10  20  36  56  80 100 132 170 217 273 318
#
# _framework density 18.430064000000002
#
# number of rings (size 3 to 8) (size 9 to 14) (size 15 to 20)
#    0.000    1.636    0.000    7.636    0.000    1.091 
#    0.000    0.909    0.000    4.364    0.000    0.000 
#    0.000    0.000    0.000    0.000    0.000    0.000 
#
# Total GULP energy -272856.459531 kJ/mol
# GULP energy per Si atom -12402.566342 kJ/mol
# Density = 1.838812 g / cm^3
# Si number density = 18.430064 Si / 1000 Ang^3
#
#
#
# Elastic Constant Matrix: (Units=GPa)
#
#
# Indices 1 2 3 4 5 6 
#
# 1 114.0382 42.2416 30.0674 0.0000 6.5196 0.0000
# 2 42.2416 114.5775 36.4326 0.0000 -2.2590 0.0000
# 3 30.0674 36.4326 80.3043 0.0000 3.9484 0.0000
# 4 0.0000 0.0000 0.0000 -11.7064 0.0000 68.2140
# 5 6.5196 -2.2590 3.9484 0.0000 36.3774 0.0000
# 6 0.0000 0.0000 0.0000 68.2140 0.0000 -105.2942
#
#
#
# Elastic Compliance Matrix: (Units=1/GPa)
#
#
# Indices 1 2 3 4 5 6 
#
# 1 0.010711 -0.003201 -0.002467 0.000000 -0.001851 0.000000
# 2 -0.003201 0.011203 -0.003968 0.000000 0.001700 0.000000
# 3 -0.002467 -0.003968 0.015248 0.000000 -0.001459 0.000000
# 4 0.000000 0.000000 0.000000 0.030783 0.000000 0.019942
# 5 -0.001851 0.001700 -0.001459 0.000000 0.028085 0.000000
# 6 0.000000 0.000000 0.000000 0.019942 0.000000 0.003422
#
#
# Mechanical properties :
#
#
# Convention : Reuss Voigt Hill
#
# Bulk Modulus (GPa) = 55.89529 58.48925 57.19227
# Shear Modulus (GPa) = 40.10022 -2.77941 18.66040
#
# Velocity S-wave (km/s) = 4.66961 -1.22937 3.18543
# Velocity P-wave (km/s) = 7.71154 5.45798 6.68047
#
# Compressibility (1/GPa) = 0.01789060
#
# Stress axis : x y z
#
# Youngs Moduli (GPa) = 93.36252 89.26256 65.58135
#
# Poissons Ratio (x) = 0.28571 0.16180
# Poissons Ratio (y) = 0.29883 0.26021
# Poissons Ratio (z) = 0.23035 0.35417
#
# Static dielectric constant tensor:
#      x y z
#    x 3.605960 0.000000 -0.109680 
#    y 0.000000 3.388880 0.000000 
#    z -0.109680 0.000000 3.880190 
# 
# 
# High freq. dielectric constant tensor:
#      x y z
#    x 1.729980 0.000000 0.004760 
#    y 0.000000 1.700800 0.000000 
#    z 0.004760 0.000000 1.716750 
# 
# From -- ./inp_files/195509.got.cif
#   From: 2010.06.25/outbox.cif.g09.slc.cpg/sg12_98_cif.got.tgz:195509.got - 2010.06.28 00:19:55.
