data_PCOD8097017
_publ_section_title
;
Structure prediction by ZEFSAII (Michael W. Deem and Ramdas Pophale) SiO2 
 PCOD8097017
Probable space group: C 2/M
;
_chemical_formula_sum "Si O2"
_cell_formula_units_Z 64
_cell_length_a 31.046834
_cell_length_b 14.138312
_cell_length_c 9.770978
_cell_angle_alpha 90.000000
_cell_angle_beta 120.688149
_cell_angle_gamma 90.000000
_cell_volume 3688.332652
_symmetry_space_group_name_H-M "C 2/M"
_symmetry_group_IT_number 12
_symmetry_cell_setting 'monoclinic'
loop_
_space_group_symop_operation_xyz
x,y,z
-x,y,-z
-x,-y,-z
x,-y,z
1/2+x,1/2+y,z
1/2-x,1/2+y,-z
1/2-x,1/2-y,-z
1/2+x,1/2-y,z
loop_
_atom_site_type_symbol
_atom_site_label
_atom_site_fract_x
_atom_site_fract_y
_atom_site_fract_z
Si Si1 0.307947 0.104205 0.887237
Si Si2 0.941112 0.891394 0.558703
Si Si3 0.188606 0.394534 0.427959
Si Si4 0.153093 0.783361 0.504948
Si Si5 0.553869 0.608212 0.753680
Si Si6 0.714529 0.322119 0.865818
Si Si7 0.149243 0.199620 0.998938
Si Si8 0.198663 0.891821 0.336377
O O1 0.304034 0.123630 0.720110
O O2 0.251444 0.101043 0.857846
O O3 0.331541 0.000000 0.954430
O O4 0.342000 0.187287 0.008589
O O5 0.903302 0.821254 0.572987
O O6 0.938858 0.872708 0.394207
O O7 0.996825 0.869521 0.704609
O O8 0.926400 0.000000 0.566264
O O9 0.167876 0.500000 0.422012
O O10 0.149959 0.320131 0.430444
O O11 0.242036 0.380159 0.588224
O O12 0.180340 0.773874 0.694720
O O13 0.184317 0.855458 0.462773
O O14 0.566947 0.500000 0.810661
O O15 0.590251 0.676996 0.898404
O O16 0.676774 0.360796 0.922327
O O17 0.750000 0.250000 0.000000
O O18 0.170991 0.170994 0.179737
O O19 0.181769 0.000000 0.294202
#
# Coordination Sequence:
#
# PCOD8097017 Si02
#       8
#     8   8   8   8   8   8   8   8
#     4  10  20  34  52  76 107 144 182 214 251 309
#     4   9  19  34  56  82 103 134 177 216 264 323
#     4  10  20  34  52  74 105 146 182 214 252 304
#     4  12  19  35  55  77 108 142 178 218 261 316
#     4   9  18  35  56  79 107 135 170 218 269 321
#     4  10  21  32  52  79 108 139 180 216 258 308
#     4  11  20  36  53  80 109 143 173 217 275 314
#     4  11  22  33  51  79 111 145 180 216 262 317
#
# _framework density 17.352014
#
# number of rings (size 3 to 8) (size 9 to 14) (size 15 to 20)
#    0.000    1.750    3.750    3.375    0.000    1.500 
#    0.000    4.375    0.000    3.000    0.000    3.500 
#    0.000    0.000    0.000    0.000    0.000    0.000 
#
# Total GULP energy -396684.596140 kJ/mol
# GULP energy per Si atom -12396.393629 kJ/mol
# Density = 1.731252 g / cm^3
# Si number density = 17.352014 Si / 1000 Ang^3
#
#
#
# Elastic Constant Matrix: (Units=GPa)
#
#
# Indices 1 2 3 4 5 6 
#
# 1 89.8847 54.5469 37.5460 0.0000 8.1155 0.0000
# 2 54.5469 113.3556 35.0258 0.0000 10.9873 0.0000
# 3 37.5460 35.0258 75.6211 0.0000 3.9834 0.0000
# 4 0.0000 0.0000 0.0000 19.1126 0.0000 2.7441
# 5 8.1155 10.9873 3.9834 0.0000 24.3494 0.0000
# 6 0.0000 0.0000 0.0000 2.7441 0.0000 25.4309
#
#
#
# Elastic Compliance Matrix: (Units=1/GPa)
#
#
# Indices 1 2 3 4 5 6 
#
# 1 0.017627 -0.006555 -0.005611 0.000000 -0.001999 0.000000
# 2 -0.006555 0.013113 -0.002645 0.000000 -0.003300 0.000000
# 3 -0.005611 -0.002645 0.017222 0.000000 0.000246 0.000000
# 4 0.000000 0.000000 0.000000 0.053145 0.000000 -0.005734
# 5 -0.001999 -0.003300 0.000246 0.000000 0.043184 0.000000
# 6 0.000000 0.000000 0.000000 -0.005734 0.000000 0.039941
#
#
# Mechanical properties :
#
#
# Convention : Reuss Voigt Hill
#
# Bulk Modulus (GPa) = 54.52385 59.23318 56.87852
# Shear Modulus (GPa) = 22.73064 23.89478 23.31271
#
# Velocity S-wave (km/s) = 3.62328 3.71490 3.66938
# Velocity P-wave (km/s) = 6.99962 7.25334 7.12761
#
# Compressibility (1/GPa) = 0.01834060
#
# Stress axis : x y z
#
# Youngs Moduli (GPa) = 56.72994 76.25875 58.06584
#
# Poissons Ratio (x) = 0.49987 0.32579
# Poissons Ratio (y) = 0.37186 0.15361
# Poissons Ratio (z) = 0.31829 0.20174
#
# Static dielectric constant tensor:
#      x y z
#    x 3.363090 0.000000 -0.070700 
#    y 0.000000 3.219650 0.000000 
#    z -0.070700 0.000000 3.144020 
# 
# 
# High freq. dielectric constant tensor:
#      x y z
#    x 1.654630 0.000000 -0.011480 
#    y 0.000000 1.660080 0.000000 
#    z -0.011480 0.000000 1.665180 
# 
# From -- ./inp_files/111655.got.cif
#   From: 2010.06.25/outbox.cif.g09.slc.cpg/sg12_56_cif.got.tgz:111655.got - 2010.06.28 00:19:55.
