data_PCOD8097308
_publ_section_title
;
Structure prediction by ZEFSAII (Michael W. Deem and Ramdas Pophale) SiO2 
 PCOD8097308
Probable space group: C 2/M
;
_chemical_formula_sum "Si O2"
_cell_formula_units_Z 56
_cell_length_a 18.511382
_cell_length_b 9.075149
_cell_length_c 19.814200
_cell_angle_alpha 90.000000
_cell_angle_beta 116.446150
_cell_angle_gamma 90.000000
_cell_volume 2980.324840
_symmetry_space_group_name_H-M "C 2/M"
_symmetry_group_IT_number 12
_symmetry_cell_setting 'monoclinic'
loop_
_space_group_symop_operation_xyz
x,y,z
-x,y,-z
-x,-y,-z
x,-y,z
1/2+x,1/2+y,z
1/2-x,1/2+y,-z
1/2-x,1/2-y,-z
1/2+x,1/2-y,z
loop_
_atom_site_type_symbol
_atom_site_label
_atom_site_fract_x
_atom_site_fract_y
_atom_site_fract_z
Si Si1 0.386630 0.672766 0.125064
Si Si2 0.636197 0.170360 0.416163
Si Si3 0.091396 0.827805 0.018189
Si Si4 0.479605 0.169267 0.273437
Si Si5 0.188483 0.829618 0.566924
Si Si6 0.765912 0.674190 0.851184
Si Si7 0.826033 0.670963 0.300228
O O1 0.399262 0.500000 0.134163
O O2 0.391472 0.728633 0.050435
O O3 0.460092 0.742901 0.197243
O O4 0.300580 0.720589 0.120495
O O5 0.563729 0.226625 0.338787
O O6 0.717333 0.193991 0.407932
O O7 0.635837 0.268303 0.483179
O O8 0.624390 0.000000 0.432178
O O9 0.111586 0.000000 0.034003
O O10 0.147854 0.736659 0.091686
O O11 0.000000 0.793141 0.000000
O O12 0.411617 0.196197 0.300845
O O13 0.486031 0.000000 0.255170
O O14 0.165081 0.737452 0.622336
O O15 0.166871 0.000000 0.568984
O O16 0.771208 0.500000 0.844663
O O17 0.743341 0.744264 0.769881
O O18 0.802396 0.500000 0.294598
#
# Coordination Sequence:
#
# PCOD8097308 Si02
#       7
#     8   8   8   8   8   8   8
#     4   9  19  35  54  76 103 135 170 210 256 305
#     4   9  19  36  54  74 103 138 175 212 253 304
#     4  10  21  36  53  77 108 138 170 209 255 307
#     4   9  19  35  55  77 100 132 174 215 254 301
#     4  10  20  34  53  77 105 137 173 213 256 305
#     4  10  20  35  55  77 102 134 173 214 254 301
#     4  10  20  35  55  77 103 135 170 211 259 308
#
# _framework density 18.789898000000001
#
# number of rings (size 3 to 8) (size 9 to 14) (size 15 to 20)
#    0.000    2.429    0.000    1.714    0.000    4.857 
#    0.000    5.714    0.000    0.000    0.000    0.000 
#    0.000    0.000    0.000    0.000    0.000    0.000 
#
# Total GULP energy -347318.461279 kJ/mol
# GULP energy per Si atom -12404.230760 kJ/mol
# Density = 1.874713 g / cm^3
# Si number density = 18.789898 Si / 1000 Ang^3
#
#
#
# Elastic Constant Matrix: (Units=GPa)
#
#
# Indices 1 2 3 4 5 6 
#
# 1 29.4948 16.5891 12.0822 0.0000 9.8141 0.0000
# 2 16.5891 58.8412 21.9082 0.0000 8.2651 0.0000
# 3 12.0822 21.9082 67.4374 0.0000 22.9598 0.0000
# 4 0.0000 0.0000 0.0000 40.7468 0.0000 0.5080
# 5 9.8141 8.2651 22.9598 0.0000 34.8532 0.0000
# 6 0.0000 0.0000 0.0000 0.5080 0.0000 24.6390
#
#
#
# Elastic Compliance Matrix: (Units=1/GPa)
#
#
# Indices 1 2 3 4 5 6 
#
# 1 0.043274 -0.010458 -0.001355 0.000000 -0.008812 0.000000
# 2 -0.010458 0.021870 -0.005760 0.000000 0.001553 0.000000
# 3 -0.001355 -0.005760 0.021074 0.000000 -0.012135 0.000000
# 4 0.000000 0.000000 0.000000 0.024548 0.000000 -0.000506
# 5 -0.008812 0.001553 -0.012135 0.000000 0.038799 0.000000
# 6 0.000000 0.000000 0.000000 -0.000506 0.000000 0.040597
#
#
# Mechanical properties :
#
#
# Convention : Reuss Voigt Hill
#
# Bulk Modulus (GPa) = 19.58034 28.54807 24.06420
# Shear Modulus (GPa) = 20.63297 27.06072 23.84684
#
# Velocity S-wave (km/s) = 3.31734 3.79908 3.56635
# Velocity P-wave (km/s) = 5.01161 5.87114 5.45832
#
# Compressibility (1/GPa) = 0.05107164
#
# Stress axis : x y z
#
# Youngs Moduli (GPa) = 23.10883 45.72548 47.45151
#
# Poissons Ratio (x) = 0.47818 0.06431
# Poissons Ratio (y) = 0.24166 0.27331
# Poissons Ratio (z) = 0.03132 0.26337
#
# Static dielectric constant tensor:
#      x y z
#    x 3.392240 0.000000 0.017220 
#    y 0.000000 3.442410 0.000000 
#    z 0.017220 0.000000 3.528850 
# 
# 
# High freq. dielectric constant tensor:
#      x y z
#    x 1.720570 0.000000 0.001420 
#    y 0.000000 1.731090 0.000000 
#    z 0.001420 0.000000 1.739320 
# 
# From -- ./inp_files/280908.got.cif
#   From: 2010.06.25/outbox.cif.g09.slc.cpg/sg12_141_cif.got.tgz:280908.got - 2010.06.28 00:19:55.
