data_PCOD8097730
_publ_section_title
;
Structure prediction by ZEFSAII (Michael W. Deem and Ramdas Pophale) SiO2 
 PCOD8097730
Probable space group: C 2/M
;
_chemical_formula_sum "Si O2"
_cell_formula_units_Z 64
_cell_length_a 30.365706
_cell_length_b 9.096918
_cell_length_c 24.084715
_cell_angle_alpha 90.000000
_cell_angle_beta 28.888973
_cell_angle_gamma 90.000000
_cell_volume 3214.168893
_symmetry_space_group_name_H-M "C 2/M"
_symmetry_group_IT_number 12
_symmetry_cell_setting 'monoclinic'
loop_
_space_group_symop_operation_xyz
x,y,z
-x,y,-z
-x,-y,-z
x,-y,z
1/2+x,1/2+y,z
1/2-x,1/2+y,-z
1/2-x,1/2-y,-z
1/2+x,1/2-y,z
loop_
_atom_site_type_symbol
_atom_site_label
_atom_site_fract_x
_atom_site_fract_y
_atom_site_fract_z
Si Si1 0.258613 0.662498 0.546053
Si Si2 0.082921 0.824963 0.123612
Si Si3 0.386017 0.674479 0.501072
Si Si4 0.756688 0.327006 0.252589
Si Si5 0.582276 0.673964 0.251402
Si Si6 0.448181 0.164143 0.202059
Si Si7 0.578993 0.339483 0.870707
Si Si8 0.740895 0.825730 0.878862
O O1 0.294377 0.500000 0.491843
O O2 0.250000 0.750000 0.500000
O O3 0.326202 0.738498 0.515825
O O4 0.159913 0.656136 0.681804
O O5 0.097894 0.775029 0.170657
O O6 0.985504 0.757739 0.213017
O O7 0.082387 0.000000 0.118031
O O8 0.158470 0.756690 0.999805
O O9 0.387053 0.500000 0.494453
O O10 0.339269 0.717589 0.611508
O O11 0.488558 0.738399 0.381540
O O12 0.774195 0.500000 0.239327
O O13 0.837434 0.245624 0.194460
O O14 0.753232 0.280128 0.192072
O O15 0.577114 0.500000 0.259350
O O16 0.666238 0.731507 0.195213
O O17 0.474352 0.246798 0.117055
O O18 0.490846 0.000000 0.156275
O O19 0.613287 0.500000 0.810827
O O20 0.500000 0.370036 0.000000
O O21 0.728202 0.000000 0.900247
#
# Coordination Sequence:
#
# PCOD8097730 Si02
#       8
#     8   8   8   8   8   8   8   8
#     4  10  20  34  54  80 113 149 186 226 277 335
#     4  11  22  37  58  84 117 155 192 240 296 346
#     4   9  17  34  56  81 115 149 186 234 287 341
#     4  10  20  36  58  83 115 151 190 239 291 342
#     4   9  19  35  58  86 115 149 192 242 293 343
#     4  11  22  37  57  83 114 149 189 232 279 337
#     4  11  23  37  55  81 114 151 191 233 283 344
#     4  10  21  37  59  87 114 149 195 242 292 345
#
# _framework density 19.911835
#
# number of rings (size 3 to 8) (size 9 to 14) (size 15 to 20)
#    0.000    1.875    1.250    3.000    0.000    6.000 
#    0.000    3.125    0.000    2.250    0.000    1.750 
#    0.000    0.000    0.000    0.000    0.000    0.000 
#
# Total GULP energy -396677.299505 kJ/mol
# GULP energy per Si atom -12396.165610 kJ/mol
# Density = 1.986652 g / cm^3
# Si number density = 19.911835 Si / 1000 Ang^3
#
#
#
# Elastic Constant Matrix: (Units=GPa)
#
#
# Indices 1 2 3 4 5 6 
#
# 1 116.2122 33.4147 28.4108 -0.0023 4.0237 0.0027
# 2 33.4147 63.7541 23.0535 0.0214 6.8264 -0.0128
# 3 28.4108 23.0535 89.3400 0.0109 7.3417 -0.0070
# 4 -0.0023 0.0214 0.0109 14.8633 -0.0021 3.5273
# 5 4.0237 6.8264 7.3417 -0.0021 38.2716 0.0020
# 6 0.0027 -0.0128 -0.0070 3.5273 0.0020 25.6375
#
#
#
# Elastic Compliance Matrix: (Units=1/GPa)
#
#
# Indices 1 2 3 4 5 6 
#
# 1 0.010482 -0.004743 -0.002122 0.000011 0.000151 -0.000006
# 2 -0.004743 0.019641 -0.003366 -0.000030 -0.002359 0.000014
# 3 -0.002122 -0.003366 0.012872 -0.000006 -0.001646 0.000003
# 4 0.000011 -0.000030 -0.000006 0.069551 0.000010 -0.009569
# 5 0.000151 -0.002359 -0.001646 0.000010 0.026850 -0.000005
# 6 -0.000006 0.000014 0.000003 -0.009569 -0.000005 0.040322
#
#
# Mechanical properties :
#
#
# Convention : Reuss Voigt Hill
#
# Bulk Modulus (GPa) = 44.37901 48.78492 46.58197
# Shear Modulus (GPa) = 24.07437 28.04964 26.06200
#
# Velocity S-wave (km/s) = 3.48091 3.75733 3.62176
# Velocity P-wave (km/s) = 6.20417 6.58612 6.39800
#
# Compressibility (1/GPa) = 0.02253317
#
# Stress axis : x y z
#
# Youngs Moduli (GPa) = 95.39999 50.91440 77.68896
#
# Poissons Ratio (x) = 0.24147 0.16485
# Poissons Ratio (y) = 0.45246 0.26151
# Poissons Ratio (z) = 0.20244 0.17138
#
# Static dielectric constant tensor:
#      x y z
#    x 3.862920 0.000020 -0.051260 
#    y 0.000020 3.422910 -0.007640 
#    z -0.051260 -0.007640 -0.698950 
# 
# 
# High freq. dielectric constant tensor:
#      x y z
#    x 1.784960 0.000000 0.001350 
#    y 0.000000 1.749550 0.000000 
#    z 0.001350 0.000000 1.784640 
# 
# From -- ./inp_files/249735.got.cif
#   From: 2010.06.25/outbox.cif.g09.slc.cpg/sg12_125_cif.got.tgz:249735.got - 2010.06.28 00:19:55.
