data_PCOD8097921
_publ_section_title
;
Structure prediction by ZEFSAII (Michael W. Deem and Ramdas Pophale) SiO2 
 PCOD8097921
Probable space group: C 2/M
;
_chemical_formula_sum "Si O2"
_cell_formula_units_Z 56
_cell_length_a 30.096798
_cell_length_b 12.501016
_cell_length_c 9.167745
_cell_angle_alpha 90.000000
_cell_angle_beta 61.605124
_cell_angle_gamma 90.000000
_cell_volume 3034.298692
_symmetry_space_group_name_H-M "C 2/M"
_symmetry_group_IT_number 12
_symmetry_cell_setting 'monoclinic'
loop_
_space_group_symop_operation_xyz
x,y,z
-x,y,-z
-x,-y,-z
x,-y,z
1/2+x,1/2+y,z
1/2-x,1/2+y,-z
1/2-x,1/2-y,-z
1/2+x,1/2-y,z
loop_
_atom_site_type_symbol
_atom_site_label
_atom_site_fract_x
_atom_site_fract_y
_atom_site_fract_z
Si Si1 0.319014 0.770085 0.501948
Si Si2 0.974851 0.210023 0.396269
Si Si3 0.456855 0.766440 0.969813
Si Si4 0.134153 0.625336 0.024328
Si Si5 0.770990 0.625573 0.304829
Si Si6 0.594136 0.378655 0.728571
Si Si7 0.392558 0.873283 0.613059
O O1 0.279100 0.694445 0.648139
O O2 0.291304 0.850635 0.435328
O O3 0.356226 0.693642 0.353284
O O4 0.348086 0.842703 0.572313
O O5 0.936474 0.129156 0.376554
O O6 0.945183 0.318558 0.485266
O O7 0.000000 0.156315 0.500000
O O8 0.021778 0.237770 0.220669
O O9 0.408578 0.841069 0.024743
O O10 0.500000 0.825945 0.000000
O O11 0.441035 0.659808 0.083326
O O12 0.133055 0.500000 0.032500
O O13 0.124074 0.670583 0.201802
O O14 0.188356 0.663304 0.879702
O O15 0.758533 0.500000 0.311620
O O16 0.610449 0.500000 0.730721
O O17 0.401445 0.000000 0.597061
#
# Coordination Sequence:
#
# PCOD8097921 Si02
#       7
#     8   8   8   8   8   8   8
#     4  10  20  36  58  82 109 142 178 230 269 322
#     4  10  20  34  55  79 109 140 181 228 264 317
#     4  10  20  35  53  78 110 144 181 222 269 316
#     4  10  20  35  55  81 112 145 178 217 271 325
#     4  10  20  35  58  84 109 140 180 224 273 323
#     4  10  21  37  56  77 106 145 184 224 274 324
#     4  10  21  36  56  81 113 148 178 218 272 327
#
# _framework density 18.455666000000001
#
# number of rings (size 3 to 8) (size 9 to 14) (size 15 to 20)
#    0.000    2.000    2.857    0.857    0.000    4.571 
#    0.000    0.000    0.000    0.000    0.000    0.000 
#    0.000    0.000    0.000    0.000    0.000    0.000 
#
# Total GULP energy -347174.744807 kJ/mol
# GULP energy per Si atom -12399.098029 kJ/mol
# Density = 1.841366 g / cm^3
# Si number density = 18.455666 Si / 1000 Ang^3
#
#
#
# Elastic Constant Matrix: (Units=GPa)
#
#
# Indices 1 2 3 4 5 6 
#
# 1 58.9846 14.5760 25.1896 0.0000 -0.3787 0.0000
# 2 14.5760 33.0774 35.9151 0.0000 -14.6642 0.0000
# 3 25.1896 35.9151 114.5328 0.0000 -3.1553 0.0000
# 4 0.0000 0.0000 0.0000 22.2898 0.0000 -3.4187
# 5 -0.3787 -14.6642 -3.1553 0.0000 30.2652 0.0000
# 6 0.0000 0.0000 0.0000 -3.4187 0.0000 17.9295
#
#
#
# Elastic Compliance Matrix: (Units=1/GPa)
#
#
# Indices 1 2 3 4 5 6 
#
# 1 0.019816 -0.008653 -0.001759 0.000000 -0.004128 0.000000
# 2 -0.008653 0.067804 -0.018510 0.000000 0.030815 0.000000
# 3 -0.001759 -0.018510 0.014717 0.000000 -0.007456 0.000000
# 4 0.000000 0.000000 0.000000 0.046215 0.000000 0.008812
# 5 -0.004128 0.030815 -0.007456 0.000000 0.047143 0.000000
# 6 0.000000 0.000000 0.000000 0.008812 0.000000 0.057454
#
#
# Mechanical properties :
#
#
# Convention : Reuss Voigt Hill
#
# Bulk Modulus (GPa) = 22.47476 39.77293 31.12385
# Shear Modulus (GPa) = 15.34573 22.82451 19.08512
#
# Velocity S-wave (km/s) = 2.88669 3.52052 3.21924
# Velocity P-wave (km/s) = 4.82854 6.17436 5.54245
#
# Compressibility (1/GPa) = 0.04449435
#
# Stress axis : x y z
#
# Youngs Moduli (GPa) = 50.46340 14.74838 67.94931
#
# Poissons Ratio (x) = 0.12761 0.11950
# Poissons Ratio (y) = 0.43665 1.25774
# Poissons Ratio (z) = 0.08875 0.27299
#
# Static dielectric constant tensor:
#      x y z
#    x 3.462880 0.000000 -0.045570 
#    y 0.000000 3.095090 0.000000 
#    z -0.045570 0.000000 3.734840 
# 
# 
# High freq. dielectric constant tensor:
#      x y z
#    x 1.721210 0.000000 -0.006970 
#    y 0.000000 1.692590 0.000000 
#    z -0.006970 0.000000 1.727870 
# 
# From -- ./inp_files/103270.got.cif
#   From: 2010.06.25/outbox.cif.g09.slc.cpg/sg12_52_cif.got.tgz:103270.got - 2010.06.28 00:19:55.
