data_PCOD8097735
_publ_section_title
;
Structure prediction by ZEFSAII (Michael W. Deem and Ramdas Pophale) SiO2 
 PCOD8097735
Probable space group: C 2/M
;
_chemical_formula_sum "Si O2"
_cell_formula_units_Z 48
_cell_length_a 21.501059
_cell_length_b 9.208207
_cell_length_c 13.384985
_cell_angle_alpha 90.000000
_cell_angle_beta 114.009494
_cell_angle_gamma 90.000000
_cell_volume 2420.755508
_symmetry_space_group_name_H-M "C 2/M"
_symmetry_group_IT_number 12
_symmetry_cell_setting 'monoclinic'
loop_
_space_group_symop_operation_xyz
x,y,z
-x,y,-z
-x,-y,-z
x,-y,z
1/2+x,1/2+y,z
1/2-x,1/2+y,-z
1/2-x,1/2-y,-z
1/2+x,1/2-y,z
loop_
_atom_site_type_symbol
_atom_site_label
_atom_site_fract_x
_atom_site_fract_y
_atom_site_fract_z
Si Si1 0.034177 0.672535 0.919680
Si Si2 0.773863 0.334170 0.614666
Si Si3 0.681742 0.337872 0.727829
Si Si4 0.574091 0.163788 0.308699
Si Si5 0.179135 0.327120 0.924875
Si Si6 0.935258 0.160516 0.505076
O O1 0.029462 0.500000 0.918738
O O2 0.113635 0.718500 0.952093
O O3 0.985775 0.732569 0.798610
O O4 0.000000 0.733941 0.000000
O O5 0.749425 0.500000 0.581314
O O6 0.750000 0.250000 0.500000
O O7 0.740463 0.272669 0.694569
O O8 0.852957 0.327932 0.696835
O O9 0.700932 0.500000 0.782293
O O10 0.663895 0.225200 0.803168
O O11 0.617179 0.351072 0.617146
O O12 0.590390 0.248015 0.419787
O O13 0.553644 0.000000 0.322230
O O14 0.188715 0.500000 0.934241
O O15 0.250000 0.250000 0.000000
O O16 0.000000 0.240494 0.500000
O O17 0.954648 0.000000 0.557427
#
# Coordination Sequence:
#
# PCOD8097735 Si02
#       6
#     8   8   8   8   8   8
#     4   9  20  39  63  87 113 151 199 246 293 347
#     4  10  20  34  56  86 118 155 195 236 288 345
#     4  10  21  37  57  83 119 156 193 236 290 350
#     4  10  20  34  57  86 112 146 196 246 286 336
#     4  11  24  41  64  90 117 152 196 246 300 354
#     4  10  20  34  54  80 113 155 188 225 290 356
#
# _framework density 19.828520000000001
#
# number of rings (size 3 to 8) (size 9 to 14) (size 15 to 20)
#    0.000    2.000    1.667    1.500    2.333    1.667 
#    0.000    0.833    0.000    2.500    0.000    0.000 
#    0.000    0.000    0.000    0.000    0.000    0.000 
#
# Total GULP energy -297345.182997 kJ/mol
# GULP energy per Si atom -12389.382625 kJ/mol
# Density = 1.978339 g / cm^3
# Si number density = 19.828520 Si / 1000 Ang^3
#
#
#
# Elastic Constant Matrix: (Units=GPa)
#
#
# Indices 1 2 3 4 5 6 
#
# 1 152.9765 37.8563 50.0843 0.0000 -8.5201 0.0000
# 2 37.8563 58.6423 36.1233 0.0000 -7.1145 0.0000
# 3 50.0843 36.1233 94.9420 0.0000 -7.2947 0.0000
# 4 0.0000 0.0000 0.0000 28.0203 0.0000 0.5117
# 5 -8.5201 -7.1145 -7.2947 0.0000 39.3578 0.0000
# 6 0.0000 0.0000 0.0000 0.5117 0.0000 26.5680
#
#
#
# Elastic Compliance Matrix: (Units=1/GPa)
#
#
# Indices 1 2 3 4 5 6 
#
# 1 0.008441 -0.003474 -0.003083 0.000000 0.000628 0.000000
# 2 -0.003474 0.023946 -0.007105 0.000000 0.002260 0.000000
# 3 -0.003083 -0.007105 0.014925 0.000000 0.000815 0.000000
# 4 0.000000 0.000000 0.000000 0.035701 0.000000 -0.000688
# 5 0.000628 0.002260 0.000815 0.000000 0.026103 0.000000
# 6 0.000000 0.000000 0.000000 -0.000688 0.000000 0.037652
#
#
# Mechanical properties :
#
#
# Convention : Reuss Voigt Hill
#
# Bulk Modulus (GPa) = 50.02821 61.63207 55.83014
# Shear Modulus (GPa) = 27.66202 30.95569 29.30885
#
# Velocity S-wave (km/s) = 3.73910 3.95545 3.84880
# Velocity P-wave (km/s) = 6.62770 7.21185 6.92594
#
# Compressibility (1/GPa) = 0.01998872
#
# Stress axis : x y z
#
# Youngs Moduli (GPa) = 118.47099 41.76138 67.00281
#
# Poissons Ratio (x) = 0.14507 0.20656
# Poissons Ratio (y) = 0.41154 0.47603
# Poissons Ratio (z) = 0.36523 0.29670
#
# Static dielectric constant tensor:
#      x y z
#    x 3.808860 0.000000 -0.023430 
#    y 0.000000 3.603050 0.000000 
#    z -0.023430 0.000000 3.539270 
# 
# 
# High freq. dielectric constant tensor:
#      x y z
#    x 1.798690 0.000000 0.003070 
#    y 0.000000 1.742430 0.000000 
#    z 0.003070 0.000000 1.767930 
# 
# From -- ./inp_files/173048.got.cif
#   From: 2010.06.25/outbox.cif.g09.slc.cpg/sg12_87_cif.got.tgz:173048.got - 2010.06.28 00:19:55.
