data_PCOD8097193
_publ_section_title
;
Structure prediction by ZEFSAII (Michael W. Deem and Ramdas Pophale) SiO2 
 PCOD8097193
Probable space group: C 2/M
;
_chemical_formula_sum "Si O2"
_cell_formula_units_Z 56
_cell_length_a 28.905677
_cell_length_b 8.967138
_cell_length_c 21.400627
_cell_angle_alpha 90.000000
_cell_angle_beta 149.477371
_cell_angle_gamma 90.000000
_cell_volume 2817.237308
_symmetry_space_group_name_H-M "C 2/M"
_symmetry_group_IT_number 12
_symmetry_cell_setting 'monoclinic'
loop_
_space_group_symop_operation_xyz
x,y,z
-x,y,-z
-x,-y,-z
x,-y,z
1/2+x,1/2+y,z
1/2-x,1/2+y,-z
1/2-x,1/2-y,-z
1/2+x,1/2-y,z
loop_
_atom_site_type_symbol
_atom_site_label
_atom_site_fract_x
_atom_site_fract_y
_atom_site_fract_z
Si Si1 0.830237 0.671898 0.057144
Si Si2 0.555457 0.676518 0.155483
Si Si3 0.651710 0.678511 0.392476
Si Si4 0.257295 0.328310 0.172084
Si Si5 0.540142 0.673795 0.614483
Si Si6 0.367146 0.323938 0.882791
Si Si7 0.979811 0.322767 0.666044
O O1 0.822654 0.500000 0.065770
O O2 0.928667 0.733068 0.192172
O O3 0.750000 0.750000 0.000000
O O4 0.817290 0.700331 0.968498
O O5 0.551605 0.500000 0.151464
O O6 0.592399 0.736131 0.264335
O O7 0.622741 0.727251 0.177545
O O8 0.453997 0.737087 0.023349
O O9 0.658754 0.500000 0.403479
O O10 0.750000 0.750000 0.500000
O O11 0.605490 0.741569 0.401195
O O12 0.267211 0.500000 0.201699
O O13 0.355379 0.269643 0.263360
O O14 0.225207 0.244370 0.197022
O O15 0.500000 0.706137 0.500000
O O16 0.532837 0.500000 0.624166
O O17 0.484040 0.770521 0.599183
O O18 0.360499 0.500000 0.880295
O O19 0.966449 0.500000 0.654115
#
# Coordination Sequence:
#
# PCOD8097193 Si02
#       7
#     8   8   8   8   8   8   8
#     4  10  20  34  56  84 115 148 187 234 285 342
#     4   8  17  35  57  82 110 142 183 232 282 333
#     4  11  23  40  61  84 114 153 195 239 287 342
#     4  10  20  34  52  81 116 145 181 230 281 334
#     4  10  22  40  59  79 111 155 195 231 280 345
#     4   9  17  33  58  83 108 141 183 228 280 341
#     4  11  23  39  60  88 117 148 191 243 294 347
#
# _framework density 19.87763
#
# number of rings (size 3 to 8) (size 9 to 14) (size 15 to 20)
#    0.000    2.143    1.429    2.571    0.000    3.143 
#    0.000    6.429    0.000    0.000    0.000    0.000 
#    0.000    0.000    0.000    0.000    0.000    0.000 
#
# Total GULP energy -347211.870865 kJ/mol
# GULP energy per Si atom -12400.423959 kJ/mol
# Density = 1.983239 g / cm^3
# Si number density = 19.877630 Si / 1000 Ang^3
#
#
#
# Elastic Constant Matrix: (Units=GPa)
#
#
# Indices 1 2 3 4 5 6 
#
# 1 157.5873 50.6990 41.8617 0.0000 10.6722 0.0000
# 2 50.6990 57.1061 27.5089 0.0000 4.0428 0.0000
# 3 41.8617 27.5089 78.8845 0.0000 -0.9421 0.0000
# 4 0.0000 0.0000 0.0000 23.5545 0.0000 4.3059
# 5 10.6722 4.0428 -0.9421 0.0000 31.2361 0.0000
# 6 0.0000 0.0000 0.0000 4.3059 0.0000 39.1039
#
#
#
# Elastic Compliance Matrix: (Units=1/GPa)
#
#
# Indices 1 2 3 4 5 6 
#
# 1 0.009439 -0.006951 -0.002614 0.000000 -0.002404 0.000000
# 2 -0.006951 0.026440 -0.005546 0.000000 -0.001215 0.000000
# 3 -0.002614 -0.005546 0.016023 0.000000 0.002094 0.000000
# 4 0.000000 0.000000 0.000000 0.043327 0.000000 -0.004771
# 5 -0.002404 -0.001215 0.002094 0.000000 0.033056 0.000000
# 6 0.000000 0.000000 0.000000 -0.004771 0.000000 0.026098
#
#
# Mechanical properties :
#
#
# Convention : Reuss Voigt Hill
#
# Bulk Modulus (GPa) = 46.12473 59.30191 52.71332
# Shear Modulus (GPa) = 26.06461 30.34612 28.20536
#
# Velocity S-wave (km/s) = 3.62505 3.91147 3.77098
# Velocity P-wave (km/s) = 6.38561 7.09209 6.74810
#
# Compressibility (1/GPa) = 0.02168034
#
# Stress axis : x y z
#
# Youngs Moduli (GPa) = 105.94320 37.82184 62.41045
#
# Poissons Ratio (x) = 0.26289 0.16313
# Poissons Ratio (y) = 0.73637 0.34614
# Poissons Ratio (z) = 0.27692 0.20977
#
# Static dielectric constant tensor:
#      x y z
#    x 3.755890 0.000000 -0.155710 
#    y 0.000000 3.372830 0.000000 
#    z -0.155710 0.000000 3.951440 
# 
# 
# High freq. dielectric constant tensor:
#      x y z
#    x 1.787890 0.000000 -0.000590 
#    y 0.000000 1.754130 0.000000 
#    z -0.000590 0.000000 1.770330 
# 
# From -- ./inp_files/329706.got.cif
#   From: 2010.06.25/outbox.cif.g09.slc.cpg/sg12_165_cif.got.tgz:329706.got - 2010.06.28 00:19:55.
