data_PCOD8097300
_publ_section_title
;
Structure prediction by ZEFSAII (Michael W. Deem and Ramdas Pophale) SiO2 
 PCOD8097300
Probable space group: C 2/M
;
_chemical_formula_sum "Si O2"
_cell_formula_units_Z 64
_cell_length_a 19.521020
_cell_length_b 9.050319
_cell_length_c 20.082466
_cell_angle_alpha 90.000000
_cell_angle_beta 90.863417
_cell_angle_gamma 90.000000
_cell_volume 3547.595705
_symmetry_space_group_name_H-M "C 2/M"
_symmetry_group_IT_number 12
_symmetry_cell_setting 'monoclinic'
loop_
_space_group_symop_operation_xyz
x,y,z
-x,y,-z
-x,-y,-z
x,-y,z
1/2+x,1/2+y,z
1/2-x,1/2+y,-z
1/2-x,1/2-y,-z
1/2+x,1/2-y,z
loop_
_atom_site_type_symbol
_atom_site_label
_atom_site_fract_x
_atom_site_fract_y
_atom_site_fract_z
Si Si1 0.797472 0.832041 0.799499
Si Si2 0.048939 0.327012 0.558893
Si Si3 0.302989 0.327694 0.952792
Si Si4 0.206614 0.325999 0.556481
Si Si5 0.050705 0.828046 0.693252
Si Si6 0.557304 0.830277 0.055950
Si Si7 0.707932 0.327567 0.692544
Si Si8 0.955009 0.171672 0.810759
O O1 0.780615 0.800405 0.876331
O O2 0.753831 0.719566 0.755279
O O3 0.877238 0.802350 0.786274
O O4 0.777924 0.000000 0.780478
O O5 0.039295 0.500000 0.568199
O O6 0.127185 0.286346 0.542700
O O7 0.024928 0.252575 0.626737
O O8 0.000000 0.265862 0.500000
O O9 0.306161 0.500000 0.969513
O O10 0.377289 0.260576 0.967567
O O11 0.250000 0.250000 0.000000
O O12 0.220020 0.500000 0.555941
O O13 0.250000 0.250000 0.500000
O O14 0.230981 0.262117 0.627643
O O15 0.129590 0.790418 0.709784
O O16 0.005309 0.770946 0.753889
O O17 0.038916 0.000000 0.681307
O O18 0.527372 0.766429 0.124092
O O19 0.578503 0.000000 0.066778
O O20 0.500000 0.812029 0.000000
O O21 0.718455 0.500000 0.678299
O O22 0.967248 0.000000 0.828098
#
# Coordination Sequence:
#
# PCOD8097300 Si02
#       8
#     8   8   8   8   8   8   8   8
#     4   9  19  35  53  75 104 136 170 211 257 305
#     4   9  19  35  53  75 102 131 166 207 252 301
#     4  10  21  37  57  80 108 141 177 219 267 319
#     4  10  20  35  54  75 103 136 169 210 256 304
#     4   9  19  35  53  75 102 132 170 211 251 301
#     4  10  21  36  54  79 109 140 178 221 263 312
#     4  10  20  34  53  77 104 135 172 212 254 306
#     4   9  19  36  55  76 103 136 175 216 260 310
#
# _framework density 18.040386000000002
#
# number of rings (size 3 to 8) (size 9 to 14) (size 15 to 20)
#    0.000    2.500    0.000    2.250    0.000    7.250 
#    0.000    5.000    0.000    0.000    0.000    0.000 
#    0.000    0.000    0.000    0.000    0.000    0.000 
#
# Total GULP energy -396907.128427 kJ/mol
# GULP energy per Si atom -12403.347763 kJ/mol
# Density = 1.799933 g / cm^3
# Si number density = 18.040386 Si / 1000 Ang^3
#
#
#
# Elastic Constant Matrix: (Units=GPa)
#
#
# Indices 1 2 3 4 5 6 
#
# 1 86.0842 54.8304 82.6618 0.0000 -12.7372 0.0000
# 2 54.8304 95.3969 71.1829 0.0000 -4.2708 0.0000
# 3 82.6618 71.1829 134.9922 0.0000 -14.6088 0.0000
# 4 0.0000 0.0000 0.0000 39.0480 0.0000 -0.3907
# 5 -12.7372 -4.2708 -14.6088 0.0000 39.8885 0.0000
# 6 0.0000 0.0000 0.0000 -0.3907 0.0000 27.2260
#
#
#
# Elastic Compliance Matrix: (Units=1/GPa)
#
#
# Indices 1 2 3 4 5 6 
#
# 1 0.030524 -0.006142 -0.015066 0.000000 0.003572 0.000000
# 2 -0.006142 0.018611 -0.006299 0.000000 -0.002276 0.000000
# 3 -0.015066 -0.006299 0.020160 0.000000 0.001898 0.000000
# 4 0.000000 0.000000 0.000000 0.025613 0.000000 0.000368
# 5 0.003572 -0.002276 0.001898 0.000000 0.026662 0.000000
# 6 0.000000 0.000000 0.000000 0.000368 0.000000 0.036735
#
#
# Mechanical properties :
#
#
# Convention : Reuss Voigt Hill
#
# Bulk Modulus (GPa) = 70.02164 81.53597 75.77880
# Shear Modulus (GPa) = 22.92731 28.41905 25.67318
#
# Velocity S-wave (km/s) = 3.56882 3.97331 3.77649
# Velocity P-wave (km/s) = 7.47530 8.14519 7.81742
#
# Compressibility (1/GPa) = 0.01428130
#
# Stress axis : x y z
#
# Youngs Moduli (GPa) = 32.76076 53.73134 49.60256
#
# Poissons Ratio (x) = 0.33004 0.74731
# Poissons Ratio (y) = 0.20123 0.31244
# Poissons Ratio (z) = 0.49357 0.33844
#
# Static dielectric constant tensor:
#      x y z
#    x 3.319860 0.000000 -0.100630 
#    y 0.000000 3.392420 0.000000 
#    z -0.100630 0.000000 3.395770 
# 
# 
# High freq. dielectric constant tensor:
#      x y z
#    x 1.696590 0.000000 -0.003390 
#    y 0.000000 1.705600 0.000000 
#    z -0.003390 0.000000 1.702710 
# 
# From -- ./inp_files/314216.got.cif
#   From: 2010.06.25/outbox.cif.g09.slc.cpg/sg12_158_cif.got.tgz:314216.got - 2010.06.28 00:19:55.
