data_PCOD8097018
_publ_section_title
;
Structure prediction by ZEFSAII (Michael W. Deem and Ramdas Pophale) SiO2 
 PCOD8097018
Probable space group: C 2/M
;
_chemical_formula_sum "Si O2"
_cell_formula_units_Z 64
_cell_length_a 27.085187
_cell_length_b 14.395672
_cell_length_c 15.376449
_cell_angle_alpha 90.000000
_cell_angle_beta 144.514286
_cell_angle_gamma 90.000000
_cell_volume 3480.342769
_symmetry_space_group_name_H-M "C 2/M"
_symmetry_group_IT_number 12
_symmetry_cell_setting 'monoclinic'
loop_
_space_group_symop_operation_xyz
x,y,z
-x,y,-z
-x,-y,-z
x,-y,z
1/2+x,1/2+y,z
1/2-x,1/2+y,-z
1/2-x,1/2-y,-z
1/2+x,1/2-y,z
loop_
_atom_site_type_symbol
_atom_site_label
_atom_site_fract_x
_atom_site_fract_y
_atom_site_fract_z
Si Si1 0.394591 0.602248 0.184189
Si Si2 0.596505 0.602802 0.474253
Si Si3 0.111014 0.395589 0.410398
Si Si4 0.897539 0.788926 0.351617
Si Si5 0.810103 0.894453 0.704621
Si Si6 0.415282 0.099741 0.433542
Si Si7 0.084298 0.891831 0.974849
Si Si8 0.589583 0.708648 0.292988
O O1 0.356783 0.500000 0.149818
O O2 0.495681 0.598082 0.336592
O O3 0.359905 0.673978 0.206499
O O4 0.370542 0.634688 0.052126
O O5 0.634990 0.500000 0.517344
O O6 0.635303 0.645173 0.618154
O O7 0.623362 0.665084 0.431266
O O8 0.090806 0.500000 0.346458
O O9 0.210308 0.384098 0.572222
O O10 0.063100 0.378033 0.433892
O O11 0.081896 0.320159 0.296504
O O12 0.861178 0.684656 0.315146
O O13 0.000000 0.784256 0.500000
O O14 0.841681 0.818367 0.680982
O O15 0.835458 0.000000 0.712936
O O16 0.850418 0.869902 0.855433
O O17 0.500000 0.088691 0.500000
O O18 0.365380 0.000000 0.357653
O O19 0.000436 0.830495 0.868336
O O20 0.056166 0.000000 0.931948
#
# Coordination Sequence:
#
# PCOD8097018 Si02
#       8
#     8   8   8   8   8   8   8   8
#     4   8  14  23  38  63  94 123 154 188 238 299
#     4   9  15  22  36  65  98 123 151 193 246 298
#     4  10  21  35  50  74 104 133 171 215 257 298
#     4   9  14  22  38  61  92 125 148 197 249 295
#     4  10  20  34  52  74 106 138 165 206 259 309
#     4   9  17  29  45  67  93 125 168 213 250 286
#     4   9  18  31  50  77 105 133 166 206 252 308
#     4  11  18  30  50  77 100 132 169 212 249 296
#
# _framework density 18.388992999999999
#
# number of rings (size 3 to 8) (size 9 to 14) (size 15 to 20)
#    0.000    2.625    1.250    3.000    1.750    2.500 
#    0.000    0.000    0.000    2.250    0.000    0.000 
#    0.000    0.000    0.000    0.000    0.000    0.000 
#
# Total GULP energy -396574.970089 kJ/mol
# GULP energy per Si atom -12392.967815 kJ/mol
# Density = 1.834714 g / cm^3
# Si number density = 18.388993 Si / 1000 Ang^3
#
#
#
# Elastic Constant Matrix: (Units=GPa)
#
#
# Indices 1 2 3 4 5 6 
#
# 1 47.2137 28.5964 22.2223 0.0000 -28.4806 0.0000
# 2 28.5964 124.1116 24.0778 0.0000 -19.2178 0.0000
# 3 22.2223 24.0778 47.6492 0.0000 -13.3626 0.0000
# 4 0.0000 0.0000 0.0000 13.6697 0.0000 -8.3224
# 5 -28.4806 -19.2178 -13.3626 0.0000 24.2047 0.0000
# 6 0.0000 0.0000 0.0000 -8.3224 0.0000 26.9992
#
#
#
# Elastic Compliance Matrix: (Units=1/GPa)
#
#
# Indices 1 2 3 4 5 6 
#
# 1 0.079911 -0.002918 -0.011920 0.000000 0.085130 0.000000
# 2 -0.002918 0.009690 -0.002770 0.000000 0.002731 0.000000
# 3 -0.011920 -0.002770 0.027681 0.000000 -0.000943 0.000000
# 4 0.000000 0.000000 0.000000 0.090055 0.000000 0.027759
# 5 0.085130 0.002731 -0.000943 0.000000 0.143131 0.000000
# 6 0.000000 0.000000 0.000000 0.027759 0.000000 0.045595
#
#
# Mechanical properties :
#
#
# Convention : Reuss Voigt Hill
#
# Bulk Modulus (GPa) = 12.18526 40.97417 26.57971
# Shear Modulus (GPa) = 10.90195 22.57991 16.74093
#
# Velocity S-wave (km/s) = 2.43750 3.50795 3.02052
# Velocity P-wave (km/s) = 3.81610 6.22397 5.16239
#
# Compressibility (1/GPa) = 0.08206639
#
# Stress axis : x y z
#
# Youngs Moduli (GPa) = 12.51391 103.20161 36.12588
#
# Poissons Ratio (x) = 0.30112 0.43063
# Poissons Ratio (y) = 0.03651 0.10006
# Poissons Ratio (z) = 0.14917 0.28584
#
# Static dielectric constant tensor:
#      x y z
#    x 3.414850 0.000000 -0.382940 
#    y 0.000000 3.864110 0.000000 
#    z -0.382940 0.000000 2.934180 
# 
# 
# High freq. dielectric constant tensor:
#      x y z
#    x 1.709530 0.000000 -0.032070 
#    y 0.000000 1.721480 0.000000 
#    z -0.032070 0.000000 1.653810 
# 
# From -- ./inp_files/246370.got.cif
#   From: 2010.06.25/outbox.cif.g09.slc.cpg/sg12_124_cif.got.tgz:246370.got - 2010.06.28 00:19:55.
