data_PCOD8097377
_publ_section_title
;
Structure prediction by ZEFSAII (Michael W. Deem and Ramdas Pophale) SiO2 
 PCOD8097377
Probable space group: C 2/M
;
_chemical_formula_sum "Si O2"
_cell_formula_units_Z 64
_cell_length_a 14.659493
_cell_length_b 8.596022
_cell_length_c 25.927854
_cell_angle_alpha 90.000000
_cell_angle_beta 91.637977
_cell_angle_gamma 90.000000
_cell_volume 3265.920037
_symmetry_space_group_name_H-M "C 2/M"
_symmetry_group_IT_number 12
_symmetry_cell_setting 'monoclinic'
loop_
_space_group_symop_operation_xyz
x,y,z
-x,y,-z
-x,-y,-z
x,-y,z
1/2+x,1/2+y,z
1/2-x,1/2+y,-z
1/2-x,1/2-y,-z
1/2+x,1/2-y,z
loop_
_atom_site_type_symbol
_atom_site_label
_atom_site_fract_x
_atom_site_fract_y
_atom_site_fract_z
Si Si1 0.354564 0.818502 0.733705
Si Si2 0.495117 0.680169 0.192699
Si Si3 0.504122 0.816152 0.081748
Si Si4 0.364853 0.182911 0.365080
Si Si5 0.838724 0.682278 0.249732
Si Si6 0.019183 0.315041 0.442458
Si Si7 0.851123 0.317900 0.000288
Si Si8 0.837718 0.815992 0.625839
O O1 0.438492 0.786725 0.772569
O O2 0.267537 0.724844 0.753308
O O3 0.382779 0.763703 0.676798
O O4 0.331921 0.000000 0.732854
O O5 0.515458 0.500000 0.203303
O O6 0.509490 0.717030 0.133353
O O7 0.391439 0.721812 0.206766
O O8 0.594114 0.770250 0.050462
O O9 0.502632 0.000000 0.093386
O O10 0.412035 0.764961 0.050175
O O11 0.382232 0.228301 0.305877
O O12 0.440924 0.255294 0.403790
O O13 0.265966 0.244018 0.380927
O O14 0.367494 0.000000 0.371850
O O15 0.848705 0.500000 0.238802
O O16 0.026629 0.500000 0.439475
O O17 0.113323 0.239271 0.425394
O O18 0.000000 0.258682 0.500000
O O19 0.840032 0.500000 0.001824
O O20 0.750000 0.250000 0.000000
O O21 0.843113 0.000000 0.633188
#
# Coordination Sequence:
#
# PCOD8097377 Si02
#       8
#     8   8   8   8   8   8   8   8
#     4  11  22  38  59  83 112 147 187 233 283 338
#     4  12  24  37  56  86 120 154 189 229 279 337
#     4   9  20  39  57  80 114 152 188 228 281 335
#     4   8  17  34  54  75 103 139 175 217 272 325
#     4  10  20  37  59  82 111 149 190 233 280 334
#     4  10  20  34  53  78 107 141 182 225 275 338
#     4   9  19  37  62  84 108 145 190 235 282 332
#     4  10  20  36  56  77 105 141 182 228 278 336
#
# _framework density 19.596316999999999
#
# number of rings (size 3 to 8) (size 9 to 14) (size 15 to 20)
#    0.000    2.125    0.000    5.250    0.000    3.750 
#    0.000    6.875    0.000    0.000    0.000    0.000 
#    0.000    0.000    0.000    0.000    0.000    0.000 
#
# Total GULP energy -396835.152607 kJ/mol
# GULP energy per Si atom -12401.098519 kJ/mol
# Density = 1.955171 g / cm^3
# Si number density = 19.596317 Si / 1000 Ang^3
#
#
#
# Elastic Constant Matrix: (Units=GPa)
#
#
# Indices 1 2 3 4 5 6 
#
# 1 95.8686 22.9230 40.1812 0.0000 -13.4346 0.0000
# 2 22.9230 62.2269 31.8524 0.0000 -6.6386 0.0000
# 3 40.1812 31.8524 95.9819 0.0000 -19.5912 0.0000
# 4 0.0000 0.0000 0.0000 28.9692 0.0000 -4.8608
# 5 -13.4346 -6.6386 -19.5912 0.0000 24.7933 0.0000
# 6 0.0000 0.0000 0.0000 -4.8608 0.0000 33.3289
#
#
#
# Elastic Compliance Matrix: (Units=1/GPa)
#
#
# Indices 1 2 3 4 5 6 
#
# 1 0.013164 -0.002435 -0.004030 0.000000 0.003297 0.000000
# 2 -0.002435 0.019809 -0.005653 0.000000 -0.000482 0.000000
# 3 -0.004030 -0.005653 0.015771 0.000000 0.008764 0.000000
# 4 0.000000 0.000000 0.000000 0.035385 0.000000 0.005161
# 5 0.003297 -0.000482 0.008764 0.000000 0.048916 0.000000
# 6 0.000000 0.000000 0.000000 0.005161 0.000000 0.030757
#
#
# Mechanical properties :
#
#
# Convention : Reuss Voigt Hill
#
# Bulk Modulus (GPa) = 40.80220 49.33228 45.06724
# Shear Modulus (GPa) = 25.48320 28.02633 26.75477
#
# Velocity S-wave (km/s) = 3.61003 3.78588 3.69900
# Velocity P-wave (km/s) = 6.18409 6.65879 6.42582
#
# Compressibility (1/GPa) = 0.02450848
#
# Stress axis : x y z
#
# Youngs Moduli (GPa) = 75.96344 50.48124 63.40890
#
# Poissons Ratio (x) = 0.12291 0.25554
# Poissons Ratio (y) = 0.18496 0.35845
# Poissons Ratio (z) = 0.30614 0.28537
#
# Static dielectric constant tensor:
#      x y z
#    x 3.432870 0.000000 -0.022950 
#    y 0.000000 3.352170 0.000000 
#    z -0.022950 0.000000 3.623100 
# 
# 
# High freq. dielectric constant tensor:
#      x y z
#    x 1.772010 0.000000 -0.006430 
#    y 0.000000 1.751880 0.000000 
#    z -0.006430 0.000000 1.760430 
# 
# From -- ./inp_files/338820.got.cif
#   From: 2010.06.25/outbox.cif.g09.slc.cpg/sg12_170_cif.got.tgz:338820.got - 2010.06.28 00:19:55.
