data_PCOD8097818
_publ_section_title
;
Structure prediction by ZEFSAII (Michael W. Deem and Ramdas Pophale) SiO2 
 PCOD8097818
Probable space group: C 2/M
;
_chemical_formula_sum "Si O2"
_cell_formula_units_Z 56
_cell_length_a 14.344308
_cell_length_b 9.141702
_cell_length_c 25.861522
_cell_angle_alpha 90.000000
_cell_angle_beta 115.775412
_cell_angle_gamma 90.000000
_cell_volume 3053.845734
_symmetry_space_group_name_H-M "C 2/M"
_symmetry_group_IT_number 12
_symmetry_cell_setting 'monoclinic'
loop_
_space_group_symop_operation_xyz
x,y,z
-x,y,-z
-x,-y,-z
x,-y,z
1/2+x,1/2+y,z
1/2-x,1/2+y,-z
1/2-x,1/2-y,-z
1/2+x,1/2-y,z
loop_
_atom_site_type_symbol
_atom_site_label
_atom_site_fract_x
_atom_site_fract_y
_atom_site_fract_z
Si Si1 0.911063 0.834309 0.439065
Si Si2 0.796562 0.829385 0.860989
Si Si3 0.279520 0.328866 0.059450
Si Si4 0.768553 0.828065 0.558412
Si Si5 0.995870 0.830173 0.844073
Si Si6 0.927580 0.670090 0.234665
Si Si7 0.508097 0.665819 0.351416
O O1 0.817213 0.722219 0.421699
O O2 0.000000 0.784021 0.500000
O O3 0.944934 0.822357 0.388641
O O4 0.877174 0.000000 0.444906
O O5 0.791742 0.737122 0.912441
O O6 0.896444 0.776517 0.852683
O O7 0.693687 0.796998 0.803117
O O8 0.805739 0.000000 0.877757
O O9 0.255743 0.500000 0.049395
O O10 0.400663 0.298109 0.098405
O O11 0.250000 0.250000 0.000000
O O12 0.750000 0.750000 0.500000
O O13 0.876504 0.779480 0.609344
O O14 0.765352 0.000000 0.547878
O O15 0.000437 0.744419 0.791265
O O16 0.985138 0.000000 0.827778
O O17 0.951922 0.500000 0.238366
O O18 0.955736 0.729708 0.297406
O O19 0.507675 0.500000 0.330197
#
# Coordination Sequence:
#
# PCOD8097818 Si02
#       7
#     8   8   8   8   8   8   8
#     4  10  20  38  58  79 109 142 176 217 272 331
#     4   9  19  37  58  79 107 144 184 229 273 319
#     4  10  20  34  54  82 115 150 186 225 269 321
#     4  11  22  37  57  81 107 140 179 220 268 325
#     4   9  19  37  59  79 107 149 187 221 274 331
#     4  10  21  36  56  82 109 136 179 234 275 317
#     4  10  22  39  57  77 110 148 177 217 276 336
#
# _framework density 18.337534999999999
#
# number of rings (size 3 to 8) (size 9 to 14) (size 15 to 20)
#    0.000    2.143    1.429    1.286    0.000    5.429 
#    0.000    7.143    0.000    0.000    0.000    0.000 
#    0.000    0.000    0.000    0.000    0.000    0.000 
#
# Total GULP energy -347291.936851 kJ/mol
# GULP energy per Si atom -12403.283459 kJ/mol
# Density = 1.829580 g / cm^3
# Si number density = 18.337535 Si / 1000 Ang^3
#
#
#
# Elastic Constant Matrix: (Units=GPa)
#
#
# Indices 1 2 3 4 5 6 
#
# 1 128.5467 43.0013 44.8903 0.0000 -7.0812 0.0000
# 2 43.0013 70.4534 53.5453 0.0000 -4.5024 0.0000
# 3 44.8903 53.5453 116.7478 0.0000 -11.0064 0.0000
# 4 0.0000 0.0000 0.0000 37.8484 0.0000 -4.7457
# 5 -7.0812 -4.5024 -11.0064 0.0000 19.6226 0.0000
# 6 0.0000 0.0000 0.0000 -4.7457 0.0000 27.7686
#
#
#
# Elastic Compliance Matrix: (Units=1/GPa)
#
#
# Indices 1 2 3 4 5 6 
#
# 1 0.010018 -0.004912 -0.001441 0.000000 0.001680 0.000000
# 2 -0.004912 0.024205 -0.009351 0.000000 -0.001464 0.000000
# 3 -0.001441 -0.009351 0.013891 0.000000 0.005126 0.000000
# 4 0.000000 0.000000 0.000000 0.027000 0.000000 0.004614
# 5 0.001680 -0.001464 0.005126 0.000000 0.054108 0.000000
# 6 0.000000 0.000000 0.000000 0.004614 0.000000 0.036800
#
#
# Mechanical properties :
#
#
# Convention : Reuss Voigt Hill
#
# Bulk Modulus (GPa) = 59.85401 66.51350 63.18376
# Shear Modulus (GPa) = 24.63071 28.66864 26.64967
#
# Velocity S-wave (km/s) = 3.66893 3.95826 3.81633
# Velocity P-wave (km/s) = 7.11752 7.56577 7.34506
#
# Compressibility (1/GPa) = 0.01670732
#
# Stress axis : x y z
#
# Youngs Moduli (GPa) = 99.81839 41.31371 71.98759
#
# Poissons Ratio (x) = 0.20295 0.10371
# Poissons Ratio (y) = 0.49034 0.67313
# Poissons Ratio (z) = 0.14381 0.38631
#
# Static dielectric constant tensor:
#      x y z
#    x 3.558010 0.000000 0.032570 
#    y 0.000000 3.555420 0.000000 
#    z 0.032570 0.000000 3.306280 
# 
# 
# High freq. dielectric constant tensor:
#      x y z
#    x 1.717610 0.000000 -0.002980 
#    y 0.000000 1.714090 0.000000 
#    z -0.002980 0.000000 1.710630 
# 
# From -- ./inp_files/338209.got.cif
#   From: 2010.06.25/outbox.cif.g09.slc.cpg/sg12_170_cif.got.tgz:338209.got - 2010.06.28 00:19:55.
