data_PCOD8097960
_publ_section_title
;
Structure prediction by ZEFSAII (Michael W. Deem and Ramdas Pophale) SiO2 
 PCOD8097960
Probable space group: C 2/M
;
_chemical_formula_sum "Si O2"
_cell_formula_units_Z 64
_cell_length_a 18.077054
_cell_length_b 8.917823
_cell_length_c 33.620343
_cell_angle_alpha 90.000000
_cell_angle_beta 142.491007
_cell_angle_gamma 90.000000
_cell_volume 3300.080943
_symmetry_space_group_name_H-M "C 2/M"
_symmetry_group_IT_number 12
_symmetry_cell_setting 'monoclinic'
loop_
_space_group_symop_operation_xyz
x,y,z
-x,y,-z
-x,-y,-z
x,-y,z
1/2+x,1/2+y,z
1/2-x,1/2+y,-z
1/2-x,1/2-y,-z
1/2+x,1/2-y,z
loop_
_atom_site_type_symbol
_atom_site_label
_atom_site_fract_x
_atom_site_fract_y
_atom_site_fract_z
Si Si1 0.362407 0.674812 0.133105
Si Si2 0.006561 0.174666 0.115542
Si Si3 0.571746 0.824470 0.490178
Si Si4 0.570222 0.176472 0.264369
Si Si5 0.408757 0.177084 0.995143
Si Si6 0.513137 0.676283 0.624035
Si Si7 0.789870 0.326121 0.753738
Si Si8 0.832720 0.678854 0.609541
O O1 0.368841 0.500000 0.144991
O O2 0.419344 0.715012 0.114904
O O3 0.436738 0.756208 0.199734
O O4 0.224585 0.733822 0.074381
O O5 0.141153 0.237364 0.181908
O O6 0.017113 0.000000 0.112104
O O7 0.948138 0.250483 0.052786
O O8 0.500000 0.794977 0.500000
O O9 0.493100 0.749071 0.422032
O O10 0.700306 0.743779 0.546322
O O11 0.590219 0.000000 0.489605
O O12 0.663664 0.228998 0.269803
O O13 0.619682 0.236125 0.327473
O O14 0.557417 0.000000 0.260089
O O15 0.409438 0.000000 0.001494
O O16 0.500000 0.230274 0.000000
O O17 0.484196 0.500000 0.609087
O O18 0.647860 0.706215 0.697968
O O19 0.419095 0.757380 0.612500
O O20 0.820546 0.500000 0.772192
O O21 0.828385 0.500000 0.604797
#
# Coordination Sequence:
#
# PCOD8097960 Si02
#       8
#     8   8   8   8   8   8   8   8
#     4   9  19  35  55  79 106 139 180 225 272 323
#     4  10  20  34  55  81 107 138 178 226 275 321
#     4  11  24  41  62  87 114 147 189 236 283 330
#     4   9  19  36  58  82 107 141 184 227 272 324
#     4  10  21  36  53  75 106 143 181 221 269 327
#     4  11  23  39  60  85 115 151 189 229 278 335
#     4   9  19  37  59  81 107 143 185 225 270 328
#     4  11  23  39  59  85 119 153 187 229 278 333
#
# _framework density 19.393464000000002
#
# number of rings (size 3 to 8) (size 9 to 14) (size 15 to 20)
#    0.000    2.000    0.000    3.000    0.000    6.250 
#    0.000    6.250    0.000    0.000    0.000    0.000 
#    0.000    0.000    0.000    0.000    0.000    0.000 
#
# Total GULP energy -396925.840365 kJ/mol
# GULP energy per Si atom -12403.932511 kJ/mol
# Density = 1.934932 g / cm^3
# Si number density = 19.393464 Si / 1000 Ang^3
#
#
#
# Elastic Constant Matrix: (Units=GPa)
#
#
# Indices 1 2 3 4 5 6 
#
# 1 72.1364 21.3445 14.3753 0.0000 22.8625 0.0001
# 2 21.3445 36.9213 10.7083 0.0003 6.6787 -0.0002
# 3 14.3753 10.7083 59.5605 0.0000 23.0648 0.0000
# 4 0.0000 0.0003 0.0000 38.0386 -0.0001 -0.8708
# 5 22.8625 6.6787 23.0648 -0.0001 28.9388 0.0000
# 6 0.0001 -0.0002 0.0000 -0.8708 0.0000 22.3573
#
#
#
# Elastic Compliance Matrix: (Units=1/GPa)
#
#
# Indices 1 2 3 4 5 6 
#
# 1 0.021836 -0.010435 0.003405 0.000000 -0.017556 0.000000
# 2 -0.010435 0.033826 -0.005399 0.000000 0.004740 0.000000
# 3 0.003405 -0.005399 0.025309 0.000000 -0.021616 0.000000
# 4 0.000000 0.000000 0.000000 0.026313 0.000000 0.001025
# 5 -0.017556 0.004740 -0.021616 0.000000 0.064560 0.000000
# 6 0.000000 0.000000 0.000000 0.001025 0.000000 0.044768
#
#
# Mechanical properties :
#
#
# Convention : Reuss Voigt Hill
#
# Bulk Modulus (GPa) = 17.82137 29.05273 23.43705
# Shear Modulus (GPa) = 19.21791 26.01295 22.61543
#
# Velocity S-wave (km/s) = 3.15135 3.66638 3.41858
# Velocity P-wave (km/s) = 4.73821 5.73902 5.26246
#
# Compressibility (1/GPa) = 0.05611241
#
# Stress axis : x y z
#
# Youngs Moduli (GPa) = 45.79584 29.56345 39.51122
#
# Poissons Ratio (x) = 0.30850 -0.13452
# Poissons Ratio (y) = 0.47789 0.21330
# Poissons Ratio (z) = -0.15591 0.15960
#
# Static dielectric constant tensor:
#      x y z
#    x 3.646140 0.000000 0.075910 
#    y 0.000000 3.548320 0.000000 
#    z 0.075910 0.000000 3.756280 
# 
# 
# High freq. dielectric constant tensor:
#      x y z
#    x 1.754580 0.000000 0.004040 
#    y 0.000000 1.755730 0.000000 
#    z 0.004040 0.000000 1.770640 
# 
# From -- ./inp_files/378286.got.cif
#   From: 2010.06.25/outbox.cif.g09.slc.cpg/sg12_190_cif.got.tgz:378286.got - 2010.06.28 00:19:55.
