data_PCOD8097793
_publ_section_title
;
Structure prediction by ZEFSAII (Michael W. Deem and Ramdas Pophale) SiO2 
 PCOD8097793
Probable space group: C 2/M
;
_chemical_formula_sum "Si O2"
_cell_formula_units_Z 64
_cell_length_a 29.731326
_cell_length_b 9.061752
_cell_length_c 14.250000
_cell_angle_alpha 90.000000
_cell_angle_beta 130.200515
_cell_angle_gamma 90.000000
_cell_volume 2932.347346
_symmetry_space_group_name_H-M "C 2/M"
_symmetry_group_IT_number 12
_symmetry_cell_setting 'monoclinic'
loop_
_space_group_symop_operation_xyz
x,y,z
-x,y,-z
-x,-y,-z
x,-y,z
1/2+x,1/2+y,z
1/2-x,1/2+y,-z
1/2-x,1/2-y,-z
1/2+x,1/2-y,z
loop_
_atom_site_type_symbol
_atom_site_label
_atom_site_fract_x
_atom_site_fract_y
_atom_site_fract_z
Si Si1 0.787575 0.670412 0.425424
Si Si2 0.945646 0.174809 0.860057
Si Si3 0.301250 0.166178 0.938854
Si Si4 0.327061 0.831572 0.755065
Si Si5 0.309969 0.830053 0.244756
Si Si6 0.012072 0.826061 0.410095
Si Si7 0.915712 0.672628 0.638001
Si Si8 0.100789 0.327299 0.788656
O O1 0.767798 0.500000 0.400687
O O2 0.730876 0.768756 0.378363
O O3 0.810953 0.718886 0.354143
O O4 0.845710 0.696844 0.568431
O O5 0.884592 0.233914 0.818595
O O6 0.954893 0.250238 0.771103
O O7 0.942288 0.000000 0.843276
O O8 0.000000 0.220973 0.000000
O O9 0.314802 0.178482 0.847867
O O10 0.241833 0.251848 0.882896
O O11 0.290607 0.000000 0.957204
O O12 0.355558 0.229321 0.071370
O O13 0.337701 0.000000 0.735499
O O14 0.371544 0.793209 0.276823
O O15 0.295410 0.000000 0.216423
O O16 0.956571 0.772098 0.274550
O O17 0.000000 0.774011 0.500000
O O18 0.068888 0.745409 0.441910
O O19 0.021184 0.000000 0.415014
O O20 0.930220 0.500000 0.652103
O O21 0.084707 0.500000 0.778011
#
# Coordination Sequence:
#
# PCOD8097793 Si02
#       8
#     8   8   8   8   8   8   8   8
#     4   9  19  37  61  90 122 159 203 253 312 373
#     4  11  26  46  67  93 127 166 208 259 316 376
#     4   9  19  33  52  83 119 154 199 252 306 364
#     4  10  21  38  62  92 124 162 206 255 311 369
#     4   9  17  31  53  82 118 158 200 247 302 365
#     4  11  25  42  60  88 125 164 208 257 311 370
#     4  11  24  43  69  96 124 164 212 262 316 374
#     4  10  20  34  54  81 115 158 207 257 308 367
#
# _framework density 21.825519
#
# number of rings (size 3 to 8) (size 9 to 14) (size 15 to 20)
#    0.000    2.000    0.000    2.625    1.750    6.000 
#    0.000    2.500    0.000    0.000    0.000    0.000 
#    0.000    0.000    0.000    0.000    0.000    0.000 
#
# Total GULP energy -396795.440081 kJ/mol
# GULP energy per Si atom -12399.857503 kJ/mol
# Density = 2.177584 g / cm^3
# Si number density = 21.825519 Si / 1000 Ang^3
#
#
#
# Elastic Constant Matrix: (Units=GPa)
#
#
# Indices 1 2 3 4 5 6 
#
# 1 75.7344 43.5374 18.8471 0.0000 22.8628 0.0000
# 2 43.5374 91.8155 43.4032 0.0000 9.8871 0.0000
# 3 18.8471 43.4032 99.3041 0.0000 18.9371 0.0000
# 4 0.0000 0.0000 0.0000 31.8814 0.0000 4.1195
# 5 22.8628 9.8871 18.9371 0.0000 29.6732 0.0000
# 6 0.0000 0.0000 0.0000 4.1195 0.0000 35.2146
#
#
#
# Elastic Compliance Matrix: (Units=1/GPa)
#
#
# Indices 1 2 3 4 5 6 
#
# 1 0.023856 -0.011186 0.003593 0.000000 -0.016947 0.000000
# 2 -0.011186 0.018991 -0.007531 0.000000 0.007097 0.000000
# 3 0.003593 -0.007531 0.014493 0.000000 -0.009508 0.000000
# 4 0.000000 0.000000 0.000000 0.031848 0.000000 -0.003726
# 5 -0.016947 0.007097 -0.009508 0.000000 0.050461 0.000000
# 6 0.000000 0.000000 0.000000 -0.003726 0.000000 0.028833
#
#
# Mechanical properties :
#
#
# Convention : Reuss Voigt Hill
#
# Bulk Modulus (GPa) = 36.90994 53.15883 45.03439
# Shear Modulus (GPa) = 24.06612 30.09159 27.07886
#
# Velocity S-wave (km/s) = 3.32423 3.71716 3.52617
# Velocity P-wave (km/s) = 5.62869 6.54463 6.10386
#
# Compressibility (1/GPa) = 0.02709297
#
# Stress axis : x y z
#
# Youngs Moduli (GPa) = 41.91792 52.65546 68.99898
#
# Poissons Ratio (x) = 0.58899 -0.24791
# Poissons Ratio (y) = 0.46888 0.51963
# Poissons Ratio (z) = -0.15061 0.39655
#
# Static dielectric constant tensor:
#      x y z
#    x 4.018140 0.000000 -0.045310 
#    y 0.000000 3.836650 0.000000 
#    z -0.045310 0.000000 4.077520 
# 
# 
# High freq. dielectric constant tensor:
#      x y z
#    x 1.865210 0.000000 -0.002430 
#    y 0.000000 1.848120 0.000000 
#    z -0.002430 0.000000 1.867040 
# 
# From -- ./inp_files/250031.got.cif
#   From: 2010.06.25/outbox.cif.g09.slc.cpg/sg12_126_cif.got.tgz:250031.got - 2010.06.28 00:19:55.
