data_PCOD8097252
_publ_section_title
;
Structure prediction by ZEFSAII (Michael W. Deem and Ramdas Pophale) SiO2 
 PCOD8097252
Probable space group: C 2/M
;
_chemical_formula_sum "Si O2"
_cell_formula_units_Z 64
_cell_length_a 16.577347
_cell_length_b 28.087053
_cell_length_c 13.852728
_cell_angle_alpha 90.000000
_cell_angle_beta 33.317026
_cell_angle_gamma 90.000000
_cell_volume 3542.772845
_symmetry_space_group_name_H-M "C 2/M"
_symmetry_group_IT_number 12
_symmetry_cell_setting 'monoclinic'
loop_
_space_group_symop_operation_xyz
x,y,z
-x,y,-z
-x,-y,-z
x,-y,z
1/2+x,1/2+y,z
1/2-x,1/2+y,-z
1/2-x,1/2-y,-z
1/2+x,1/2-y,z
loop_
_atom_site_type_symbol
_atom_site_label
_atom_site_fract_x
_atom_site_fract_y
_atom_site_fract_z
Si Si1 0.579926 0.803726 0.687231
Si Si2 0.080011 0.554558 0.187608
Si Si3 0.421642 0.126605 0.978684
Si Si4 0.079911 0.196276 0.652946
Si Si5 0.920451 0.876660 0.178330
Si Si6 0.579985 0.554558 0.152409
Si Si7 0.079536 0.623344 0.519245
Si Si8 0.421632 0.373388 0.678044
O O1 0.485335 0.825011 0.869287
O O2 0.750010 0.806080 0.547485
O O3 0.527391 0.750001 0.722622
O O4 0.550083 0.832517 0.619305
O O5 0.035547 0.500000 0.215865
O O6 0.043474 0.582266 0.125795
O O7 0.985631 0.575126 0.370191
O O8 0.250015 0.560351 0.045332
O O9 0.500000 0.114773 0.000000
O O10 0.250006 0.133672 0.168215
O O11 0.050082 0.167482 0.780543
O O12 0.985297 0.174995 0.660102
O O13 0.749993 0.885035 0.328777
O O14 0.985591 0.924878 0.158604
O O15 0.000000 0.863802 0.000000
O O16 0.535524 0.500000 0.213089
O O17 0.543465 0.582269 0.287279
O O18 0.000000 0.636213 0.500000
O O19 0.500000 0.385208 0.500000
#
# Coordination Sequence:
#
# PCOD8097252 Si02
#       8
#     8   8   8   8   8   8   8   8
#     4   9  19  36  55  76 103 134 170 212 255 300
#     4   9  19  36  55  75 101 133 170 211 253 299
#     4  10  20  34  53  77 105 136 170 209 253 301
#     4   9  19  36  55  76 103 134 170 212 255 300
#     4  10  20  34  53  76 103 134 168 208 253 301
#     4   9  19  36  55  75 101 133 170 211 253 299
#     4  10  20  34  53  76 103 134 168 208 253 301
#     4  10  20  34  53  77 105 136 170 209 253 301
#
# _framework density 18.064945999999999
#
# number of rings (size 3 to 8) (size 9 to 14) (size 15 to 20)
#    0.000    2.500    0.000    1.500    0.000    5.000 
#    0.000    2.500    0.000    0.000    0.000    0.000 
#    0.000    0.000    0.000    0.000    0.000    0.000 
#
# Total GULP energy -396944.125052 kJ/mol
# GULP energy per Si atom -12404.503908 kJ/mol
# Density = 1.802383 g / cm^3
# Si number density = 18.064946 Si / 1000 Ang^3
#
#
#
# Elastic Constant Matrix: (Units=GPa)
#
#
# Indices 1 2 3 4 5 6 
#
# 1 113.0141 38.4343 38.8828 0.0011 -1.0927 -0.0008
# 2 38.4343 129.8451 40.0002 -0.0002 -3.3127 0.0002
# 3 38.8828 40.0002 110.2957 0.0020 6.8027 -0.0017
# 4 0.0011 -0.0002 0.0020 22.1423 -0.0014 -7.1068
# 5 -1.0927 -3.3127 6.8027 -0.0014 20.6759 0.0011
# 6 -0.0008 0.0002 -0.0017 -7.1068 0.0011 18.7706
#
#
#
# Elastic Compliance Matrix: (Units=1/GPa)
#
#
# Indices 1 2 3 4 5 6 
#
# 1 0.010648 -0.002186 -0.003036 0.000000 0.001211 0.000000
# 2 -0.002186 0.009245 -0.002722 0.000000 0.002261 0.000000
# 3 -0.003036 -0.002722 0.011392 -0.000001 -0.004345 0.000001
# 4 0.000000 0.000000 -0.000001 0.051410 0.000003 0.019465
# 5 0.001211 0.002261 -0.004345 0.000003 0.050221 -0.000002
# 6 0.000000 0.000000 0.000001 0.019465 -0.000002 0.060644
#
#
# Mechanical properties :
#
#
# Convention : Reuss Voigt Hill
#
# Bulk Modulus (GPa) = 64.94310 65.30993 65.12652
# Shear Modulus (GPa) = 23.30150 28.04027 25.67088
#
# Velocity S-wave (km/s) = 3.59538 3.94406 3.77375
# Velocity P-wave (km/s) = 7.29818 7.54799 7.42414
#
# Compressibility (1/GPa) = 0.01539809
#
# Stress axis : x y z
#
# Youngs Moduli (GPa) = 93.91470 108.17187 87.78287
#
# Poissons Ratio (x) = 0.23643 0.26649
# Poissons Ratio (y) = 0.20527 0.23891
# Poissons Ratio (z) = 0.28511 0.29440
#
# Static dielectric constant tensor:
#      x y z
#    x 3.333960 0.000000 -0.058060 
#    y 0.000000 3.368070 0.000000 
#    z -0.058060 0.000000 3.361430 
# 
# 
# High freq. dielectric constant tensor:
#      x y z
#    x 1.702980 0.000000 -0.003120 
#    y 0.000000 1.699100 0.000000 
#    z -0.003120 0.000000 1.704460 
# 
# From -- ./inp_files/149752.got.cif
#   From: 2010.06.25/outbox.cif.g09.slc.cpg/sg12_75_cif.got.tgz:149752.got - 2010.06.28 00:19:55.
