data_PCOD8097142
_publ_section_title
;
Structure prediction by ZEFSAII (Michael W. Deem and Ramdas Pophale) SiO2 
 PCOD8097142
Probable space group: C 2/M
;
_chemical_formula_sum "Si O2"
_cell_formula_units_Z 48
_cell_length_a 17.979459
_cell_length_b 17.239973
_cell_length_c 12.183840
_cell_angle_alpha 90.000000
_cell_angle_beta 47.339471
_cell_angle_gamma 90.000000
_cell_volume 2777.219141
_symmetry_space_group_name_H-M "C 2/M"
_symmetry_group_IT_number 12
_symmetry_cell_setting 'monoclinic'
loop_
_space_group_symop_operation_xyz
x,y,z
-x,y,-z
-x,-y,-z
x,-y,z
1/2+x,1/2+y,z
1/2-x,1/2+y,-z
1/2-x,1/2-y,-z
1/2+x,1/2-y,z
loop_
_atom_site_type_symbol
_atom_site_label
_atom_site_fract_x
_atom_site_fract_y
_atom_site_fract_z
Si Si1 0.386834 0.500000 0.743469
Si Si2 0.113167 0.000000 0.517136
Si Si3 0.117539 0.690499 0.182086
Si Si4 0.283003 0.342888 0.588362
Si Si5 0.382461 0.809501 0.417164
Si Si6 0.716997 0.657112 0.154368
Si Si7 0.620240 0.087103 0.379760
O O1 0.500000 0.500000 0.680255
O O2 0.393914 0.500000 0.606086
O O3 0.327503 0.575814 0.844016
O O4 0.172497 0.075814 0.499021
O O5 0.134689 0.777472 0.208152
O O6 0.158905 0.631261 0.232892
O O7 0.000000 0.677934 0.274558
O O8 0.177173 0.674493 0.010582
O O9 0.365311 0.277472 0.477529
O O10 0.177173 0.325507 0.635073
O O11 0.260306 0.344909 0.739694
O O12 0.341095 0.868739 0.550702
O O13 0.500000 0.087089 0.500000
O O14 0.664205 0.000000 0.335795
#
# Coordination Sequence:
#
# PCOD8097142 Si02
#       7
#     4   4   8   8   8   8   8
#     4   9  18  32  53  76 101 132 169 212 253 302
#     4   9  18  32  53  76 101 132 169 212 253 302
#     4  10  20  34  54  76 103 137 173 215 259 304
#     4  10  20  34  52  78 105 135 173 212 259 309
#     4  10  20  34  54  76 103 137 173 215 259 304
#     4  10  20  34  52  78 105 135 173 212 259 309
#     4   9  18  32  52  75  97 131 172 210 252 298
#
# _framework density 17.283476
#
# number of rings (size 3 to 8) (size 9 to 14) (size 15 to 20)
#    0.000    2.333    1.667    1.000    2.333    2.000 
#    0.000    0.000    0.000    3.000    0.000    1.167 
#    0.000    0.000    0.000    0.000    0.000    0.000 
#
# Total GULP energy -297642.134637 kJ/mol
# GULP energy per Si atom -12401.755610 kJ/mol
# Density = 1.724414 g / cm^3
# Si number density = 17.283476 Si / 1000 Ang^3
#
#
#
# Elastic Constant Matrix: (Units=GPa)
#
#
# Indices 1 2 3 4 5 6 
#
# 1 70.3044 37.5987 48.1266 0.0000 -1.6429 0.0000
# 2 37.5987 157.3834 37.9155 0.0000 1.1040 0.0000
# 3 48.1266 37.9155 70.1602 0.0000 1.1398 0.0000
# 4 0.0000 0.0000 0.0000 18.7818 0.0000 -2.4883
# 5 -1.6429 1.1040 1.1398 0.0000 20.5528 0.0000
# 6 0.0000 0.0000 0.0000 -2.4883 0.0000 19.4956
#
#
#
# Elastic Compliance Matrix: (Units=1/GPa)
#
#
# Indices 1 2 3 4 5 6 
#
# 1 0.027767 -0.002363 -0.017824 0.000000 0.003335 0.000000
# 2 -0.002363 0.007507 -0.002428 0.000000 -0.000457 0.000000
# 3 -0.017824 -0.002428 0.027838 0.000000 -0.002838 0.000000
# 4 0.000000 0.000000 0.000000 0.054159 0.000000 0.006912
# 5 0.003335 -0.000457 -0.002838 0.000000 0.049104 0.000000
# 6 0.000000 0.000000 0.000000 0.006912 0.000000 0.052176
#
#
# Mechanical properties :
#
#
# Convention : Reuss Voigt Hill
#
# Bulk Modulus (GPa) = 55.92572 60.56994 58.24783
# Shear Modulus (GPa) = 18.53633 23.37985 20.95809
#
# Velocity S-wave (km/s) = 3.27844 3.68194 3.48603
# Velocity P-wave (km/s) = 6.83806 7.29360 7.06950
#
# Compressibility (1/GPa) = 0.01788086
#
# Stress axis : x y z
#
# Youngs Moduli (GPa) = 36.01433 133.21538 35.92218
#
# Poissons Ratio (x) = 0.31477 0.64027
# Poissons Ratio (y) = 0.08510 0.08724
# Poissons Ratio (z) = 0.64192 0.32351
#
# Static dielectric constant tensor:
#      x y z
#    x 3.006660 0.000000 0.035930 
#    y 0.000000 3.540630 0.000000 
#    z 0.035930 0.000000 3.016970 
# 
# 
# High freq. dielectric constant tensor:
#      x y z
#    x 1.651740 0.000000 0.001160 
#    y 0.000000 1.687020 0.000000 
#    z 0.001160 0.000000 1.652070 
# 
# From -- ./inp_files/157678.got.cif
#   From: 2010.06.25/outbox.cif.g09.slc.cpg/sg12_79_cif.got.tgz:157678.got - 2010.06.28 00:19:55.
