data_PCOD8097430
_publ_section_title
;
Structure prediction by ZEFSAII (Michael W. Deem and Ramdas Pophale) SiO2 
 PCOD8097430
Probable space group: C 2/M
;
_chemical_formula_sum "Si O2"
_cell_formula_units_Z 48
_cell_length_a 13.839353
_cell_length_b 9.438189
_cell_length_c 28.067633
_cell_angle_alpha 90.000000
_cell_angle_beta 141.388350
_cell_angle_gamma 90.000000
_cell_volume 2287.818798
_symmetry_space_group_name_H-M "C 2/M"
_symmetry_group_IT_number 12
_symmetry_cell_setting 'monoclinic'
loop_
_space_group_symop_operation_xyz
x,y,z
-x,y,-z
-x,-y,-z
x,-y,z
1/2+x,1/2+y,z
1/2-x,1/2+y,-z
1/2-x,1/2-y,-z
1/2+x,1/2-y,z
loop_
_atom_site_type_symbol
_atom_site_label
_atom_site_fract_x
_atom_site_fract_y
_atom_site_fract_z
Si Si1 0.453253 0.165666 0.682388
Si Si2 0.166505 0.665384 0.583652
Si Si3 0.627105 0.168651 0.013664
Si Si4 0.223404 0.337297 0.713828
Si Si5 0.351656 0.340083 0.175979
Si Si6 0.425963 0.840293 0.855181
O O1 0.293907 0.240999 0.605175
O O2 0.574241 0.199352 0.687674
O O3 0.512491 0.235843 0.754592
O O4 0.426469 0.000000 0.680230
O O5 0.198256 0.500000 0.586476
O O6 0.176851 0.706570 0.642961
O O7 0.000000 0.710641 0.500000
O O8 0.795319 0.210066 0.100927
O O9 0.611084 0.000000 0.008708
O O10 0.500000 0.236750 0.000000
O O11 0.585073 0.216676 0.942899
O O12 0.268245 0.500000 0.735240
O O13 0.376248 0.255211 0.791131
O O14 0.419744 0.500000 0.200590
O O15 0.206716 0.335251 0.155730
O O16 0.448410 0.000000 0.844936
#
# Coordination Sequence:
#
# PCOD8097430 Si02
#       6
#     8   8   8   8   8   8
#     4  10  20  34  53  79 109 135 163 208 261 304
#     4  10  22  40  59  77  99 132 172 208 249 310
#     4   7  10  18  36  65  98 130 169 212 243 277
#     4   9  19  35  53  76 107 137 165 206 259 305
#     4   8  13  24  44  69  99 137 175 206 242 293
#     4   8  13  23  43  71 100 133 173 210 245 291
#
# _framework density 20.980681000000001
#
# number of rings (size 3 to 8) (size 9 to 14) (size 15 to 20)
#    0.000    3.333    0.000    2.500    0.000    2.333 
#    0.000    0.833    0.000    6.000    0.000    0.000 
#    0.000    0.000    0.000    0.000    0.000    0.000 
#
# Total GULP energy -297398.011996 kJ/mol
# GULP energy per Si atom -12391.583833 kJ/mol
# Density = 2.093293 g / cm^3
# Si number density = 20.980681 Si / 1000 Ang^3
#
#
#
# Elastic Constant Matrix: (Units=GPa)
#
#
# Indices 1 2 3 4 5 6 
#
# 1 19.8269 6.8008 22.3972 0.0000 -4.4395 0.0000
# 2 6.8008 55.6706 39.6525 0.0000 1.9108 0.0000
# 3 22.3972 39.6525 143.1004 0.0000 1.3767 0.0000
# 4 0.0000 0.0000 0.0000 31.5393 0.0000 -1.6913
# 5 -4.4395 1.9108 1.3767 0.0000 33.1160 0.0000
# 6 0.0000 0.0000 0.0000 -1.6913 0.0000 10.5207
#
#
#
# Elastic Compliance Matrix: (Units=1/GPa)
#
#
# Indices 1 2 3 4 5 6 
#
# 1 0.063889 -0.001160 -0.009765 0.000000 0.009038 0.000000
# 2 -0.001160 0.022436 -0.006024 0.000000 -0.001200 0.000000
# 3 -0.009765 -0.006024 0.010199 0.000000 -0.001386 0.000000
# 4 0.000000 0.000000 0.000000 0.031982 0.000000 0.005142
# 5 0.009038 -0.001200 -0.001386 0.000000 0.031535 0.000000
# 6 0.000000 0.000000 0.000000 0.005142 0.000000 0.095877
#
#
# Mechanical properties :
#
#
# Convention : Reuss Voigt Hill
#
# Bulk Modulus (GPa) = 15.96756 39.58877 27.77817
# Shear Modulus (GPa) = 16.09311 25.01837 20.55574
#
# Velocity S-wave (km/s) = 2.77256 3.45693 3.13349
# Velocity P-wave (km/s) = 4.22807 5.90288 5.13422
#
# Compressibility (1/GPa) = 0.06262697
#
# Stress axis : x y z
#
# Youngs Moduli (GPa) = 15.65215 44.57056 98.04856
#
# Poissons Ratio (x) = 0.05168 0.95746
# Poissons Ratio (y) = 0.01815 0.59064
# Poissons Ratio (z) = 0.15285 0.26849
#
# Static dielectric constant tensor:
#      x y z
#    x 3.522210 0.000000 -0.051990 
#    y 0.000000 3.519760 0.000000 
#    z -0.051990 0.000000 4.208020 
# 
# 
# High freq. dielectric constant tensor:
#      x y z
#    x 1.807990 0.000000 0.001540 
#    y 0.000000 1.791590 0.000000 
#    z 0.001540 0.000000 1.834870 
# 
# From -- ./inp_files/375161.got.cif
#   From: 2010.06.25/outbox.cif.g09.slc.cpg/sg12_188_cif.got.tgz:375161.got - 2010.06.28 00:19:55.
