data_PCOD8097086
_publ_section_title
;
Structure prediction by ZEFSAII (Michael W. Deem and Ramdas Pophale) SiO2 
 PCOD8097086
Probable space group: C 2/M
;
_chemical_formula_sum "Si O2"
_cell_formula_units_Z 64
_cell_length_a 24.786085
_cell_length_b 8.959837
_cell_length_c 18.106688
_cell_angle_alpha 90.000000
_cell_angle_beta 62.810724
_cell_angle_gamma 90.000000
_cell_volume 3576.794162
_symmetry_space_group_name_H-M "C 2/M"
_symmetry_group_IT_number 12
_symmetry_cell_setting 'monoclinic'
loop_
_space_group_symop_operation_xyz
x,y,z
-x,y,-z
-x,-y,-z
x,-y,z
1/2+x,1/2+y,z
1/2-x,1/2+y,-z
1/2-x,1/2-y,-z
1/2+x,1/2-y,z
loop_
_atom_site_type_symbol
_atom_site_label
_atom_site_fract_x
_atom_site_fract_y
_atom_site_fract_z
Si Si1 0.635331 0.321572 0.175646
Si Si2 0.013037 0.324420 0.216663
Si Si3 0.777275 0.328289 0.307679
Si Si4 0.881697 0.674489 0.356059
Si Si5 0.832782 0.170969 0.004516
Si Si6 0.697216 0.671455 0.489313
Si Si7 0.468501 0.672040 0.945639
Si Si8 0.241776 0.322293 0.182539
O O1 0.633514 0.500000 0.180518
O O2 0.566783 0.261613 0.225672
O O3 0.675641 0.253729 0.216425
O O4 0.663744 0.260441 0.080227
O O5 0.025310 0.500000 0.212986
O O6 0.949941 0.279423 0.294083
O O7 0.008267 0.274895 0.134895
O O8 0.785815 0.500000 0.278102
O O9 0.835139 0.275512 0.320248
O O10 0.713630 0.309663 0.392477
O O11 0.773617 0.224817 0.238422
O O12 0.874637 0.500000 0.373093
O O13 0.865627 0.753341 0.444550
O O14 0.782210 0.243288 0.089280
O O15 0.815564 0.000000 0.005920
O O16 0.897202 0.191549 0.003768
O O17 0.695280 0.500000 0.513218
O O18 0.750000 0.750000 0.500000
O O19 0.484608 0.500000 0.917250
O O20 0.500000 0.728859 0.000000
O O21 0.236002 0.500000 0.184640
#
# Coordination Sequence:
#
# PCOD8097086 Si02
#       8
#     8   8   8   8   8   8   8   8
#     4  10  20  37  55  70  97 136 175 215 260 304
#     4  10  20  34  52  76 103 132 171 215 254 301
#     4   9  19  34  49  74 108 137 163 199 252 305
#     4   9  19  34  53  77 108 137 167 208 252 307
#     4   8  17  32  48  71  98 129 172 213 252 295
#     4   9  17  31  52  75 104 137 170 206 249 304
#     4   9  18  32  49  69 102 140 171 209 253 300
#     4  11  21  32  51  77 102 130 171 218 256 299
#
# _framework density 17.893118000000001
#
# number of rings (size 3 to 8) (size 9 to 14) (size 15 to 20)
#    0.000    2.625    0.000    3.375    1.750    3.750 
#    0.000    5.625    0.000    0.750    0.000    5.250 
#    0.000    0.000    0.000    0.000    0.000    0.000 
#
# Total GULP energy -396657.789214 kJ/mol
# GULP energy per Si atom -12395.555913 kJ/mol
# Density = 1.785239 g / cm^3
# Si number density = 17.893118 Si / 1000 Ang^3
#
#
#
# Elastic Constant Matrix: (Units=GPa)
#
#
# Indices 1 2 3 4 5 6 
#
# 1 73.6559 31.0967 35.4793 0.0000 -10.8242 0.0001
# 2 31.0967 67.4639 39.2124 -0.0001 -11.2060 -0.0002
# 3 35.4793 39.2124 86.3697 0.0000 -24.0061 0.0000
# 4 0.0000 -0.0001 0.0000 29.3689 0.0000 1.3990
# 5 -10.8242 -11.2060 -24.0061 0.0000 22.2694 0.0000
# 6 0.0001 -0.0002 0.0000 1.3990 0.0000 27.6316
#
#
#
# Elastic Compliance Matrix: (Units=1/GPa)
#
#
# Indices 1 2 3 4 5 6 
#
# 1 0.018346 -0.005531 -0.004741 0.000000 0.001024 0.000000
# 2 -0.005531 0.021806 -0.007604 0.000000 0.000088 0.000000
# 3 -0.004741 -0.007604 0.021808 0.000000 0.017378 0.000000
# 4 0.000000 0.000000 0.000000 0.034132 0.000000 -0.001728
# 5 0.001024 0.000088 0.017378 0.000000 0.064180 0.000000
# 6 0.000000 0.000000 0.000000 -0.001728 0.000000 0.036278
#
#
# Mechanical properties :
#
#
# Convention : Reuss Voigt Hill
#
# Bulk Modulus (GPa) = 38.15423 48.78516 43.46970
# Shear Modulus (GPa) = 20.74376 23.96736 22.35556
#
# Velocity S-wave (km/s) = 3.40857 3.66385 3.53851
# Velocity P-wave (km/s) = 6.07131 6.72476 6.40637
#
# Compressibility (1/GPa) = 0.02620941
#
# Stress axis : x y z
#
# Youngs Moduli (GPa) = 54.50907 45.85829 45.85510
#
# Poissons Ratio (x) = 0.25363 0.21738
# Poissons Ratio (y) = 0.30148 0.34867
# Poissons Ratio (z) = 0.25840 0.34870
#
# Static dielectric constant tensor:
#      x y z
#    x 3.229160 0.000000 -0.136890 
#    y 0.000000 3.249660 0.000000 
#    z -0.136890 0.000000 3.556520 
# 
# 
# High freq. dielectric constant tensor:
#      x y z
#    x 1.678050 0.000000 -0.010770 
#    y 0.000000 1.688800 0.000000 
#    z -0.010770 0.000000 1.684440 
# 
# From -- ./inp_files/323621.got.cif
#   From: 2010.06.25/outbox.cif.g09.slc.cpg/sg12_162_cif.got.tgz:323621.got - 2010.06.28 00:19:55.
