data_PCOD8097411
_publ_section_title
;
Structure prediction by ZEFSAII (Michael W. Deem and Ramdas Pophale) SiO2 
 PCOD8097411
Probable space group: C 2/M
;
_chemical_formula_sum "Si O2"
_cell_formula_units_Z 48
_cell_length_a 18.713078
_cell_length_b 8.905919
_cell_length_c 31.856381
_cell_angle_alpha 90.000000
_cell_angle_beta 28.370786
_cell_angle_gamma 90.000000
_cell_volume 2522.752041
_symmetry_space_group_name_H-M "C 2/M"
_symmetry_group_IT_number 12
_symmetry_cell_setting 'monoclinic'
loop_
_space_group_symop_operation_xyz
x,y,z
-x,y,-z
-x,-y,-z
x,-y,z
1/2+x,1/2+y,z
1/2-x,1/2+y,-z
1/2-x,1/2-y,-z
1/2+x,1/2-y,z
loop_
_atom_site_type_symbol
_atom_site_label
_atom_site_fract_x
_atom_site_fract_y
_atom_site_fract_z
Si Si1 0.900945 0.824218 0.268770
Si Si2 0.565780 0.825774 0.420643
Si Si3 0.458617 0.174197 0.725309
Si Si4 0.912727 0.178065 0.421188
Si Si5 0.807132 0.826598 0.929238
Si Si6 0.168259 0.829839 0.926533
O O1 0.741652 0.784446 0.330679
O O2 0.926886 0.733452 0.298322
O O3 0.024462 0.775449 0.170416
O O4 0.913266 0.000000 0.273732
O O5 0.500000 0.787296 0.500000
O O6 0.483551 0.724445 0.428949
O O7 0.539805 0.000000 0.422645
O O8 0.479802 0.265100 0.671536
O O9 0.285219 0.199626 0.828282
O O10 0.494720 0.000000 0.698664
O O11 0.750000 0.250000 0.500000
O O12 0.897976 0.000000 0.426865
O O13 0.695628 0.786109 0.949438
O O14 0.801757 0.000000 0.941026
O O15 0.750000 0.750000 0.000000
O O16 0.188649 0.000000 0.932517
O O17 0.000000 0.798398 0.000000
#
# Coordination Sequence:
#
# PCOD8097411 Si02
#       6
#     8   8   8   8   8   8
#     4   9  19  36  57  81 111 146 182 225 277 329
#     4  10  21  38  60  84 110 141 177 220 273 330
#     4  10  20  36  59  84 112 146 185 229 276 327
#     4  12  25  40  59  83 113 146 183 226 272 326
#     4  10  20  34  53  78 110 147 187 230 275 324
#     4   9  19  36  57  81 111 148 187 228 276 329
#
# _framework density 19.02684
#
# number of rings (size 3 to 8) (size 9 to 14) (size 15 to 20)
#    0.000    2.000    0.000    3.500    0.000    5.333 
#    0.000    6.667    0.000    0.000    0.000    0.000 
#    0.000    0.000    0.000    0.000    0.000    0.000 
#
# Total GULP energy -297659.676966 kJ/mol
# GULP energy per Si atom -12402.486540 kJ/mol
# Density = 1.898353 g / cm^3
# Si number density = 19.026840 Si / 1000 Ang^3
#
#
#
# Elastic Constant Matrix: (Units=GPa)
#
#
# Indices 1 2 3 4 5 6 
#
# 1 119.1158 61.9208 77.8915 0.0058 -0.5679 0.0572
# 2 61.9208 93.2979 50.7719 0.0017 7.4364 0.0016
# 3 77.8915 50.7719 122.4344 -0.0012 2.1751 0.0088
# 4 0.0058 0.0017 -0.0012 29.4192 -0.0039 4.6270
# 5 -0.5679 7.4364 2.1751 -0.0039 36.2145 -0.0030
# 6 0.0572 0.0016 0.0088 4.6270 -0.0030 39.7988
#
#
#
# Elastic Compliance Matrix: (Units=1/GPa)
#
#
# Indices 1 2 3 4 5 6 
#
# 1 0.017601 -0.007424 -0.008160 0.000001 0.002291 -0.000023
# 2 -0.007424 0.017203 -0.002349 -0.000002 -0.003508 0.000010
# 3 -0.008160 -0.002349 0.014342 0.000001 -0.000507 0.000009
# 4 0.000001 -0.000002 0.000001 0.034625 0.000004 -0.004025
# 5 0.002291 -0.003508 -0.000507 0.000004 0.028400 -0.000001
# 6 -0.000023 0.000010 0.000009 -0.004025 -0.000001 0.025594
#
#
# Mechanical properties :
#
#
# Convention : Reuss Voigt Hill
#
# Bulk Modulus (GPa) = 75.29222 79.55738 77.42480
# Shear Modulus (GPa) = 28.08099 30.70408 29.39254
#
# Velocity S-wave (km/s) = 3.84586 4.02148 3.93465
# Velocity P-wave (km/s) = 7.70574 7.96662 7.83726
#
# Compressibility (1/GPa) = 0.01328159
#
# Stress axis : x y z
#
# Youngs Moduli (GPa) = 56.81483 58.12903 69.72625
#
# Poissons Ratio (x) = 0.43153 0.56895
# Poissons Ratio (y) = 0.42178 0.16377
# Poissons Ratio (z) = 0.46360 0.13653
#
# Static dielectric constant tensor:
#      x y z
#    x 2.810480 -0.000140 0.058980 
#    y -0.000140 3.578200 -0.000030 
#    z 0.058980 -0.000030 3.754960 
# 
# 
# High freq. dielectric constant tensor:
#      x y z
#    x 1.733970 0.000000 0.000380 
#    y 0.000000 1.742950 0.000000 
#    z 0.000380 0.000000 1.755870 
# 
# From -- ./inp_files/274045.got.cif
#   From: 2010.06.25/outbox.cif.g09.slc.cpg/sg12_138_cif.got.tgz:274045.got - 2010.06.28 00:19:55.
