data_PCOD8097465
_publ_section_title
;
Structure prediction by ZEFSAII (Michael W. Deem and Ramdas Pophale) SiO2 
 PCOD8097465
Probable space group: C 2/M
;
_chemical_formula_sum "Si O2"
_cell_formula_units_Z 56
_cell_length_a 17.806703
_cell_length_b 8.959080
_cell_length_c 19.968410
_cell_angle_alpha 90.000000
_cell_angle_beta 63.127146
_cell_angle_gamma 90.000000
_cell_volume 2841.587334
_symmetry_space_group_name_H-M "C 2/M"
_symmetry_group_IT_number 12
_symmetry_cell_setting 'monoclinic'
loop_
_space_group_symop_operation_xyz
x,y,z
-x,y,-z
-x,-y,-z
x,-y,z
1/2+x,1/2+y,z
1/2-x,1/2+y,-z
1/2-x,1/2-y,-z
1/2+x,1/2-y,z
loop_
_atom_site_type_symbol
_atom_site_label
_atom_site_fract_x
_atom_site_fract_y
_atom_site_fract_z
Si Si1 0.817064 0.675114 0.204601
Si Si2 0.190053 0.175060 0.932131
Si Si3 0.848739 0.170590 0.650255
Si Si4 0.028478 0.676787 0.768820
Si Si5 0.826751 0.171987 0.505690
Si Si6 0.370168 0.175661 0.915902
Si Si7 0.016602 0.323339 0.622678
O O1 0.826375 0.500000 0.187616
O O2 0.835377 0.760402 0.128978
O O3 0.725149 0.716005 0.269123
O O4 0.885893 0.730251 0.230612
O O5 0.286374 0.218612 0.908930
O O6 0.175863 0.000000 0.937466
O O7 0.128930 0.245342 0.012433
O O8 0.812570 0.189614 0.590425
O O9 0.925285 0.281928 0.631620
O O10 0.878247 0.000000 0.650035
O O11 0.022354 0.500000 0.768487
O O12 0.026754 0.739033 0.694008
O O13 0.948433 0.739108 0.841951
O O14 0.750000 0.250000 0.500000
O O15 0.914566 0.247361 0.451736
O O16 0.828961 0.000000 0.483195
O O17 0.376741 0.000000 0.925641
O O18 0.028665 0.500000 0.614241
#
# Coordination Sequence:
#
# PCOD8097465 Si02
#       7
#     8   8   8   8   8   8   8
#     4  10  20  36  57  78 105 144 185 224 274 333
#     4  10  20  34  53  80 111 139 175 228 281 327
#     4  10  22  39  58  82 114 150 188 232 280 332
#     4   9  19  36  57  80 107 143 187 230 272 326
#     4  11  23  40  61  86 118 152 188 232 281 332
#     4   9  18  35  57  77 102 142 186 223 266 327
#     4  11  22  38  61  87 115 148 189 234 279 331
#
# _framework density 19.707295999999999
#
# number of rings (size 3 to 8) (size 9 to 14) (size 15 to 20)
#    0.000    2.000    0.000    3.429    0.000    8.000 
#    0.000    7.857    0.000    0.000    0.000    0.000 
#    0.000    0.000    0.000    0.000    0.000    0.000 
#
# Total GULP energy -347333.001983 kJ/mol
# GULP energy per Si atom -12404.750071 kJ/mol
# Density = 1.966244 g / cm^3
# Si number density = 19.707296 Si / 1000 Ang^3
#
#
#
# Elastic Constant Matrix: (Units=GPa)
#
#
# Indices 1 2 3 4 5 6 
#
# 1 73.3395 24.5714 10.4337 0.0000 7.8964 0.0001
# 2 24.5714 63.5166 27.5678 -0.0001 6.0104 0.0002
# 3 10.4337 27.5678 89.3071 0.0000 7.6268 -0.0001
# 4 0.0000 -0.0001 0.0000 27.5239 0.0000 2.4488
# 5 7.8964 6.0104 7.6268 0.0000 34.9278 0.0000
# 6 0.0001 0.0002 -0.0001 2.4488 0.0000 30.4832
#
#
#
# Elastic Compliance Matrix: (Units=1/GPa)
#
#
# Indices 1 2 3 4 5 6 
#
# 1 0.015894 -0.005996 0.000217 0.000000 -0.002609 0.000000
# 2 -0.005996 0.020571 -0.005567 0.000000 -0.000969 0.000000
# 3 0.000217 -0.005567 0.013056 0.000000 -0.001942 0.000000
# 4 0.000000 0.000000 0.000000 0.036594 0.000000 -0.002940
# 5 -0.002609 -0.000969 -0.001942 0.000000 0.029811 0.000000
# 6 0.000000 0.000000 0.000000 -0.002940 0.000000 0.033041
#
#
# Mechanical properties :
#
#
# Convention : Reuss Voigt Hill
#
# Bulk Modulus (GPa) = 37.27213 39.03437 38.15325
# Shear Modulus (GPa) = 27.68513 29.49300 28.58906
#
# Velocity S-wave (km/s) = 3.75215 3.87273 3.81292
# Velocity P-wave (km/s) = 6.14211 6.31248 6.22788
#
# Compressibility (1/GPa) = 0.02682970
#
# Stress axis : x y z
#
# Youngs Moduli (GPa) = 62.91642 48.61161 76.59174
#
# Poissons Ratio (x) = 0.29147 -0.01660
# Poissons Ratio (y) = 0.37724 0.42637
# Poissons Ratio (z) = -0.01364 0.27061
#
# Static dielectric constant tensor:
#      x y z
#    x 3.665390 0.000000 -0.089900 
#    y 0.000000 3.448010 0.000000 
#    z -0.089900 0.000000 3.833430 
# 
# 
# High freq. dielectric constant tensor:
#      x y z
#    x 1.771560 0.000000 -0.000160 
#    y 0.000000 1.753070 0.000000 
#    z -0.000160 0.000000 1.784230 
# 
# From -- ./inp_files/275300.got.cif
#   From: 2010.06.25/outbox.cif.g09.slc.cpg/sg12_138_cif.got.tgz:275300.got - 2010.06.28 00:19:55.
