data_PCOD8097243
_publ_section_title
;
Structure prediction by ZEFSAII (Michael W. Deem and Ramdas Pophale) SiO2 
 PCOD8097243
Probable space group: C 2/M
;
_chemical_formula_sum "Si O2"
_cell_formula_units_Z 56
_cell_length_a 17.962424
_cell_length_b 9.183661
_cell_length_c 28.870690
_cell_angle_alpha 90.000000
_cell_angle_beta 38.879620
_cell_angle_gamma 90.000000
_cell_volume 2989.375911
_symmetry_space_group_name_H-M "C 2/M"
_symmetry_group_IT_number 12
_symmetry_cell_setting 'monoclinic'
loop_
_space_group_symop_operation_xyz
x,y,z
-x,y,-z
-x,-y,-z
x,-y,z
1/2+x,1/2+y,z
1/2-x,1/2+y,-z
1/2-x,1/2-y,-z
1/2+x,1/2-y,z
loop_
_atom_site_type_symbol
_atom_site_label
_atom_site_fract_x
_atom_site_fract_y
_atom_site_fract_z
Si Si1 0.205199 0.328199 0.567250
Si Si2 0.491836 0.170674 0.137640
Si Si3 0.867942 0.826966 0.572053
Si Si4 0.565709 0.828120 0.284275
Si Si5 0.153641 0.672772 0.142841
Si Si6 0.219327 0.170689 0.286476
Si Si7 0.080858 0.828297 0.003870
O O1 0.220560 0.500000 0.553287
O O2 0.250000 0.250000 0.500000
O O3 0.282572 0.269571 0.572801
O O4 0.070081 0.284516 0.642130
O O5 0.570403 0.231203 0.142019
O O6 0.356668 0.207605 0.214164
O O7 0.512385 0.000000 0.120292
O O8 0.529756 0.252405 0.073465
O O9 0.820331 0.769769 0.644226
O O10 0.000000 0.765191 0.500000
O O11 0.867754 0.000000 0.571978
O O12 0.605553 0.767087 0.214953
O O13 0.645615 0.753636 0.283827
O O14 0.584980 0.000000 0.278260
O O15 0.149345 0.500000 0.146103
O O16 0.286772 0.729256 0.070035
O O17 0.193706 0.000000 0.293965
O O18 0.078800 0.000000 0.013207
O O19 0.000000 0.782472 0.000000
#
# Coordination Sequence:
#
# PCOD8097243 Si02
#       7
#     8   8   8   8   8   8   8
#     4  10  20  34  54  79 105 135 170 208 252 301
#     4  10  20  34  53  76 102 133 170 213 255 297
#     4   9  17  31  52  75 100 133 170 205 244 296
#     4  10  20  35  55  77 103 136 171 207 252 305
#     4   9  18  34  54  75 102 136 172 209 251 302
#     4  10  20  34  53  77 103 132 170 214 256 298
#     4  10  20  34  53  76 103 136 170 206 253 307
#
# _framework density 18.733007000000001
#
# number of rings (size 3 to 8) (size 9 to 14) (size 15 to 20)
#    0.000    2.286    0.000    3.000    0.000    7.143 
#    0.000    2.143    0.000    6.000    0.000    0.000 
#    0.000    0.000    0.000    0.000    0.000    0.000 
#
# Total GULP energy -347269.423760 kJ/mol
# GULP energy per Si atom -12402.479420 kJ/mol
# Density = 1.869037 g / cm^3
# Si number density = 18.733007 Si / 1000 Ang^3
#
#
#
# Elastic Constant Matrix: (Units=GPa)
#
#
# Indices 1 2 3 4 5 6 
#
# 1 200.3711 41.1240 99.1472 -0.0001 7.0723 -0.0016
# 2 41.1240 22.7384 40.6446 -0.0002 2.1887 -0.0024
# 3 99.1472 40.6446 180.3549 0.0000 14.8611 0.0000
# 4 -0.0001 -0.0002 0.0000 29.0142 0.0001 3.5205
# 5 7.0723 2.1887 14.8611 0.0001 42.5230 -0.0001
# 6 -0.0016 -0.0024 0.0000 3.5205 -0.0001 26.7766
#
#
#
# Elastic Compliance Matrix: (Units=1/GPa)
#
#
# Indices 1 2 3 4 5 6 
#
# 1 0.008341 -0.011545 -0.001975 0.000000 -0.000103 -0.000001
# 2 -0.011545 0.089802 -0.014073 0.000000 0.002216 0.000007
# 3 -0.001975 -0.014073 0.010003 0.000000 -0.002443 -0.000001
# 4 0.000000 0.000000 0.000000 0.035025 0.000000 -0.004605
# 5 -0.000103 0.002216 -0.002443 0.000000 0.024274 0.000000
# 6 -0.000001 0.000007 -0.000001 -0.004605 0.000000 0.037951
#
#
# Mechanical properties :
#
#
# Convention : Reuss Voigt Hill
#
# Bulk Modulus (GPa) = 18.88274 85.03292 51.95783
# Shear Modulus (GPa) = 17.97034 34.49932 26.23483
#
# Velocity S-wave (km/s) = 3.10060 4.29608 3.74633
# Velocity P-wave (km/s) = 4.78749 8.37251 6.81979
#
# Compressibility (1/GPa) = 0.05295842
#
# Stress axis : x y z
#
# Youngs Moduli (GPa) = 119.88596 11.13567 99.96673
#
# Poissons Ratio (x) = 0.12856 0.19745
# Poissons Ratio (y) = 1.38411 1.40687
# Poissons Ratio (z) = 0.23680 0.15672
#
# Static dielectric constant tensor:
#      x y z
#    x 3.742030 0.000000 -0.039030 
#    y 0.000000 3.055300 0.000000 
#    z -0.039030 0.000000 3.687140 
# 
# 
# High freq. dielectric constant tensor:
#      x y z
#    x 1.748870 0.000000 -0.001250 
#    y 0.000000 1.685790 0.000000 
#    z -0.001250 0.000000 1.748780 
# 
# From -- ./inp_files/251016.got.cif
#   From: 2010.06.25/outbox.cif.g09.slc.cpg/sg12_126_cif.got.tgz:251016.got - 2010.06.28 00:19:55.
