data_PCOD8097691
_publ_section_title
;
Structure prediction by ZEFSAII (Michael W. Deem and Ramdas Pophale) SiO2 
 PCOD8097691
Probable space group: C 2/M
;
_chemical_formula_sum "Si O2"
_cell_formula_units_Z 48
_cell_length_a 22.463154
_cell_length_b 9.698558
_cell_length_c 12.107041
_cell_angle_alpha 90.000000
_cell_angle_beta 105.299517
_cell_angle_gamma 90.000000
_cell_volume 2544.163408
_symmetry_space_group_name_H-M "C 2/M"
_symmetry_group_IT_number 12
_symmetry_cell_setting 'monoclinic'
loop_
_space_group_symop_operation_xyz
x,y,z
-x,y,-z
-x,-y,-z
x,-y,z
1/2+x,1/2+y,z
1/2-x,1/2+y,-z
1/2-x,1/2-y,-z
1/2+x,1/2-y,z
loop_
_atom_site_type_symbol
_atom_site_label
_atom_site_fract_x
_atom_site_fract_y
_atom_site_fract_z
Si Si1 0.614148 0.159570 0.839810
Si Si2 0.495515 0.840638 0.371571
Si Si3 0.746337 0.836690 0.828329
Si Si4 0.776878 0.156054 0.606052
Si Si5 0.620425 0.661850 0.041091
Si Si6 0.916633 0.844788 0.731273
O O1 0.573666 0.179314 0.709291
O O2 0.683059 0.216671 0.850639
O O3 0.614662 0.000000 0.876328
O O4 0.587221 0.250585 0.927966
O O5 0.500000 0.785238 0.500000
O O6 0.540100 0.759025 0.312354
O O7 0.515765 0.000000 0.378430
O O8 0.750360 0.780244 0.706097
O O9 0.807582 0.789924 0.924055
O O10 0.747397 0.000000 0.821194
O O11 0.750000 0.250000 0.500000
O O12 0.850476 0.161629 0.641574
O O13 0.753927 0.000000 0.576172
O O14 0.613895 0.500000 0.012239
O O15 0.588417 0.697398 0.142156
O O16 0.943308 0.000000 0.735564
#
# Coordination Sequence:
#
# PCOD8097691 Si02
#       6
#     8   8   8   8   8   8
#     4  10  20  34  54  80 108 140 178 219 265 314
#     4  10  23  39  55  78 106 142 186 223 262 316
#     4   8  16  32  53  77 108 140 169 213 267 318
#     4   9  18  32  53  79 105 139 178 217 265 316
#     4   9  18  35  57  81 107 137 175 216 268 325
#     4   9  20  38  56  77 108 142 178 221 268 317
#
# _framework density 18.866712
#
# number of rings (size 3 to 8) (size 9 to 14) (size 15 to 20)
#    0.000    2.833    0.000    2.500    2.333    3.000 
#    0.000    6.667    0.000    0.000    0.000    0.000 
#    0.000    0.000    0.000    0.000    0.000    0.000 
#
# Total GULP energy -297500.136709 kJ/mol
# GULP energy per Si atom -12395.839030 kJ/mol
# Density = 1.882377 g / cm^3
# Si number density = 18.866712 Si / 1000 Ang^3
#
#
#
# Elastic Constant Matrix: (Units=GPa)
#
#
# Indices 1 2 3 4 5 6 
#
# 1 77.9860 38.5793 38.9525 0.0000 -18.7876 0.0000
# 2 38.5793 62.6146 52.5545 0.0000 -7.1735 0.0000
# 3 38.9525 52.5545 132.9210 0.0000 -5.5199 0.0000
# 4 0.0000 0.0000 0.0000 36.6539 0.0000 -2.3678
# 5 -18.7876 -7.1735 -5.5199 0.0000 16.0982 0.0000
# 6 0.0000 0.0000 0.0000 -2.3678 0.0000 29.2086
#
#
#
# Elastic Compliance Matrix: (Units=1/GPa)
#
#
# Indices 1 2 3 4 5 6 
#
# 1 0.024910 -0.010998 -0.001976 0.000000 0.023494 0.000000
# 2 -0.010998 0.029691 -0.008623 0.000000 -0.002562 0.000000
# 3 -0.001976 -0.008623 0.011419 0.000000 -0.002233 0.000000
# 4 0.000000 0.000000 0.000000 0.027426 0.000000 0.002223
# 5 0.023494 -0.002562 -0.002233 0.000000 0.087630 0.000000
# 6 0.000000 0.000000 0.000000 0.002223 0.000000 0.034417
#
#
# Mechanical properties :
#
#
# Convention : Reuss Voigt Hill
#
# Bulk Modulus (GPa) = 43.80850 59.29936 51.55393
# Shear Modulus (GPa) = 18.77619 25.95450 22.36535
#
# Velocity S-wave (km/s) = 3.15810 3.71304 3.44676
# Velocity P-wave (km/s) = 6.04720 7.06266 6.57456
#
# Compressibility (1/GPa) = 0.02282662
#
# Stress axis : x y z
#
# Youngs Moduli (GPa) = 40.14399 33.68036 87.57528
#
# Poissons Ratio (x) = 0.37043 0.17303
# Poissons Ratio (y) = 0.44152 0.75512
# Poissons Ratio (z) = 0.07932 0.29041
#
# Static dielectric constant tensor:
#      x y z
#    x 3.554420 0.000000 0.001940 
#    y 0.000000 3.310220 0.000000 
#    z 0.001940 0.000000 3.504250 
# 
# 
# High freq. dielectric constant tensor:
#      x y z
#    x 1.728070 0.000000 0.000180 
#    y 0.000000 1.712090 0.000000 
#    z 0.000180 0.000000 1.741820 
# 
# From -- ./inp_files/173036.got.cif
#   From: 2010.06.25/outbox.cif.g09.slc.cpg/sg12_87_cif.got.tgz:173036.got - 2010.06.28 00:19:55.
