data_PCOD8097379
_publ_section_title
;
Structure prediction by ZEFSAII (Michael W. Deem and Ramdas Pophale) SiO2 
 PCOD8097379
Probable space group: C 2/M
;
_chemical_formula_sum "Si O2"
_cell_formula_units_Z 48
_cell_length_a 18.400774
_cell_length_b 8.827579
_cell_length_c 18.151858
_cell_angle_alpha 90.000000
_cell_angle_beta 54.868109
_cell_angle_gamma 90.000000
_cell_volume 2411.357396
_symmetry_space_group_name_H-M "C 2/M"
_symmetry_group_IT_number 12
_symmetry_cell_setting 'monoclinic'
loop_
_space_group_symop_operation_xyz
x,y,z
-x,y,-z
-x,-y,-z
x,-y,z
1/2+x,1/2+y,z
1/2-x,1/2+y,-z
1/2-x,1/2-y,-z
1/2+x,1/2-y,z
loop_
_atom_site_type_symbol
_atom_site_label
_atom_site_fract_x
_atom_site_fract_y
_atom_site_fract_z
Si Si1 0.753388 0.178212 0.763204
Si Si2 0.737198 0.323670 0.623309
Si Si3 0.817588 0.832297 0.059257
Si Si4 0.616398 0.323300 0.555801
Si Si5 0.063662 0.319683 0.298091
Si Si6 0.621249 0.832301 0.109201
O O1 0.710256 0.228805 0.711214
O O2 0.685146 0.224287 0.867868
O O3 0.846278 0.265515 0.716205
O O4 0.769752 0.000000 0.756474
O O5 0.745220 0.500000 0.637932
O O6 0.660506 0.290912 0.608978
O O7 0.831567 0.266145 0.537831
O O8 0.722143 0.837480 0.077338
O O9 0.847408 0.000000 0.066422
O O10 0.888476 0.772054 0.957446
O O11 0.617459 0.500000 0.535452
O O12 0.516672 0.261860 0.614012
O O13 0.056818 0.500000 0.309996
O O14 0.062763 0.271414 0.211987
O O15 0.589807 0.000000 0.105023
#
# Coordination Sequence:
#
# PCOD8097379 Si02
#       6
#     8   8   8   8   8   8
#     4  11  21  33  52  78 107 136 172 215 256 300
#     4  10  21  38  57  76 102 135 171 210 255 308
#     4   9  16  27  45  70 101 135 169 206 252 302
#     4  10  21  37  57  79 102 132 171 211 254 308
#     4  10  20  34  53  78 108 138 170 211 258 303
#     4   8  15  27  44  69 100 134 169 204 246 299
#
# _framework density 19.905799999999999
#
# number of rings (size 3 to 8) (size 9 to 14) (size 15 to 20)
#    0.000    2.333    0.000    4.500    0.000    7.333 
#    0.000    3.333    0.000    1.000    0.000    7.000 
#    0.000    0.000    0.000    0.000    0.000    0.000 
#
# Total GULP energy -297595.592135 kJ/mol
# GULP energy per Si atom -12399.816339 kJ/mol
# Density = 1.986049 g / cm^3
# Si number density = 19.905800 Si / 1000 Ang^3
#
#
#
# Elastic Constant Matrix: (Units=GPa)
#
#
# Indices 1 2 3 4 5 6 
#
# 1 17.9723 9.8389 1.6853 0.0000 10.6264 0.0000
# 2 9.8389 77.0874 21.8473 0.0001 10.4255 -0.0001
# 3 1.6853 21.8473 53.6838 0.0000 24.0270 0.0000
# 4 0.0000 0.0001 0.0000 39.0791 0.0000 5.1022
# 5 10.6264 10.4255 24.0270 0.0000 23.7477 0.0000
# 6 0.0000 -0.0001 0.0000 5.1022 0.0000 23.1288
#
#
#
# Elastic Compliance Matrix: (Units=1/GPa)
#
#
# Indices 1 2 3 4 5 6 
#
# 1 0.107311 -0.013635 0.038366 0.000000 -0.080849 0.000000
# 2 -0.013635 0.016403 -0.010518 0.000000 0.009542 0.000000
# 3 0.038366 -0.010518 0.049931 0.000000 -0.063068 0.000000
# 4 0.000000 0.000000 0.000000 0.026348 0.000000 -0.005812
# 5 -0.080849 0.009542 -0.063068 0.000000 0.137907 0.000000
# 6 0.000000 0.000000 0.000000 -0.005812 0.000000 0.044518
#
#
# Mechanical properties :
#
#
# Convention : Reuss Voigt Hill
#
# Bulk Modulus (GPa) = 4.94879 23.94293 14.44586
# Shear Modulus (GPa) = 11.86660 24.88258 18.37459
#
# Velocity S-wave (km/s) = 2.44424 3.53939 3.04151
# Velocity P-wave (km/s) = 3.23377 5.36258 4.42801
#
# Compressibility (1/GPa) = 0.20206955
#
# Stress axis : x y z
#
# Youngs Moduli (GPa) = 9.31867 60.96434 20.02780
#
# Poissons Ratio (x) = 0.83127 -0.76838
# Poissons Ratio (y) = 0.12706 0.21065
# Poissons Ratio (z) = -0.35752 0.64123
#
# Static dielectric constant tensor:
#      x y z
#    x 3.148390 0.000000 0.151080 
#    y 0.000000 3.734380 0.000000 
#    z 0.151080 0.000000 3.846920 
# 
# 
# High freq. dielectric constant tensor:
#      x y z
#    x 1.727440 0.000000 0.014380 
#    y 0.000000 1.787520 0.000000 
#    z 0.014380 0.000000 1.786690 
# 
# From -- ./inp_files/274035.got.cif
#   From: 2010.06.25/outbox.cif.g09.slc.cpg/sg12_138_cif.got.tgz:274035.got - 2010.06.28 00:19:55.
