data_PCOD8097584
_publ_section_title
;
Structure prediction by ZEFSAII (Michael W. Deem and Ramdas Pophale) SiO2 
 PCOD8097584
Probable space group: C 2/M
;
_chemical_formula_sum "Si O2"
_cell_formula_units_Z 44
_cell_length_a 26.420839
_cell_length_b 9.517685
_cell_length_c 8.620183
_cell_angle_alpha 90.000000
_cell_angle_beta 86.355985
_cell_angle_gamma 90.000000
_cell_volume 2163.293628
_symmetry_space_group_name_H-M "C 2/M"
_symmetry_group_IT_number 12
_symmetry_cell_setting 'monoclinic'
loop_
_space_group_symop_operation_xyz
x,y,z
-x,y,-z
-x,-y,-z
x,-y,z
1/2+x,1/2+y,z
1/2-x,1/2+y,-z
1/2-x,1/2-y,-z
1/2+x,1/2-y,z
loop_
_atom_site_type_symbol
_atom_site_label
_atom_site_fract_x
_atom_site_fract_y
_atom_site_fract_z
Si Si1 0.000000 0.766326 0.500000
Si Si2 0.298934 0.169124 0.932012
Si Si3 0.052803 0.652095 0.210789
Si Si4 0.345175 0.152420 0.613989
Si Si5 0.104170 0.833390 0.966971
Si Si6 0.602034 0.346854 0.615882
O O1 0.992601 0.676140 0.658009
O O2 0.949064 0.854907 0.478227
O O3 0.301676 0.197472 0.745165
O O4 0.297967 0.000000 0.965888
O O5 0.250000 0.250000 0.000000
O O6 0.345990 0.242928 0.007600
O O7 0.043745 0.500000 0.132143
O O8 0.104026 0.645990 0.297248
O O9 0.057398 0.774778 0.080548
O O10 0.353053 0.254313 0.467004
O O11 0.332342 0.000000 0.545799
O O12 0.089082 0.800698 0.792978
O O13 0.111876 0.000000 0.998663
O O14 0.626554 0.500000 0.614225
#
# Coordination Sequence:
#
# PCOD8097584 Si02
#       6
#     4   8   8   8   8   8
#     4  10  20  34  54  78 104 140 184 228 264 310
#     4  10  20  36  59  85 108 136 174 215 261 318
#     4   9  18  34  53  75 103 138 179 221 266 316
#     4   8  17  33  53  76 104 136 172 214 261 312
#     4  10  21  36  53  78 110 141 174 219 267 314
#     4  10  21  35  53  77 107 142 181 221 265 313
#
# _framework density 20.339357
#
# number of rings (size 3 to 8) (size 9 to 14) (size 15 to 20)
#    0.000    2.545    0.000    2.727    0.000   10.909 
#    0.000    3.636    0.000    0.000    0.000    0.000 
#    0.000    0.000    0.000    0.000    0.000    0.000 
#
# Total GULP energy -272554.651284 kJ/mol
# GULP energy per Si atom -12388.847786 kJ/mol
# Density = 2.029306 g / cm^3
# Si number density = 20.339357 Si / 1000 Ang^3
#
#
#
# Elastic Constant Matrix: (Units=GPa)
#
#
# Indices 1 2 3 4 5 6 
#
# 1 57.9924 37.1791 37.7253 0.0000 -26.1643 0.0000
# 2 37.1791 150.2363 82.3616 0.0000 -24.5257 0.0000
# 3 37.7253 82.3616 137.9025 0.0000 -33.3211 0.0000
# 4 0.0000 0.0000 0.0000 35.7317 0.0000 -5.9588
# 5 -26.1643 -24.5257 -33.3211 0.0000 38.1585 0.0000
# 6 0.0000 0.0000 0.0000 -5.9588 0.0000 13.8692
#
#
#
# Elastic Compliance Matrix: (Units=1/GPa)
#
#
# Indices 1 2 3 4 5 6 
#
# 1 0.027341 -0.003278 -0.001903 0.000000 0.014979 0.000000
# 2 -0.003278 0.010359 -0.005354 0.000000 -0.000265 0.000000
# 3 -0.001903 -0.005354 0.012450 0.000000 0.006126 0.000000
# 4 0.000000 0.000000 0.000000 0.030146 0.000000 0.012952
# 5 0.014979 -0.000265 0.006126 0.000000 0.041656 0.000000
# 6 0.000000 0.000000 0.000000 0.012952 0.000000 0.077667
#
#
# Mechanical properties :
#
#
# Convention : Reuss Voigt Hill
#
# Bulk Modulus (GPa) = 34.38723 73.40700 53.89712
# Shear Modulus (GPa) = 21.70306 30.14291 25.92299
#
# Velocity S-wave (km/s) = 3.27011 3.85385 3.57392
# Velocity P-wave (km/s) = 5.58584 7.48147 6.60204
#
# Compressibility (1/GPa) = 0.02908056
#
# Stress axis : x y z
#
# Youngs Moduli (GPa) = 36.57571 96.52983 80.32114
#
# Poissons Ratio (x) = 0.31640 0.15281
# Poissons Ratio (y) = 0.11989 0.43008
# Poissons Ratio (z) = 0.06959 0.51686
#
# Static dielectric constant tensor:
#      x y z
#    x 3.511960 0.000000 -0.463020 
#    y 0.000000 3.948360 0.000000 
#    z -0.463020 0.000000 3.921510 
# 
# 
# High freq. dielectric constant tensor:
#      x y z
#    x 1.763130 0.000000 -0.026720 
#    y 0.000000 1.801840 0.000000 
#    z -0.026720 0.000000 1.796000 
# 
# From -- ./inp_files/108157.got.cif
#   From: 2010.06.25/outbox.cif.g09.slc.cpg/sg12_55_cif.got.tgz:108157.got - 2010.06.28 00:19:55.
