data_PCOD8097186
_publ_section_title
;
Structure prediction by ZEFSAII (Michael W. Deem and Ramdas Pophale) SiO2 
 PCOD8097186
Probable space group: C 2/M
;
_chemical_formula_sum "Si O2"
_cell_formula_units_Z 56
_cell_length_a 14.426847
_cell_length_b 8.560842
_cell_length_c 23.829946
_cell_angle_alpha 90.000000
_cell_angle_beta 97.092005
_cell_angle_gamma 90.000000
_cell_volume 2920.622853
_symmetry_space_group_name_H-M "C 2/M"
_symmetry_group_IT_number 12
_symmetry_cell_setting 'monoclinic'
loop_
_space_group_symop_operation_xyz
x,y,z
-x,y,-z
-x,-y,-z
x,-y,z
1/2+x,1/2+y,z
1/2-x,1/2+y,-z
1/2-x,1/2-y,-z
1/2+x,1/2-y,z
loop_
_atom_site_type_symbol
_atom_site_label
_atom_site_fract_x
_atom_site_fract_y
_atom_site_fract_z
Si Si1 0.476009 0.680353 0.561886
Si Si2 0.806300 0.316632 0.233934
Si Si3 0.063546 0.315012 0.857146
Si Si4 0.783716 0.682001 0.561234
Si Si5 0.853020 0.683030 0.362692
Si Si6 0.647285 0.815466 0.153191
Si Si7 0.724182 0.315529 0.938139
O O1 0.500000 0.723590 0.500000
O O2 0.445790 0.500000 0.564738
O O3 0.393827 0.793693 0.575745
O O4 0.562871 0.713531 0.608072
O O5 0.791423 0.500000 0.229754
O O6 0.887978 0.262138 0.197478
O O7 0.835397 0.262670 0.297878
O O8 0.707146 0.239270 0.211216
O O9 0.063201 0.500000 0.863449
O O10 0.121613 0.244583 0.913307
O O11 0.957985 0.247494 0.851181
O O12 0.757203 0.500000 0.563147
O O13 0.750000 0.750000 0.500000
O O14 0.738031 0.778308 0.608123
O O15 0.876729 0.500000 0.368664
O O16 0.698295 0.754583 0.100524
O O17 0.642638 0.000000 0.153591
O O18 0.722819 0.500000 0.940171
O O19 0.750000 0.250000 0.000000
#
# Coordination Sequence:
#
# PCOD8097186 Si02
#       7
#     8   8   8   8   8   8   8
#     4  11  23  39  60  85 113 146 185 228 282 342
#     4   9  20  37  57  82 111 142 181 229 278 329
#     4   9  18  36  58  79 108 146 185 228 276 326
#     4  12  24  39  60  84 111 146 185 229 280 336
#     4  11  23  39  59  86 118 150 187 231 282 345
#     4   9  19  35  57  81 109 147 189 231 277 329
#     4  10  20  34  52  80 114 149 188 230 277 327
#
# _framework density 19.173991000000001
#
# number of rings (size 3 to 8) (size 9 to 14) (size 15 to 20)
#    0.000    1.857    1.429    2.571    0.000    4.571 
#    0.000    4.286    0.000    0.000    0.000    0.000 
#    0.000    0.000    0.000    0.000    0.000    0.000 
#
# Total GULP energy -347293.866188 kJ/mol
# GULP energy per Si atom -12403.352364 kJ/mol
# Density = 1.913035 g / cm^3
# Si number density = 19.173991 Si / 1000 Ang^3
#
#
#
# Elastic Constant Matrix: (Units=GPa)
#
#
# Indices 1 2 3 4 5 6 
#
# 1 153.3804 20.0848 64.1620 0.0000 13.0259 0.0000
# 2 20.0848 34.4144 24.6602 0.0000 3.4839 0.0000
# 3 64.1620 24.6602 146.1792 0.0000 18.0769 0.0000
# 4 0.0000 0.0000 0.0000 23.8355 0.0000 4.0769
# 5 13.0259 3.4839 18.0769 0.0000 24.4657 0.0000
# 6 0.0000 0.0000 0.0000 4.0769 0.0000 32.4220
#
#
#
# Elastic Compliance Matrix: (Units=1/GPa)
#
#
# Indices 1 2 3 4 5 6 
#
# 1 0.008246 -0.002498 -0.002970 0.000000 -0.001840 0.000000
# 2 -0.002498 0.033819 -0.004598 0.000000 -0.000089 0.000000
# 3 -0.002970 -0.004598 0.009513 0.000000 -0.004793 0.000000
# 4 0.000000 0.000000 0.000000 0.042876 0.000000 -0.005391
# 5 -0.001840 -0.000089 -0.004793 0.000000 0.045407 0.000000
# 6 0.000000 0.000000 0.000000 -0.005391 0.000000 0.031521
#
#
# Mechanical properties :
#
#
# Convention : Reuss Voigt Hill
#
# Bulk Modulus (GPa) = 31.80079 61.30978 46.55528
# Shear Modulus (GPa) = 24.75301 31.14911 27.95106
#
# Velocity S-wave (km/s) = 3.59690 4.03494 3.82220
# Velocity P-wave (km/s) = 5.81994 7.33162 6.61907
#
# Compressibility (1/GPa) = 0.03144576
#
# Stress axis : x y z
#
# Youngs Moduli (GPa) = 121.27697 29.56926 105.11878
#
# Poissons Ratio (x) = 0.07385 0.31224
# Poissons Ratio (y) = 0.30289 0.48333
# Poissons Ratio (z) = 0.36024 0.13596
#
# Static dielectric constant tensor:
#      x y z
#    x 3.770760 0.000000 -0.139150 
#    y 0.000000 3.589620 0.000000 
#    z -0.139150 0.000000 3.672150 
# 
# 
# High freq. dielectric constant tensor:
#      x y z
#    x 1.754540 0.000000 0.002850 
#    y 0.000000 1.744620 0.000000 
#    z 0.002850 0.000000 1.744350 
# 
# From -- ./inp_files/309037.got.cif
#   From: 2010.06.25/outbox.cif.g09.slc.cpg/sg12_155_cif.got.tgz:309037.got - 2010.06.28 00:19:55.
