data_PCOD8097620
_publ_section_title
;
Structure prediction by ZEFSAII (Michael W. Deem and Ramdas Pophale) SiO2 
 PCOD8097620
Probable space group: C 2/M
;
_chemical_formula_sum "Si O2"
_cell_formula_units_Z 40
_cell_length_a 13.012223
_cell_length_b 13.364017
_cell_length_c 21.175192
_cell_angle_alpha 90.000000
_cell_angle_beta 145.673890
_cell_angle_gamma 90.000000
_cell_volume 2076.442234
_symmetry_space_group_name_H-M "C 2/M"
_symmetry_group_IT_number 12
_symmetry_cell_setting 'monoclinic'
loop_
_space_group_symop_operation_xyz
x,y,z
-x,y,-z
-x,-y,-z
x,-y,z
1/2+x,1/2+y,z
1/2-x,1/2+y,-z
1/2-x,1/2-y,-z
1/2+x,1/2-y,z
loop_
_atom_site_type_symbol
_atom_site_label
_atom_site_fract_x
_atom_site_fract_y
_atom_site_fract_z
Si Si1 0.390361 0.676229 0.039332
Si Si2 0.881293 0.616176 0.605467
Si Si3 0.959087 0.109603 0.204659
Si Si4 0.257934 0.206567 0.162969
Si Si5 0.806707 0.297669 0.433562
O O1 0.423409 0.595546 0.111184
O O2 0.584245 0.727043 0.119586
O O3 0.250000 0.750000 0.000000
O O4 0.298407 0.638449 0.927006
O O5 0.852359 0.500000 0.607316
O O6 0.817810 0.637571 0.502526
O O7 0.757090 0.683349 0.588304
O O8 0.091885 0.646881 0.721230
O O9 0.825086 0.184863 0.173363
O O10 0.166105 0.146913 0.316410
O O11 0.933070 0.000000 0.222053
O O12 0.000000 0.293056 0.500000
#
# Coordination Sequence:
#
# PCOD8097620 Si02
#       5
#     8   8   8   8   8
#     4   9  18  34  53  74 104 138 171 212 258 303
#     4  10  21  36  55  78 104 138 175 210 257 311
#     4  10  20  34  54  79 105 137 175 212 257 308
#     4   9  19  35  53  75 107 138 170 216 259 302
#     4  10  21  36  54  78 108 136 170 217 258 301
#
# _framework density 19.263721
#
# number of rings (size 3 to 8) (size 9 to 14) (size 15 to 20)
#    0.000    2.400    0.000    1.800    0.000    5.200 
#    0.000   10.000    0.000   19.200    0.000    0.000 
#    0.000    0.000    0.000    0.000    0.000    0.000 
#
# Total GULP energy -247810.823883 kJ/mol
# GULP energy per Si atom -12390.541194 kJ/mol
# Density = 1.921988 g / cm^3
# Si number density = 19.263721 Si / 1000 Ang^3
#
#
#
# Elastic Constant Matrix: (Units=GPa)
#
#
# Indices 1 2 3 4 5 6 
#
# 1 54.0292 22.0706 4.8531 -0.0002 8.8296 -0.0001
# 2 22.0706 128.6312 27.3656 0.0002 -2.0923 0.0000
# 3 4.8531 27.3656 82.0111 0.0006 -3.9917 0.0000
# 4 -0.0002 0.0002 0.0006 10.3665 0.0000 -5.2699
# 5 8.8296 -2.0923 -3.9917 0.0000 32.6332 0.0000
# 6 -0.0001 0.0000 0.0000 -5.2699 0.0000 9.1449
#
#
#
# Elastic Compliance Matrix: (Units=1/GPa)
#
#
# Indices 1 2 3 4 5 6 
#
# 1 0.020993 -0.003631 -0.000321 0.000001 -0.005952 0.000001
# 2 -0.003631 0.008997 -0.002728 0.000000 0.001226 0.000000
# 3 -0.000321 -0.002728 0.013197 -0.000001 0.001526 -0.000001
# 4 0.000001 0.000000 -0.000001 0.136432 0.000000 0.078621
# 5 -0.005952 0.001226 0.001526 0.000000 0.032519 0.000000
# 6 0.000001 0.000000 -0.000001 0.078621 0.000000 0.154657
#
#
# Mechanical properties :
#
#
# Convention : Reuss Voigt Hill
#
# Bulk Modulus (GPa) = 33.52381 41.47225 37.49803
# Shear Modulus (GPa) = 12.81732 24.45440 18.63586
#
# Velocity S-wave (km/s) = 2.58226 3.56680 3.11369
# Velocity P-wave (km/s) = 5.13138 6.20792 5.69514
#
# Compressibility (1/GPa) = 0.02982954
#
# Stress axis : x y z
#
# Youngs Moduli (GPa) = 47.63470 111.14377 75.77532
#
# Poissons Ratio (x) = 0.40352 0.02429
# Poissons Ratio (y) = 0.17294 0.20670
# Poissons Ratio (z) = 0.01527 0.30317
#
# Static dielectric constant tensor:
#      x y z
#    x 3.448760 0.000000 -0.151140 
#    y 0.000000 3.288360 0.000000 
#    z -0.151140 0.000000 4.038260 
# 
# 
# High freq. dielectric constant tensor:
#      x y z
#    x 1.745520 0.000000 -0.002870 
#    y 0.000000 1.723130 0.000000 
#    z -0.002870 0.000000 1.777660 
# 
# From -- ./inp_files/212369.got.cif
#   From: 2010.06.25/outbox.cif.g09.slc.cpg/sg12_107_cif.got.tgz:212369.got - 2010.06.28 00:19:55.
