data_PCOD8097996
_publ_section_title
;
Structure prediction by ZEFSAII (Michael W. Deem and Ramdas Pophale) SiO2 
 PCOD8097996
Probable space group: C 2/M
;
_chemical_formula_sum "Si O2"
_cell_formula_units_Z 64
_cell_length_a 18.726828
_cell_length_b 9.369194
_cell_length_c 25.515405
_cell_angle_alpha 90.000000
_cell_angle_beta 129.341281
_cell_angle_gamma 90.000000
_cell_volume 3462.293769
_symmetry_space_group_name_H-M "C 2/M"
_symmetry_group_IT_number 12
_symmetry_cell_setting 'monoclinic'
loop_
_space_group_symop_operation_xyz
x,y,z
-x,y,-z
-x,-y,-z
x,-y,z
1/2+x,1/2+y,z
1/2-x,1/2+y,-z
1/2-x,1/2-y,-z
1/2+x,1/2-y,z
loop_
_atom_site_type_symbol
_atom_site_label
_atom_site_fract_x
_atom_site_fract_y
_atom_site_fract_z
Si Si1 0.758539 0.833016 0.557683
Si Si2 0.929454 0.662022 0.182828
Si Si3 0.460093 0.333771 0.688018
Si Si4 0.379500 0.331060 0.316237
Si Si5 0.602150 0.165446 0.568192
Si Si6 0.894234 0.842692 0.962840
Si Si7 0.265795 0.837309 0.184820
Si Si8 0.343302 0.833180 0.035289
O O1 0.750000 0.750000 0.500000
O O2 0.855628 0.787641 0.628245
O O3 0.675504 0.790094 0.557779
O O4 0.756310 0.000000 0.543764
O O5 0.961977 0.500000 0.204799
O O6 0.833134 0.690052 0.167218
O O7 0.914704 0.701470 0.115300
O O8 0.010134 0.758360 0.244393
O O9 0.469163 0.500000 0.702583
O O10 0.526318 0.288111 0.670474
O O11 0.368152 0.500000 0.316019
O O12 0.380945 0.263439 0.374032
O O13 0.291501 0.268006 0.244267
O O14 0.500000 0.196280 0.500000
O O15 0.614561 0.000000 0.589672
O O16 0.836676 0.800563 0.883821
O O17 0.857590 0.000000 0.964944
O O18 0.887387 0.719566 0.002260
O O19 0.000000 0.856794 0.000000
O O20 0.273136 0.000000 0.208759
O O21 0.321715 0.000000 0.022172
O O22 0.250000 0.750000 0.000000
#
# Coordination Sequence:
#
# PCOD8097996 Si02
#       8
#     8   8   8   8   8   8   8   8
#     4  10  21  37  57  82 111 141 176 218 265 316
#     4   9  18  33  54  80 107 139 180 225 271 325
#     4   9  19  35  54  79 109 139 176 221 268 319
#     4  10  20  34  55  82 107 138 180 222 267 317
#     4  10  21  37  57  81 109 143 182 217 259 319
#     4  10  21  38  57  80 110 147 190 233 286 343
#     4   9  17  34  56  77 107 143 181 223 270 327
#     4  11  21  35  57  83 112 144 188 238 283 335
#
# _framework density 18.484856000000001
#
# number of rings (size 3 to 8) (size 9 to 14) (size 15 to 20)
#    0.000    2.250    1.250    1.500    0.000    3.500 
#    2.250    0.000    0.000    0.000    0.000    0.000 
#    0.000    0.000    0.000    0.000    0.000    0.000 
#
# Total GULP energy -396824.542722 kJ/mol
# GULP energy per Si atom -12400.766960 kJ/mol
# Density = 1.844278 g / cm^3
# Si number density = 18.484856 Si / 1000 Ang^3
#
#
#
# Elastic Constant Matrix: (Units=GPa)
#
#
# Indices 1 2 3 4 5 6 
#
# 1 90.5953 47.3720 70.5576 0.0000 7.7014 0.0000
# 2 47.3720 90.0524 82.8026 0.0000 -7.0896 0.0000
# 3 70.5576 82.8026 158.9981 0.0000 4.8260 0.0000
# 4 0.0000 0.0000 0.0000 39.2571 0.0000 -5.9268
# 5 7.7014 -7.0896 4.8260 0.0000 32.4933 0.0000
# 6 0.0000 0.0000 0.0000 -5.9268 0.0000 23.5651
#
#
#
# Elastic Compliance Matrix: (Units=1/GPa)
#
#
# Indices 1 2 3 4 5 6 
#
# 1 0.018212 -0.005073 -0.005299 0.000000 -0.004636 0.000000
# 2 -0.005073 0.024099 -0.010543 0.000000 0.008026 0.000000
# 3 -0.005299 -0.010543 0.014227 0.000000 -0.003157 0.000000
# 4 0.000000 0.000000 0.000000 0.026479 0.000000 0.006660
# 5 -0.004636 0.008026 -0.003157 0.000000 0.034095 0.000000
# 6 0.000000 0.000000 0.000000 0.006660 0.000000 0.044111
#
#
# Mechanical properties :
#
#
# Convention : Reuss Voigt Hill
#
# Bulk Modulus (GPa) = 67.98695 82.34557 75.16626
# Shear Modulus (GPa) = 24.04373 28.32402 26.18387
#
# Velocity S-wave (km/s) = 3.61047 3.91868 3.76773
# Velocity P-wave (km/s) = 7.36480 8.06964 7.72526
#
# Compressibility (1/GPa) = 0.01470870
#
# Stress axis : x y z
#
# Youngs Moduli (GPa) = 54.90892 41.49547 70.28732
#
# Poissons Ratio (x) = 0.21049 0.37248
# Poissons Ratio (y) = 0.27853 0.74102
# Poissons Ratio (z) = 0.29098 0.43748
#
# Static dielectric constant tensor:
#      x y z
#    x 3.305630 0.000000 0.148210 
#    y 0.000000 4.096920 0.000000 
#    z 0.148210 0.000000 3.528260 
# 
# 
# High freq. dielectric constant tensor:
#      x y z
#    x 1.700230 0.000000 0.006000 
#    y 0.000000 1.718020 0.000000 
#    z 0.006000 0.000000 1.728300 
# 
# From -- ./inp_files/346295.got.cif
#   From: 2010.06.25/outbox.cif.g09.slc.cpg/sg12_174_cif.got.tgz:346295.got - 2010.06.28 00:19:55.
