data_PCOD8097208
_publ_section_title
;
Structure prediction by ZEFSAII (Michael W. Deem and Ramdas Pophale) SiO2 
 PCOD8097208
Probable space group: C 2/M
;
_chemical_formula_sum "Si O2"
_cell_formula_units_Z 64
_cell_length_a 31.325791
_cell_length_b 9.139650
_cell_length_c 25.174786
_cell_angle_alpha 90.000000
_cell_angle_beta 150.213486
_cell_angle_gamma 90.000000
_cell_volume 3580.572685
_symmetry_space_group_name_H-M "C 2/M"
_symmetry_group_IT_number 12
_symmetry_cell_setting 'monoclinic'
loop_
_space_group_symop_operation_xyz
x,y,z
-x,y,-z
-x,-y,-z
x,-y,z
1/2+x,1/2+y,z
1/2-x,1/2+y,-z
1/2-x,1/2-y,-z
1/2+x,1/2-y,z
loop_
_atom_site_type_symbol
_atom_site_label
_atom_site_fract_x
_atom_site_fract_y
_atom_site_fract_z
Si Si1 0.181639 0.329866 0.962560
Si Si2 0.913142 0.170114 0.432336
Si Si3 0.638267 0.669637 0.019161
Si Si4 0.052769 0.169505 0.215756
Si Si5 0.744028 0.670414 0.234568
Si Si6 0.886040 0.171005 0.525112
Si Si7 0.013328 0.329955 0.277002
Si Si8 0.715870 0.328949 0.323603
O O1 0.204528 0.500000 0.990417
O O2 0.088039 0.302307 0.836853
O O3 0.250000 0.250000 0.000000
O O4 0.186604 0.263977 0.026908
O O5 0.833055 0.249063 0.318269
O O6 0.916372 0.203454 0.498229
O O7 0.000000 0.232163 0.500000
O O8 0.902564 0.000000 0.408817
O O9 0.656535 0.500000 0.026559
O O10 0.674093 0.716588 0.115244
O O11 0.536884 0.703010 0.910393
O O12 0.062409 0.265226 0.279041
O O13 0.127380 0.215913 0.255969
O O14 0.059665 0.000000 0.239537
O O15 0.763923 0.500000 0.253664
O O16 0.707212 0.715487 0.252421
O O17 0.955937 0.247008 0.637586
O O18 0.792303 0.239666 0.434033
O O19 0.881773 0.000000 0.533362
O O20 0.036174 0.500000 0.305999
O O21 0.735980 0.500000 0.351879
#
# Coordination Sequence:
#
# PCOD8097208 Si02
#       8
#     8   8   8   8   8   8   8   8
#     4  10  21  36  54  76 102 133 168 207 251 298
#     4   9  19  35  52  72  99 130 166 206 247 295
#     4   9  18  33  52  76 105 134 167 206 247 295
#     4   9  18  33  53  75 101 134 169 205 247 296
#     4   9  18  32  51  76 104 132 164 204 248 294
#     4  10  20  34  53  75 100 132 168 207 252 300
#     4  10  21  36  53  74 101 131 166 209 252 296
#     4   9  18  33  52  75 103 134 168 206 248 294
#
# _framework density 17.874236
#
# number of rings (size 3 to 8) (size 9 to 14) (size 15 to 20)
#    0.000    2.625    0.000    1.125    0.000    5.250 
#    0.000    5.000    0.000    0.000    0.000    7.000 
#    0.000    0.000    0.000    0.000    0.000    0.000 
#
# Total GULP energy -396899.141999 kJ/mol
# GULP energy per Si atom -12403.098187 kJ/mol
# Density = 1.783355 g / cm^3
# Si number density = 17.874236 Si / 1000 Ang^3
#
#
#
# Elastic Constant Matrix: (Units=GPa)
#
#
# Indices 1 2 3 4 5 6 
#
# 1 111.6900 51.1836 56.0169 0.0000 18.3507 0.0000
# 2 51.1836 76.4367 49.9545 0.0000 -0.0140 0.0000
# 3 56.0169 49.9545 97.3920 0.0000 -7.7970 0.0000
# 4 0.0000 0.0000 0.0000 28.8299 0.0000 0.1368
# 5 18.3507 -0.0140 -7.7970 0.0000 30.5057 0.0000
# 6 0.0000 0.0000 0.0000 0.1368 0.0000 27.9190
#
#
#
# Elastic Compliance Matrix: (Units=1/GPa)
#
#
# Indices 1 2 3 4 5 6 
#
# 1 0.018338 -0.007077 -0.007964 0.000000 -0.013070 0.000000
# 2 -0.007077 0.022619 -0.007340 0.000000 0.002392 0.000000
# 3 -0.007964 -0.007340 0.019393 0.000000 0.009744 0.000000
# 4 0.000000 0.000000 0.000000 0.034687 0.000000 -0.000170
# 5 -0.013070 0.002392 0.009744 0.000000 0.043135 0.000000
# 6 0.000000 0.000000 0.000000 -0.000170 0.000000 0.035819
#
#
# Mechanical properties :
#
#
# Convention : Reuss Voigt Hill
#
# Bulk Modulus (GPa) = 64.14898 66.64763 65.39831
# Shear Modulus (GPa) = 22.32653 26.00850 24.16752
#
# Velocity S-wave (km/s) = 3.53808 3.81869 3.68106
# Velocity P-wave (km/s) = 7.25656 7.53732 7.39827
#
# Compressibility (1/GPa) = 0.01558871
#
# Stress axis : x y z
#
# Youngs Moduli (GPa) = 54.53078 44.21045 51.56471
#
# Poissons Ratio (x) = 0.31289 0.41065
# Poissons Ratio (y) = 0.38593 0.37847
# Poissons Ratio (z) = 0.43427 0.32449
#
# Static dielectric constant tensor:
#      x y z
#    x 3.357820 0.000000 -0.013420 
#    y 0.000000 3.346400 0.000000 
#    z -0.013420 0.000000 3.359710 
# 
# 
# High freq. dielectric constant tensor:
#      x y z
#    x 1.691600 0.000000 -0.000500 
#    y 0.000000 1.693420 0.000000 
#    z -0.000500 0.000000 1.693040 
# 
# From -- ./inp_files/353523.got.cif
#   From: 2010.06.25/outbox.cif.g09.slc.cpg/sg12_177_cif.got.tgz:353523.got - 2010.06.28 00:19:55.
