data_PCOD8097148
_publ_section_title
;
Structure prediction by ZEFSAII (Michael W. Deem and Ramdas Pophale) SiO2 
 PCOD8097148
Probable space group: C 2/M
;
_chemical_formula_sum "Si O2"
_cell_formula_units_Z 56
_cell_length_a 14.424765
_cell_length_b 9.014630
_cell_length_c 25.867199
_cell_angle_alpha 90.000000
_cell_angle_beta 66.479550
_cell_angle_gamma 90.000000
_cell_volume 3084.156523
_symmetry_space_group_name_H-M "C 2/M"
_symmetry_group_IT_number 12
_symmetry_cell_setting 'monoclinic'
loop_
_space_group_symop_operation_xyz
x,y,z
-x,y,-z
-x,-y,-z
x,-y,z
1/2+x,1/2+y,z
1/2-x,1/2+y,-z
1/2-x,1/2-y,-z
1/2+x,1/2-y,z
loop_
_atom_site_type_symbol
_atom_site_label
_atom_site_fract_x
_atom_site_fract_y
_atom_site_fract_z
Si Si1 0.307330 0.674124 0.440666
Si Si2 0.003935 0.674078 0.361378
Si Si3 0.579307 0.173435 0.730901
Si Si4 0.725195 0.173195 0.347295
Si Si5 0.775439 0.170736 0.940824
Si Si6 0.935637 0.669474 0.060120
Si Si7 0.969671 0.323584 0.857674
O O1 0.315013 0.500000 0.448775
O O2 0.250000 0.750000 0.500000
O O3 0.420358 0.739189 0.413068
O O4 0.243738 0.711152 0.403224
O O5 0.990932 0.500000 0.375420
O O6 0.114553 0.730348 0.354488
O O7 0.987453 0.711666 0.304675
O O8 0.689220 0.248254 0.705829
O O9 0.518352 0.235136 0.793745
O O10 0.599070 0.000000 0.731384
O O11 0.734721 0.000000 0.334314
O O12 0.681948 0.184988 0.923158
O O13 0.861164 0.251463 0.889440
O O14 0.802588 0.000000 0.946441
O O15 0.750000 0.250000 0.000000
O O16 0.972542 0.500000 0.053542
O O17 0.961082 0.736369 0.110524
O O18 0.000000 0.749610 0.000000
O O19 0.957653 0.500000 0.858719
#
# Coordination Sequence:
#
# PCOD8097148 Si02
#       7
#     8   8   8   8   8   8   8
#     4  10  20  34  52  78 108 141 176 214 254 300
#     4   9  18  35  55  76 104 140 174 212 260 304
#     4   9  19  34  54  77 102 132 170 215 258 299
#     4   9  19  35  55  75 103 140 174 209 256 307
#     4  11  21  34  53  75  98 130 167 205 251 305
#     4   9  17  32  52  70  96 134 163 192 247 311
#     4  10  20  36  54  75 103 134 168 208 255 309
#
# _framework density 18.157316000000002
#
# number of rings (size 3 to 8) (size 9 to 14) (size 15 to 20)
#    0.000    2.429    1.429    0.857    0.000    3.429 
#    0.000    5.000    0.000    0.000    0.000    0.000 
#    0.000    0.000    0.000    0.000    0.000    0.000 
#
# Total GULP energy -347181.296098 kJ/mol
# GULP energy per Si atom -12399.332003 kJ/mol
# Density = 1.811599 g / cm^3
# Si number density = 18.157316 Si / 1000 Ang^3
#
#
#
# Elastic Constant Matrix: (Units=GPa)
#
#
# Indices 1 2 3 4 5 6 
#
# 1 132.7068 37.5761 73.3199 0.0000 -15.8358 0.0000
# 2 37.5761 49.5681 52.7229 0.0000 -9.0988 0.0000
# 3 73.3199 52.7229 175.8886 0.0000 -18.1709 0.0000
# 4 0.0000 0.0000 0.0000 27.8681 0.0000 -9.0622
# 5 -15.8358 -9.0988 -18.1709 0.0000 23.9875 0.0000
# 6 0.0000 0.0000 0.0000 -9.0622 0.0000 27.8339
#
#
#
# Elastic Compliance Matrix: (Units=1/GPa)
#
#
# Indices 1 2 3 4 5 6 
#
# 1 0.010759 -0.004618 -0.002764 0.000000 0.003257 0.000000
# 2 -0.004618 0.032138 -0.007338 0.000000 0.003583 0.000000
# 3 -0.002764 -0.007338 0.009288 0.000000 0.002428 0.000000
# 4 0.000000 0.000000 0.000000 0.040132 0.000000 0.013066
# 5 0.003257 0.003583 0.002428 0.000000 0.047037 0.000000
# 6 0.000000 0.000000 0.000000 0.013066 0.000000 0.040182
#
#
# Mechanical properties :
#
#
# Convention : Reuss Voigt Hill
#
# Bulk Modulus (GPa) = 43.96729 76.15571 60.06150
# Shear Modulus (GPa) = 23.08855 28.90754 25.99805
#
# Velocity S-wave (km/s) = 3.56980 3.99439 3.78805
# Velocity P-wave (km/s) = 6.42328 7.95656 7.23067
#
# Compressibility (1/GPa) = 0.02274418
#
# Stress axis : x y z
#
# Youngs Moduli (GPa) = 92.94678 31.11576 107.66473
#
# Poissons Ratio (x) = 0.14369 0.29760
# Poissons Ratio (y) = 0.42923 0.79007
# Poissons Ratio (z) = 0.25692 0.22833
#
# Static dielectric constant tensor:
#      x y z
#    x 3.572450 0.000000 0.025440 
#    y 0.000000 3.236810 0.000000 
#    z 0.025440 0.000000 3.482970 
# 
# 
# High freq. dielectric constant tensor:
#      x y z
#    x 1.710100 0.000000 -0.000770 
#    y 0.000000 1.688080 0.000000 
#    z -0.000770 0.000000 1.707210 
# 
# From -- ./inp_files/359666.got.cif
#   From: 2010.06.25/outbox.cif.g09.slc.cpg/sg12_180_cif.got.tgz:359666.got - 2010.06.28 00:19:55.
