data_PCOD8097508
_publ_section_title
;
Structure prediction by ZEFSAII (Michael W. Deem and Ramdas Pophale) SiO2 
 PCOD8097508
Probable space group: C 2/M
;
_chemical_formula_sum "Si O2"
_cell_formula_units_Z 64
_cell_length_a 33.008504
_cell_length_b 8.983947
_cell_length_c 15.468048
_cell_angle_alpha 90.000000
_cell_angle_beta 134.342783
_cell_angle_gamma 90.000000
_cell_volume 3280.487934
_symmetry_space_group_name_H-M "C 2/M"
_symmetry_group_IT_number 12
_symmetry_cell_setting 'monoclinic'
loop_
_space_group_symop_operation_xyz
x,y,z
-x,y,-z
-x,-y,-z
x,-y,z
1/2+x,1/2+y,z
1/2-x,1/2+y,-z
1/2-x,1/2-y,-z
1/2+x,1/2-y,z
loop_
_atom_site_type_symbol
_atom_site_label
_atom_site_fract_x
_atom_site_fract_y
_atom_site_fract_z
Si Si1 0.425800 0.674691 0.332110
Si Si2 0.891683 0.821366 0.631187
Si Si3 0.958940 0.823588 0.566290
Si Si4 0.937087 0.324755 0.873297
Si Si5 0.770438 0.678258 0.443151
Si Si6 0.674507 0.171796 0.191022
Si Si7 0.319260 0.839513 0.154619
Si Si8 0.267614 0.160855 0.891463
O O1 0.430920 0.500000 0.340808
O O2 0.476943 0.736560 0.349263
O O3 0.426301 0.733931 0.431866
O O4 0.368318 0.725765 0.203114
O O5 0.932470 0.763501 0.615361
O O6 0.919475 0.764053 0.761340
O O7 0.832095 0.746567 0.518072
O O8 0.884965 0.000000 0.625983
O O9 0.956886 0.000000 0.566767
O O10 0.937182 0.500000 0.852883
O O11 0.889110 0.284040 0.873783
O O12 0.000000 0.275365 0.000000
O O13 0.774012 0.500000 0.454475
O O14 0.750000 0.750000 0.500000
O O15 0.723919 0.725216 0.303379
O O16 0.680651 0.199660 0.096628
O O17 0.685471 0.000000 0.233438
O O18 0.282164 0.783073 0.181458
O O19 0.343406 0.000000 0.218560
O O20 0.285189 0.854493 0.016217
O O21 0.242490 0.000000 0.824605
#
# Coordination Sequence:
#
# PCOD8097508 Si02
#       8
#     8   8   8   8   8   8   8   8
#     4   9  17  35  58  78 106 149 191 227 273 335
#     4  11  22  38  60  88 118 152 194 241 289 344
#     4   8  18  35  56  81 109 145 191 229 270 335
#     4  10  22  40  61  85 115 152 194 239 289 346
#     4  12  24  39  60  88 120 154 189 240 294 344
#     4  10  21  39  61  84 113 153 199 239 285 348
#     4  10  20  34  53  82 114 143 184 238 285 329
#     4   9  20  37  55  76 108 152 192 227 277 340
#
# _framework density 19.509293
#
# number of rings (size 3 to 8) (size 9 to 14) (size 15 to 20)
#    0.000    2.125    1.250    2.625    1.750    2.250 
#    0.000    4.375    0.000    0.000    0.000    0.000 
#    0.000    0.000    0.000    0.000    0.000    0.000 
#
# Total GULP energy -396449.479474 kJ/mol
# GULP energy per Si atom -12389.046234 kJ/mol
# Density = 1.946489 g / cm^3
# Si number density = 19.509293 Si / 1000 Ang^3
#
#
#
# Elastic Constant Matrix: (Units=GPa)
#
#
# Indices 1 2 3 4 5 6 
#
# 1 182.2933 56.8053 53.2509 0.0000 1.8563 0.0000
# 2 56.8053 64.6615 36.1095 0.0000 1.1457 0.0000
# 3 53.2509 36.1095 64.1766 0.0000 20.0197 0.0000
# 4 0.0000 0.0000 0.0000 28.2739 0.0000 1.6647
# 5 1.8563 1.1457 20.0197 0.0000 32.1793 0.0000
# 6 0.0000 0.0000 0.0000 1.6647 0.0000 18.4374
#
#
#
# Elastic Compliance Matrix: (Units=1/GPa)
#
#
# Indices 1 2 3 4 5 6 
#
# 1 0.008424 -0.004397 -0.005476 0.000000 0.003077 0.000000
# 2 -0.004397 0.027050 -0.014083 0.000000 0.008052 0.000000
# 3 -0.005476 -0.014083 0.034488 0.000000 -0.020638 0.000000
# 4 0.000000 0.000000 0.000000 0.035557 0.000000 -0.003210
# 5 0.003077 0.008052 -0.020638 0.000000 0.043451 0.000000
# 6 0.000000 0.000000 0.000000 -0.003210 0.000000 0.054528
#
#
# Mechanical properties :
#
#
# Convention : Reuss Voigt Hill
#
# Bulk Modulus (GPa) = 45.35235 67.05143 56.20189
# Shear Modulus (GPa) = 19.32289 26.77582 23.04935
#
# Velocity S-wave (km/s) = 3.15055 3.70870 3.44096
# Velocity P-wave (km/s) = 6.04414 7.26518 6.68261
#
# Compressibility (1/GPa) = 0.02204958
#
# Stress axis : x y z
#
# Youngs Moduli (GPa) = 118.70629 36.96841 28.99587
#
# Poissons Ratio (x) = 0.16256 0.15877
# Poissons Ratio (y) = 0.52199 0.40835
# Poissons Ratio (z) = 0.65001 0.52063
#
# Static dielectric constant tensor:
#      x y z
#    x 4.176910 0.000000 -0.102430 
#    y 0.000000 3.717610 0.000000 
#    z -0.102430 0.000000 3.435630 
# 
# 
# High freq. dielectric constant tensor:
#      x y z
#    x 1.778090 0.000000 0.001310 
#    y 0.000000 1.749090 0.000000 
#    z 0.001310 0.000000 1.743550 
# 
# From -- ./inp_files/249997.got.cif
#   From: 2010.06.25/outbox.cif.g09.slc.cpg/sg12_125_cif.got.tgz:249997.got - 2010.06.28 00:19:55.
