data_PCOD8097451
_publ_section_title
;
Structure prediction by ZEFSAII (Michael W. Deem and Ramdas Pophale) SiO2 
 PCOD8097451
Probable space group: C 2/M
;
_chemical_formula_sum "Si O2"
_cell_formula_units_Z 56
_cell_length_a 18.613653
_cell_length_b 8.739329
_cell_length_c 18.341452
_cell_angle_alpha 90.000000
_cell_angle_beta 75.223576
_cell_angle_gamma 90.000000
_cell_volume 2884.946343
_symmetry_space_group_name_H-M "C 2/M"
_symmetry_group_IT_number 12
_symmetry_cell_setting 'monoclinic'
loop_
_space_group_symop_operation_xyz
x,y,z
-x,y,-z
-x,-y,-z
x,-y,z
1/2+x,1/2+y,z
1/2-x,1/2+y,-z
1/2-x,1/2-y,-z
1/2+x,1/2-y,z
loop_
_atom_site_type_symbol
_atom_site_label
_atom_site_fract_x
_atom_site_fract_y
_atom_site_fract_z
Si Si1 0.749252 0.680232 0.199052
Si Si2 0.299359 0.822701 0.641605
Si Si3 0.639477 0.322805 0.631537
Si Si4 0.900582 0.818746 0.200811
Si Si5 0.085896 0.177499 0.492468
Si Si6 0.524078 0.178195 0.073800
Si Si7 0.691727 0.820664 0.070178
O O1 0.755294 0.500000 0.189890
O O2 0.706893 0.724204 0.283739
O O3 0.832302 0.748014 0.173211
O O4 0.699958 0.745300 0.146660
O O5 0.227688 0.792482 0.609459
O O6 0.371952 0.772155 0.579932
O O7 0.304700 0.000000 0.662366
O O8 0.619821 0.500000 0.634528
O O9 0.602538 0.255016 0.714964
O O10 0.605469 0.250084 0.566754
O O11 0.978265 0.771548 0.145777
O O12 0.890335 0.000000 0.202645
O O13 0.000000 0.200375 0.500000
O O14 0.109848 0.000000 0.481433
O O15 0.610067 0.216832 0.061562
O O16 0.506625 0.000000 0.089293
O O17 0.500000 0.233628 0.000000
O O18 0.705842 0.000000 0.072576
O O19 0.750000 0.750000 0.000000
#
# Coordination Sequence:
#
# PCOD8097451 Si02
#       7
#     8   8   8   8   8   8   8
#     4  11  22  38  60  84 113 149 190 235 286 340
#     4  10  20  36  57  80 108 143 187 235 280 331
#     4   8  17  34  54  78 108 142 180 224 273 328
#     4  10  20  36  59  85 113 146 189 238 284 334
#     4  10  20  34  53  79 112 147 182 224 278 340
#     4  10  22  39  58  83 116 151 186 227 276 332
#     4  11  23  39  60  87 119 152 188 231 279 334
#
# _framework density 19.411106
#
# number of rings (size 3 to 8) (size 9 to 14) (size 15 to 20)
#    0.000    2.000    0.000    4.714    0.000    4.000 
#    0.000    5.000    0.000    0.000    0.000    0.000 
#    0.000    0.000    0.000    0.000    0.000    0.000 
#
# Total GULP energy -347282.010918 kJ/mol
# GULP energy per Si atom -12402.928961 kJ/mol
# Density = 1.936693 g / cm^3
# Si number density = 19.411106 Si / 1000 Ang^3
#
#
#
# Elastic Constant Matrix: (Units=GPa)
#
#
# Indices 1 2 3 4 5 6 
#
# 1 106.4860 51.7872 65.9024 0.0000 4.5332 0.0000
# 2 51.7872 88.2376 40.3546 0.0000 -2.6594 0.0000
# 3 65.9024 40.3546 110.1926 0.0000 -2.4757 0.0000
# 4 0.0000 0.0000 0.0000 32.9760 0.0000 -3.5385
# 5 4.5332 -2.6594 -2.4757 0.0000 38.9272 0.0000
# 6 0.0000 0.0000 0.0000 -3.5385 0.0000 23.7658
#
#
#
# Elastic Compliance Matrix: (Units=1/GPa)
#
#
# Indices 1 2 3 4 5 6 
#
# 1 0.018013 -0.006855 -0.008332 0.000000 -0.003096 0.000000
# 2 -0.006855 0.016236 -0.001806 0.000000 0.001793 0.000000
# 3 -0.008332 -0.001806 0.014760 0.000000 0.001786 0.000000
# 4 0.000000 0.000000 0.000000 0.030817 0.000000 0.004588
# 5 -0.003096 0.001793 0.001786 0.000000 0.026286 0.000000
# 6 0.000000 0.000000 0.000000 0.004588 0.000000 0.042760
#
#
# Mechanical properties :
#
#
# Convention : Reuss Voigt Hill
#
# Bulk Modulus (GPa) = 66.56507 69.00051 67.78279
# Shear Modulus (GPa) = 26.61471 28.92526 27.76999
#
# Velocity S-wave (km/s) = 3.70686 3.86442 3.78646
# Velocity P-wave (km/s) = 7.25864 7.45223 7.35607
#
# Compressibility (1/GPa) = 0.01502289
#
# Stress axis : x y z
#
# Youngs Moduli (GPa) = 55.51556 61.59109 67.75149
#
# Poissons Ratio (x) = 0.42218 0.56452
# Poissons Ratio (y) = 0.38054 0.12237
# Poissons Ratio (z) = 0.46257 0.11125
#
# Static dielectric constant tensor:
#      x y z
#    x 3.541080 0.000000 0.171970 
#    y 0.000000 3.457200 0.000000 
#    z 0.171970 0.000000 3.735120 
# 
# 
# High freq. dielectric constant tensor:
#      x y z
#    x 1.755240 0.000000 0.003030 
#    y 0.000000 1.746800 0.000000 
#    z 0.003030 0.000000 1.768890 
# 
# From -- ./inp_files/275315.got.cif
#   From: 2010.06.25/outbox.cif.g09.slc.cpg/sg12_138_cif.got.tgz:275315.got - 2010.06.28 00:19:55.
