data_PCOD8097577
_publ_section_title
;
Structure prediction by ZEFSAII (Michael W. Deem and Ramdas Pophale) SiO2 
 PCOD8097577
Probable space group: C 2/M
;
_chemical_formula_sum "Si O2"
_cell_formula_units_Z 56
_cell_length_a 18.249369
_cell_length_b 9.214834
_cell_length_c 22.385379
_cell_angle_alpha 90.000000
_cell_angle_beta 126.923298
_cell_angle_gamma 90.000000
_cell_volume 3009.441716
_symmetry_space_group_name_H-M "C 2/M"
_symmetry_group_IT_number 12
_symmetry_cell_setting 'monoclinic'
loop_
_space_group_symop_operation_xyz
x,y,z
-x,y,-z
-x,-y,-z
x,-y,z
1/2+x,1/2+y,z
1/2-x,1/2+y,-z
1/2-x,1/2-y,-z
1/2+x,1/2-y,z
loop_
_atom_site_type_symbol
_atom_site_label
_atom_site_fract_x
_atom_site_fract_y
_atom_site_fract_z
Si Si1 0.294846 0.669743 0.779138
Si Si2 0.774387 0.669438 0.646022
Si Si3 0.870086 0.668521 0.215285
Si Si4 0.904388 0.333936 0.926990
Si Si5 0.236739 0.166709 0.932462
Si Si6 0.936623 0.331343 0.635897
Si Si7 0.418897 0.329208 0.503325
O O1 0.311797 0.500000 0.780931
O O2 0.295100 0.739990 0.714699
O O3 0.198664 0.705235 0.764177
O O4 0.378598 0.736453 0.857662
O O5 0.775497 0.500000 0.663063
O O6 0.850405 0.708599 0.634431
O O7 0.676811 0.718701 0.572460
O O8 0.863601 0.500000 0.194399
O O9 0.846048 0.762060 0.145261
O O10 0.971469 0.714029 0.284500
O O11 0.912673 0.500000 0.909235
O O12 0.830432 0.317199 0.942518
O O13 0.000000 0.276578 0.000000
O O14 0.211767 0.000000 0.932917
O O15 0.250000 0.250000 0.000000
O O16 0.938550 0.500000 0.620237
O O17 0.930129 0.243186 0.572392
O O18 0.500000 0.274891 0.500000
O O19 0.423392 0.500000 0.515493
#
# Coordination Sequence:
#
# PCOD8097577 Si02
#       7
#     8   8   8   8   8   8   8
#     4  10  20  34  54  78 103 134 172 215 259 302
#     4  10  21  36  53  76 107 139 171 210 257 308
#     4   9  19  36  54  74 102 135 174 215 254 303
#     4   9  19  36  56  76 101 137 176 211 253 307
#     4  10  20  34  54  78 104 136 172 212 258 306
#     4  10  21  36  55  78 104 137 174 213 256 302
#     4  10  21  36  55  79 106 137 172 212 258 306
#
# _framework density 18.608103
#
# number of rings (size 3 to 8) (size 9 to 14) (size 15 to 20)
#    0.000    2.286    0.000    2.143    0.000    4.571 
#    0.000    5.714    0.000    0.000    0.000    0.000 
#    0.000    0.000    0.000    0.000    0.000    0.000 
#
# Total GULP energy -347328.482071 kJ/mol
# GULP energy per Si atom -12404.588645 kJ/mol
# Density = 1.856575 g / cm^3
# Si number density = 18.608103 Si / 1000 Ang^3
#
#
#
# Elastic Constant Matrix: (Units=GPa)
#
#
# Indices 1 2 3 4 5 6 
#
# 1 106.3783 48.7127 88.2768 0.0000 13.2679 0.0000
# 2 48.7127 84.2606 81.8345 0.0000 -7.7343 0.0000
# 3 88.2768 81.8345 174.2770 0.0000 1.8232 0.0000
# 4 0.0000 0.0000 0.0000 42.3912 0.0000 -6.5382
# 5 13.2679 -7.7343 1.8232 0.0000 37.6238 0.0000
# 6 0.0000 0.0000 0.0000 -6.5382 0.0000 24.7692
#
#
#
# Elastic Compliance Matrix: (Units=1/GPa)
#
#
# Indices 1 2 3 4 5 6 
#
# 1 0.018085 -0.004156 -0.007137 0.000000 -0.006886 0.000000
# 2 -0.004156 0.023749 -0.009118 0.000000 0.006789 0.000000
# 3 -0.007137 -0.009118 0.013635 0.000000 -0.000018 0.000000
# 4 0.000000 0.000000 0.000000 0.024591 0.000000 0.006491
# 5 -0.006886 0.006789 -0.000018 0.000000 0.030404 0.000000
# 6 0.000000 0.000000 0.000000 0.006491 0.000000 0.042086
#
#
# Mechanical properties :
#
#
# Convention : Reuss Voigt Hill
#
# Bulk Modulus (GPa) = 68.27136 89.17377 78.72257
# Shear Modulus (GPa) = 25.22031 30.69628 27.95829
#
# Velocity S-wave (km/s) = 3.68549 4.06596 3.88039
# Velocity P-wave (km/s) = 7.40804 8.37071 7.90404
#
# Compressibility (1/GPa) = 0.01464743
#
# Stress axis : x y z
#
# Youngs Moduli (GPa) = 55.29458 42.10749 73.34189
#
# Poissons Ratio (x) = 0.17498 0.52346
# Poissons Ratio (y) = 0.22978 0.66871
# Poissons Ratio (z) = 0.39465 0.38392
#
# Static dielectric constant tensor:
#      x y z
#    x 3.546360 0.000000 0.202420 
#    y 0.000000 3.433140 0.000000 
#    z 0.202420 0.000000 3.507190 
# 
# 
# High freq. dielectric constant tensor:
#      x y z
#    x 1.724250 0.000000 0.004390 
#    y 0.000000 1.721400 0.000000 
#    z 0.004390 0.000000 1.734190 
# 
# From -- ./inp_files/275090.got.cif
#   From: 2010.06.25/outbox.cif.g09.slc.cpg/sg12_138_cif.got.tgz:275090.got - 2010.06.28 00:19:55.
