data_PCOD8097968
_publ_section_title
;
Structure prediction by ZEFSAII (Michael W. Deem and Ramdas Pophale) SiO2 
 PCOD8097968
Probable space group: C 2/M
;
_chemical_formula_sum "Si O2"
_cell_formula_units_Z 56
_cell_length_a 31.531850
_cell_length_b 8.903661
_cell_length_c 17.994839
_cell_angle_alpha 90.000000
_cell_angle_beta 36.282170
_cell_angle_gamma 90.000000
_cell_volume 2989.601929
_symmetry_space_group_name_H-M "C 2/M"
_symmetry_group_IT_number 12
_symmetry_cell_setting 'monoclinic'
loop_
_space_group_symop_operation_xyz
x,y,z
-x,y,-z
-x,-y,-z
x,-y,z
1/2+x,1/2+y,z
1/2-x,1/2+y,-z
1/2-x,1/2-y,-z
1/2+x,1/2-y,z
loop_
_atom_site_type_symbol
_atom_site_label
_atom_site_fract_x
_atom_site_fract_y
_atom_site_fract_z
Si Si1 0.918462 0.677785 0.596230
Si Si2 0.706781 0.832657 0.864114
Si Si3 0.587652 0.331231 0.955479
Si Si4 0.420991 0.330653 0.201469
Si Si5 0.661034 0.670547 0.425339
Si Si6 0.815761 0.675410 0.450449
Si Si7 0.283937 0.825954 0.880448
O O1 0.912648 0.500000 0.592759
O O2 0.896134 0.755321 0.550402
O O3 0.863939 0.728177 0.740396
O O4 0.000000 0.726513 0.500000
O O5 0.628207 0.790373 0.947469
O O6 0.760001 0.826647 0.719856
O O7 0.729206 0.709831 0.892225
O O8 0.705207 0.000000 0.901391
O O9 0.611436 0.500000 0.943359
O O10 0.605925 0.302603 0.843843
O O11 0.505038 0.307543 0.088436
O O12 0.400006 0.500000 0.255988
O O13 0.386300 0.206414 0.302825
O O14 0.635762 0.500000 0.476505
O O15 0.667785 0.760413 0.491806
O O16 0.800372 0.500000 0.479323
O O17 0.750000 0.750000 0.500000
O O18 0.286328 0.000000 0.894242
O O19 0.250000 0.750000 0.000000
#
# Coordination Sequence:
#
# PCOD8097968 Si02
#       7
#     8   8   8   8   8   8   8
#     4   9  19  38  62  86 113 149 190 235 289 343
#     4  10  20  34  55  81 108 140 181 224 269 326
#     4   9  18  34  56  79 105 141 180 221 273 326
#     4   9  19  36  55  77 108 142 180 225 271 324
#     4  10  21  37  57  83 113 146 187 232 275 330
#     4  12  24  37  55  80 111 148 187 230 278 327
#     4  10  20  36  58  83 112 144 182 231 282 338
#
# _framework density 18.731590000000001
#
# number of rings (size 3 to 8) (size 9 to 14) (size 15 to 20)
#    0.000    2.143    0.000    4.286    0.000    6.000 
#    2.571    1.429    0.000    0.000    0.000    0.000 
#    0.000    0.000    0.000    0.000    0.000    0.000 
#
# Total GULP energy -347117.415377 kJ/mol
# GULP energy per Si atom -12397.050549 kJ/mol
# Density = 1.868896 g / cm^3
# Si number density = 18.731590 Si / 1000 Ang^3
#
#
#
# Elastic Constant Matrix: (Units=GPa)
#
#
# Indices 1 2 3 4 5 6 
#
# 1 120.1683 56.3060 67.3895 0.0056 -6.5611 0.0004
# 2 56.3060 95.0572 50.8392 -0.0015 4.2187 0.0005
# 3 67.3895 50.8392 100.5652 0.0042 11.2988 -0.0055
# 4 0.0056 -0.0015 0.0042 30.3076 -0.0055 1.5331
# 5 -6.5611 4.2187 11.2988 -0.0055 26.5728 0.0034
# 6 0.0004 0.0005 -0.0055 1.5331 0.0034 35.3797
#
#
#
# Elastic Compliance Matrix: (Units=1/GPa)
#
#
# Indices 1 2 3 4 5 6 
#
# 1 0.016528 -0.005107 -0.009497 0.000000 0.008930 -0.000002
# 2 -0.005107 0.016015 -0.004459 0.000002 -0.001907 -0.000001
# 3 -0.009497 -0.004459 0.019687 -0.000003 -0.010008 0.000004
# 4 0.000000 0.000002 -0.000003 0.033068 0.000008 -0.001433
# 5 0.008930 -0.001907 -0.010008 0.000008 0.044396 -0.000006
# 6 -0.000002 -0.000001 0.000004 -0.001433 -0.000006 0.028327
#
#
# Mechanical properties :
#
#
# Convention : Reuss Voigt Hill
#
# Bulk Modulus (GPa) = 70.91053 73.87335 72.39194
# Shear Modulus (GPa) = 24.89448 27.86908 26.38178
#
# Velocity S-wave (km/s) = 3.64951 3.86140 3.75695
# Velocity P-wave (km/s) = 7.46304 7.70740 7.58620
#
# Compressibility (1/GPa) = 0.01410228
#
# Stress axis : x y z
#
# Youngs Moduli (GPa) = 60.50261 62.44209 50.79601
#
# Poissons Ratio (x) = 0.31891 0.48241
# Poissons Ratio (y) = 0.30901 0.22651
# Poissons Ratio (z) = 0.57460 0.27845
#
# Static dielectric constant tensor:
#      x y z
#    x 3.388200 -0.000030 0.058370 
#    y -0.000030 4.025480 -0.000300 
#    z 0.058370 -0.000300 3.592800 
# 
# 
# High freq. dielectric constant tensor:
#      x y z
#    x 1.725150 0.000000 -0.001850 
#    y 0.000000 1.731080 0.000000 
#    z -0.001850 0.000000 1.726500 
# 
# From -- ./inp_files/295101.got.cif
#   From: 2010.06.25/outbox.cif.g09.slc.cpg/sg12_148_cif.got.tgz:295101.got - 2010.06.28 00:19:55.
