data_PCOD8097547
_publ_section_title
;
Structure prediction by ZEFSAII (Michael W. Deem and Ramdas Pophale) SiO2 
 PCOD8097547
Probable space group: C 2/M
;
_chemical_formula_sum "Si O2"
_cell_formula_units_Z 56
_cell_length_a 14.994677
_cell_length_b 9.557388
_cell_length_c 28.720949
_cell_angle_alpha 90.000000
_cell_angle_beta 130.429936
_cell_angle_gamma 90.000000
_cell_volume 3133.095653
_symmetry_space_group_name_H-M "C 2/M"
_symmetry_group_IT_number 12
_symmetry_cell_setting 'monoclinic'
loop_
_space_group_symop_operation_xyz
x,y,z
-x,y,-z
-x,-y,-z
x,-y,z
1/2+x,1/2+y,z
1/2-x,1/2+y,-z
1/2-x,1/2-y,-z
1/2+x,1/2-y,z
loop_
_atom_site_type_symbol
_atom_site_label
_atom_site_fract_x
_atom_site_fract_y
_atom_site_fract_z
Si Si1 0.174971 0.663282 0.867032
Si Si2 0.609330 0.662038 0.568757
Si Si3 0.494295 0.663225 0.867408
Si Si4 0.068863 0.335874 0.646090
Si Si5 0.199802 0.339101 0.441213
Si Si6 0.267590 0.833979 0.215034
Si Si7 0.665323 0.656868 0.000161
O O1 0.138666 0.500000 0.855024
O O2 0.185340 0.723377 0.818366
O O3 0.304798 0.683663 0.935172
O O4 0.075002 0.749791 0.859567
O O5 0.500000 0.707957 0.500000
O O6 0.597567 0.500000 0.579090
O O7 0.612019 0.755103 0.615411
O O8 0.729425 0.692408 0.581979
O O9 0.500959 0.500000 0.855503
O O10 0.362827 0.722480 0.818796
O O11 0.534285 0.683812 0.935659
O O12 0.086777 0.500000 0.643078
O O13 0.146063 0.281753 0.715327
O O14 0.934927 0.300003 0.613120
O O15 0.214974 0.500000 0.460912
O O16 0.250000 0.250000 0.500000
O O17 0.263223 0.000000 0.210552
O O18 0.701534 0.500000 0.000058
O O19 0.750000 0.750000 0.000000
#
# Coordination Sequence:
#
# PCOD8097547 Si02
#       7
#     8   8   8   8   8   8   8
#     4   9  17  31  51  73  99 131 169 210 250 295
#     4  10  20  35  55  79 105 129 157 201 252 294
#     4   9  17  31  50  71 100 133 166 208 254 295
#     4  10  21  36  53  75 102 133 170 204 241 296
#     4  10  20  34  54  77 101 128 158 197 245 293
#     4   9  19  34  50  71 101 135 169 206 245 293
#     4   8  14  25  45  72  96 124 164 208 251 292
#
# _framework density 17.873697
#
# number of rings (size 3 to 8) (size 9 to 14) (size 15 to 20)
#    0.000    2.714    1.429    0.000    0.000    2.571 
#    0.000    6.429    0.000    0.000    0.000   10.000 
#    0.000    0.000    0.000    0.000    0.000    0.000 
#
# Total GULP energy -346971.683936 kJ/mol
# GULP energy per Si atom -12391.845855 kJ/mol
# Density = 1.783302 g / cm^3
# Si number density = 17.873697 Si / 1000 Ang^3
#
#
#
# Elastic Constant Matrix: (Units=GPa)
#
#
# Indices 1 2 3 4 5 6 
#
# 1 128.4612 43.2647 87.8617 0.0000 0.7200 0.0000
# 2 43.2647 45.0067 49.4676 0.0000 -3.3766 0.0000
# 3 87.8617 49.4676 177.4853 0.0000 -1.6054 0.0000
# 4 0.0000 0.0000 0.0000 19.8198 0.0000 -3.4783
# 5 0.7200 -3.3766 -1.6054 0.0000 32.0431 0.0000
# 6 0.0000 0.0000 0.0000 -3.4783 0.0000 25.5906
#
#
#
# Elastic Compliance Matrix: (Units=1/GPa)
#
#
# Indices 1 2 3 4 5 6 
#
# 1 0.013636 -0.008333 -0.004440 0.000000 -0.001407 0.000000
# 2 -0.008333 0.037401 -0.006264 0.000000 0.003815 0.000000
# 3 -0.004440 -0.006264 0.009578 0.000000 -0.000080 0.000000
# 4 0.000000 0.000000 0.000000 0.051687 0.000000 0.007025
# 5 -0.001407 0.003815 -0.000080 0.000000 0.031637 0.000000
# 6 0.000000 0.000000 0.000000 0.007025 0.000000 0.040032
#
#
# Mechanical properties :
#
#
# Convention : Reuss Voigt Hill
#
# Bulk Modulus (GPa) = 44.36833 79.12680 61.74756
# Shear Modulus (GPa) = 21.78075 26.84799 24.31437
#
# Velocity S-wave (km/s) = 3.49462 3.87989 3.69228
# Velocity P-wave (km/s) = 6.41563 8.02730 7.26628
#
# Compressibility (1/GPa) = 0.02253860
#
# Stress axis : x y z
#
# Youngs Moduli (GPa) = 73.33566 26.73720 104.40888
#
# Poissons Ratio (x) = 0.22280 0.46362
# Poissons Ratio (y) = 0.61111 0.65407
# Poissons Ratio (z) = 0.32564 0.16749
#
# Static dielectric constant tensor:
#      x y z
#    x 3.064610 0.000000 0.053340 
#    y 0.000000 3.157410 0.000000 
#    z 0.053340 0.000000 3.762280 
# 
# 
# High freq. dielectric constant tensor:
#      x y z
#    x 1.683020 0.000000 0.003120 
#    y 0.000000 1.673650 0.000000 
#    z 0.003120 0.000000 1.701960 
# 
# From -- ./inp_files/374955.got.cif
#   From: 2010.06.25/outbox.cif.g09.slc.cpg/sg12_188_cif.got.tgz:374955.got - 2010.06.28 00:19:55.
