data_PCOD8097265
_publ_section_title
;
Structure prediction by ZEFSAII (Michael W. Deem and Ramdas Pophale) SiO2 
 PCOD8097265
Probable space group: C 2/M
;
_chemical_formula_sum "Si O2"
_cell_formula_units_Z 56
_cell_length_a 18.433645
_cell_length_b 9.170622
_cell_length_c 19.866703
_cell_angle_alpha 90.000000
_cell_angle_beta 117.995353
_cell_angle_gamma 90.000000
_cell_volume 2965.442213
_symmetry_space_group_name_H-M "C 2/M"
_symmetry_group_IT_number 12
_symmetry_cell_setting 'monoclinic'
loop_
_space_group_symop_operation_xyz
x,y,z
-x,y,-z
-x,-y,-z
x,-y,z
1/2+x,1/2+y,z
1/2-x,1/2+y,-z
1/2-x,1/2-y,-z
1/2+x,1/2-y,z
loop_
_atom_site_type_symbol
_atom_site_label
_atom_site_fract_x
_atom_site_fract_y
_atom_site_fract_z
Si Si1 0.929218 0.170024 0.021395
Si Si2 0.215421 0.830299 0.724417
Si Si3 0.126690 0.832929 0.446044
Si Si4 0.235810 0.830691 0.125581
Si Si5 0.036490 0.168784 0.698766
Si Si6 0.086177 0.670378 0.849152
Si Si7 0.272476 0.832143 0.406540
O O1 0.945325 0.259443 0.095872
O O2 0.931840 0.000000 0.040557
O O3 0.841384 0.215171 0.952975
O O4 0.000000 0.212605 0.000000
O O5 0.267544 0.763929 0.808301
O O6 0.119153 0.800833 0.693498
O O7 0.243667 0.751887 0.669252
O O8 0.236058 0.000000 0.727997
O O9 0.190457 0.810852 0.413631
O O10 0.149941 0.734718 0.520058
O O11 0.037925 0.781958 0.381406
O O12 0.125301 0.000000 0.469977
O O13 0.317479 0.794411 0.118758
O O14 0.232429 0.000000 0.144724
O O15 0.033749 0.262572 0.765429
O O16 0.028195 0.000000 0.715846
O O17 0.068485 0.500000 0.843799
O O18 0.291678 0.000000 0.399638
#
# Coordination Sequence:
#
# PCOD8097265 Si02
#       7
#     8   8   8   8   8   8   8
#     4  10  21  36  54  76 103 136 172 208 248 300
#     4  10  20  34  54  78 103 133 170 211 252 299
#     4   9  19  36  55  74  99 135 176 211 247 298
#     4   9  19  36  55  75 101 134 171 209 252 301
#     4   9  19  36  56  76 100 134 174 211 248 297
#     4  10  20  34  54  78 104 133 166 210 258 301
#     4  10  20  34  53  76 104 136 168 208 256 303
#
# _framework density 18.8842
#
# number of rings (size 3 to 8) (size 9 to 14) (size 15 to 20)
#    0.000    2.429    0.000    1.714    0.000    4.857 
#    0.000    8.571    0.000    0.000    0.000    0.000 
#    0.000    0.000    0.000    0.000    0.000    0.000 
#
# Total GULP energy -347336.233833 kJ/mol
# GULP energy per Si atom -12404.865494 kJ/mol
# Density = 1.884122 g / cm^3
# Si number density = 18.884200 Si / 1000 Ang^3
#
#
#
# Elastic Constant Matrix: (Units=GPa)
#
#
# Indices 1 2 3 4 5 6 
#
# 1 25.8711 12.2911 3.1025 0.0000 -4.3164 0.0000
# 2 12.2911 78.8316 32.9046 0.0000 -17.8340 0.0000
# 3 3.1025 32.9046 48.6100 0.0000 -18.7746 0.0000
# 4 0.0000 0.0000 0.0000 40.2377 0.0000 -3.6640
# 5 -4.3164 -17.8340 -18.7746 0.0000 31.9623 0.0000
# 6 0.0000 0.0000 0.0000 -3.6640 0.0000 25.5544
#
#
#
# Elastic Compliance Matrix: (Units=1/GPa)
#
#
# Indices 1 2 3 4 5 6 
#
# 1 0.042304 -0.007276 0.003704 0.000000 0.003829 0.000000
# 2 -0.007276 0.019271 -0.011391 0.000000 0.003079 0.000000
# 3 0.003704 -0.011391 0.033351 0.000000 0.013734 0.000000
# 4 0.000000 0.000000 0.000000 0.025181 0.000000 0.003610
# 5 0.003829 0.003079 0.013734 0.000000 0.041589 0.000000
# 6 0.000000 0.000000 0.000000 0.003610 0.000000 0.039650
#
#
# Mechanical properties :
#
#
# Convention : Reuss Voigt Hill
#
# Bulk Modulus (GPa) = 15.38454 27.76768 21.57611
# Shear Modulus (GPa) = 19.76756 26.55184 23.15970
#
# Velocity S-wave (km/s) = 3.23890 3.75378 3.50581
# Velocity P-wave (km/s) = 4.70657 5.78999 5.27616
#
# Compressibility (1/GPa) = 0.06500031
#
# Stress axis : x y z
#
# Youngs Moduli (GPa) = 23.63815 51.89168 29.98416
#
# Poissons Ratio (x) = 0.37755 -0.11106
# Poissons Ratio (y) = 0.17198 0.34155
# Poissons Ratio (z) = -0.08755 0.59111
#
# Static dielectric constant tensor:
#      x y z
#    x 3.381490 0.000000 0.068110 
#    y 0.000000 3.480250 0.000000 
#    z 0.068110 0.000000 3.434800 
# 
# 
# High freq. dielectric constant tensor:
#      x y z
#    x 1.725290 0.000000 0.000080 
#    y 0.000000 1.736190 0.000000 
#    z 0.000080 0.000000 1.739940 
# 
# From -- ./inp_files/275325.got.cif
#   From: 2010.06.25/outbox.cif.g09.slc.cpg/sg12_138_cif.got.tgz:275325.got - 2010.06.28 00:19:55.
