data_PCOD8097888
_publ_section_title
;
Structure prediction by ZEFSAII (Michael W. Deem and Ramdas Pophale) SiO2 
 PCOD8097888
Probable space group: C 2/M
;
_chemical_formula_sum "Si O2"
_cell_formula_units_Z 48
_cell_length_a 24.663851
_cell_length_b 23.811825
_cell_length_c 11.365505
_cell_angle_alpha 90.000000
_cell_angle_beta 158.365340
_cell_angle_gamma 90.000000
_cell_volume 2460.934511
_symmetry_space_group_name_H-M "C 2/M"
_symmetry_group_IT_number 12
_symmetry_cell_setting 'monoclinic'
loop_
_space_group_symop_operation_xyz
x,y,z
-x,y,-z
-x,-y,-z
x,-y,z
1/2+x,1/2+y,z
1/2-x,1/2+y,-z
1/2-x,1/2-y,-z
1/2+x,1/2-y,z
loop_
_atom_site_type_symbol
_atom_site_label
_atom_site_fract_x
_atom_site_fract_y
_atom_site_fract_z
Si Si1 0.560932 0.934983 0.993593
Si Si2 0.316921 0.350165 0.450584
Si Si3 0.336980 0.861322 0.429006
Si Si4 0.339083 0.699455 0.732698
Si Si5 0.568961 0.232458 0.877744
Si Si6 0.447519 0.345459 0.266176
O O1 0.433851 0.916733 0.645295
O O2 0.596395 0.000000 0.048008
O O3 0.500000 0.921097 0.000000
O O4 0.708376 0.901138 0.262701
O O5 0.400971 0.334496 0.743088
O O6 0.437311 0.369049 0.598092
O O7 0.225435 0.298521 0.208691
O O8 0.263873 0.842784 0.403808
O O9 0.439183 0.810564 0.590391
O O10 0.211439 0.874035 0.079255
O O11 0.250000 0.750000 0.500000
O O12 0.460616 0.728917 0.064621
O O13 0.573909 0.277673 0.781897
O O14 0.500000 0.364391 0.500000
#
# Coordination Sequence:
#
# PCOD8097888 Si02
#       6
#     8   8   8   8   8   8
#     4  10  20  39  64  88 111 136 177 240 301 348
#     4  10  20  34  55  83 117 151 185 227 280 336
#     4  10  20  34  54  85 116 149 187 229 279 332
#     4   9  16  27  47  78 115 143 174 216 269 335
#     4   9  19  31  53  82 115 157 192 222 269 324
#     4  11  23  37  52  79 119 159 194 227 269 324
#
# _framework density 19.504785999999999
#
# number of rings (size 3 to 8) (size 9 to 14) (size 15 to 20)
#    0.000    2.167    1.667    3.000    0.000    9.333 
#    0.000    3.333    0.000    5.000    0.000    0.000 
#    0.000    0.000    0.000    0.000    0.000    0.000 
#
# Total GULP energy -297399.224381 kJ/mol
# GULP energy per Si atom -12391.634349 kJ/mol
# Density = 1.946039 g / cm^3
# Si number density = 19.504786 Si / 1000 Ang^3
#
#
#
# Elastic Constant Matrix: (Units=GPa)
#
#
# Indices 1 2 3 4 5 6 
#
# 1 63.3937 11.1783 40.6694 0.0000 -14.7986 0.0000
# 2 11.1783 69.7636 24.5571 0.0000 -4.0790 0.0000
# 3 40.6694 24.5571 126.5683 0.0000 -13.6038 0.0000
# 4 0.0000 0.0000 0.0000 14.8549 0.0000 2.5436
# 5 -14.7986 -4.0790 -13.6038 0.0000 31.7149 0.0000
# 6 0.0000 0.0000 0.0000 2.5436 0.0000 17.0995
#
#
#
# Elastic Compliance Matrix: (Units=1/GPa)
#
#
# Indices 1 2 3 4 5 6 
#
# 1 0.021454 -0.000922 -0.005925 0.000000 0.007351 0.000000
# 2 -0.000922 0.015441 -0.002655 0.000000 0.000417 0.000000
# 3 -0.005925 -0.002655 0.010468 0.000000 0.001384 0.000000
# 4 0.000000 0.000000 0.000000 0.069077 0.000000 -0.010276
# 5 0.007351 0.000417 0.001384 0.000000 0.035608 0.000000
# 6 0.000000 0.000000 0.000000 -0.010276 0.000000 0.060010
#
#
# Mechanical properties :
#
#
# Convention : Reuss Voigt Hill
#
# Bulk Modulus (GPa) = 35.26111 45.83724 40.54918
# Shear Modulus (GPa) = 20.78874 24.95525 22.87199
#
# Velocity S-wave (km/s) = 3.26824 3.58081 3.42809
# Velocity P-wave (km/s) = 5.68853 6.37556 6.04182
#
# Compressibility (1/GPa) = 0.02835985
#
# Stress axis : x y z
#
# Youngs Moduli (GPa) = 46.61160 64.76371 95.52495
#
# Poissons Ratio (x) = 0.05973 0.56595
# Poissons Ratio (y) = 0.04299 0.25359
# Poissons Ratio (z) = 0.27616 0.17193
#
# Static dielectric constant tensor:
#      x y z
#    x 3.332140 0.000000 -0.057130 
#    y 0.000000 3.179320 0.000000 
#    z -0.057130 0.000000 3.954600 
# 
# 
# High freq. dielectric constant tensor:
#      x y z
#    x 1.738560 0.000000 0.011740 
#    y 0.000000 1.714330 0.000000 
#    z 0.011740 0.000000 1.785590 
# 
# From -- ./inp_files/185041.got.cif
#   From: 2010.06.25/outbox.cif.g09.slc.cpg/sg12_93_cif.got.tgz:185041.got - 2010.06.28 00:19:55.
