data_PCOD8097109
_publ_section_title
;
Structure prediction by ZEFSAII (Michael W. Deem and Ramdas Pophale) SiO2 
 PCOD8097109
Probable space group: C 2/M
;
_chemical_formula_sum "Si O2"
_cell_formula_units_Z 56
_cell_length_a 15.545779
_cell_length_b 9.165601
_cell_length_c 19.597778
_cell_angle_alpha 90.000000
_cell_angle_beta 88.519522
_cell_angle_gamma 90.000000
_cell_volume 2791.484835
_symmetry_space_group_name_H-M "C 2/M"
_symmetry_group_IT_number 12
_symmetry_cell_setting 'monoclinic'
loop_
_space_group_symop_operation_xyz
x,y,z
-x,y,-z
-x,-y,-z
x,-y,z
1/2+x,1/2+y,z
1/2-x,1/2+y,-z
1/2-x,1/2-y,-z
1/2+x,1/2-y,z
loop_
_atom_site_type_symbol
_atom_site_label
_atom_site_fract_x
_atom_site_fract_y
_atom_site_fract_z
Si Si1 0.599513 0.665179 0.791288
Si Si2 0.833687 0.829604 0.350716
Si Si3 0.151535 0.165349 0.934164
Si Si4 0.017642 0.672148 0.576698
Si Si5 0.355455 0.835296 0.934642
Si Si6 0.401406 0.333874 0.799342
Si Si7 0.856230 0.330471 0.669922
O O1 0.632298 0.500000 0.799159
O O2 0.649172 0.734773 0.725864
O O3 0.621645 0.740746 0.863355
O O4 0.499926 0.674489 0.775122
O O5 0.732803 0.804894 0.369982
O O6 0.893083 0.745742 0.403105
O O7 0.858651 0.000000 0.352924
O O8 0.253457 0.166961 0.934341
O O9 0.115956 0.000000 0.942177
O O10 0.111758 0.260518 0.996227
O O11 0.029431 0.500000 0.582751
O O12 0.936443 0.726156 0.623410
O O13 0.000000 0.720667 0.500000
O O14 0.392165 0.745487 0.871127
O O15 0.390906 0.000000 0.930996
O O16 0.369248 0.500000 0.807455
O O17 0.347813 0.255342 0.741150
O O18 0.867496 0.500000 0.687795
#
# Coordination Sequence:
#
# PCOD8097109 Si02
#       7
#     8   8   8   8   8   8   8
#     4   9  18  33  54  78 105 140 187 240 285 333
#     4  10  20  38  62  87 115 154 201 240 282 343
#     4   9  18  35  55  73 101 144 191 236 285 343
#     4  10  22  40  60  88 126 158 187 234 294 347
#     4  10  20  34  52  76 108 144 186 238 294 346
#     4  11  21  34  55  81 110 145 191 241 289 346
#     4  10  21  38  61  86 117 156 195 239 292 344
#
# _framework density 20.061008000000001
#
# number of rings (size 3 to 8) (size 9 to 14) (size 15 to 20)
#    0.000    2.143    1.429    1.714    0.000    4.857 
#    0.000    5.000    0.000    0.000    0.000    0.000 
#    0.000    0.000    0.000    0.000    0.000    0.000 
#
# Total GULP energy -347192.805284 kJ/mol
# GULP energy per Si atom -12399.743046 kJ/mol
# Density = 2.001535 g / cm^3
# Si number density = 20.061008 Si / 1000 Ang^3
#
#
#
# Elastic Constant Matrix: (Units=GPa)
#
#
# Indices 1 2 3 4 5 6 
#
# 1 63.6594 22.2353 26.1813 0.0000 12.6671 0.0000
# 2 22.2353 69.3937 34.2556 0.0000 5.3804 0.0000
# 3 26.1813 34.2556 118.8934 0.0000 19.2589 0.0000
# 4 0.0000 0.0000 0.0000 31.1973 0.0000 5.4902
# 5 12.6671 5.3804 19.2589 0.0000 32.7600 0.0000
# 6 0.0000 0.0000 0.0000 5.4902 0.0000 22.3528
#
#
#
# Elastic Compliance Matrix: (Units=1/GPa)
#
#
# Indices 1 2 3 4 5 6 
#
# 1 0.019287 -0.004776 -0.001979 0.000000 -0.005510 0.000000
# 2 -0.004776 0.017983 -0.004366 0.000000 0.001460 0.000000
# 3 -0.001979 -0.004366 0.010903 0.000000 -0.004927 0.000000
# 4 0.000000 0.000000 0.000000 0.033502 0.000000 -0.008229
# 5 -0.005510 0.001460 -0.004927 0.000000 0.035313 0.000000
# 6 0.000000 0.000000 0.000000 -0.008229 0.000000 0.046758
#
#
# Mechanical properties :
#
#
# Convention : Reuss Voigt Hill
#
# Bulk Modulus (GPa) = 38.56336 46.36566 42.46451
# Shear Modulus (GPa) = 25.68971 28.54697 27.11834
#
# Velocity S-wave (km/s) = 3.58240 3.77637 3.68066
# Velocity P-wave (km/s) = 6.03127 6.49439 6.26711
#
# Compressibility (1/GPa) = 0.02593135
#
# Stress axis : x y z
#
# Youngs Moduli (GPa) = 51.84858 55.60827 91.72059
#
# Poissons Ratio (x) = 0.26559 0.18147
# Poissons Ratio (y) = 0.24763 0.40045
# Poissons Ratio (z) = 0.10258 0.24279
#
# Static dielectric constant tensor:
#      x y z
#    x 3.573720 0.000000 -0.010040 
#    y 0.000000 3.558250 0.000000 
#    z -0.010040 0.000000 3.721540 
# 
# 
# High freq. dielectric constant tensor:
#      x y z
#    x 1.782050 0.000000 0.002130 
#    y 0.000000 1.761570 0.000000 
#    z 0.002130 0.000000 1.787320 
# 
# From -- ./inp_files/309007.got.cif
#   From: 2010.06.25/outbox.cif.g09.slc.cpg/sg12_155_cif.got.tgz:309007.got - 2010.06.28 00:19:55.
