data_PCOD8097491
_publ_section_title
;
Structure prediction by ZEFSAII (Michael W. Deem and Ramdas Pophale) SiO2 
 PCOD8097491
Probable space group: C 2/M
;
_chemical_formula_sum "Si O2"
_cell_formula_units_Z 64
_cell_length_a 15.239234
_cell_length_b 9.350652
_cell_length_c 24.985093
_cell_angle_alpha 90.000000
_cell_angle_beta 106.821544
_cell_angle_gamma 90.000000
_cell_volume 3407.952788
_symmetry_space_group_name_H-M "C 2/M"
_symmetry_group_IT_number 12
_symmetry_cell_setting 'monoclinic'
loop_
_space_group_symop_operation_xyz
x,y,z
-x,y,-z
-x,-y,-z
x,-y,z
1/2+x,1/2+y,z
1/2-x,1/2+y,-z
1/2-x,1/2-y,-z
1/2+x,1/2-y,z
loop_
_atom_site_type_symbol
_atom_site_label
_atom_site_fract_x
_atom_site_fract_y
_atom_site_fract_z
Si Si1 0.408495 0.168137 0.634452
Si Si2 0.729751 0.838050 0.750278
Si Si3 0.763189 0.669346 0.369831
Si Si4 0.478737 0.166167 0.935348
Si Si5 0.416263 0.669266 0.135439
Si Si6 0.218536 0.666141 0.141952
Si Si7 0.962306 0.670028 0.437329
Si Si8 0.972625 0.338029 0.244451
O O1 0.313986 0.251553 0.609554
O O2 0.475448 0.226420 0.600209
O O3 0.448832 0.205401 0.699985
O O4 0.391612 0.000000 0.625375
O O5 0.747979 0.783458 0.693789
O O6 0.786992 0.743611 0.801933
O O7 0.621958 0.824447 0.740717
O O8 0.763172 0.000000 0.763819
O O9 0.753578 0.500000 0.374335
O O10 0.859407 0.725075 0.410000
O O11 0.548019 0.260330 0.912611
O O12 0.372472 0.207087 0.906850
O O13 0.496764 0.000000 0.925567
O O14 0.500000 0.203466 0.000000
O O15 0.429904 0.500000 0.134958
O O16 0.309102 0.712179 0.124439
O O17 0.476417 0.730598 0.195091
O O18 0.223622 0.500000 0.155754
O O19 0.963305 0.500000 0.437598
O O20 0.000000 0.731706 0.500000
O O21 0.986386 0.500000 0.225614
#
# Coordination Sequence:
#
# PCOD8097491 Si02
#       8
#     8   8   8   8   8   8   8   8
#     4  10  20  34  54  81 108 141 183 224 270 326
#     4   9  17  32  54  78 107 141 179 220 266 323
#     4  10  20  34  53  81 111 141 180 227 274 322
#     4  10  22  40  59  79 108 148 188 221 262 324
#     4  10  21  36  55  82 112 140 176 226 277 319
#     4   9  20  37  55  79 110 142 177 221 271 319
#     4   9  18  36  59  78 105 149 192 226 265 322
#     4   9  17  33  55  77 107 144 181 218 264 329
#
# _framework density 18.779603000000002
#
# number of rings (size 3 to 8) (size 9 to 14) (size 15 to 20)
#    0.000    2.500    1.250    0.375    1.750    3.250 
#    0.000    0.625    0.000    0.750    0.000    0.000 
#    0.000    0.000    0.000    0.000    0.000    0.000 
#
# Total GULP energy -396845.130617 kJ/mol
# GULP energy per Si atom -12401.410332 kJ/mol
# Density = 1.873686 g / cm^3
# Si number density = 18.779603 Si / 1000 Ang^3
#
#
#
# Elastic Constant Matrix: (Units=GPa)
#
#
# Indices 1 2 3 4 5 6 
#
# 1 111.8326 40.4084 69.8405 0.0000 15.3797 0.0000
# 2 40.4084 48.9347 46.1409 0.0000 4.0430 0.0000
# 3 69.8405 46.1409 128.9926 0.0000 13.9177 0.0000
# 4 0.0000 0.0000 0.0000 16.5173 0.0000 0.9632
# 5 15.3797 4.0430 13.9177 0.0000 24.6879 0.0000
# 6 0.0000 0.0000 0.0000 0.9632 0.0000 30.2498
#
#
#
# Elastic Compliance Matrix: (Units=1/GPa)
#
#
# Indices 1 2 3 4 5 6 
#
# 1 0.015695 -0.007628 -0.005163 0.000000 -0.005618 0.000000
# 2 -0.007628 0.034579 -0.008668 0.000000 0.003976 0.000000
# 3 -0.005163 -0.008668 0.014000 0.000000 -0.003256 0.000000
# 4 0.000000 0.000000 0.000000 0.060655 0.000000 -0.001931
# 5 -0.005618 0.003976 -0.003256 0.000000 0.045190 0.000000
# 6 0.000000 0.000000 0.000000 -0.001931 0.000000 0.033120
#
#
# Mechanical properties :
#
#
# Convention : Reuss Voigt Hill
#
# Bulk Modulus (GPa) = 46.82582 66.94882 56.88732
# Shear Modulus (GPa) = 19.74141 23.18235 21.46188
#
# Velocity S-wave (km/s) = 3.24576 3.51728 3.38424
# Velocity P-wave (km/s) = 6.24781 7.22649 6.75490
#
# Compressibility (1/GPa) = 0.02135574
#
# Stress axis : x y z
#
# Youngs Moduli (GPa) = 63.71399 28.91947 71.42978
#
# Poissons Ratio (x) = 0.22059 0.36881
# Poissons Ratio (y) = 0.48600 0.61914
# Poissons Ratio (z) = 0.32897 0.25067
#
# Static dielectric constant tensor:
#      x y z
#    x 3.496530 0.000000 0.046430 
#    y 0.000000 3.229510 0.000000 
#    z 0.046430 0.000000 3.478180 
# 
# 
# High freq. dielectric constant tensor:
#      x y z
#    x 1.736610 0.000000 0.001850 
#    y 0.000000 1.707780 0.000000 
#    z 0.001850 0.000000 1.727100 
# 
# From -- ./inp_files/359933.got.cif
#   From: 2010.06.25/outbox.cif.g09.slc.cpg/sg12_180_cif.got.tgz:359933.got - 2010.06.28 00:19:55.
