data_PCOD8097908
_publ_section_title
;
Structure prediction by ZEFSAII (Michael W. Deem and Ramdas Pophale) SiO2 
 PCOD8097908
Probable space group: C 2/M
;
_chemical_formula_sum "Si O2"
_cell_formula_units_Z 40
_cell_length_a 13.919309
_cell_length_b 13.878158
_cell_length_c 12.171680
_cell_angle_alpha 90.000000
_cell_angle_beta 109.097688
_cell_angle_gamma 90.000000
_cell_volume 2221.848420
_symmetry_space_group_name_H-M "C 2/M"
_symmetry_group_IT_number 12
_symmetry_cell_setting 'monoclinic'
loop_
_space_group_symop_operation_xyz
x,y,z
-x,y,-z
-x,-y,-z
x,-y,z
1/2+x,1/2+y,z
1/2-x,1/2+y,-z
1/2-x,1/2-y,-z
1/2+x,1/2-y,z
loop_
_atom_site_type_symbol
_atom_site_label
_atom_site_fract_x
_atom_site_fract_y
_atom_site_fract_z
Si Si1 0.300505 0.718452 0.859902
Si Si2 0.715424 0.608504 0.936618
Si Si3 0.381423 0.735923 0.664000
Si Si4 0.607370 0.698196 0.711439
Si Si5 0.716965 0.613335 0.550826
O O1 0.306450 0.819294 0.931936
O O2 0.385051 0.714982 0.796300
O O3 0.189289 0.714977 0.758511
O O4 0.316312 0.630123 0.949266
O O5 0.755508 0.500000 0.943066
O O6 0.618616 0.624538 0.819301
O O7 0.496016 0.743716 0.663065
O O8 0.323118 0.648549 0.582170
O O9 0.324787 0.836774 0.619168
O O10 0.632172 0.640682 0.609300
O O11 0.735435 0.500000 0.554849
#
# Coordination Sequence:
#
# PCOD8097908 Si02
#       5
#     8   8   8   8   8
#     4   8  19  34  50  75 107 139 164 217 265 309
#     4   9  17  34  54  74 104 137 172 217 260 304
#     4  10  20  34  55  77 108 138 176 219 265 306
#     4   9  18  33  54  77 103 137 175 213 256 307
#     4  10  21  36  54  79 108 139 176 218 262 312
#
# _framework density 18.003026999999999
#
# number of rings (size 3 to 8) (size 9 to 14) (size 15 to 20)
#    1.200    1.600    0.000    1.200    0.000    4.000 
#    0.000    2.000    0.000   16.800    0.000    0.000 
#    0.000    0.000    0.000    0.000    0.000    0.000 
#
# Total GULP energy -247814.952558 kJ/mol
# GULP energy per Si atom -12390.747628 kJ/mol
# Density = 1.796205 g / cm^3
# Si number density = 18.003027 Si / 1000 Ang^3
#
#
#
# Elastic Constant Matrix: (Units=GPa)
#
#
# Indices 1 2 3 4 5 6 
#
# 1 77.6419 51.5306 7.7974 0.0000 -3.7567 0.0000
# 2 51.5306 97.0423 41.2866 0.0000 -11.5547 0.0000
# 3 7.7974 41.2866 73.2447 0.0000 -22.0046 0.0000
# 4 0.0000 0.0000 0.0000 16.1529 0.0000 0.3125
# 5 -3.7567 -11.5547 -22.0046 0.0000 20.8581 0.0000
# 6 0.0000 0.0000 0.0000 0.3125 0.0000 11.4275
#
#
#
# Elastic Compliance Matrix: (Units=1/GPa)
#
#
# Indices 1 2 3 4 5 6 
#
# 1 0.021540 -0.013797 0.006373 0.000000 0.002960 0.000000
# 2 -0.013797 0.022402 -0.011971 0.000000 -0.002704 0.000000
# 3 0.006373 -0.011971 0.026462 0.000000 0.022432 0.000000
# 4 0.000000 0.000000 0.000000 0.061941 0.000000 -0.001694
# 5 0.002960 -0.002704 0.022432 0.000000 0.070644 0.000000
# 6 0.000000 0.000000 0.000000 -0.001694 0.000000 0.087554
#
#
# Mechanical properties :
#
#
# Convention : Reuss Voigt Hill
#
# Bulk Modulus (GPa) = 31.63183 49.90645 40.76914
# Shear Modulus (GPa) = 14.71145 19.50864 17.11005
#
# Velocity S-wave (km/s) = 2.86171 3.29543 3.08620
# Velocity P-wave (km/s) = 5.34113 6.50085 5.94932
#
# Compressibility (1/GPa) = 0.03161372
#
# Stress axis : x y z
#
# Youngs Moduli (GPa) = 46.42562 44.63801 37.79041
#
# Poissons Ratio (x) = 0.61587 -0.24085
# Poissons Ratio (y) = 0.64053 0.45241
# Poissons Ratio (z) = -0.29588 0.53438
#
# Static dielectric constant tensor:
#      x y z
#    x 2.990230 0.000000 -0.163300 
#    y 0.000000 3.011500 0.000000 
#    z -0.163300 0.000000 3.479830 
# 
# 
# High freq. dielectric constant tensor:
#      x y z
#    x 1.668080 0.000000 -0.017710 
#    y 0.000000 1.666800 0.000000 
#    z -0.017710 0.000000 1.713280 
# 
# From -- ./inp_files/142151.got.cif
#   From: 2010.06.25/outbox.cif.g09.slc.cpg/sg12_72_cif.got.tgz:142151.got - 2010.06.28 00:19:55.
