data_PCOD8097121
_publ_section_title
;
Structure prediction by ZEFSAII (Michael W. Deem and Ramdas Pophale) SiO2 
 PCOD8097121
Probable space group: C 2/M
;
_chemical_formula_sum "Si O2"
_cell_formula_units_Z 56
_cell_length_a 14.423565
_cell_length_b 9.192327
_cell_length_c 28.150043
_cell_angle_alpha 90.000000
_cell_angle_beta 50.464352
_cell_angle_gamma 90.000000
_cell_volume 2878.460780
_symmetry_space_group_name_H-M "C 2/M"
_symmetry_group_IT_number 12
_symmetry_cell_setting 'monoclinic'
loop_
_space_group_symop_operation_xyz
x,y,z
-x,y,-z
-x,-y,-z
x,-y,z
1/2+x,1/2+y,z
1/2-x,1/2+y,-z
1/2-x,1/2-y,-z
1/2+x,1/2-y,z
loop_
_atom_site_type_symbol
_atom_site_label
_atom_site_fract_x
_atom_site_fract_y
_atom_site_fract_z
Si Si1 0.185564 0.662446 0.562447
Si Si2 0.287309 0.829867 0.774257
Si Si3 0.396965 0.660049 0.565753
Si Si4 0.122262 0.669814 0.901452
Si Si5 0.751711 0.165488 0.319791
Si Si6 0.346789 0.831590 0.000260
Si Si7 0.532098 0.328495 0.681874
O O1 0.146547 0.500000 0.558027
O O2 0.250000 0.750000 0.500000
O O3 0.275911 0.647002 0.576076
O O4 0.071318 0.752678 0.619341
O O5 0.193073 0.773268 0.843036
O O6 0.229217 0.800709 0.741678
O O7 0.409127 0.739986 0.740311
O O8 0.313606 0.000000 0.773949
O O9 0.500000 0.737646 0.500000
O O10 0.444390 0.500000 0.565402
O O11 0.366191 0.748684 0.623188
O O12 0.144467 0.500000 0.882698
O O13 0.982099 0.709170 0.940878
O O14 0.168744 0.706523 0.939174
O O15 0.873331 0.206978 0.307326
O O16 0.718340 0.000000 0.340239
O O17 0.323574 0.000000 0.999373
O O18 0.250000 0.750000 0.000000
O O19 0.517842 0.500000 0.677637
#
# Coordination Sequence:
#
# PCOD8097121 Si02
#       7
#     8   8   8   8   8   8   8
#     4  10  20  34  52  77 107 137 176 229 285 344
#     4  11  23  38  58  86 116 149 191 240 285 333
#     4   9  19  34  52  76 102 131 174 226 278 338
#     4   9  20  39  58  84 120 158 194 230 276 340
#     4   9  21  39  55  76 107 143 183 229 283 339
#     4   9  19  37  62  89 121 156 195 235 278 329
#     4  10  21  39  58  77 107 148 188 230 286 348
#
# _framework density 19.454840999999998
#
# number of rings (size 3 to 8) (size 9 to 14) (size 15 to 20)
#    0.000    2.429    0.000    2.143    2.000    4.857 
#    0.000    5.714    0.000    0.000    0.000    0.000 
#    0.000    0.000    0.000    0.000    0.000    0.000 
#
# Total GULP energy -347152.387773 kJ/mol
# GULP energy per Si atom -12398.299563 kJ/mol
# Density = 1.941056 g / cm^3
# Si number density = 19.454841 Si / 1000 Ang^3
#
#
#
# Elastic Constant Matrix: (Units=GPa)
#
#
# Indices 1 2 3 4 5 6 
#
# 1 96.6694 57.9281 52.8078 0.0000 -1.1511 0.0000
# 2 57.9281 119.9013 80.1887 0.0000 -0.5896 0.0000
# 3 52.8078 80.1887 155.6376 0.0000 -1.3045 0.0000
# 4 0.0000 0.0000 0.0000 37.2303 0.0000 1.7170
# 5 -1.1511 -0.5896 -1.3045 0.0000 22.5768 0.0000
# 6 0.0000 0.0000 0.0000 1.7170 0.0000 27.7042
#
#
#
# Elastic Compliance Matrix: (Units=1/GPa)
#
#
# Indices 1 2 3 4 5 6 
#
# 1 0.014988 -0.005860 -0.002062 0.000000 0.000492 0.000000
# 2 -0.005860 0.015016 -0.005750 0.000000 -0.000239 0.000000
# 3 -0.002062 -0.005750 0.010090 0.000000 0.000328 0.000000
# 4 0.000000 0.000000 0.000000 0.026937 0.000000 -0.001669
# 5 0.000492 -0.000239 0.000328 0.000000 0.044331 0.000000
# 6 0.000000 0.000000 0.000000 -0.001669 0.000000 0.036199
#
#
# Mechanical properties :
#
#
# Convention : Reuss Voigt Hill
#
# Bulk Modulus (GPa) = 78.43252 83.78415 81.10834
# Shear Modulus (GPa) = 27.90863 29.58785 28.74824
#
# Velocity S-wave (km/s) = 3.79163 3.90404 3.84824
# Velocity P-wave (km/s) = 7.71825 7.96752 7.84388
#
# Compressibility (1/GPa) = 0.01274981
#
# Stress axis : x y z
#
# Youngs Moduli (GPa) = 66.71856 66.59671 99.10375
#
# Poissons Ratio (x) = 0.39023 0.20439
# Poissons Ratio (y) = 0.39095 0.56988
# Poissons Ratio (z) = 0.13760 0.38295
#
# Static dielectric constant tensor:
#      x y z
#    x 3.586830 0.000000 0.012600 
#    y 0.000000 3.748320 0.000000 
#    z 0.012600 0.000000 3.505350 
# 
# 
# High freq. dielectric constant tensor:
#      x y z
#    x 1.756610 0.000000 -0.001650 
#    y 0.000000 1.760740 0.000000 
#    z -0.001650 0.000000 1.756730 
# 
# From -- ./inp_files/374934.got.cif
#   From: 2010.06.25/outbox.cif.g09.slc.cpg/sg12_188_cif.got.tgz:374934.got - 2010.06.28 00:19:55.
