data_PCOD8097829
_publ_section_title
;
Structure prediction by ZEFSAII (Michael W. Deem and Ramdas Pophale) SiO2 
 PCOD8097829
Probable space group: C 2/M
;
_chemical_formula_sum "Si O2"
_cell_formula_units_Z 56
_cell_length_a 14.382034
_cell_length_b 8.914331
_cell_length_c 29.169599
_cell_angle_alpha 90.000000
_cell_angle_beta 125.967688
_cell_angle_gamma 90.000000
_cell_volume 3026.739262
_symmetry_space_group_name_H-M "C 2/M"
_symmetry_group_IT_number 12
_symmetry_cell_setting 'monoclinic'
loop_
_space_group_symop_operation_xyz
x,y,z
-x,y,-z
-x,-y,-z
x,-y,z
1/2+x,1/2+y,z
1/2-x,1/2+y,-z
1/2-x,1/2-y,-z
1/2+x,1/2-y,z
loop_
_atom_site_type_symbol
_atom_site_label
_atom_site_fract_x
_atom_site_fract_y
_atom_site_fract_z
Si Si1 0.051410 0.329214 0.560472
Si Si2 0.427636 0.825199 0.860582
Si Si3 0.336791 0.675157 0.059834
Si Si4 0.303152 0.321915 0.644589
Si Si5 0.337866 0.172548 0.560013
Si Si6 0.302608 0.324589 0.154818
Si Si7 0.461676 0.174816 0.765219
O O1 0.078236 0.500000 0.554013
O O2 0.172672 0.259583 0.611008
O O3 0.000000 0.247920 0.500000
O O4 0.965268 0.317274 0.577268
O O5 0.535887 0.737660 0.912665
O O6 0.312358 0.769058 0.852666
O O7 0.418081 0.790690 0.803884
O O8 0.448079 0.000000 0.875928
O O9 0.339347 0.500000 0.051171
O O10 0.292605 0.712814 0.098121
O O11 0.250000 0.750000 0.000000
O O12 0.313686 0.500000 0.649623
O O13 0.350275 0.262928 0.610234
O O14 0.373363 0.255181 0.706586
O O15 0.250000 0.250000 0.500000
O O16 0.300459 0.000000 0.556858
O O17 0.323191 0.500000 0.169250
O O18 0.410787 0.237033 0.207042
O O19 0.463070 0.000000 0.754684
#
# Coordination Sequence:
#
# PCOD8097829 Si02
#       7
#     8   8   8   8   8   8   8
#     4   9  18  35  56  77 105 140 174 210 264 326
#     4   9  19  37  59  80 108 145 186 232 277 321
#     4  10  20  34  54  82 117 152 189 228 273 326
#     4  11  22  38  58  79 107 144 181 221 269 327
#     4  11  21  36  57  81 108 138 175 217 266 323
#     4   9  19  37  59  81 108 148 188 226 274 328
#     4  10  21  37  56  81 110 138 176 230 279 324
#
# _framework density 18.501759
#
# number of rings (size 3 to 8) (size 9 to 14) (size 15 to 20)
#    0.000    2.143    1.429    1.714    0.000    3.429 
#    0.000    9.286    0.000    0.000    0.000    0.000 
#    0.000    0.000    0.000    0.000    0.000    0.000 
#
# Total GULP energy -347223.236244 kJ/mol
# GULP energy per Si atom -12400.829866 kJ/mol
# Density = 1.845965 g / cm^3
# Si number density = 18.501759 Si / 1000 Ang^3
#
#
#
# Elastic Constant Matrix: (Units=GPa)
#
#
# Indices 1 2 3 4 5 6 
#
# 1 140.7043 49.6681 72.5426 0.0000 21.1735 0.0000
# 2 49.6681 79.9280 72.7327 0.0000 13.2586 0.0000
# 3 72.5426 72.7327 163.2277 0.0000 21.5371 0.0000
# 4 0.0000 0.0000 0.0000 36.3485 0.0000 -0.1539
# 5 21.1735 13.2586 21.5371 0.0000 23.1510 0.0000
# 6 0.0000 0.0000 0.0000 -0.1539 0.0000 26.4252
#
#
#
# Elastic Compliance Matrix: (Units=1/GPa)
#
#
# Indices 1 2 3 4 5 6 
#
# 1 0.010323 -0.003360 -0.002392 0.000000 -0.005291 0.000000
# 2 -0.003360 0.022434 -0.008223 0.000000 -0.002126 0.000000
# 3 -0.002392 -0.008223 0.011335 0.000000 -0.003647 0.000000
# 4 0.000000 0.000000 0.000000 0.027512 0.000000 0.000160
# 5 -0.005291 -0.002126 -0.003647 0.000000 0.052644 0.000000
# 6 0.000000 0.000000 0.000000 0.000160 0.000000 0.037844
#
#
# Mechanical properties :
#
#
# Convention : Reuss Voigt Hill
#
# Bulk Modulus (GPa) = 61.95123 85.97186 73.96155
# Shear Modulus (GPa) = 25.58551 29.77940 27.68246
#
# Velocity S-wave (km/s) = 3.72273 4.01626 3.87228
# Velocity P-wave (km/s) = 7.21353 8.25075 7.74951
#
# Compressibility (1/GPa) = 0.01614173
#
# Stress axis : x y z
#
# Youngs Moduli (GPa) = 96.87252 44.57452 88.22272
#
# Poissons Ratio (x) = 0.14977 0.21107
# Poissons Ratio (y) = 0.32549 0.72544
# Poissons Ratio (z) = 0.23176 0.36653
#
# Static dielectric constant tensor:
#      x y z
#    x 3.609410 0.000000 0.053950 
#    y 0.000000 3.399410 0.000000 
#    z 0.053950 0.000000 3.431110 
# 
# 
# High freq. dielectric constant tensor:
#      x y z
#    x 1.724340 0.000000 0.005150 
#    y 0.000000 1.713790 0.000000 
#    z 0.005150 0.000000 1.721700 
# 
# From -- ./inp_files/338175.got.cif
#   From: 2010.06.25/outbox.cif.g09.slc.cpg/sg12_170_cif.got.tgz:338175.got - 2010.06.28 00:19:55.
