data_PCOD8097608
_publ_section_title
;
Structure prediction by ZEFSAII (Michael W. Deem and Ramdas Pophale) SiO2 
 PCOD8097608
Probable space group: C 2/M
;
_chemical_formula_sum "Si O2"
_cell_formula_units_Z 64
_cell_length_a 23.943285
_cell_length_b 13.339642
_cell_length_c 13.916222
_cell_angle_alpha 90.000000
_cell_angle_beta 52.463245
_cell_angle_gamma 90.000000
_cell_volume 3524.536354
_symmetry_space_group_name_H-M "C 2/M"
_symmetry_group_IT_number 12
_symmetry_cell_setting 'monoclinic'
loop_
_space_group_symop_operation_xyz
x,y,z
-x,y,-z
-x,-y,-z
x,-y,z
1/2+x,1/2+y,z
1/2-x,1/2+y,-z
1/2-x,1/2-y,-z
1/2+x,1/2-y,z
loop_
_atom_site_type_symbol
_atom_site_label
_atom_site_fract_x
_atom_site_fract_y
_atom_site_fract_z
Si Si1 0.826640 0.308704 0.051370
Si Si2 0.695659 0.880602 0.644596
Si Si3 0.582221 0.772690 0.413209
Si Si4 0.318942 0.882155 0.555612
Si Si5 0.924997 0.386045 0.096970
Si Si6 0.651501 0.887750 0.175372
Si Si7 0.215360 0.110262 0.831996
Si Si8 0.700211 0.381975 0.299288
O O1 0.881629 0.382937 0.043726
O O2 0.840223 0.194841 0.076380
O O3 0.747586 0.343309 0.160827
O O4 0.839482 0.315357 0.925071
O O5 0.700473 0.841201 0.530348
O O6 0.623452 0.836758 0.768294
O O7 0.763498 0.848171 0.637310
O O8 0.691839 0.000000 0.652220
O O9 0.500000 0.747983 0.500000
O O10 0.609460 0.832296 0.479082
O O11 0.594474 0.839311 0.305736
O O12 0.624049 0.667788 0.367239
O O13 0.252411 0.856548 0.693344
O O14 0.333301 0.000000 0.539003
O O15 0.940768 0.500000 0.109690
O O16 0.000000 0.330231 0.000000
O O17 0.726138 0.895110 0.147864
O O18 0.626538 0.000000 0.172384
O O19 0.179286 0.000000 0.859227
O O20 0.690051 0.500000 0.303538
#
# Coordination Sequence:
#
# PCOD8097608 Si02
#       8
#     8   8   8   8   8   8   8   8
#     4  11  18  34  56  79 102 135 174 216 269 317
#     4   8  16  31  54  78 100 131 174 220 267 312
#     4  11  23  36  49  74 111 150 180 214 258 321
#     4   9  17  33  53  75 103 134 169 217 273 316
#     4   9  18  31  47  74 107 133 167 216 268 321
#     4  10  20  34  54  79 104 132 172 219 264 310
#     4   9  18  31  50  78 107 130 163 216 262 309
#     4  10  20  35  54  79 105 137 183 230 263 306
#
# _framework density 18.158415999999999
#
# number of rings (size 3 to 8) (size 9 to 14) (size 15 to 20)
#    0.000    2.375    2.500    3.375    0.000    2.750 
#    0.000    1.250    0.000    0.375    0.000    0.000 
#    0.000    0.000    0.000    0.000    0.000    0.000 
#
# Total GULP energy -396611.783816 kJ/mol
# GULP energy per Si atom -12394.118244 kJ/mol
# Density = 1.811709 g / cm^3
# Si number density = 18.158416 Si / 1000 Ang^3
#
#
#
# Elastic Constant Matrix: (Units=GPa)
#
#
# Indices 1 2 3 4 5 6 
#
# 1 64.8463 23.1147 59.9860 0.0000 4.1836 0.0000
# 2 23.1147 82.9070 33.0954 0.0000 -1.9731 0.0000
# 3 59.9860 33.0954 95.3905 0.0000 13.3293 0.0000
# 4 0.0000 0.0000 0.0000 17.8529 0.0000 1.3843
# 5 4.1836 -1.9731 13.3293 0.0000 36.9896 0.0000
# 6 0.0000 0.0000 0.0000 1.3843 0.0000 14.5913
#
#
#
# Elastic Compliance Matrix: (Units=1/GPa)
#
#
# Indices 1 2 3 4 5 6 
#
# 1 0.037608 -0.000811 -0.023975 0.000000 0.004343 0.000000
# 2 -0.000811 0.014265 -0.004800 0.000000 0.002582 0.000000
# 3 -0.023975 -0.004800 0.028308 0.000000 -0.007745 0.000000
# 4 0.000000 0.000000 0.000000 0.056428 0.000000 -0.005353
# 5 0.004343 0.002582 -0.007745 0.000000 0.029472 0.000000
# 6 0.000000 0.000000 0.000000 -0.005353 0.000000 0.069042
#
#
# Mechanical properties :
#
#
# Convention : Reuss Voigt Hill
#
# Bulk Modulus (GPa) = 47.60036 52.83736 50.21886
# Shear Modulus (GPa) = 16.59477 22.34995 19.47236
#
# Velocity S-wave (km/s) = 3.02634 3.51213 3.27824
# Velocity P-wave (km/s) = 6.20343 6.75336 6.48423
#
# Compressibility (1/GPa) = 0.02100824
#
# Stress axis : x y z
#
# Youngs Moduli (GPa) = 26.58979 70.09936 35.32621
#
# Poissons Ratio (x) = 0.05688 0.84696
# Poissons Ratio (y) = 0.02157 0.16956
# Poissons Ratio (z) = 0.63750 0.33647
#
# Static dielectric constant tensor:
#      x y z
#    x 3.211750 0.000000 0.233800 
#    y 0.000000 3.466470 0.000000 
#    z 0.233800 0.000000 3.395660 
# 
# 
# High freq. dielectric constant tensor:
#      x y z
#    x 1.680400 0.000000 0.022650 
#    y 0.000000 1.701150 0.000000 
#    z 0.022650 0.000000 1.690250 
# 
# From -- ./inp_files/246326.got.cif
#   From: 2010.06.25/outbox.cif.g09.slc.cpg/sg12_124_cif.got.tgz:246326.got - 2010.06.28 00:19:55.
