data_PCOD8097162
_publ_section_title
;
Structure prediction by ZEFSAII (Michael W. Deem and Ramdas Pophale) SiO2 
 PCOD8097162
Probable space group: C 2/M
;
_chemical_formula_sum "Si O2"
_cell_formula_units_Z 56
_cell_length_a 23.462669
_cell_length_b 9.334558
_cell_length_c 13.572794
_cell_angle_alpha 90.000000
_cell_angle_beta 76.045689
_cell_angle_gamma 90.000000
_cell_volume 2884.899898
_symmetry_space_group_name_H-M "C 2/M"
_symmetry_group_IT_number 12
_symmetry_cell_setting 'monoclinic'
loop_
_space_group_symop_operation_xyz
x,y,z
-x,y,-z
-x,-y,-z
x,-y,z
1/2+x,1/2+y,z
1/2-x,1/2+y,-z
1/2-x,1/2-y,-z
1/2+x,1/2-y,z
loop_
_atom_site_type_symbol
_atom_site_label
_atom_site_fract_x
_atom_site_fract_y
_atom_site_fract_z
Si Si1 0.602669 0.665173 0.154273
Si Si2 0.002777 0.666449 0.885519
Si Si3 0.797992 0.163195 0.037884
Si Si4 0.345618 0.167055 0.686445
Si Si5 0.561286 0.830387 0.513345
Si Si6 0.392625 0.833736 0.298611
Si Si7 0.211221 0.166032 0.737737
O O1 0.591786 0.500000 0.187237
O O2 0.541033 0.742972 0.163837
O O3 0.638610 0.678666 0.037998
O O4 0.639617 0.740721 0.224118
O O5 0.984992 0.500000 0.884451
O O6 0.067533 0.693718 0.814602
O O7 0.000000 0.718100 0.000000
O O8 0.775844 0.000000 0.048846
O O9 0.750000 0.250000 0.000000
O O10 0.802000 0.222335 0.146719
O O11 0.386421 0.218971 0.580106
O O12 0.278752 0.196238 0.681859
O O13 0.355338 0.000000 0.708133
O O14 0.500000 0.763234 0.500000
O O15 0.573851 0.774898 0.618442
O O16 0.555921 0.000000 0.516402
O O17 0.330746 0.753129 0.317477
O O18 0.377964 0.000000 0.317681
O O19 0.195299 0.000000 0.733755
#
# Coordination Sequence:
#
# PCOD8097162 Si02
#       7
#     8   8   8   8   8   8   8
#     4  11  22  34  54  84 114 144 182 231 282 326
#     4  10  21  37  57  81 109 146 189 227 272 333
#     4  10  20  34  52  78 112 148 183 220 269 323
#     4  10  20  36  58  80 107 147 189 227 272 331
#     4   9  18  35  59  83 106 138 185 236 280 325
#     4  10  21  37  58  83 110 144 186 232 278 328
#     4  10  21  36  54  80 113 148 183 222 277 336
#
# _framework density 19.411418000000001
#
# number of rings (size 3 to 8) (size 9 to 14) (size 15 to 20)
#    0.000    2.000    1.429    2.143    0.000    5.429 
#    0.000    0.714    0.000    1.714    0.000    0.000 
#    0.000    0.000    0.000    0.000    0.000    0.000 
#
# Total GULP energy -347280.825276 kJ/mol
# GULP energy per Si atom -12402.886617 kJ/mol
# Density = 1.936724 g / cm^3
# Si number density = 19.411418 Si / 1000 Ang^3
#
#
#
# Elastic Constant Matrix: (Units=GPa)
#
#
# Indices 1 2 3 4 5 6 
#
# 1 146.1120 51.3501 53.0891 0.0000 6.6770 0.0000
# 2 51.3501 57.6376 23.0773 0.0000 2.7112 0.0000
# 3 53.0891 23.0773 118.5187 0.0000 -1.5274 0.0000
# 4 0.0000 0.0000 0.0000 17.6574 0.0000 3.2331
# 5 6.6770 2.7112 -1.5274 0.0000 32.6584 0.0000
# 6 0.0000 0.0000 0.0000 3.2331 0.0000 36.8050
#
#
#
# Elastic Compliance Matrix: (Units=1/GPa)
#
#
# Indices 1 2 3 4 5 6 
#
# 1 0.011124 -0.008487 -0.003352 0.000000 -0.001726 0.000000
# 2 -0.008487 0.025390 -0.001148 0.000000 -0.000426 0.000000
# 3 -0.003352 -0.001148 0.010179 0.000000 0.001257 0.000000
# 4 0.000000 0.000000 0.000000 0.057559 0.000000 -0.005056
# 5 -0.001726 -0.000426 0.001257 0.000000 0.031067 0.000000
# 6 0.000000 0.000000 0.000000 -0.005056 0.000000 0.027614
#
#
# Mechanical properties :
#
#
# Convention : Reuss Voigt Hill
#
# Bulk Modulus (GPa) = 48.26526 64.14459 56.20492
# Shear Modulus (GPa) = 25.53443 30.40762 27.97102
#
# Velocity S-wave (km/s) = 3.63083 3.96217 3.80011
# Velocity P-wave (km/s) = 6.51886 7.35175 6.94780
#
# Compressibility (1/GPa) = 0.02071884
#
# Stress axis : x y z
#
# Youngs Moduli (GPa) = 89.89835 39.38503 98.24262
#
# Poissons Ratio (x) = 0.33425 0.32936
# Poissons Ratio (y) = 0.76294 0.11277
# Poissons Ratio (z) = 0.30138 0.04521
#
# Static dielectric constant tensor:
#      x y z
#    x 3.520010 0.000000 -0.039720 
#    y 0.000000 3.364330 0.000000 
#    z -0.039720 0.000000 3.747920 
# 
# 
# High freq. dielectric constant tensor:
#      x y z
#    x 1.761590 0.000000 -0.004740 
#    y 0.000000 1.731860 0.000000 
#    z -0.004740 0.000000 1.760330 
# 
# From -- ./inp_files/237491.got.cif
#   From: 2010.06.25/outbox.cif.g09.slc.cpg/sg12_119_cif.got.tgz:237491.got - 2010.06.28 00:19:55.
