data_PCOD8097046
_publ_section_title
;
Structure prediction by ZEFSAII (Michael W. Deem and Ramdas Pophale) SiO2 
 PCOD8097046
Probable space group: C 2/M
;
_chemical_formula_sum "Si O2"
_cell_formula_units_Z 56
_cell_length_a 18.144730
_cell_length_b 9.067993
_cell_length_c 20.131199
_cell_angle_alpha 90.000000
_cell_angle_beta 116.588130
_cell_angle_gamma 90.000000
_cell_volume 2962.025619
_symmetry_space_group_name_H-M "C 2/M"
_symmetry_group_IT_number 12
_symmetry_cell_setting 'monoclinic'
loop_
_space_group_symop_operation_xyz
x,y,z
-x,y,-z
-x,-y,-z
x,-y,z
1/2+x,1/2+y,z
1/2-x,1/2+y,-z
1/2-x,1/2-y,-z
1/2+x,1/2-y,z
loop_
_atom_site_type_symbol
_atom_site_label
_atom_site_fract_x
_atom_site_fract_y
_atom_site_fract_z
Si Si1 0.443945 0.826816 0.716883
Si Si2 0.776999 0.672901 0.722745
Si Si3 0.458085 0.674646 0.585111
Si Si4 0.733530 0.674962 0.142436
Si Si5 0.589493 0.828384 0.006397
Si Si6 0.399811 0.825240 0.139438
Si Si7 0.120527 0.826179 0.579912
O O1 0.367055 0.788186 0.732563
O O2 0.430062 0.750529 0.641149
O O3 0.525292 0.762602 0.785836
O O4 0.450930 0.000000 0.707299
O O5 0.768303 0.500000 0.735555
O O6 0.759136 0.765148 0.780793
O O7 0.710086 0.724586 0.640990
O O8 0.454437 0.500000 0.593855
O O9 0.395852 0.729716 0.501767
O O10 0.549855 0.729736 0.602166
O O11 0.728754 0.500000 0.142223
O O12 0.652827 0.736960 0.075357
O O13 0.813557 0.730253 0.134365
O O14 0.613919 0.000000 0.019654
O O15 0.500000 0.800651 0.000000
O O16 0.591831 0.766806 0.932316
O O17 0.406161 0.000000 0.141493
O O18 0.112598 0.000000 0.574656
#
# Coordination Sequence:
#
# PCOD8097046 Si02
#       7
#     8   8   8   8   8   8   8
#     4  10  20  34  52  75 103 134 170 213 257 303
#     4  10  20  35  54  74 100 138 179 212 249 307
#     4   9  17  32  53  75 102 135 171 214 260 305
#     4  11  22  35  53  78 107 134 165 213 261 297
#     4  10  20  37  60  80 102 137 174 204 244 304
#     4   9  19  35  53  75 104 136 170 208 252 301
#     4   8  16  32  53  75 100 135 177 214 251 302
#
# _framework density 18.905981000000001
#
# number of rings (size 3 to 8) (size 9 to 14) (size 15 to 20)
#    0.000    2.429    0.000    3.429    0.000    3.714 
#    0.000    4.286    0.000    0.000    0.000    0.000 
#    0.000    0.000    0.000    0.000    0.000    0.000 
#
# Total GULP energy -347209.181640 kJ/mol
# GULP energy per Si atom -12400.327916 kJ/mol
# Density = 1.886295 g / cm^3
# Si number density = 18.905981 Si / 1000 Ang^3
#
#
#
# Elastic Constant Matrix: (Units=GPa)
#
#
# Indices 1 2 3 4 5 6 
#
# 1 99.1248 36.4228 46.6420 0.0000 6.1769 0.0000
# 2 36.4228 36.4964 32.2377 0.0000 0.6129 0.0000
# 3 46.6420 32.2377 120.0082 0.0000 8.3231 0.0000
# 4 0.0000 0.0000 0.0000 29.6024 0.0000 -7.3727
# 5 6.1769 0.6129 8.3231 0.0000 36.1193 0.0000
# 6 0.0000 0.0000 0.0000 -7.3727 0.0000 9.1931
#
#
#
# Elastic Compliance Matrix: (Units=1/GPa)
#
#
# Indices 1 2 3 4 5 6 
#
# 1 0.016678 -0.014435 -0.002463 0.000000 -0.002040 0.000000
# 2 -0.014435 0.048513 -0.007658 0.000000 0.003410 0.000000
# 3 -0.002463 -0.007658 0.011493 0.000000 -0.002097 0.000000
# 4 0.000000 0.000000 0.000000 0.042213 0.000000 0.033854
# 5 -0.002040 0.003410 -0.002097 0.000000 0.028460 0.000000
# 6 0.000000 0.000000 0.000000 0.033854 0.000000 0.135927
#
#
# Mechanical properties :
#
#
# Convention : Reuss Voigt Hill
#
# Bulk Modulus (GPa) = 36.26905 54.02605 45.14755
# Shear Modulus (GPa) = 14.63757 24.33808 19.48783
#
# Velocity S-wave (km/s) = 2.78552 3.59182 3.21405
# Velocity P-wave (km/s) = 5.43792 6.77051 6.14047
#
# Compressibility (1/GPa) = 0.02757172
#
# Stress axis : x y z
#
# Youngs Moduli (GPa) = 59.95797 20.61303 87.01139
#
# Poissons Ratio (x) = 0.29754 0.21432
# Poissons Ratio (y) = 0.86548 0.66636
# Poissons Ratio (z) = 0.14768 0.15786
#
# Static dielectric constant tensor:
#      x y z
#    x 3.578240 0.000000 0.092350 
#    y 0.000000 3.113820 0.000000 
#    z 0.092350 0.000000 3.793310 
# 
# 
# High freq. dielectric constant tensor:
#      x y z
#    x 1.743550 0.000000 0.001300 
#    y 0.000000 1.698610 0.000000 
#    z 0.001300 0.000000 1.752860 
# 
# From -- ./inp_files/313683.got.cif
#   From: 2010.06.25/outbox.cif.g09.slc.cpg/sg12_157_cif.got.tgz:313683.got - 2010.06.28 00:19:55.
