data_PCOD8097528
_publ_section_title
;
Structure prediction by ZEFSAII (Michael W. Deem and Ramdas Pophale) SiO2 
 PCOD8097528
Probable space group: C 2/M
;
_chemical_formula_sum "Si O2"
_cell_formula_units_Z 56
_cell_length_a 23.013538
_cell_length_b 24.233596
_cell_length_c 13.019915
_cell_angle_alpha 90.000000
_cell_angle_beta 157.035961
_cell_angle_gamma 90.000000
_cell_volume 2832.987747
_symmetry_space_group_name_H-M "C 2/M"
_symmetry_group_IT_number 12
_symmetry_cell_setting 'monoclinic'
loop_
_space_group_symop_operation_xyz
x,y,z
-x,y,-z
-x,-y,-z
x,-y,z
1/2+x,1/2+y,z
1/2-x,1/2+y,-z
1/2-x,1/2-y,-z
1/2+x,1/2-y,z
loop_
_atom_site_type_symbol
_atom_site_label
_atom_site_fract_x
_atom_site_fract_y
_atom_site_fract_z
Si Si1 0.792158 0.651091 0.293199
Si Si2 0.155830 0.882559 0.281675
Si Si3 0.866191 0.779257 0.618587
Si Si4 0.190172 0.265375 0.125579
Si Si5 0.045270 0.436414 0.186952
Si Si6 0.892948 0.630444 0.118219
Si Si7 0.674017 0.061540 0.807310
O O1 0.716584 0.650926 0.282112
O O2 0.744275 0.708274 0.160473
O O3 0.743323 0.598595 0.144688
O O4 0.969487 0.651812 0.590665
O O5 0.115284 0.841331 0.309031
O O6 0.277929 0.927395 0.512861
O O7 0.000000 0.912882 0.000000
O O8 0.750000 0.750000 0.500000
O O9 0.801091 0.780385 0.398516
O O10 0.017401 0.743586 0.874979
O O11 0.205114 0.316523 0.071654
O O12 0.008822 0.500000 0.148326
O O13 0.948645 0.400746 0.107525
O O14 0.000000 0.417451 0.000000
O O15 0.798148 0.588914 0.035520
O O16 0.500000 0.056972 0.500000
O O17 0.744277 0.000000 0.920278
#
# Coordination Sequence:
#
# PCOD8097528 Si02
#       7
#     8   8   8   8   8   8   8
#     4  10  20  34  53  86 118 146 191 240 282 339
#     4  11  20  34  53  82 118 153 188 231 283 356
#     4  12  20  33  53  81 120 163 189 222 280 354
#     4  12  21  34  55  87 119 157 187 236 289 346
#     4  10  21  37  55  82 115 147 191 246 288 336
#     4  10  20  36  58  85 113 150 192 238 291 348
#     4   9  19  37  61  83 109 149 197 248 293 336
#
# _framework density 19.767116000000001
#
# number of rings (size 3 to 8) (size 9 to 14) (size 15 to 20)
#    0.000    1.429    4.286    2.571    0.000    4.286 
#    0.000    0.000    0.000    0.000    0.000    1.000 
#    0.000    0.000    0.000    0.000    0.000    0.000 
#
# Total GULP energy -347121.088121 kJ/mol
# GULP energy per Si atom -12397.181719 kJ/mol
# Density = 1.972213 g / cm^3
# Si number density = 19.767116 Si / 1000 Ang^3
#
#
#
# Elastic Constant Matrix: (Units=GPa)
#
#
# Indices 1 2 3 4 5 6 
#
# 1 62.8262 55.5646 28.4420 0.0000 -21.8672 0.0000
# 2 55.5646 145.6415 35.3337 0.0000 -21.6348 0.0000
# 3 28.4420 35.3337 87.0627 0.0000 -12.2094 0.0000
# 4 0.0000 0.0000 0.0000 30.3204 0.0000 -2.2697
# 5 -21.8672 -21.6348 -12.2094 0.0000 18.5487 0.0000
# 6 0.0000 0.0000 0.0000 -2.2697 0.0000 35.7458
#
#
#
# Elastic Compliance Matrix: (Units=1/GPa)
#
#
# Indices 1 2 3 4 5 6 
#
# 1 0.035065 -0.008038 -0.004088 0.000000 0.029272 0.000000
# 2 -0.008038 0.010555 -0.001388 0.000000 0.001922 0.000000
# 3 -0.004088 -0.001388 0.013751 0.000000 0.002613 0.000000
# 4 0.000000 0.000000 0.000000 0.033139 0.000000 0.002104
# 5 0.029272 0.001922 0.002613 0.000000 0.092382 0.000000
# 6 0.000000 0.000000 0.000000 0.002104 0.000000 0.028109
#
#
# Mechanical properties :
#
#
# Convention : Reuss Voigt Hill
#
# Bulk Modulus (GPa) = 30.91870 59.35678 45.13774
# Shear Modulus (GPa) = 19.93541 28.66898 24.30219
#
# Velocity S-wave (km/s) = 3.17916 3.81246 3.51012
# Velocity P-wave (km/s) = 5.39921 7.03371 6.26995
#
# Compressibility (1/GPa) = 0.03234288
#
# Stress axis : x y z
#
# Youngs Moduli (GPa) = 28.51875 94.74252 72.72011
#
# Poissons Ratio (x) = 0.76150 0.29728
# Poissons Ratio (y) = 0.22922 0.10096
# Poissons Ratio (z) = 0.11659 0.13154
#
# Static dielectric constant tensor:
#      x y z
#    x 3.711320 0.000000 -0.391170 
#    y 0.000000 3.953860 0.000000 
#    z -0.391170 0.000000 3.843810 
# 
# 
# High freq. dielectric constant tensor:
#      x y z
#    x 1.752370 0.000000 -0.015380 
#    y 0.000000 1.775190 0.000000 
#    z -0.015380 0.000000 1.753160 
# 
# From -- ./inp_files/170521.got.cif
#   From: 2010.06.25/outbox.cif.g09.slc.cpg/sg12_86_cif.got.tgz:170521.got - 2010.06.28 00:19:55.
