data_PCOD8097989
_publ_section_title
;
Structure prediction by ZEFSAII (Michael W. Deem and Ramdas Pophale) SiO2 
 PCOD8097989
Probable space group: C 2/M
;
_chemical_formula_sum "Si O2"
_cell_formula_units_Z 48
_cell_length_a 24.700829
_cell_length_b 10.661995
_cell_length_c 30.743191
_cell_angle_alpha 90.000000
_cell_angle_beta 17.559600
_cell_angle_gamma 90.000000
_cell_volume 2442.704646
_symmetry_space_group_name_H-M "C 2/M"
_symmetry_group_IT_number 12
_symmetry_cell_setting 'monoclinic'
loop_
_space_group_symop_operation_xyz
x,y,z
-x,y,-z
-x,-y,-z
x,-y,z
1/2+x,1/2+y,z
1/2-x,1/2+y,-z
1/2-x,1/2-y,-z
1/2+x,1/2-y,z
loop_
_atom_site_type_symbol
_atom_site_label
_atom_site_fract_x
_atom_site_fract_y
_atom_site_fract_z
Si Si1 0.222999 0.138209 0.053799
Si Si2 0.304154 0.648033 0.160901
Si Si3 0.100872 0.720827 0.671960
Si Si4 0.707892 0.859787 0.331594
Si Si5 0.457039 0.141015 0.377637
Si Si6 0.608553 0.135688 0.761873
O O1 0.047222 0.167338 0.217126
O O2 0.194710 0.000000 0.053920
O O3 0.250000 0.250000 0.000000
O O4 0.411668 0.136692 0.935745
O O5 0.318560 0.500000 0.145632
O O6 0.247571 0.687973 0.252729
O O7 0.150105 0.696319 0.245529
O O8 0.500000 0.707664 0.000000
O O9 0.301147 0.775176 0.517585
O O10 0.059527 0.635792 0.661775
O O11 0.082136 0.639412 0.729869
O O12 0.500000 0.867604 0.500000
O O13 0.783764 0.757670 0.306565
O O14 0.791050 0.000000 0.275686
O O15 0.436543 0.000000 0.411565
O O16 0.701133 0.000000 0.702029
#
# Coordination Sequence:
#
# PCOD8097989 Si02
#       6
#     8   8   8   8   8   8
#     4   9  19  34  52  77 110 146 184 228 279 338
#     4   9  19  35  55  81 111 145 189 241 288 336
#     4  10  20  34  55  82 113 152 189 229 289 350
#     4  10  21  37  59  86 112 147 197 246 289 339
#     4  10  20  34  55  81 113 148 188 237 286 341
#     4  10  21  36  55  83 118 149 186 235 288 350
#
# _framework density 19.65035
#
# number of rings (size 3 to 8) (size 9 to 14) (size 15 to 20)
#    0.000    2.333    0.000    2.000    2.333    5.667 
#    0.000    0.000    0.000    2.500    0.000    0.000 
#    0.000    0.000    0.000    0.000    0.000    0.000 
#
# Total GULP energy -297315.615556 kJ/mol
# GULP energy per Si atom -12388.150648 kJ/mol
# Density = 1.960563 g / cm^3
# Si number density = 19.650350 Si / 1000 Ang^3
#
#
#
# Elastic Constant Matrix: (Units=GPa)
#
#
# Indices 1 2 3 4 5 6 
#
# 1 77.5985 21.3252 35.9139 -0.0419 -3.3394 0.0031
# 2 21.3252 110.2072 23.3066 -0.0659 -9.8106 0.0018
# 3 35.9139 23.3066 126.5048 -0.2704 -4.5400 -0.0040
# 4 -0.0419 -0.0659 -0.2704 25.0780 0.0198 -10.0660
# 5 -3.3394 -9.8106 -4.5400 0.0198 27.4367 0.0132
# 6 0.0031 0.0018 -0.0040 -10.0660 0.0132 23.5717
#
#
#
# Elastic Compliance Matrix: (Units=1/GPa)
#
#
# Indices 1 2 3 4 5 6 
#
# 1 0.015306 -0.002086 -0.003944 -0.000029 0.000464 -0.000015
# 2 -0.002086 0.009997 -0.001137 0.000009 0.003133 0.000001
# 3 -0.003944 -0.001137 0.009257 0.000109 0.000645 0.000048
# 4 -0.000029 0.000009 0.000109 0.048126 -0.000027 0.020552
# 5 0.000464 0.003133 0.000645 -0.000027 0.037731 -0.000033
# 6 -0.000015 0.000001 0.000048 0.020552 -0.000033 0.051200
#
#
# Mechanical properties :
#
#
# Convention : Reuss Voigt Hill
#
# Bulk Modulus (GPa) = 49.44401 52.82242 51.13322
# Shear Modulus (GPa) = 25.94796 30.80161 28.37479
#
# Velocity S-wave (km/s) = 3.63779 3.96344 3.80410
# Velocity P-wave (km/s) = 6.54685 6.91988 6.73594
#
# Compressibility (1/GPa) = 0.02022490
#
# Stress axis : x y z
#
# Youngs Moduli (GPa) = 65.33571 100.03177 108.02120
#
# Poissons Ratio (x) = 0.20869 0.42606
# Poissons Ratio (y) = 0.13630 0.12283
# Poissons Ratio (z) = 0.25770 0.11374
#
# Static dielectric constant tensor:
#      x y z
#    x 3.395460 -0.000250 -0.055150 
#    y -0.000250 3.570120 0.000800 
#    z -0.055150 0.000800 4.077180 
# 
# 
# High freq. dielectric constant tensor:
#      x y z
#    x 1.738980 0.000000 -0.001950 
#    y 0.000000 1.750400 0.000040 
#    z -0.001950 0.000040 1.783100 
# 
# From -- ./inp_files/366145.got.cif
#   From: 2010.06.25/outbox.cif.g09.slc.cpg/sg12_184_cif.got.tgz:366145.got - 2010.06.28 00:19:55.
