data_PCOD8097460
_publ_section_title
;
Structure prediction by ZEFSAII (Michael W. Deem and Ramdas Pophale) SiO2 
 PCOD8097460
Probable space group: C 2/M
;
_chemical_formula_sum "Si O2"
_cell_formula_units_Z 56
_cell_length_a 20.711032
_cell_length_b 9.261081
_cell_length_c 17.788191
_cell_angle_alpha 90.000000
_cell_angle_beta 54.646745
_cell_angle_gamma 90.000000
_cell_volume 2782.739127
_symmetry_space_group_name_H-M "C 2/M"
_symmetry_group_IT_number 12
_symmetry_cell_setting 'monoclinic'
loop_
_space_group_symop_operation_xyz
x,y,z
-x,y,-z
-x,-y,-z
x,-y,z
1/2+x,1/2+y,z
1/2-x,1/2+y,-z
1/2-x,1/2-y,-z
1/2+x,1/2-y,z
loop_
_atom_site_type_symbol
_atom_site_label
_atom_site_fract_x
_atom_site_fract_y
_atom_site_fract_z
Si Si1 0.188107 0.667658 0.762229
Si Si2 0.680612 0.830127 0.397128
Si Si3 0.468167 0.162046 0.207581
Si Si4 0.442705 0.660295 0.608728
Si Si5 0.933627 0.662741 0.395362
Si Si6 0.271950 0.832395 0.096408
Si Si7 0.127995 0.831664 0.091632
O O1 0.206883 0.500000 0.734890
O O2 0.232503 0.761373 0.668385
O O3 0.093799 0.697624 0.817476
O O4 0.217361 0.716318 0.824827
O O5 0.631470 0.758681 0.362233
O O6 0.642578 0.789416 0.503859
O O7 0.684997 0.000000 0.381502
O O8 0.415497 0.172080 0.319318
O O9 0.540191 0.272074 0.161931
O O10 0.502504 0.000000 0.175056
O O11 0.500000 0.646898 0.500000
O O12 0.413991 0.500000 0.653612
O O13 0.490737 0.734944 0.643269
O O14 0.956718 0.500000 0.404738
O O15 0.181886 0.801388 0.129427
O O16 0.293597 0.000000 0.071538
O O17 0.333440 0.741660 0.006550
O O18 0.121653 0.000000 0.079203
#
# Coordination Sequence:
#
# PCOD8097460 Si02
#       7
#     8   8   8   8   8   8   8
#     4  10  22  39  58  83 115 153 197 236 279 340
#     4  10  20  34  53  79 114 152 192 239 287 334
#     4  10  22  39  58  82 116 157 194 232 283 341
#     4   9  17  30  50  76 104 139 186 236 283 330
#     4   9  19  35  53  78 113 153 194 235 284 337
#     4   9  20  40  63  86 113 146 184 231 286 345
#     4  10  21  38  62  90 115 142 184 237 287 343
#
# _framework density 20.124057000000001
#
# number of rings (size 3 to 8) (size 9 to 14) (size 15 to 20)
#    0.000    2.429    0.000    1.286    2.000    5.714 
#    0.000    2.857    0.000    0.000    0.000    0.000 
#    0.000    0.000    0.000    0.000    0.000    0.000 
#
# Total GULP energy -347155.530047 kJ/mol
# GULP energy per Si atom -12398.411787 kJ/mol
# Density = 2.007825 g / cm^3
# Si number density = 20.124057 Si / 1000 Ang^3
#
#
#
# Elastic Constant Matrix: (Units=GPa)
#
#
# Indices 1 2 3 4 5 6 
#
# 1 102.7119 46.8935 54.8179 0.0001 -5.7496 -0.0001
# 2 46.8935 92.7715 47.6383 0.0003 -6.6733 -0.0003
# 3 54.8179 47.6383 86.7876 0.0000 -8.3564 -0.0001
# 4 0.0001 0.0003 0.0000 32.1580 -0.0001 -8.9111
# 5 -5.7496 -6.6733 -8.3564 -0.0001 23.6830 0.0001
# 6 -0.0001 -0.0003 -0.0001 -8.9111 0.0001 29.7742
#
#
#
# Elastic Compliance Matrix: (Units=1/GPa)
#
#
# Indices 1 2 3 4 5 6 
#
# 1 0.015662 -0.003951 -0.007727 0.000000 -0.000038 0.000000
# 2 -0.003951 0.016050 -0.006181 0.000000 0.001382 0.000000
# 3 -0.007727 -0.006181 0.020132 0.000000 0.003486 0.000000
# 4 0.000000 0.000000 0.000000 0.033909 0.000000 0.010149
# 5 -0.000038 0.001382 0.003486 0.000000 0.043835 0.000000
# 6 0.000000 0.000000 0.000000 0.010149 0.000000 0.036624
#
#
# Mechanical properties :
#
#
# Convention : Reuss Voigt Hill
#
# Bulk Modulus (GPa) = 62.01893 64.55229 63.28561
# Shear Modulus (GPa) = 24.11915 25.98447 25.05181
#
# Velocity S-wave (km/s) = 3.46572 3.59725 3.53210
# Velocity P-wave (km/s) = 6.84837 7.02854 6.93904
#
# Compressibility (1/GPa) = 0.01612411
#
# Stress axis : x y z
#
# Youngs Moduli (GPa) = 63.84879 62.30582 49.67321
#
# Poissons Ratio (x) = 0.24620 0.38384
# Poissons Ratio (y) = 0.25230 0.30703
# Poissons Ratio (z) = 0.49338 0.38511
#
# Static dielectric constant tensor:
#      x y z
#    x 3.620420 0.000000 0.046540 
#    y 0.000000 3.713670 0.000000 
#    z 0.046540 0.000000 3.526190 
# 
# 
# High freq. dielectric constant tensor:
#      x y z
#    x 1.778030 0.000000 -0.000680 
#    y 0.000000 1.785530 0.000000 
#    z -0.000680 0.000000 1.777310 
# 
# From -- ./inp_files/280996.got.cif
#   From: 2010.06.25/outbox.cif.g09.slc.cpg/sg12_141_cif.got.tgz:280996.got - 2010.06.28 00:19:55.
