data_PCOD8097867
_publ_section_title
;
Structure prediction by ZEFSAII (Michael W. Deem and Ramdas Pophale) SiO2 
 PCOD8097867
Probable space group: C 2/M
;
_chemical_formula_sum "Si O2"
_cell_formula_units_Z 64
_cell_length_a 26.255366
_cell_length_b 12.859047
_cell_length_c 9.657750
_cell_angle_alpha 90.000000
_cell_angle_beta 101.626520
_cell_angle_gamma 90.000000
_cell_volume 3193.738189
_symmetry_space_group_name_H-M "C 2/M"
_symmetry_group_IT_number 12
_symmetry_cell_setting 'monoclinic'
loop_
_space_group_symop_operation_xyz
x,y,z
-x,y,-z
-x,-y,-z
x,-y,z
1/2+x,1/2+y,z
1/2-x,1/2+y,-z
1/2-x,1/2-y,-z
1/2+x,1/2-y,z
loop_
_atom_site_type_symbol
_atom_site_label
_atom_site_fract_x
_atom_site_fract_y
_atom_site_fract_z
Si Si1 0.177297 0.809066 0.433323
Si Si2 0.616765 0.114971 0.039678
Si Si3 0.519124 0.882098 0.817197
Si Si4 0.556803 0.789634 0.574573
Si Si5 0.803988 0.267939 0.104129
Si Si6 0.911883 0.309476 0.699462
Si Si7 0.219291 0.378678 0.626468
Si Si8 0.861525 0.883339 0.314649
O O1 0.121015 0.798848 0.324888
O O2 0.192168 0.691622 0.493121
O O3 0.218772 0.856821 0.349927
O O4 0.172350 0.884036 0.562924
O O5 0.556781 0.141916 0.966683
O O6 0.619706 0.119249 0.208808
O O7 0.631265 0.000000 0.997050
O O8 0.656554 0.192389 0.990484
O O9 0.554029 0.871986 0.697467
O O10 0.471404 0.799845 0.787105
O O11 0.496805 0.000000 0.812870
O O12 0.500000 0.749059 0.500000
O O13 0.584386 0.848696 0.459119
O O14 0.588252 0.689032 0.641396
O O15 0.800096 0.347535 0.230944
O O16 0.825125 0.157748 0.170710
O O17 0.750000 0.250000 0.000000
O O18 0.207013 0.500000 0.593970
O O19 0.879230 0.000000 0.288648
#
# Coordination Sequence:
#
# PCOD8097867 Si02
#       8
#     8   8   8   8   8   8   8   8
#     4   9  20  37  55  85 116 143 186 244 286 337
#     4  11  22  36  55  83 119 154 189 231 283 348
#     4  10  20  35  56  83 118 156 189 230 289 351
#     4   9  19  36  57  86 115 149 193 240 287 340
#     4  11  23  39  56  80 115 151 196 240 285 341
#     4  10  20  34  54  83 118 151 186 227 281 343
#     4  10  20  36  58  80 110 151 188 230 288 338
#     4  10  20  37  60  83 110 149 196 244 294 344
#
# _framework density 20.039213
#
# number of rings (size 3 to 8) (size 9 to 14) (size 15 to 20)
#    0.000    2.000    1.250    2.250    0.000    6.000 
#    0.000    0.000    0.000    0.750    0.000    1.750 
#    0.000    0.000    0.000    0.000    0.000    0.000 
#
# Total GULP energy -396502.299506 kJ/mol
# GULP energy per Si atom -12390.696860 kJ/mol
# Density = 1.999360 g / cm^3
# Si number density = 20.039213 Si / 1000 Ang^3
#
#
#
# Elastic Constant Matrix: (Units=GPa)
#
#
# Indices 1 2 3 4 5 6 
#
# 1 87.9290 34.4972 27.7046 0.0000 5.4697 0.0000
# 2 34.4972 95.3561 37.3951 0.0000 8.8056 0.0000
# 3 27.7046 37.3951 102.7685 0.0000 -4.9328 0.0000
# 4 0.0000 0.0000 0.0000 14.9431 0.0000 -0.1324
# 5 5.4697 8.8056 -4.9328 0.0000 38.6711 0.0000
# 6 0.0000 0.0000 0.0000 -0.1324 0.0000 20.4708
#
#
#
# Elastic Compliance Matrix: (Units=1/GPa)
#
#
# Indices 1 2 3 4 5 6 
#
# 1 0.013734 -0.003927 -0.002338 0.000000 -0.001347 0.000000
# 2 -0.003927 0.013809 -0.004116 0.000000 -0.003114 0.000000
# 3 -0.002338 -0.004116 0.011993 0.000000 0.002798 0.000000
# 4 0.000000 0.000000 0.000000 0.066924 0.000000 0.000433
# 5 -0.001347 -0.003114 0.002798 0.000000 0.027115 0.000000
# 6 0.000000 0.000000 0.000000 0.000433 0.000000 0.048853
#
#
# Mechanical properties :
#
#
# Convention : Reuss Voigt Hill
#
# Bulk Modulus (GPa) = 53.26470 53.91637 53.59054
# Shear Modulus (GPa) = 23.87216 27.24744 25.55980
#
# Velocity S-wave (km/s) = 3.45523 3.69142 3.57527
# Velocity P-wave (km/s) = 6.52350 6.71808 6.62151
#
# Compressibility (1/GPa) = 0.01877416
#
# Stress axis : x y z
#
# Youngs Moduli (GPa) = 72.81165 72.41457 83.38361
#
# Poissons Ratio (x) = 0.28440 0.19495
# Poissons Ratio (y) = 0.28596 0.34318
# Poissons Ratio (z) = 0.17024 0.29803
#
# Static dielectric constant tensor:
#      x y z
#    x 3.895440 0.000000 -0.097190 
#    y 0.000000 3.253740 0.000000 
#    z -0.097190 0.000000 3.856270 
# 
# 
# High freq. dielectric constant tensor:
#      x y z
#    x 1.798240 0.000000 -0.008780 
#    y 0.000000 1.734660 0.000000 
#    z -0.008780 0.000000 1.792330 
# 
# From -- ./inp_files/110448.got.cif
#   From: 2010.06.25/outbox.cif.g09.slc.cpg/sg12_56_cif.got.tgz:110448.got - 2010.06.28 00:19:55.
