data_PCOD8097201
_publ_section_title
;
Structure prediction by ZEFSAII (Michael W. Deem and Ramdas Pophale) SiO2 
 PCOD8097201
Probable space group: C 2/M
;
_chemical_formula_sum "Si O2"
_cell_formula_units_Z 64
_cell_length_a 23.089382
_cell_length_b 8.929644
_cell_length_c 22.059548
_cell_angle_alpha 90.000000
_cell_angle_beta 55.552024
_cell_angle_gamma 90.000000
_cell_volume 3750.658596
_symmetry_space_group_name_H-M "C 2/M"
_symmetry_group_IT_number 12
_symmetry_cell_setting 'monoclinic'
loop_
_space_group_symop_operation_xyz
x,y,z
-x,y,-z
-x,-y,-z
x,-y,z
1/2+x,1/2+y,z
1/2-x,1/2+y,-z
1/2-x,1/2-y,-z
1/2+x,1/2-y,z
loop_
_atom_site_type_symbol
_atom_site_label
_atom_site_fract_x
_atom_site_fract_y
_atom_site_fract_z
Si Si1 0.289288 0.676753 0.641912
Si Si2 0.925889 0.675742 0.515401
Si Si3 0.421371 0.673773 0.759537
Si Si4 0.283430 0.671367 0.073027
Si Si5 0.278691 0.324506 0.784914
Si Si6 0.658697 0.673055 0.080988
Si Si7 0.063103 0.826590 0.618314
Si Si8 0.787255 0.172596 0.421500
O O1 0.289954 0.500000 0.630704
O O2 0.367725 0.737494 0.588135
O O3 0.264089 0.720348 0.724351
O O4 0.235682 0.751385 0.627252
O O5 0.911230 0.500000 0.528002
O O6 0.921923 0.726582 0.448714
O O7 0.000000 0.720716 0.500000
O O8 0.426059 0.500000 0.741849
O O9 0.354053 0.741411 0.763192
O O10 0.412491 0.700978 0.837723
O O11 0.494700 0.742784 0.692653
O O12 0.280485 0.500000 0.094183
O O13 0.284872 0.762898 0.135173
O O14 0.215352 0.713724 0.074448
O O15 0.349190 0.702143 0.987291
O O16 0.279973 0.500000 0.792812
O O17 0.683323 0.500000 0.076537
O O18 0.128939 0.810306 0.624282
O O19 0.053717 0.000000 0.604363
O O20 0.750000 0.250000 0.500000
O O21 0.763868 0.000000 0.434837
#
# Coordination Sequence:
#
# PCOD8097201 Si02
#       8
#     8   8   8   8   8   8   8   8
#     4  11  22  36  54  72  92 127 168 203 244 291
#     4  11  23  35  49  72 101 128 154 194 245 291
#     4   8  14  28  48  69  94 123 158 196 230 278
#     4   9  15  23  40  66  95 127 158 189 230 279
#     4   9  18  31  47  68  96 127 158 195 238 286
#     4   8  14  25  41  63  94 129 160 190 226 274
#     4  10  20  34  53  72  91 125 166 199 238 290
#     4  11  22  36  54  74  95 122 161 209 252 289
#
# _framework density 17.063669000000001
#
# number of rings (size 3 to 8) (size 9 to 14) (size 15 to 20)
#    0.000    2.375    1.250    3.000    0.000    4.000 
#    0.000    3.750    0.000    0.000    0.000    0.875 
#    0.000    7.000    0.000    0.000    0.000    0.000 
#
# Total GULP energy -396539.997030 kJ/mol
# GULP energy per Si atom -12391.874907 kJ/mol
# Density = 1.702483 g / cm^3
# Si number density = 17.063669 Si / 1000 Ang^3
#
#
#
# Elastic Constant Matrix: (Units=GPa)
#
#
# Indices 1 2 3 4 5 6 
#
# 1 63.2635 29.0002 30.4760 0.0004 19.1055 0.0015
# 2 29.0002 55.7074 45.2118 0.0002 11.6271 0.0033
# 3 30.4760 45.2118 127.9731 0.0001 28.9423 -0.0002
# 4 0.0004 0.0002 0.0001 25.3788 -0.0001 4.8293
# 5 19.1055 11.6271 28.9423 -0.0001 17.6828 0.0007
# 6 0.0015 0.0033 -0.0002 4.8293 0.0007 20.4029
#
#
#
# Elastic Compliance Matrix: (Units=1/GPa)
#
#
# Indices 1 2 3 4 5 6 
#
# 1 0.028117 -0.011867 0.004132 -0.000001 -0.029339 0.000001
# 2 -0.011867 0.030288 -0.009955 0.000001 0.009200 -0.000005
# 3 0.004132 -0.009955 0.015681 -0.000001 -0.023585 0.000002
# 4 -0.000001 0.000001 -0.000001 0.041261 0.000002 -0.009766
# 5 -0.029339 0.009200 -0.023585 0.000002 0.120804 -0.000004
# 6 0.000001 -0.000005 0.000002 -0.009766 -0.000004 0.051324
#
#
# Mechanical properties :
#
#
# Convention : Reuss Voigt Hill
#
# Bulk Modulus (GPa) = 25.83631 50.70220 38.26925
# Shear Modulus (GPa) = 14.89173 22.17663 18.53418
#
# Velocity S-wave (km/s) = 2.95738 3.60896 3.29930
# Velocity P-wave (km/s) = 5.18030 6.86616 6.08193
#
# Compressibility (1/GPa) = 0.03870522
#
# Stress axis : x y z
#
# Youngs Moduli (GPa) = 35.56630 33.01655 63.77109
#
# Poissons Ratio (x) = 0.39180 -0.26350
# Poissons Ratio (y) = 0.42206 0.63485
# Poissons Ratio (z) = -0.14696 0.32869
#
# Static dielectric constant tensor:
#      x y z
#    x 3.003350 0.000000 -0.015710 
#    y 0.000000 3.157970 0.000000 
#    z -0.015710 0.000000 3.660360 
# 
# 
# High freq. dielectric constant tensor:
#      x y z
#    x 1.611370 0.000000 0.006370 
#    y 0.000000 1.655100 0.000000 
#    z 0.006370 0.000000 1.675780 
# 
# From -- ./inp_files/323601.got.cif
#   From: 2010.06.25/outbox.cif.g09.slc.cpg/sg12_162_cif.got.tgz:323601.got - 2010.06.28 00:19:55.
