data_PCOD8097756
_publ_section_title
;
Structure prediction by ZEFSAII (Michael W. Deem and Ramdas Pophale) SiO2 
 PCOD8097756
Probable space group: C 2/M
;
_chemical_formula_sum "Si O2"
_cell_formula_units_Z 64
_cell_length_a 18.030902
_cell_length_b 13.231954
_cell_length_c 15.284077
_cell_angle_alpha 90.000000
_cell_angle_beta 61.354754
_cell_angle_gamma 90.000000
_cell_volume 3200.218152
_symmetry_space_group_name_H-M "C 2/M"
_symmetry_group_IT_number 12
_symmetry_cell_setting 'monoclinic'
loop_
_space_group_symop_operation_xyz
x,y,z
-x,y,-z
-x,-y,-z
x,-y,z
1/2+x,1/2+y,z
1/2-x,1/2+y,-z
1/2-x,1/2-y,-z
1/2+x,1/2-y,z
loop_
_atom_site_type_symbol
_atom_site_label
_atom_site_fract_x
_atom_site_fract_y
_atom_site_fract_z
Si Si1 0.506079 0.236552 0.768547
Si Si2 0.448412 0.382870 0.396573
Si Si3 0.551857 0.383467 0.052891
Si Si4 0.926198 0.617547 0.112438
Si Si5 0.247456 0.280125 0.813626
Si Si6 0.871780 0.114153 0.621075
Si Si7 0.152007 0.386117 0.186195
Si Si8 0.223305 0.889109 0.029421
O O1 0.569473 0.296523 0.666767
O O2 0.473743 0.327454 0.845490
O O3 0.548730 0.149627 0.803597
O O4 0.432496 0.180079 0.756284
O O5 0.427470 0.500000 0.380949
O O6 0.547616 0.375378 0.361963
O O7 0.393425 0.348264 0.511087
O O8 0.525850 0.500000 0.077264
O O9 0.653885 0.368872 0.991068
O O10 0.500000 0.336788 0.000000
O O11 0.897870 0.500000 0.129343
O O12 0.850653 0.692122 0.127424
O O13 0.000000 0.633812 0.000000
O O14 0.290930 0.329304 0.705089
O O15 0.273291 0.161688 0.795089
O O16 0.287007 0.311923 0.885424
O O17 0.842591 0.000000 0.630707
O O18 0.134814 0.500000 0.228163
O O19 0.184022 0.385583 0.066901
O O20 0.207627 0.000000 0.079084
#
# Coordination Sequence:
#
# PCOD8097756 Si02
#       8
#     8   8   8   8   8   8   8   8
#     4  12  21  37  58  80 120 165 194 227 300 362
#     4   9  18  34  59  94 123 146 190 253 306 347
#     4  10  21  33  50  81 117 151 192 236 285 353
#     4  11  26  42  59  87 123 160 201 245 290 351
#     4  12  21  38  64  85 110 155 204 245 293 348
#     4   9  17  33  61  94 120 142 192 258 302 341
#     4  11  24  37  54  82 117 156 197 241 289 350
#     4  10  20  34  54  81 110 145 193 245 288 337
#
# _framework density 19.998636000000001
#
# number of rings (size 3 to 8) (size 9 to 14) (size 15 to 20)
#    0.000    1.500    2.500    4.125    3.500    4.000 
#    0.000    1.250    0.000    2.625    0.000    0.000 
#    0.000    0.000    0.000    0.000    0.000    0.000 
#
# Total GULP energy -396543.486595 kJ/mol
# GULP energy per Si atom -12391.983956 kJ/mol
# Density = 1.995312 g / cm^3
# Si number density = 19.998636 Si / 1000 Ang^3
#
#
#
# Elastic Constant Matrix: (Units=GPa)
#
#
# Indices 1 2 3 4 5 6 
#
# 1 80.6388 35.9144 18.2895 0.0000 -3.7407 0.0000
# 2 35.9144 98.0767 26.1787 0.0000 4.0885 0.0000
# 3 18.2895 26.1787 79.5537 0.0000 -3.6479 0.0000
# 4 0.0000 0.0000 0.0000 20.8269 0.0000 4.1644
# 5 -3.7407 4.0885 -3.6479 0.0000 19.7176 0.0000
# 6 0.0000 0.0000 0.0000 4.1644 0.0000 29.4559
#
#
#
# Elastic Compliance Matrix: (Units=1/GPa)
#
#
# Indices 1 2 3 4 5 6 
#
# 1 0.015312 -0.005336 -0.001594 0.000000 0.003716 0.000000
# 2 -0.005336 0.013219 -0.003324 0.000000 -0.004368 0.000000
# 3 -0.001594 -0.003324 0.014168 0.000000 0.003008 0.000000
# 4 0.000000 0.000000 0.000000 0.049412 0.000000 -0.006986
# 5 0.003716 -0.004368 0.003008 0.000000 0.052883 0.000000
# 6 0.000000 0.000000 0.000000 -0.006986 0.000000 0.034937
#
#
# Mechanical properties :
#
#
# Convention : Reuss Voigt Hill
#
# Bulk Modulus (GPa) = 45.06172 46.55937 45.81055
# Shear Modulus (GPa) = 24.05749 25.85918 24.95834
#
# Velocity S-wave (km/s) = 3.47213 3.59980 3.53654
# Velocity P-wave (km/s) = 6.21736 6.37259 6.29545
#
# Compressibility (1/GPa) = 0.02219179
#
# Stress axis : x y z
#
# Youngs Moduli (GPa) = 65.31022 75.64597 70.58091
#
# Poissons Ratio (x) = 0.40368 0.11248
# Poissons Ratio (y) = 0.34852 0.23458
# Poissons Ratio (z) = 0.10408 0.25142
#
# Static dielectric constant tensor:
#      x y z
#    x 3.534060 0.000000 0.023890 
#    y 0.000000 3.858990 0.000000 
#    z 0.023890 0.000000 3.505960 
# 
# 
# High freq. dielectric constant tensor:
#      x y z
#    x 1.754980 0.000000 -0.004990 
#    y 0.000000 1.795660 0.000000 
#    z -0.004990 0.000000 1.753770 
# 
# From -- ./inp_files/225290.got.cif
#   From: 2010.06.25/outbox.cif.g09.slc.cpg/sg12_113_cif.got.tgz:225290.got - 2010.06.28 00:19:55.
