data_PCOD8097037
_publ_section_title
;
Structure prediction by ZEFSAII (Michael W. Deem and Ramdas Pophale) SiO2 
 PCOD8097037
Probable space group: C 2/M
;
_chemical_formula_sum "Si O2"
_cell_formula_units_Z 64
_cell_length_a 9.120623
_cell_length_b 10.513310
_cell_length_c 34.191105
_cell_angle_alpha 90.000000
_cell_angle_beta 92.399882
_cell_angle_gamma 90.000000
_cell_volume 3275.638990
_symmetry_space_group_name_H-M "C 2/M"
_symmetry_group_IT_number 12
_symmetry_cell_setting 'monoclinic'
loop_
_space_group_symop_operation_xyz
x,y,z
-x,y,-z
-x,-y,-z
x,-y,z
1/2+x,1/2+y,z
1/2-x,1/2+y,-z
1/2-x,1/2-y,-z
1/2+x,1/2-y,z
loop_
_atom_site_type_symbol
_atom_site_label
_atom_site_fract_x
_atom_site_fract_y
_atom_site_fract_z
Si Si1 0.050536 0.143621 0.541089
Si Si2 0.129393 0.857278 0.144347
Si Si3 0.438440 0.146467 0.271894
Si Si4 0.686903 0.751026 0.408712
Si Si5 0.817225 0.857400 0.108887
Si Si6 0.374626 0.357282 0.766377
Si Si7 0.846607 0.859195 0.019367
Si Si8 0.433881 0.142594 0.358368
O O1 0.206425 0.197247 0.556664
O O2 0.000000 0.212797 0.500000
O O3 0.922044 0.149514 0.572229
O O4 0.085281 0.000000 0.531508
O O5 0.200139 0.750007 0.118053
O O6 0.175371 0.835334 0.189611
O O7 0.954665 0.843216 0.139246
O O8 0.177360 0.000000 0.131153
O O9 0.515008 0.244562 0.243441
O O10 0.265743 0.152132 0.262813
O O11 0.467627 0.201180 0.316091
O O12 0.496077 0.000000 0.266734
O O13 0.575991 0.852775 0.388179
O O14 0.787198 0.699878 0.375221
O O15 0.870887 0.833998 0.065409
O O16 0.749088 0.000000 0.112687
O O17 0.444938 0.500000 0.762863
O O18 0.775965 0.000000 0.012079
O O19 0.750000 0.750000 0.000000
O O20 0.000000 0.852512 0.000000
O O21 0.389797 0.000000 0.349772
#
# Coordination Sequence:
#
# PCOD8097037 Si02
#       8
#     8   8   8   8   8   8   8   8
#     4  10  20  34  52  75 102 132 169 212 256 305
#     4  10  21  37  57  80 109 143 178 220 268 317
#     4  10  21  36  55  80 109 141 178 220 265 315
#     4  10  20  34  53  75 101 135 171 209 258 308
#     4  10  21  36  55  81 109 140 181 223 266 318
#     4  10  21  37  56  81 110 141 179 220 265 318
#     4  10  21  37  56  79 109 143 179 222 269 318
#     4  10  20  35  53  75 104 136 172 213 257 308
#
# _framework density 19.538173
#
# number of rings (size 3 to 8) (size 9 to 14) (size 15 to 20)
#    0.000    2.000    0.000    3.375    0.000    3.250 
#    0.000    3.125    0.000    6.000    0.000    0.000 
#    0.000    0.000    0.000    0.000    0.000    0.000 
#
# Total GULP energy -396619.233767 kJ/mol
# GULP energy per Si atom -12394.351055 kJ/mol
# Density = 1.949370 g / cm^3
# Si number density = 19.538173 Si / 1000 Ang^3
#
#
#
# Elastic Constant Matrix: (Units=GPa)
#
#
# Indices 1 2 3 4 5 6 
#
# 1 75.5488 38.8700 18.4948 0.0000 -0.2053 0.0000
# 2 38.8700 107.8513 38.1499 0.0000 -11.8630 0.0000
# 3 18.4948 38.1499 81.3510 0.0000 2.4837 0.0000
# 4 0.0000 0.0000 0.0000 31.7800 0.0000 -2.9460
# 5 -0.2053 -11.8630 2.4837 0.0000 36.6803 0.0000
# 6 0.0000 0.0000 0.0000 -2.9460 0.0000 28.6747
#
#
#
# Elastic Compliance Matrix: (Units=1/GPa)
#
#
# Indices 1 2 3 4 5 6 
#
# 1 0.016438 -0.005765 -0.000982 0.000000 -0.001706 0.000000
# 2 -0.005765 0.013742 -0.005279 0.000000 0.004769 0.000000
# 3 -0.000982 -0.005279 0.015075 0.000000 -0.002734 0.000000
# 4 0.000000 0.000000 0.000000 0.031769 0.000000 0.003264
# 5 -0.001706 0.004769 -0.002734 0.000000 0.028981 0.000000
# 6 0.000000 0.000000 0.000000 0.003264 0.000000 0.035209
#
#
# Mechanical properties :
#
#
# Convention : Reuss Voigt Hill
#
# Bulk Modulus (GPa) = 47.16251 50.64229 48.90240
# Shear Modulus (GPa) = 29.01368 30.70944 29.86156
#
# Velocity S-wave (km/s) = 3.85772 3.96885 3.91368
# Velocity P-wave (km/s) = 6.63579 6.85407 6.74581
#
# Compressibility (1/GPa) = 0.02120328
#
# Stress axis : x y z
#
# Youngs Moduli (GPa) = 60.83406 72.77118 66.33599
#
# Poissons Ratio (x) = 0.41951 0.06512
# Poissons Ratio (y) = 0.35070 0.35020
# Poissons Ratio (z) = 0.05972 0.38418
#
# Static dielectric constant tensor:
#      x y z
#    x 3.330870 0.000000 0.159360 
#    y 0.000000 3.659410 0.000000 
#    z 0.159360 0.000000 3.918220 
# 
# 
# High freq. dielectric constant tensor:
#      x y z
#    x 1.750390 0.000000 0.010400 
#    y 0.000000 1.759460 0.000000 
#    z 0.010400 0.000000 1.777190 
# 
# From -- ./inp_files/372173.got.cif
#   From: 2010.06.25/outbox.cif.g09.slc.cpg/sg12_187_cif.got.tgz:372173.got - 2010.06.28 00:19:55.
