data_PCOD8097831
_publ_section_title
;
Structure prediction by ZEFSAII (Michael W. Deem and Ramdas Pophale) SiO2 
 PCOD8097831
Probable space group: C 2/M
;
_chemical_formula_sum "Si O2"
_cell_formula_units_Z 56
_cell_length_a 14.313050
_cell_length_b 9.124157
_cell_length_c 29.992555
_cell_angle_alpha 90.000000
_cell_angle_beta 51.174345
_cell_angle_gamma 90.000000
_cell_volume 3051.460920
_symmetry_space_group_name_H-M "C 2/M"
_symmetry_group_IT_number 12
_symmetry_cell_setting 'monoclinic'
loop_
_space_group_symop_operation_xyz
x,y,z
-x,y,-z
-x,-y,-z
x,-y,z
1/2+x,1/2+y,z
1/2-x,1/2+y,-z
1/2-x,1/2-y,-z
1/2+x,1/2-y,z
loop_
_atom_site_type_symbol
_atom_site_label
_atom_site_fract_x
_atom_site_fract_y
_atom_site_fract_z
Si Si1 0.841641 0.835527 0.942331
Si Si2 0.195465 0.173239 0.145224
Si Si3 0.276714 0.830407 0.361529
Si Si4 0.435840 0.666279 0.064212
Si Si5 0.810914 0.170551 0.440835
Si Si6 0.913693 0.830097 0.655873
Si Si7 0.947535 0.329836 0.735320
O O1 0.847366 0.773408 0.890659
O O2 0.974197 0.827327 0.921686
O O3 0.792048 0.000000 0.955827
O O4 0.750000 0.750000 0.000000
O O5 0.331376 0.225501 0.110232
O O6 0.109534 0.250152 0.205815
O O7 0.187418 0.000000 0.154644
O O8 0.255778 0.735323 0.411940
O O9 0.181738 0.778464 0.352698
O O10 0.410341 0.803564 0.303435
O O11 0.256045 0.000000 0.380121
O O12 0.388527 0.500000 0.070591
O O13 0.500000 0.723341 0.000000
O O14 0.750000 0.250000 0.500000
O O15 0.952922 0.198831 0.402219
O O16 0.779539 0.000000 0.451768
O O17 0.892147 0.736318 0.706709
O O18 0.894580 0.000000 0.673738
O O19 0.914026 0.500000 0.746464
#
# Coordination Sequence:
#
# PCOD8097831 Si02
#       7
#     8   8   8   8   8   8   8
#     4  10  21  36  55  79 106 138 173 214 265 321
#     4  11  23  37  55  80 110 141 178 221 268 327
#     4   9  19  37  59  81 108 144 186 229 275 326
#     4  10  20  36  57  79 106 138 173 216 266 320
#     4  10  20  34  54  82 117 153 188 229 273 321
#     4   9  19  37  59  81 109 146 186 228 276 323
#     4  10  21  37  57  80 107 139 179 227 276 324
#
# _framework density 18.351863999999999
#
# number of rings (size 3 to 8) (size 9 to 14) (size 15 to 20)
#    0.000    2.143    1.429    1.286    0.000    4.857 
#    0.000    5.714    0.000    0.000    0.000    0.000 
#    0.000    0.000    0.000    0.000    0.000    0.000 
#
# Total GULP energy -347281.648347 kJ/mol
# GULP energy per Si atom -12402.916012 kJ/mol
# Density = 1.831009 g / cm^3
# Si number density = 18.351864 Si / 1000 Ang^3
#
#
#
# Elastic Constant Matrix: (Units=GPa)
#
#
# Indices 1 2 3 4 5 6 
#
# 1 136.3114 57.0815 63.5335 0.0000 19.5636 0.0000
# 2 57.0815 100.1221 80.2876 0.0000 15.4982 0.0000
# 3 63.5335 80.2876 149.0410 0.0000 23.0695 0.0000
# 4 0.0000 0.0000 0.0000 36.9868 0.0000 2.8730
# 5 19.5636 15.4982 23.0695 0.0000 22.0804 0.0000
# 6 0.0000 0.0000 0.0000 2.8730 0.0000 28.4294
#
#
#
# Elastic Compliance Matrix: (Units=1/GPa)
#
#
# Indices 1 2 3 4 5 6 
#
# 1 0.010405 -0.003922 -0.001577 0.000000 -0.004819 0.000000
# 2 -0.003922 0.019220 -0.008508 0.000000 -0.001127 0.000000
# 3 -0.001577 -0.008508 0.012913 0.000000 -0.006122 0.000000
# 4 0.000000 0.000000 0.000000 0.027251 0.000000 -0.002754
# 5 -0.004819 -0.001127 -0.006122 0.000000 0.056746 0.000000
# 6 0.000000 0.000000 0.000000 -0.002754 0.000000 0.035453
#
#
# Mechanical properties :
#
#
# Convention : Reuss Voigt Hill
#
# Bulk Modulus (GPa) = 68.84575 87.47550 78.16063
# Shear Modulus (GPa) = 25.66180 29.80411 27.73295
#
# Velocity S-wave (km/s) = 3.74347 4.03431 3.89161
# Velocity P-wave (km/s) = 7.50203 8.33487 7.92939
#
# Compressibility (1/GPa) = 0.01452522
#
# Stress axis : x y z
#
# Youngs Moduli (GPa) = 96.10801 52.02818 77.44416
#
# Poissons Ratio (x) = 0.20403 0.12214
# Poissons Ratio (y) = 0.37689 0.65887
# Poissons Ratio (z) = 0.15157 0.44264
#
# Static dielectric constant tensor:
#      x y z
#    x 3.494450 0.000000 0.085800 
#    y 0.000000 3.479400 0.000000 
#    z 0.085800 0.000000 3.316480 
# 
# 
# High freq. dielectric constant tensor:
#      x y z
#    x 1.717250 0.000000 0.006480 
#    y 0.000000 1.716440 0.000000 
#    z 0.006480 0.000000 1.711250 
# 
# From -- ./inp_files/337885.got.cif
#   From: 2010.06.25/outbox.cif.g09.slc.cpg/sg12_169_cif.got.tgz:337885.got - 2010.06.28 00:19:55.
