data_PCOD8097130
_publ_section_title
;
Structure prediction by ZEFSAII (Michael W. Deem and Ramdas Pophale) SiO2 
 PCOD8097130
Probable space group: C 2/M
;
_chemical_formula_sum "Si O2"
_cell_formula_units_Z 64
_cell_length_a 14.286144
_cell_length_b 9.249543
_cell_length_c 33.588254
_cell_angle_alpha 90.000000
_cell_angle_beta 51.992340
_cell_angle_gamma 90.000000
_cell_volume 3497.111689
_symmetry_space_group_name_H-M "C 2/M"
_symmetry_group_IT_number 12
_symmetry_cell_setting 'monoclinic'
loop_
_space_group_symop_operation_xyz
x,y,z
-x,y,-z
-x,-y,-z
x,-y,z
1/2+x,1/2+y,z
1/2-x,1/2+y,-z
1/2-x,1/2-y,-z
1/2+x,1/2-y,z
loop_
_atom_site_type_symbol
_atom_site_label
_atom_site_fract_x
_atom_site_fract_y
_atom_site_fract_z
Si Si1 0.079827 0.331274 0.377296
Si Si2 0.713690 0.829282 0.181416
Si Si3 0.852654 0.666720 0.886454
Si Si4 0.159089 0.831075 0.551904
Si Si5 0.026132 0.829498 0.898784
Si Si6 0.663712 0.334841 0.994546
Si Si7 0.313468 0.666922 0.363518
Si Si8 0.550438 0.168744 0.294148
O O1 0.051666 0.500000 0.392261
O O2 0.196023 0.280993 0.371004
O O3 0.099861 0.299591 0.325321
O O4 0.970321 0.236796 0.421655
O O5 0.637577 0.789780 0.162256
O O6 0.844427 0.759235 0.141963
O O7 0.647006 0.767705 0.237814
O O8 0.727145 0.000000 0.181754
O O9 0.889138 0.500000 0.883770
O O10 0.712591 0.688910 0.936738
O O11 0.940518 0.768208 0.887353
O O12 0.250000 0.750000 0.500000
O O13 0.203870 0.805447 0.585089
O O14 0.154227 0.000000 0.542429
O O15 0.034791 0.000000 0.890619
O O16 0.972448 0.791502 0.957503
O O17 0.678251 0.500000 0.002978
O O18 0.750000 0.250000 0.000000
O O19 0.338887 0.500000 0.347808
O O20 0.425311 0.755601 0.318233
O O21 0.529293 0.000000 0.292666
#
# Coordination Sequence:
#
# PCOD8097130 Si02
#       8
#     8   8   8   8   8   8   8   8
#     4   9  18  34  54  73  96 130 168 201 238 282
#     4   9  18  31  47  69  95 122 154 195 242 289
#     4   9  17  30  46  65  92 122 152 189 237 289
#     4  10  20  34  52  77 109 137 163 198 237 277
#     4   9  17  30  47  67  91 119 155 195 235 284
#     4   8  14  25  43  64  86 116 151 188 230 280
#     4   9  19  35  54  75  99 130 166 202 239 279
#     4   9  18  33  51  70  94 124 160 202 243 284
#
# _framework density 18.300816000000001
#
# number of rings (size 3 to 8) (size 9 to 14) (size 15 to 20)
#    0.000    3.000    0.000    0.375    0.000    3.000 
#    0.000    8.125    0.000    0.000    0.000    8.750 
#    0.000    0.000    0.000    0.000    0.000    0.000 
#
# Total GULP energy -396504.273122 kJ/mol
# GULP energy per Si atom -12390.758535 kJ/mol
# Density = 1.825916 g / cm^3
# Si number density = 18.300816 Si / 1000 Ang^3
#
#
#
# Elastic Constant Matrix: (Units=GPa)
#
#
# Indices 1 2 3 4 5 6 
#
# 1 89.9076 21.2909 43.8521 0.0000 -13.3108 0.0000
# 2 21.2909 35.3201 35.3918 0.0000 -9.0166 0.0000
# 3 43.8521 35.3918 134.7640 0.0000 -15.4866 0.0000
# 4 0.0000 0.0000 0.0000 21.6840 0.0000 -2.7652
# 5 -13.3108 -9.0166 -15.4866 0.0000 21.2498 0.0000
# 6 0.0000 0.0000 0.0000 -2.7652 0.0000 24.0711
#
#
#
# Elastic Compliance Matrix: (Units=1/GPa)
#
#
# Indices 1 2 3 4 5 6 
#
# 1 0.014337 -0.004441 -0.002929 0.000000 0.004962 0.000000
# 2 -0.004441 0.041752 -0.008517 0.000000 0.008727 0.000000
# 3 -0.002929 -0.008517 0.010897 0.000000 0.002493 0.000000
# 4 0.000000 0.000000 0.000000 0.046803 0.000000 0.005376
# 5 0.004962 0.008727 0.002493 0.000000 0.055687 0.000000
# 6 0.000000 0.000000 0.000000 0.005376 0.000000 0.042161
#
#
# Mechanical properties :
#
#
# Convention : Reuss Voigt Hill
#
# Bulk Modulus (GPa) = 28.39937 51.22901 39.81419
# Shear Modulus (GPa) = 19.59650 24.03141 21.81396
#
# Velocity S-wave (km/s) = 3.27586 3.62765 3.45623
# Velocity P-wave (km/s) = 5.46444 6.75278 6.14248
#
# Compressibility (1/GPa) = 0.03521205
#
# Stress axis : x y z
#
# Youngs Moduli (GPa) = 69.74777 23.95119 91.77190
#
# Poissons Ratio (x) = 0.10637 0.26878
# Poissons Ratio (y) = 0.30976 0.78160
# Poissons Ratio (z) = 0.20428 0.20399
#
# Static dielectric constant tensor:
#      x y z
#    x 3.237980 0.000000 -0.103780 
#    y 0.000000 3.188760 0.000000 
#    z -0.103780 0.000000 3.789050 
# 
# 
# High freq. dielectric constant tensor:
#      x y z
#    x 1.699160 0.000000 -0.004060 
#    y 0.000000 1.689750 0.000000 
#    z -0.004060 0.000000 1.719980 
# 
# From -- ./inp_files/375516.got.cif
#   From: 2010.06.25/outbox.cif.g09.slc.cpg/sg12_188_cif.got.tgz:375516.got - 2010.06.28 00:19:55.
