data_PCOD8097871
_publ_section_title
;
Structure prediction by ZEFSAII (Michael W. Deem and Ramdas Pophale) SiO2 
 PCOD8097871
Probable space group: C 2/M
;
_chemical_formula_sum "Si O2"
_cell_formula_units_Z 64
_cell_length_a 11.467501
_cell_length_b 17.280859
_cell_length_c 16.535847
_cell_angle_alpha 90.000000
_cell_angle_beta 90.390408
_cell_angle_gamma 90.000000
_cell_volume 3276.804086
_symmetry_space_group_name_H-M "C 2/M"
_symmetry_group_IT_number 12
_symmetry_cell_setting 'monoclinic'
loop_
_space_group_symop_operation_xyz
x,y,z
-x,y,-z
-x,-y,-z
x,-y,z
1/2+x,1/2+y,z
1/2-x,1/2+y,-z
1/2-x,1/2-y,-z
1/2+x,1/2-y,z
loop_
_atom_site_type_symbol
_atom_site_label
_atom_site_fract_x
_atom_site_fract_y
_atom_site_fract_z
Si Si1 0.294245 0.908018 0.212245
Si Si2 0.155324 0.909278 0.062258
Si Si3 0.963812 0.319284 0.319165
Si Si4 0.413156 0.341244 0.683145
Si Si5 0.768116 0.677803 0.445206
Si Si6 0.661085 0.909327 0.403544
Si Si7 0.903342 0.092203 0.109808
Si Si8 0.648124 0.410774 0.716833
O O1 0.269976 0.891046 0.116721
O O2 0.413398 0.865373 0.240367
O O3 0.181972 0.872263 0.255035
O O4 0.304082 0.000000 0.230043
O O5 0.036110 0.876101 0.101679
O O6 0.134851 0.000000 0.056722
O O7 0.170277 0.879337 0.969512
O O8 0.854851 0.296841 0.374365
O O9 0.036730 0.243892 0.292593
O O10 0.038664 0.375878 0.375008
O O11 0.356933 0.342685 0.593783
O O12 0.519441 0.400923 0.680119
O O13 0.750000 0.750000 0.500000
O O14 0.813955 0.608711 0.502222
O O15 0.758472 0.872127 0.343535
O O16 0.655477 0.000000 0.395015
O O17 0.847113 0.126882 0.192360
O O18 0.903142 0.000000 0.118298
O O19 0.679454 0.500000 0.722525
#
# Coordination Sequence:
#
# PCOD8097871 Si02
#       8
#     8   8   8   8   8   8   8   8
#     4  10  20  36  59  90 119 146 194 248 286 332
#     4   8  13  25  51  85 115 142 184 237 286 332
#     4  11  24  38  58  81 113 153 188 236 282 351
#     4  11  22  35  59  83 111 147 190 235 295 343
#     4  11  23  40  58  78 105 141 191 242 282 337
#     4  11  24  39  57  82 111 151 194 234 288 345
#     4   8  13  25  49  83 116 145 180 235 291 333
#     4  10  20  34  54  83 119 146 183 239 290 342
#
# _framework density 19.531224999999999
#
# number of rings (size 3 to 8) (size 9 to 14) (size 15 to 20)
#    0.000    2.000    2.500    2.625    1.750    5.000 
#    0.000    1.250    0.000    1.500    3.250    4.375 
#    0.000    0.000    0.000    0.000    0.000    0.000 
#
# Total GULP energy -396522.653125 kJ/mol
# GULP energy per Si atom -12391.332910 kJ/mol
# Density = 1.948677 g / cm^3
# Si number density = 19.531225 Si / 1000 Ang^3
#
#
#
# Elastic Constant Matrix: (Units=GPa)
#
#
# Indices 1 2 3 4 5 6 
#
# 1 69.2230 19.1648 32.5803 0.0000 23.9936 0.0000
# 2 19.1648 55.7614 15.8470 0.0000 11.6820 0.0000
# 3 32.5803 15.8470 97.5815 0.0000 36.5076 0.0000
# 4 0.0000 0.0000 0.0000 15.7644 0.0000 8.3846
# 5 23.9936 11.6820 36.5076 0.0000 34.1279 0.0000
# 6 0.0000 0.0000 0.0000 8.3846 0.0000 29.2708
#
#
#
# Elastic Compliance Matrix: (Units=1/GPa)
#
#
# Indices 1 2 3 4 5 6 
#
# 1 0.020252 -0.004145 -0.002155 0.000000 -0.010514 0.000000
# 2 -0.004145 0.020239 -0.000669 0.000000 -0.003298 0.000000
# 3 -0.002155 -0.000669 0.017379 0.000000 -0.016846 0.000000
# 4 0.000000 0.000000 0.000000 0.074836 0.000000 -0.021437
# 5 -0.010514 -0.003298 -0.016846 0.000000 0.055843 0.000000
# 6 0.000000 0.000000 0.000000 -0.021437 0.000000 0.040304
#
#
# Mechanical properties :
#
#
# Convention : Reuss Voigt Hill
#
# Bulk Modulus (GPa) = 22.76266 39.75002 31.25634
# Shear Modulus (GPa) = 19.42229 26.16420 22.79324
#
# Velocity S-wave (km/s) = 3.15687 3.66404 3.41987
# Velocity P-wave (km/s) = 4.99675 6.18841 5.62423
#
# Compressibility (1/GPa) = 0.04393160
#
# Stress axis : x y z
#
# Youngs Moduli (GPa) = 49.37695 49.40873 57.54199
#
# Poissons Ratio (x) = 0.20482 0.12400
# Poissons Ratio (y) = 0.20469 0.03849
# Poissons Ratio (z) = 0.10641 0.03305
#
# Static dielectric constant tensor:
#      x y z
#    x 3.553100 0.000000 0.036240 
#    y 0.000000 3.295590 0.000000 
#    z 0.036240 0.000000 4.069160 
# 
# 
# High freq. dielectric constant tensor:
#      x y z
#    x 1.748980 0.000000 0.017880 
#    y 0.000000 1.734240 0.000000 
#    z 0.017880 0.000000 1.768680 
# 
# From -- ./inp_files/263899.got.cif
#   From: 2010.06.25/outbox.cif.g09.slc.cpg/sg12_132_cif.got.tgz:263899.got - 2010.06.28 00:19:55.
