data_PCOD8097983
_publ_section_title
;
Structure prediction by ZEFSAII (Michael W. Deem and Ramdas Pophale) SiO2 
 PCOD8097983
Probable space group: C 2/M
;
_chemical_formula_sum "Si O2"
_cell_formula_units_Z 48
_cell_length_a 15.669282
_cell_length_b 9.321157
_cell_length_c 16.688945
_cell_angle_alpha 90.000000
_cell_angle_beta 89.306570
_cell_angle_gamma 90.000000
_cell_volume 2437.339327
_symmetry_space_group_name_H-M "C 2/M"
_symmetry_group_IT_number 12
_symmetry_cell_setting 'monoclinic'
loop_
_space_group_symop_operation_xyz
x,y,z
-x,y,-z
-x,-y,-z
x,-y,z
1/2+x,1/2+y,z
1/2-x,1/2+y,-z
1/2-x,1/2-y,-z
1/2+x,1/2-y,z
loop_
_atom_site_type_symbol
_atom_site_label
_atom_site_fract_x
_atom_site_fract_y
_atom_site_fract_z
Si Si1 0.094620 0.665180 0.172925
Si Si2 0.346145 0.839559 0.656373
Si Si3 0.903185 0.168638 0.505230
Si Si4 0.152651 0.163118 0.665457
Si Si5 0.595336 0.834613 0.811723
Si Si6 0.243231 0.828928 0.083803
O O1 0.122271 0.500000 0.155316
O O2 0.094607 0.696044 0.268352
O O3 0.157829 0.773805 0.128103
O O4 0.996907 0.692021 0.145103
O O5 0.359180 0.733382 0.583311
O O6 0.250392 0.823505 0.690370
O O7 0.362957 0.000000 0.624215
O O8 0.857804 0.223570 0.424701
O O9 0.000000 0.220668 0.500000
O O10 0.894575 0.000000 0.515011
O O11 0.096036 0.250755 0.728191
O O12 0.119340 0.000000 0.668320
O O13 0.671562 0.784156 0.868851
O O14 0.607080 0.000000 0.789664
O O15 0.237132 0.000000 0.072591
O O16 0.250000 0.750000 0.000000
#
# Coordination Sequence:
#
# PCOD8097983 Si02
#       6
#     8   8   8   8   8   8
#     4  10  21  40  63  88 120 155 193 241 292 344
#     4  10  20  34  55  81 110 151 197 240 288 339
#     4  10  21  34  49  76 114 153 195 243 290 337
#     4  10  20  35  55  81 114 154 198 242 290 341
#     4  10  22  39  62  90 118 153 196 239 289 347
#     4  11  24  42  64  91 120 152 190 235 290 351
#
# _framework density 19.693605999999999
#
# number of rings (size 3 to 8) (size 9 to 14) (size 15 to 20)
#    0.000    1.833    1.667    2.000    0.000    4.333 
#    0.000    3.333    0.000    0.000    0.000    0.000 
#    0.000    0.000    0.000    0.000    0.000    0.000 
#
# Total GULP energy -297626.880147 kJ/mol
# GULP energy per Si atom -12401.120006 kJ/mol
# Density = 1.964878 g / cm^3
# Si number density = 19.693606 Si / 1000 Ang^3
#
#
#
# Elastic Constant Matrix: (Units=GPa)
#
#
# Indices 1 2 3 4 5 6 
#
# 1 110.8356 44.5775 48.9158 0.0000 0.3323 0.0000
# 2 44.5775 70.9457 52.6636 0.0000 -5.2289 0.0000
# 3 48.9158 52.6636 103.3261 0.0000 -3.7274 0.0000
# 4 0.0000 0.0000 0.0000 39.6632 0.0000 -6.4364
# 5 0.3323 -5.2289 -3.7274 0.0000 19.8886 0.0000
# 6 0.0000 0.0000 0.0000 -6.4364 0.0000 28.9689
#
#
#
# Elastic Compliance Matrix: (Units=1/GPa)
#
#
# Indices 1 2 3 4 5 6 
#
# 1 0.012776 -0.005868 -0.003142 0.000000 -0.002345 0.000000
# 2 -0.005868 0.025661 -0.010123 0.000000 0.004948 0.000000
# 3 -0.003142 -0.010123 0.016341 0.000000 0.000454 0.000000
# 4 0.000000 0.000000 0.000000 0.026155 0.000000 0.005811
# 5 -0.002345 0.004948 0.000454 0.000000 0.051705 0.000000
# 6 0.000000 0.000000 0.000000 0.005811 0.000000 0.035811
#
#
# Mechanical properties :
#
#
# Convention : Reuss Voigt Hill
#
# Bulk Modulus (GPa) = 60.55816 64.15789 62.35802
# Shear Modulus (GPa) = 23.56046 26.96750 25.26398
#
# Velocity S-wave (km/s) = 3.46258 3.70449 3.58558
# Velocity P-wave (km/s) = 6.84126 7.13768 6.99104
#
# Compressibility (1/GPa) = 0.01651305
#
# Stress axis : x y z
#
# Youngs Moduli (GPa) = 78.26999 38.96946 61.19480
#
# Poissons Ratio (x) = 0.22868 0.19228
# Poissons Ratio (y) = 0.45930 0.61944
# Poissons Ratio (z) = 0.24594 0.39447
#
# Static dielectric constant tensor:
#      x y z
#    x 3.790780 0.000000 0.190990 
#    y 0.000000 3.518070 0.000000 
#    z 0.190990 0.000000 3.469300 
# 
# 
# High freq. dielectric constant tensor:
#      x y z
#    x 1.779300 0.000000 0.008860 
#    y 0.000000 1.759800 0.000000 
#    z 0.008860 0.000000 1.763950 
# 
# From -- ./inp_files/267659.got.cif
#   From: 2010.06.25/outbox.cif.g09.slc.cpg/sg12_134_cif.got.tgz:267659.got - 2010.06.28 00:19:55.
