data_PCOD8097110
_publ_section_title
;
Structure prediction by ZEFSAII (Michael W. Deem and Ramdas Pophale) SiO2 
 PCOD8097110
Probable space group: C 2/M
;
_chemical_formula_sum "Si O2"
_cell_formula_units_Z 64
_cell_length_a 19.946937
_cell_length_b 12.512334
_cell_length_c 26.326935
_cell_angle_alpha 90.000000
_cell_angle_beta 148.156778
_cell_angle_gamma 90.000000
_cell_volume 3466.705734
_symmetry_space_group_name_H-M "C 2/M"
_symmetry_group_IT_number 12
_symmetry_cell_setting 'monoclinic'
loop_
_space_group_symop_operation_xyz
x,y,z
-x,y,-z
-x,-y,-z
x,-y,z
1/2+x,1/2+y,z
1/2-x,1/2+y,-z
1/2-x,1/2-y,-z
1/2+x,1/2-y,z
loop_
_atom_site_type_symbol
_atom_site_label
_atom_site_fract_x
_atom_site_fract_y
_atom_site_fract_z
Si Si1 0.777067 0.881287 0.164323
Si Si2 0.491614 0.748955 0.709473
Si Si3 0.782481 0.377501 0.294438
Si Si4 0.323214 0.876714 0.099918
Si Si5 0.590590 0.273231 0.102168
Si Si6 0.631171 0.193261 0.979256
Si Si7 0.037468 0.376158 0.407231
Si Si8 0.278531 0.624593 0.632979
O O1 0.696149 0.802860 0.146731
O O2 0.923807 0.847116 0.258386
O O3 0.767927 0.000000 0.180937
O O4 0.723544 0.880177 0.072437
O O5 0.581659 0.832262 0.796632
O O6 0.428099 0.811625 0.621710
O O7 0.387048 0.698787 0.679066
O O8 0.812600 0.500000 0.323344
O O9 0.662713 0.365265 0.179531
O O10 0.748721 0.329306 0.327994
O O11 0.909797 0.327700 0.351322
O O12 0.387943 0.862837 0.086907
O O13 0.293682 0.000000 0.092930
O O14 0.189981 0.812908 0.013689
O O15 0.508117 0.200621 0.086619
O O16 0.500000 0.323769 0.000000
O O17 0.018164 0.500000 0.380180
O O18 0.151186 0.360786 0.519345
O O19 0.322130 0.500000 0.661836
#
# Coordination Sequence:
#
# PCOD8097110 Si02
#       8
#     8   8   8   8   8   8   8   8
#     4  10  20  34  53  74 104 143 182 225 267 315
#     4  11  20  35  54  82 111 140 178 227 280 329
#     4  10  20  36  56  81 112 143 179 223 274 330
#     4  10  20  34  52  76 109 146 179 221 275 324
#     4  10  20  35  51  79 108 139 181 220 266 320
#     4   9  20  34  51  75 106 143 189 224 258 320
#     4  10  20  36  58  83 110 143 181 226 280 331
#     4  10  21  36  58  84 109 142 186 230 273 327
#
# _framework density 18.46133
#
# number of rings (size 3 to 8) (size 9 to 14) (size 15 to 20)
#    0.000    2.000    1.250    2.625    0.000    5.000 
#    0.000    3.125    0.000    0.000    0.000    0.875 
#    0.000    0.000    0.000    0.000    0.000    0.000 
#
# Total GULP energy -396792.578223 kJ/mol
# GULP energy per Si atom -12399.768069 kJ/mol
# Density = 1.841931 g / cm^3
# Si number density = 18.461330 Si / 1000 Ang^3
#
#
#
# Elastic Constant Matrix: (Units=GPa)
#
#
# Indices 1 2 3 4 5 6 
#
# 1 107.6991 24.5530 26.0369 -0.0002 -2.5770 0.0000
# 2 24.5530 69.1019 25.4674 -0.0003 -2.9612 -0.0001
# 3 26.0369 25.4674 75.7148 -0.0011 -3.8058 -0.0002
# 4 -0.0002 -0.0003 -0.0011 19.9048 -0.0002 -2.2125
# 5 -2.5770 -2.9612 -3.8058 -0.0002 33.2595 0.0000
# 6 0.0000 -0.0001 -0.0002 -2.2125 0.0000 22.9159
#
#
#
# Elastic Compliance Matrix: (Units=1/GPa)
#
#
# Indices 1 2 3 4 5 6 
#
# 1 0.010570 -0.002751 -0.002696 0.000000 0.000266 0.000000
# 2 -0.002751 0.017258 -0.004820 0.000000 0.000772 0.000000
# 3 -0.002696 -0.004820 0.015815 0.000001 0.001172 0.000000
# 4 0.000000 0.000000 0.000001 0.050784 0.000000 0.004903
# 5 0.000266 0.000772 0.001172 0.000000 0.030290 0.000000
# 6 0.000000 0.000000 0.000000 0.004903 0.000000 0.044111
#
#
# Mechanical properties :
#
#
# Convention : Reuss Voigt Hill
#
# Bulk Modulus (GPa) = 43.27334 44.95894 44.11614
# Shear Modulus (GPa) = 25.37209 26.97994 26.17601
#
# Velocity S-wave (km/s) = 3.71123 3.82701 3.76956
# Velocity P-wave (km/s) = 6.46956 6.62827 6.54939
#
# Compressibility (1/GPa) = 0.02310891
#
# Stress axis : x y z
#
# Youngs Moduli (GPa) = 94.60332 57.94299 63.23135
#
# Poissons Ratio (x) = 0.15939 0.17050
# Poissons Ratio (y) = 0.26023 0.30479
# Poissons Ratio (z) = 0.25509 0.27930
#
# Static dielectric constant tensor:
#      x y z
#    x 3.628920 0.000000 -0.037170 
#    y 0.000000 3.162150 0.000000 
#    z -0.037170 0.000000 3.355030 
# 
# 
# High freq. dielectric constant tensor:
#      x y z
#    x 1.731770 0.000000 -0.002220 
#    y 0.000000 1.692030 0.000000 
#    z -0.002220 0.000000 1.714100 
# 
# From -- ./inp_files/250877.got.cif
#   From: 2010.06.25/outbox.cif.g09.slc.cpg/sg12_126_cif.got.tgz:250877.got - 2010.06.28 00:19:55.
