data_PCOD8097403
_publ_section_title
;
Structure prediction by ZEFSAII (Michael W. Deem and Ramdas Pophale) SiO2 
 PCOD8097403
Probable space group: C 2/M
;
_chemical_formula_sum "Si O2"
_cell_formula_units_Z 64
_cell_length_a 20.570050
_cell_length_b 9.268729
_cell_length_c 23.062782
_cell_angle_alpha 90.000000
_cell_angle_beta 51.869657
_cell_angle_gamma 90.000000
_cell_volume 3458.801679
_symmetry_space_group_name_H-M "C 2/M"
_symmetry_group_IT_number 12
_symmetry_cell_setting 'monoclinic'
loop_
_space_group_symop_operation_xyz
x,y,z
-x,y,-z
-x,-y,-z
x,-y,z
1/2+x,1/2+y,z
1/2-x,1/2+y,-z
1/2-x,1/2-y,-z
1/2+x,1/2-y,z
loop_
_atom_site_type_symbol
_atom_site_label
_atom_site_fract_x
_atom_site_fract_y
_atom_site_fract_z
Si Si1 0.133439 0.341119 0.682835
Si Si2 0.025884 0.332670 0.154217
Si Si3 0.581427 0.658840 0.490889
Si Si4 0.963292 0.830692 0.082492
Si Si5 0.972186 0.662545 0.370172
Si Si6 0.776761 0.170950 0.195101
Si Si7 0.877852 0.328276 0.789390
Si Si8 0.222070 0.329914 0.351863
O O1 0.170044 0.500000 0.677024
O O2 0.100747 0.340354 0.635993
O O3 0.202445 0.218894 0.649393
O O4 0.061018 0.304856 0.767318
O O5 0.040006 0.500000 0.131370
O O6 0.098084 0.275566 0.158638
O O7 0.024097 0.242917 0.095768
O O8 0.500000 0.636665 0.500000
O O9 0.620652 0.500000 0.481561
O O10 0.559621 0.733922 0.562773
O O11 0.639763 0.756832 0.419659
O O12 0.869462 0.767257 0.135857
O O13 0.963288 0.000000 0.095640
O O14 0.000000 0.793878 0.000000
O O15 0.987924 0.500000 0.385465
O O16 0.055817 0.726481 0.294946
O O17 0.714056 0.224848 0.178612
O O18 0.739829 0.222447 0.276626
O O19 0.781299 0.000000 0.190230
O O20 0.885806 0.500000 0.785275
O O21 0.211372 0.500000 0.361985
#
# Coordination Sequence:
#
# PCOD8097403 Si02
#       8
#     8   8   8   8   8   8   8   8
#     4   9  18  33  53  78 105 133 166 214 271 315
#     4   9  17  32  55  79 104 137 172 213 262 311
#     4  11  24  38  50  70 104 140 171 215 277 323
#     4  10  20  34  53  78 110 143 172 211 262 313
#     4   9  18  34  55  76 100 134 177 219 262 314
#     4   9  17  31  52  79 104 132 177 221 257 307
#     4   8  15  30  54  79 102 133 177 223 261 301
#     4  11  21  33  55  79  99 134 181 222 257 305
#
# _framework density 18.503519000000001
#
# number of rings (size 3 to 8) (size 9 to 14) (size 15 to 20)
#    0.000    2.500    1.250    3.000    0.000    3.250 
#    0.000    2.500    0.000    2.250    0.000    0.000 
#    0.000    0.000    0.000    0.000    0.000    0.000 
#
# Total GULP energy -396661.367245 kJ/mol
# GULP energy per Si atom -12395.667726 kJ/mol
# Density = 1.846140 g / cm^3
# Si number density = 18.503519 Si / 1000 Ang^3
#
#
#
# Elastic Constant Matrix: (Units=GPa)
#
#
# Indices 1 2 3 4 5 6 
#
# 1 108.4263 29.7675 50.7906 0.0001 2.7338 0.0004
# 2 29.7675 65.1723 40.3239 0.0001 8.7929 0.0015
# 3 50.7906 40.3239 95.4272 -0.0001 16.2100 0.0000
# 4 0.0001 0.0001 -0.0001 17.7104 0.0000 2.4657
# 5 2.7338 8.7929 16.2100 0.0000 22.7582 -0.0001
# 6 0.0004 0.0015 0.0000 2.4657 -0.0001 25.3884
#
#
#
# Elastic Compliance Matrix: (Units=1/GPa)
#
#
# Indices 1 2 3 4 5 6 
#
# 1 0.012818 -0.002374 -0.006500 0.000000 0.004007 0.000000
# 2 -0.002374 0.021297 -0.007266 0.000000 -0.002768 -0.000001
# 3 -0.006500 -0.007266 0.018657 0.000000 -0.009701 0.000001
# 4 0.000000 0.000000 0.000000 0.057238 0.000000 -0.005559
# 5 0.004007 -0.002768 -0.009701 0.000000 0.051438 0.000000
# 6 0.000000 -0.000001 0.000001 -0.005559 0.000000 0.039928
#
#
# Mechanical properties :
#
#
# Convention : Reuss Voigt Hill
#
# Bulk Modulus (GPa) = 48.79659 56.75444 52.77551
# Shear Modulus (GPa) = 20.79117 23.04764 21.91940
#
# Velocity S-wave (km/s) = 3.35570 3.53311 3.44555
# Velocity P-wave (km/s) = 6.43763 6.88350 6.66430
#
# Compressibility (1/GPa) = 0.02049324
#
# Stress axis : x y z
#
# Youngs Moduli (GPa) = 78.01289 46.95472 53.59917
#
# Poissons Ratio (x) = 0.11145 0.34841
# Poissons Ratio (y) = 0.18517 0.38944
# Poissons Ratio (z) = 0.50710 0.34116
#
# Static dielectric constant tensor:
#      x y z
#    x 4.169190 0.000000 0.387220 
#    y 0.000000 3.301500 0.000000 
#    z 0.387220 0.000000 3.557130 
# 
# 
# High freq. dielectric constant tensor:
#      x y z
#    x 1.728140 0.000000 0.004330 
#    y 0.000000 1.691620 0.000000 
#    z 0.004330 0.000000 1.703160 
# 
# From -- ./inp_files/346016.got.cif
#   From: 2010.06.25/outbox.cif.g09.slc.cpg/sg12_174_cif.got.tgz:346016.got - 2010.06.28 00:19:55.
