data_PCOD8097321
_publ_section_title
;
Structure prediction by ZEFSAII (Michael W. Deem and Ramdas Pophale) SiO2 
 PCOD8097321
Probable space group: C 2/M
;
_chemical_formula_sum "Si O2"
_cell_formula_units_Z 44
_cell_length_a 21.720174
_cell_length_b 9.887075
_cell_length_c 27.355333
_cell_angle_alpha 90.000000
_cell_angle_beta 156.766297
_cell_angle_gamma 90.000000
_cell_volume 2317.399343
_symmetry_space_group_name_H-M "C 2/M"
_symmetry_group_IT_number 12
_symmetry_cell_setting 'monoclinic'
loop_
_space_group_symop_operation_xyz
x,y,z
-x,y,-z
-x,-y,-z
x,-y,z
1/2+x,1/2+y,z
1/2-x,1/2+y,-z
1/2-x,1/2-y,-z
1/2+x,1/2-y,z
loop_
_atom_site_type_symbol
_atom_site_label
_atom_site_fract_x
_atom_site_fract_y
_atom_site_fract_z
Si Si1 0.158981 0.345707 0.258996
Si Si2 0.500000 0.253496 0.500000
Si Si3 0.610112 0.656283 0.763713
Si Si4 0.536469 0.842774 0.973960
Si Si5 0.126164 0.844022 0.324626
Si Si6 0.980713 0.650132 0.591553
O O1 0.105775 0.500000 0.230305
O O2 0.345936 0.345724 0.389933
O O3 0.097600 0.251835 0.257714
O O4 0.076995 0.284168 0.150671
O O5 0.508390 0.159429 0.553757
O O6 0.584305 0.500000 0.730795
O O7 0.492832 0.703120 0.720350
O O8 0.583226 0.740654 0.694842
O O9 0.784421 0.682940 0.910182
O O10 0.496906 0.000000 0.949493
O O11 0.500000 0.773908 0.000000
O O12 0.299644 0.824184 0.472084
O O13 0.097198 0.000000 0.288060
O O14 0.030315 0.500000 0.644577
#
# Coordination Sequence:
#
# PCOD8097321 Si02
#       6
#     8   4   8   8   8   8
#     4  10  20  34  55  80 103 133 176 217 251 301
#     4  10  20  34  54  78 106 136 168 210 264 310
#     4  10  20  35  55  76 103 140 175 209 255 308
#     4   9  18  33  52  76 105 134 168 213 260 302
#     4   9  20  36  52  75 107 139 169 210 264 308
#     4  10  20  34  53  77 106 137 171 213 258 304
#
# _framework density 18.986802000000001
#
# number of rings (size 3 to 8) (size 9 to 14) (size 15 to 20)
#    0.000    2.364    0.000    2.182    0.000    7.273 
#    0.000    0.909    0.000    2.182    0.000    0.000 
#    0.000    0.000    0.000    0.000    0.000    0.000 
#
# Total GULP energy -272811.743397 kJ/mol
# GULP energy per Si atom -12400.533791 kJ/mol
# Density = 1.894359 g / cm^3
# Si number density = 18.986802 Si / 1000 Ang^3
#
#
#
# Elastic Constant Matrix: (Units=GPa)
#
#
# Indices 1 2 3 4 5 6 
#
# 1 108.6448 38.4170 50.2388 0.0138 -5.4220 0.0026
# 2 38.4170 71.3414 36.5306 -0.0006 -14.8366 0.0006
# 3 50.2388 36.5306 93.6234 -0.0049 -18.8208 -0.0001
# 4 0.0138 -0.0006 -0.0049 20.0654 0.0005 -5.9017
# 5 -5.4220 -14.8366 -18.8208 0.0005 32.6102 0.0002
# 6 0.0026 0.0006 -0.0001 -5.9017 0.0002 26.8032
#
#
#
# Elastic Compliance Matrix: (Units=1/GPa)
#
#
# Indices 1 2 3 4 5 6 
#
# 1 0.013578 -0.004932 -0.006062 -0.000012 -0.003485 -0.000004
# 2 -0.004932 0.019927 -0.003927 0.000003 0.005980 0.000001
# 3 -0.006062 -0.003927 0.016860 0.000009 0.006937 0.000003
# 4 -0.000012 0.000003 0.000009 0.053288 0.000004 0.011733
# 5 -0.003485 0.005980 0.006937 0.000004 0.036810 0.000001
# 6 -0.000004 0.000001 0.000003 0.011733 0.000001 0.039892
#
#
# Mechanical properties :
#
#
# Convention : Reuss Voigt Hill
#
# Bulk Modulus (GPa) = 48.72353 58.22028 53.47190
# Shear Modulus (GPa) = 23.03742 25.79065 24.41404
#
# Velocity S-wave (km/s) = 3.48708 3.68957 3.58975
# Velocity P-wave (km/s) = 6.47537 6.99148 6.73837
#
# Compressibility (1/GPa) = 0.02052397
#
# Stress axis : x y z
#
# Youngs Moduli (GPa) = 73.65123 50.18228 59.31040
#
# Poissons Ratio (x) = 0.24751 0.35953
# Poissons Ratio (y) = 0.36326 0.23289
# Poissons Ratio (z) = 0.44646 0.19705
#
# Static dielectric constant tensor:
#      x y z
#    x 3.531290 0.000000 0.023270 
#    y 0.000000 3.226870 -0.000010 
#    z 0.023270 -0.000010 3.513050 
# 
# 
# High freq. dielectric constant tensor:
#      x y z
#    x 1.743120 0.000000 0.003660 
#    y 0.000000 1.715250 0.000000 
#    z 0.003660 0.000000 1.737790 
# 
# From -- ./inp_files/163231.got.cif
#   From: 2010.06.25/outbox.cif.g09.slc.cpg/sg12_82_cif.got.tgz:163231.got - 2010.06.28 00:19:55.
