data_PCOD8097643
_publ_section_title
;
Structure prediction by ZEFSAII (Michael W. Deem and Ramdas Pophale) SiO2 
 PCOD8097643
Probable space group: C 2/M
;
_chemical_formula_sum "Si O2"
_cell_formula_units_Z 48
_cell_length_a 18.225357
_cell_length_b 9.127573
_cell_length_c 15.427006
_cell_angle_alpha 90.000000
_cell_angle_beta 90.033676
_cell_angle_gamma 90.000000
_cell_volume 2566.332551
_symmetry_space_group_name_H-M "C 2/M"
_symmetry_group_IT_number 12
_symmetry_cell_setting 'monoclinic'
loop_
_space_group_symop_operation_xyz
x,y,z
-x,y,-z
-x,-y,-z
x,-y,z
1/2+x,1/2+y,z
1/2-x,1/2+y,-z
1/2-x,1/2-y,-z
1/2+x,1/2-y,z
loop_
_atom_site_type_symbol
_atom_site_label
_atom_site_fract_x
_atom_site_fract_y
_atom_site_fract_z
Si Si1 0.041356 0.668629 0.916522
Si Si2 0.213240 0.330548 0.920399
Si Si3 0.204175 0.672963 0.425515
Si Si4 0.711084 0.671059 0.747631
Si Si5 0.456671 0.671139 0.254604
Si Si6 0.051436 0.169459 0.418238
O O1 0.020375 0.500000 0.904001
O O2 0.127009 0.692952 0.930383
O O3 0.013054 0.751105 0.831280
O O4 0.000000 0.734486 0.000000
O O5 0.235773 0.500000 0.921112
O O6 0.240740 0.260230 0.830390
O O7 0.250000 0.250000 0.000000
O O8 0.206500 0.500000 0.441180
O O9 0.250000 0.750000 0.500000
O O10 0.239224 0.715461 0.333466
O O11 0.121463 0.728474 0.428116
O O12 0.717102 0.500000 0.769554
O O13 0.627366 0.715885 0.725691
O O14 0.462996 0.500000 0.238983
O O15 0.506468 0.721993 0.334389
O O16 0.000000 0.194083 0.500000
O O17 0.075878 0.000000 0.411296
#
# Coordination Sequence:
#
# PCOD8097643 Si02
#       6
#     8   8   8   8   8   8
#     4   9  19  35  53  74 103 138 174 215 264 313
#     4  10  20  34  54  79 107 141 179 221 268 320
#     4  11  23  38  58  83 111 144 183 227 275 328
#     4   9  19  37  57  77 105 142 181 222 270 321
#     4   9  18  34  56  78 102 137 178 218 263 315
#     4  10  21  38  58  81 112 146 179 219 270 327
#
# _framework density 18.703735000000002
#
# number of rings (size 3 to 8) (size 9 to 14) (size 15 to 20)
#    0.000    2.333    0.000    2.000    0.000    7.333 
#    0.000    8.333    0.000    0.000    0.000    0.000 
#    0.000    0.000    0.000    0.000    0.000    0.000 
#
# Total GULP energy -297682.236695 kJ/mol
# GULP energy per Si atom -12403.426529 kJ/mol
# Density = 1.866116 g / cm^3
# Si number density = 18.703735 Si / 1000 Ang^3
#
#
#
# Elastic Constant Matrix: (Units=GPa)
#
#
# Indices 1 2 3 4 5 6 
#
# 1 78.9920 45.7268 69.3018 0.0000 5.1516 0.0000
# 2 45.7268 78.7928 75.6979 0.0000 7.6288 0.0000
# 3 69.3018 75.6979 177.2530 0.0000 10.1521 0.0000
# 4 0.0000 0.0000 0.0000 15.1747 0.0000 7.5295
# 5 5.1516 7.6288 10.1521 0.0000 37.5160 0.0000
# 6 0.0000 0.0000 0.0000 7.5295 0.0000 29.1302
#
#
#
# Elastic Compliance Matrix: (Units=1/GPa)
#
#
# Indices 1 2 3 4 5 6 
#
# 1 0.021600 -0.007497 -0.005242 0.000000 -0.000023 0.000000
# 2 -0.007497 0.024260 -0.007319 0.000000 -0.001923 0.000000
# 3 -0.005242 -0.007319 0.010859 0.000000 -0.000730 0.000000
# 4 0.000000 0.000000 0.000000 0.075595 0.000000 -0.019540
# 5 -0.000023 -0.001923 -0.000730 0.000000 0.027247 0.000000
# 6 0.000000 0.000000 0.000000 -0.019540 0.000000 0.039379
#
#
# Mechanical properties :
#
#
# Convention : Reuss Voigt Hill
#
# Bulk Modulus (GPa) = 60.23266 79.61010 69.92138
# Shear Modulus (GPa) = 20.44229 25.98492 23.21360
#
# Velocity S-wave (km/s) = 3.30957 3.73136 3.52678
# Velocity P-wave (km/s) = 6.84674 7.82434 7.35180
#
# Compressibility (1/GPa) = 0.01660229
#
# Stress axis : x y z
#
# Youngs Moduli (GPa) = 46.29669 41.21941 92.09080
#
# Poissons Ratio (x) = 0.30902 0.48275
# Poissons Ratio (y) = 0.34708 0.67405
# Poissons Ratio (z) = 0.24269 0.30170
#
# Static dielectric constant tensor:
#      x y z
#    x 3.306300 0.000000 -0.009350 
#    y 0.000000 3.423050 0.000000 
#    z -0.009350 0.000000 3.644440 
# 
# 
# High freq. dielectric constant tensor:
#      x y z
#    x 1.721880 0.000000 0.000170 
#    y 0.000000 1.724560 0.000000 
#    z 0.000170 0.000000 1.742360 
# 
# From -- ./inp_files/221533.got.cif
#   From: 2010.06.25/outbox.cif.g09.slc.cpg/sg12_111_cif.got.tgz:221533.got - 2010.06.28 00:19:55.
