data_PCOD8097443
_publ_section_title
;
Structure prediction by ZEFSAII (Michael W. Deem and Ramdas Pophale) SiO2 
 PCOD8097443
Probable space group: C 2/M
;
_chemical_formula_sum "Si O2"
_cell_formula_units_Z 64
_cell_length_a 19.654791
_cell_length_b 9.036632
_cell_length_c 18.732809
_cell_angle_alpha 90.000000
_cell_angle_beta 88.478788
_cell_angle_gamma 90.000000
_cell_volume 3326.019909
_symmetry_space_group_name_H-M "C 2/M"
_symmetry_group_IT_number 12
_symmetry_cell_setting 'monoclinic'
loop_
_space_group_symop_operation_xyz
x,y,z
-x,y,-z
-x,-y,-z
x,-y,z
1/2+x,1/2+y,z
1/2-x,1/2+y,-z
1/2-x,1/2-y,-z
1/2+x,1/2-y,z
loop_
_atom_site_type_symbol
_atom_site_label
_atom_site_fract_x
_atom_site_fract_y
_atom_site_fract_z
Si Si1 0.617147 0.323583 0.684597
Si Si2 0.513792 0.825767 0.788324
Si Si3 0.753695 0.324440 0.268143
Si Si4 0.976040 0.833153 0.920533
Si Si5 0.788643 0.665892 0.108546
Si Si6 0.157465 0.834261 0.015051
Si Si7 0.401552 0.325667 0.701812
Si Si8 0.495920 0.674050 0.421485
O O1 0.620013 0.500000 0.692084
O O2 0.579473 0.252480 0.753084
O O3 0.693451 0.256807 0.679853
O O4 0.573566 0.274386 0.616069
O O5 0.517179 0.783255 0.871283
O O6 0.442477 0.762340 0.761011
O O7 0.518604 0.000000 0.775615
O O8 0.762554 0.500000 0.274573
O O9 0.768433 0.268599 0.186632
O O10 0.677520 0.277839 0.294237
O O11 0.898170 0.774539 0.927322
O O12 0.981156 0.000000 0.888318
O O13 0.000000 0.827811 0.000000
O O14 0.815240 0.500000 0.119463
O O15 0.726663 0.673382 0.055886
O O16 0.845339 0.755565 0.062866
O O17 0.137036 0.000000 0.994816
O O18 0.409289 0.500000 0.717105
O O19 0.436319 0.282634 0.625049
O O20 0.500000 0.748648 0.500000
O O21 0.492731 0.500000 0.430076
#
# Coordination Sequence:
#
# PCOD8097443 Si02
#       8
#     8   8   8   8   8   8   8   8
#     4  10  21  36  56  81 111 146 183 224 273 329
#     4  11  22  36  55  78 107 141 183 233 277 327
#     4  10  20  34  53  79 111 144 180 224 274 324
#     4  10  21  35  51  71  98 134 178 225 275 328
#     4   9  18  31  48  67  94 131 168 213 264 317
#     4   9  18  33  49  68  93 126 172 218 264 320
#     4   9  18  35  59  83 110 146 183 220 267 325
#     4   8  15  32  59  86 109 142 187 225 260 314
#
# _framework density 19.242218000000001
#
# number of rings (size 3 to 8) (size 9 to 14) (size 15 to 20)
#    0.000    2.500    0.000    3.000    1.750    3.750 
#    0.000    3.125    0.000    9.375    0.000    0.000 
#    0.000    0.000    0.000    0.000    0.000    0.000 
#
# Total GULP energy -396549.022654 kJ/mol
# GULP energy per Si atom -12392.156958 kJ/mol
# Density = 1.919842 g / cm^3
# Si number density = 19.242218 Si / 1000 Ang^3
#
#
#
# Elastic Constant Matrix: (Units=GPa)
#
#
# Indices 1 2 3 4 5 6 
#
# 1 104.6342 33.5330 32.4847 0.0000 3.3580 0.0000
# 2 33.5330 56.0378 22.2847 0.0000 0.3476 0.0000
# 3 32.4847 22.2847 100.4933 0.0000 -7.6377 0.0000
# 4 0.0000 0.0000 0.0000 13.2268 0.0000 6.3969
# 5 3.3580 0.3476 -7.6377 0.0000 8.7961 0.0000
# 6 0.0000 0.0000 0.0000 6.3969 0.0000 17.1628
#
#
#
# Elastic Compliance Matrix: (Units=1/GPa)
#
#
# Indices 1 2 3 4 5 6 
#
# 1 0.012860 -0.006325 -0.003328 0.000000 -0.007549 0.000000
# 2 -0.006325 0.022878 -0.003120 0.000000 -0.001198 0.000000
# 3 -0.003328 -0.003120 0.012660 0.000000 0.012387 0.000000
# 4 0.000000 0.000000 0.000000 0.092229 0.000000 -0.034375
# 5 -0.007549 -0.001198 0.012387 0.000000 0.127372 0.000000
# 6 0.000000 0.000000 0.000000 -0.034375 0.000000 0.071078
#
#
# Mechanical properties :
#
#
# Convention : Reuss Voigt Hill
#
# Bulk Modulus (GPa) = 43.75984 48.64114 46.20049
# Shear Modulus (GPa) = 13.43223 19.36133 16.39678
#
# Velocity S-wave (km/s) = 2.64495 3.17549 2.92229
# Velocity P-wave (km/s) = 5.66733 6.22722 5.95386
#
# Compressibility (1/GPa) = 0.02285200
#
# Stress axis : x y z
#
# Youngs Moduli (GPa) = 77.76290 43.71015 78.98924
#
# Poissons Ratio (x) = 0.27646 0.26288
# Poissons Ratio (y) = 0.49184 0.24643
# Poissons Ratio (z) = 0.25880 0.13637
#
# Static dielectric constant tensor:
#      x y z
#    x 4.350750 0.000000 -0.428020 
#    y 0.000000 3.419400 0.000000 
#    z -0.428020 0.000000 3.858050 
# 
# 
# High freq. dielectric constant tensor:
#      x y z
#    x 1.758070 0.000000 -0.000160 
#    y 0.000000 1.723430 0.000000 
#    z -0.000160 0.000000 1.736000 
# 
# From -- ./inp_files/281220.got.cif
#   From: 2010.06.25/outbox.cif.g09.slc.cpg/sg12_141_cif.got.tgz:281220.got - 2010.06.28 00:19:55.
