data_PCOD8097828
_publ_section_title
;
Structure prediction by ZEFSAII (Michael W. Deem and Ramdas Pophale) SiO2 
 PCOD8097828
Probable space group: C 2/M
;
_chemical_formula_sum "Si O2"
_cell_formula_units_Z 64
_cell_length_a 14.507973
_cell_length_b 8.842713
_cell_length_c 29.232654
_cell_angle_alpha 90.000000
_cell_angle_beta 61.078917
_cell_angle_gamma 90.000000
_cell_volume 3282.545934
_symmetry_space_group_name_H-M "C 2/M"
_symmetry_group_IT_number 12
_symmetry_cell_setting 'monoclinic'
loop_
_space_group_symop_operation_xyz
x,y,z
-x,y,-z
-x,-y,-z
x,-y,z
1/2+x,1/2+y,z
1/2-x,1/2+y,-z
1/2-x,1/2-y,-z
1/2+x,1/2-y,z
loop_
_atom_site_type_symbol
_atom_site_label
_atom_site_fract_x
_atom_site_fract_y
_atom_site_fract_z
Si Si1 0.844446 0.821964 0.504922
Si Si2 0.451699 0.823430 0.785724
Si Si3 0.978003 0.177801 0.141437
Si Si4 0.064186 0.174398 0.676736
Si Si5 0.220069 0.821765 0.870440
Si Si6 0.010487 0.328122 0.596854
Si Si7 0.703400 0.830895 0.392008
Si Si8 0.209783 0.178200 0.055907
O O1 0.750000 0.750000 0.500000
O O2 0.825597 0.790545 0.562612
O O3 0.949686 0.741292 0.460851
O O4 0.852980 0.000000 0.494825
O O5 0.523437 0.747182 0.807510
O O6 0.490443 0.772609 0.726904
O O7 0.328767 0.778160 0.818974
O O8 0.466746 0.000000 0.787501
O O9 0.878911 0.238553 0.135625
O O10 0.087246 0.224279 0.090864
O O11 0.968362 0.000000 0.149828
O O12 0.050449 0.223843 0.627902
O O13 0.186351 0.204949 0.659357
O O14 0.032824 0.000000 0.689975
O O15 0.218991 0.741423 0.919905
O O16 0.210439 0.000000 0.881021
O O17 0.052329 0.500000 0.592852
O O18 0.884006 0.324594 0.626620
O O19 0.707711 0.000000 0.412929
O O20 0.224010 0.000000 0.050586
O O21 0.250000 0.250000 0.000000
#
# Coordination Sequence:
#
# PCOD8097828 Si02
#       8
#     8   8   8   8   8   8   8   8
#     4  12  23  37  60  86 114 148 184 226 276 333
#     4  10  21  37  58  83 111 142 182 236 286 329
#     4   9  19  37  59  81 108 148 193 230 274 335
#     4  11  23  40  60  82 113 150 186 228 277 338
#     4   9  19  37  59  81 109 148 191 233 279 331
#     4  11  23  40  61  85 113 146 184 230 279 334
#     4  10  23  41  60  83 113 148 185 226 278 335
#     4  10  20  34  54  82 117 152 188 232 277 328
#
# _framework density 19.497063000000001
#
# number of rings (size 3 to 8) (size 9 to 14) (size 15 to 20)
#    0.000    1.750    1.250    3.000    0.000    6.000 
#    0.000    7.500    0.000    0.000    0.000    0.000 
#    0.000    0.000    0.000    0.000    0.000    0.000 
#
# Total GULP energy -396875.239466 kJ/mol
# GULP energy per Si atom -12402.351233 kJ/mol
# Density = 1.945269 g / cm^3
# Si number density = 19.497063 Si / 1000 Ang^3
#
#
#
# Elastic Constant Matrix: (Units=GPa)
#
#
# Indices 1 2 3 4 5 6 
#
# 1 111.0935 33.0730 19.2761 0.0000 -5.0829 0.0000
# 2 33.0730 50.0006 23.3921 0.0000 -1.9944 0.0000
# 3 19.2761 23.3921 86.4709 0.0000 -3.5257 0.0000
# 4 0.0000 0.0000 0.0000 38.1951 0.0000 4.1364
# 5 -5.0829 -1.9944 -3.5257 0.0000 19.3259 0.0000
# 6 0.0000 0.0000 0.0000 4.1364 0.0000 27.4248
#
#
#
# Elastic Compliance Matrix: (Units=1/GPa)
#
#
# Indices 1 2 3 4 5 6 
#
# 1 0.011320 -0.007170 -0.000496 0.000000 0.002147 0.000000
# 2 -0.007170 0.027469 -0.005837 0.000000 -0.000116 0.000000
# 3 -0.000496 -0.005837 0.013324 0.000000 0.001698 0.000000
# 4 0.000000 0.000000 0.000000 0.026616 0.000000 -0.004014
# 5 0.002147 -0.000116 0.001698 0.000000 0.052606 0.000000
# 6 0.000000 0.000000 0.000000 -0.004014 0.000000 0.037069
#
#
# Mechanical properties :
#
#
# Convention : Reuss Voigt Hill
#
# Bulk Modulus (GPa) = 39.83217 44.33859 42.08538
# Shear Modulus (GPa) = 24.53633 28.44407 26.49020
#
# Velocity S-wave (km/s) = 3.55133 3.82369 3.69002
# Velocity P-wave (km/s) = 6.10656 6.50266 6.30772
#
# Compressibility (1/GPa) = 0.02510534
#
# Stress axis : x y z
#
# Youngs Moduli (GPa) = 88.33674 36.40518 75.05514
#
# Poissons Ratio (x) = 0.26103 0.03725
# Poissons Ratio (y) = 0.63337 0.43811
# Poissons Ratio (z) = 0.04385 0.21250
#
# Static dielectric constant tensor:
#      x y z
#    x 3.748850 0.000000 -0.144740 
#    y 0.000000 3.581600 0.000000 
#    z -0.144740 0.000000 3.526940 
# 
# 
# High freq. dielectric constant tensor:
#      x y z
#    x 1.766660 0.000000 -0.005800 
#    y 0.000000 1.764620 0.000000 
#    z -0.005800 0.000000 1.750420 
# 
# From -- ./inp_files/375034.got.cif
#   From: 2010.06.25/outbox.cif.g09.slc.cpg/sg12_188_cif.got.tgz:375034.got - 2010.06.28 00:19:55.
