data_PCOD8097930
_publ_section_title
;
Structure prediction by ZEFSAII (Michael W. Deem and Ramdas Pophale) SiO2 
 PCOD8097930
Probable space group: C 2/M
;
_chemical_formula_sum "Si O2"
_cell_formula_units_Z 40
_cell_length_a 25.055641
_cell_length_b 9.293575
_cell_length_c 15.524093
_cell_angle_alpha 90.000000
_cell_angle_beta 35.273020
_cell_angle_gamma 90.000000
_cell_volume 2087.499753
_symmetry_space_group_name_H-M "C 2/M"
_symmetry_group_IT_number 12
_symmetry_cell_setting 'monoclinic'
loop_
_space_group_symop_operation_xyz
x,y,z
-x,y,-z
-x,-y,-z
x,-y,z
1/2+x,1/2+y,z
1/2-x,1/2+y,-z
1/2-x,1/2-y,-z
1/2+x,1/2-y,z
loop_
_atom_site_type_symbol
_atom_site_label
_atom_site_fract_x
_atom_site_fract_y
_atom_site_fract_z
Si Si1 0.590943 0.332589 0.831621
Si Si2 0.078843 0.667817 0.673361
Si Si3 0.716193 0.166048 0.339842
Si Si4 0.385281 0.166987 0.849532
Si Si5 0.302139 0.332185 0.807395
O O1 0.581596 0.500000 0.821699
O O2 0.606080 0.250638 0.723102
O O3 0.677267 0.301721 0.779748
O O4 0.500000 0.274698 0.000000
O O5 0.079127 0.500000 0.694622
O O6 0.154711 0.707841 0.502609
O O7 0.978508 0.717895 0.772953
O O8 0.683143 0.264430 0.305259
O O9 0.701431 0.000000 0.333562
O O10 0.374101 0.259281 0.777834
O O11 0.389279 0.000000 0.817679
O O12 0.302132 0.198637 0.024687
O O13 0.324664 0.500000 0.773413
#
# Coordination Sequence:
#
# PCOD8097930 Si02
#       5
#     8   8   8   8   8
#     4  10  21  36  55  79 106 137 172 212 260 308
#     4  10  21  36  55  78 104 138 176 212 255 307
#     4  10  21  36  53  76 108 141 171 209 260 311
#     4   9  19  36  55  76 104 137 174 215 258 305
#     4  10  20  34  55  80 103 134 176 217 257 303
#
# _framework density 19.161678999999999
#
# number of rings (size 3 to 8) (size 9 to 14) (size 15 to 20)
#    0.000    2.200    0.000    2.400    0.000    4.400 
#    0.000    4.000    0.000    0.000    0.000    0.000 
#    0.000    0.000    0.000    0.000    0.000    0.000 
#
# Total GULP energy -248115.390895 kJ/mol
# GULP energy per Si atom -12405.769545 kJ/mol
# Density = 1.911807 g / cm^3
# Si number density = 19.161679 Si / 1000 Ang^3
#
#
#
# Elastic Constant Matrix: (Units=GPa)
#
#
# Indices 1 2 3 4 5 6 
#
# 1 61.7855 38.7071 13.7642 0.0008 26.0425 -0.0003
# 2 38.7071 66.3175 23.0556 0.0018 22.7778 -0.0004
# 3 13.7642 23.0556 57.9826 -0.0001 13.7729 0.0002
# 4 0.0008 0.0018 -0.0001 27.1885 -0.0007 10.1290
# 5 26.0425 22.7778 13.7729 -0.0007 34.1625 0.0002
# 6 -0.0003 -0.0004 0.0002 10.1290 0.0002 35.2382
#
#
#
# Elastic Compliance Matrix: (Units=1/GPa)
#
#
# Indices 1 2 3 4 5 6 
#
# 1 0.030402 -0.013119 0.001578 -0.000001 -0.015065 0.000000
# 2 -0.013119 0.026731 -0.006256 -0.000002 -0.005300 0.000001
# 3 0.001578 -0.006256 0.020630 0.000000 -0.005349 0.000000
# 4 -0.000001 -0.000002 0.000000 0.041191 0.000002 -0.011840
# 5 -0.015065 -0.005300 -0.005349 0.000002 0.046447 -0.000001
# 6 0.000000 0.000001 0.000000 -0.011840 -0.000001 0.031782
#
#
# Mechanical properties :
#
#
# Convention : Reuss Voigt Hill
#
# Bulk Modulus (GPa) = 23.71366 37.45992 30.58679
# Shear Modulus (GPa) = 20.25657 26.68841 23.47249
#
# Velocity S-wave (km/s) = 3.25490 3.73607 3.50375
# Velocity P-wave (km/s) = 5.15056 6.18084 5.68907
#
# Compressibility (1/GPa) = 0.04216979
#
# Stress axis : x y z
#
# Youngs Moduli (GPa) = 32.89253 37.40923 48.47286
#
# Poissons Ratio (x) = 0.49077 -0.07649
# Poissons Ratio (y) = 0.43151 0.30325
# Poissons Ratio (z) = -0.05190 0.23403
#
# Static dielectric constant tensor:
#      x y z
#    x 3.448050 0.000000 -0.124830 
#    y 0.000000 3.419140 0.000000 
#    z -0.124830 0.000000 3.532540 
# 
# 
# High freq. dielectric constant tensor:
#      x y z
#    x 1.752230 0.000000 -0.002040 
#    y 0.000000 1.740090 0.000000 
#    z -0.002040 0.000000 1.749550 
# 
# From -- ./inp_files/211451.got.cif
#   From: 2010.06.25/outbox.cif.g09.slc.cpg/sg12_106_cif.got.tgz:211451.got - 2010.06.28 00:19:55.
