data_PCOD8097943
_publ_section_title
;
Structure prediction by ZEFSAII (Michael W. Deem and Ramdas Pophale) SiO2 
 PCOD8097943
Probable space group: C 2/M
;
_chemical_formula_sum "Si O2"
_cell_formula_units_Z 56
_cell_length_a 31.549106
_cell_length_b 9.135623
_cell_length_c 12.654714
_cell_angle_alpha 90.000000
_cell_angle_beta 54.491153
_cell_angle_gamma 90.000000
_cell_volume 2969.037982
_symmetry_space_group_name_H-M "C 2/M"
_symmetry_group_IT_number 12
_symmetry_cell_setting 'monoclinic'
loop_
_space_group_symop_operation_xyz
x,y,z
-x,y,-z
-x,-y,-z
x,-y,z
1/2+x,1/2+y,z
1/2-x,1/2+y,-z
1/2-x,1/2-y,-z
1/2+x,1/2-y,z
loop_
_atom_site_type_symbol
_atom_site_label
_atom_site_fract_x
_atom_site_fract_y
_atom_site_fract_z
Si Si1 0.890376 0.329762 0.288888
Si Si2 0.504512 0.167461 0.184480
Si Si3 0.520909 0.329135 0.579442
Si Si4 0.884777 0.331863 0.059829
Si Si5 0.818109 0.169017 0.985090
Si Si6 0.802430 0.669645 0.798725
Si Si7 0.361970 0.671967 0.532790
O O1 0.883277 0.500000 0.327280
O O2 0.951378 0.284846 0.203072
O O3 0.868595 0.295380 0.203612
O O4 0.857651 0.234450 0.420044
O O5 0.512911 0.258624 0.278877
O O6 0.500959 0.000000 0.224154
O O7 0.553305 0.195824 0.037639
O O8 0.500000 0.263751 0.500000
O O9 0.510662 0.500000 0.600463
O O10 0.581504 0.289968 0.502504
O O11 0.871232 0.500000 0.051547
O O12 0.854360 0.226063 0.025984
O O13 0.759106 0.192040 0.106193
O O14 0.830890 0.000000 0.944620
O O15 0.829962 0.257040 0.860386
O O16 0.818379 0.500000 0.772446
O O17 0.819793 0.749177 0.666772
O O18 0.350442 0.500000 0.547235
#
# Coordination Sequence:
#
# PCOD8097943 Si02
#       7
#     8   8   8   8   8   8   8
#     4   9  18  35  55  77 110 148 183 220 262 313
#     4   9  18  32  51  77 106 142 183 219 259 307
#     4   9  19  33  47  71 108 143 174 213 262 317
#     4  10  20  34  55  82 110 142 182 225 267 313
#     4  10  22  38  57  82 109 138 174 221 272 322
#     4  10  21  39  60  80 106 139 177 219 270 327
#     4  10  20  34  55  80 107 142 180 219 269 319
#
# _framework density 18.861329000000001
#
# number of rings (size 3 to 8) (size 9 to 14) (size 15 to 20)
#    0.000    2.429    0.000    1.714    2.000    5.429 
#    0.000    0.714    0.000    4.286    0.000    0.000 
#    0.000    0.000    0.000    0.000    0.000    0.000 
#
# Total GULP energy -347260.134542 kJ/mol
# GULP energy per Si atom -12402.147662 kJ/mol
# Density = 1.881840 g / cm^3
# Si number density = 18.861329 Si / 1000 Ang^3
#
#
#
# Elastic Constant Matrix: (Units=GPa)
#
#
# Indices 1 2 3 4 5 6 
#
# 1 56.3516 30.0786 25.6095 0.0000 15.2587 0.0000
# 2 30.0786 87.6209 56.4528 0.0000 3.4018 0.0000
# 3 25.6095 56.4528 114.0333 0.0000 13.6215 0.0000
# 4 0.0000 0.0000 0.0000 28.2169 0.0000 3.3334
# 5 15.2587 3.4018 13.6215 0.0000 20.0230 0.0000
# 6 0.0000 0.0000 0.0000 3.3334 0.0000 28.0878
#
#
#
# Elastic Compliance Matrix: (Units=1/GPa)
#
#
# Indices 1 2 3 4 5 6 
#
# 1 0.027782 -0.009227 0.000729 0.000000 -0.020100 0.000000
# 2 -0.009227 0.019994 -0.008991 0.000000 0.009751 0.000000
# 3 0.000729 -0.008991 0.014085 0.000000 -0.008610 0.000000
# 4 0.000000 0.000000 0.000000 0.035944 0.000000 -0.004266
# 5 -0.020100 0.009751 -0.008610 0.000000 0.069461 0.000000
# 6 0.000000 0.000000 0.000000 -0.004266 0.000000 0.036109
#
#
# Mechanical properties :
#
#
# Convention : Reuss Voigt Hill
#
# Bulk Modulus (GPa) = 37.19552 53.58750 45.39151
# Shear Modulus (GPa) = 20.21737 24.98985 22.60361
#
# Velocity S-wave (km/s) = 3.27753 3.64390 3.46556
# Velocity P-wave (km/s) = 5.83835 6.79537 6.33495
#
# Compressibility (1/GPa) = 0.02688496
#
# Stress axis : x y z
#
# Youngs Moduli (GPa) = 35.99504 50.01434 70.99699
#
# Poissons Ratio (x) = 0.46146 -0.05179
# Poissons Ratio (y) = 0.33211 0.63833
# Poissons Ratio (z) = -0.02626 0.44968
#
# Static dielectric constant tensor:
#      x y z
#    x 3.318450 0.000000 0.111920 
#    y 0.000000 3.458980 0.000000 
#    z 0.111920 0.000000 3.509340 
# 
# 
# High freq. dielectric constant tensor:
#      x y z
#    x 1.716510 0.000000 0.009720 
#    y 0.000000 1.733260 0.000000 
#    z 0.009720 0.000000 1.737730 
# 
# From -- ./inp_files/187269.got.cif
#   From: 2010.06.25/outbox.cif.g09.slc.cpg/sg12_94_cif.got.tgz:187269.got - 2010.06.28 00:19:55.
