data_PCOD8097622
_publ_section_title
;
Structure prediction by ZEFSAII (Michael W. Deem and Ramdas Pophale) SiO2 
 PCOD8097622
Probable space group: C 2/M
;
_chemical_formula_sum "Si O2"
_cell_formula_units_Z 64
_cell_length_a 17.129891
_cell_length_b 11.245232
_cell_length_c 29.407461
_cell_angle_alpha 90.000000
_cell_angle_beta 144.935328
_cell_angle_gamma 90.000000
_cell_volume 3254.401235
_symmetry_space_group_name_H-M "C 2/M"
_symmetry_group_IT_number 12
_symmetry_cell_setting 'monoclinic'
loop_
_space_group_symop_operation_xyz
x,y,z
-x,y,-z
-x,-y,-z
x,-y,z
1/2+x,1/2+y,z
1/2-x,1/2+y,-z
1/2-x,1/2-y,-z
1/2+x,1/2-y,z
loop_
_atom_site_type_symbol
_atom_site_label
_atom_site_fract_x
_atom_site_fract_y
_atom_site_fract_z
Si Si1 0.916287 0.636078 0.505875
Si Si2 0.784416 0.641412 0.598667
Si Si3 0.819931 0.745606 0.805425
Si Si4 0.099358 0.368395 0.248380
Si Si5 0.355404 0.134404 0.913468
Si Si6 0.690212 0.211876 0.899800
Si Si7 0.586571 0.629900 0.932138
Si Si8 0.043353 0.633170 0.661555
O O1 0.848931 0.500000 0.476238
O O2 0.820669 0.753067 0.463764
O O3 0.020651 0.649319 0.597103
O O4 0.000000 0.646722 0.500000
O O5 0.734784 0.500000 0.570435
O O6 0.830201 0.670234 0.671459
O O7 0.906512 0.666008 0.622551
O O8 0.845838 0.712986 0.765656
O O9 0.844305 0.640151 0.853356
O O10 0.665594 0.785907 0.737279
O O11 0.930377 0.845564 0.871638
O O12 0.144291 0.500000 0.256746
O O13 0.936282 0.366603 0.177362
O O14 0.233841 0.207198 0.878417
O O15 0.338360 0.000000 0.921562
O O16 0.500000 0.183528 0.000000
O O17 0.637691 0.283179 0.918004
O O18 0.818998 0.135552 0.977867
O O19 0.595806 0.500000 0.915352
O O20 0.087346 0.500000 0.694248
#
# Coordination Sequence:
#
# PCOD8097622 Si02
#       8
#     8   8   8   8   8   8   8   8
#     4  10  21  39  63  92 122 157 194 236 291 350
#     4  10  21  39  61  88 120 159 197 238 292 348
#     4  11  21  37  57  83 112 146 191 235 285 342
#     4  10  21  37  58  81 113 151 191 240 293 344
#     4  11  22  37  54  75 107 145 185 234 290 343
#     4  10  20  36  54  78 104 143 188 232 284 339
#     4  10  20  34  54  79 105 138 185 234 279 333
#     4  10  21  38  61  86 120 156 188 234 290 342
#
# _framework density 19.665676000000001
#
# number of rings (size 3 to 8) (size 9 to 14) (size 15 to 20)
#    0.000    1.750    1.250    3.375    0.000    0.250 
#    0.000    9.375    0.000    0.000    0.000    0.000 
#    0.000    0.000    0.000    0.000    0.000    0.000 
#
# Total GULP energy -396540.767699 kJ/mol
# GULP energy per Si atom -12391.898991 kJ/mol
# Density = 1.962092 g / cm^3
# Si number density = 19.665676 Si / 1000 Ang^3
#
#
#
# Elastic Constant Matrix: (Units=GPa)
#
#
# Indices 1 2 3 4 5 6 
#
# 1 82.1115 18.1265 22.6880 0.0000 -1.6272 0.0000
# 2 18.1265 90.3004 39.7267 0.0000 11.1684 0.0000
# 3 22.6880 39.7267 82.7198 0.0000 6.0307 0.0000
# 4 0.0000 0.0000 0.0000 20.5523 0.0000 -4.1897
# 5 -1.6272 11.1684 6.0307 0.0000 28.7965 0.0000
# 6 0.0000 0.0000 0.0000 -4.1897 0.0000 -20.4445
#
#
#
# Elastic Compliance Matrix: (Units=1/GPa)
#
#
# Indices 1 2 3 4 5 6 
#
# 1 0.013417 -0.001596 -0.003060 0.000000 0.002018 0.000000
# 2 -0.001596 0.014723 -0.006306 0.000000 -0.004480 0.000000
# 3 -0.003060 -0.006306 0.016036 0.000000 -0.001085 0.000000
# 4 0.000000 0.000000 0.000000 0.046705 0.000000 -0.009571
# 5 0.002018 -0.004480 -0.001085 0.000000 0.036805 0.000000
# 6 0.000000 0.000000 0.000000 -0.009571 0.000000 -0.046951
#
#
# Mechanical properties :
#
#
# Convention : Reuss Voigt Hill
#
# Bulk Modulus (GPa) = 44.94465 46.24601 45.59533
# Shear Modulus (GPa) = 45.42259 17.42024 31.42142
#
# Velocity S-wave (km/s) = 4.81119 2.97950 4.00156
# Velocity P-wave (km/s) = 7.33262 5.95010 6.67724
#
# Compressibility (1/GPa) = 0.02224959
#
# Stress axis : x y z
#
# Youngs Moduli (GPa) = 74.53482 67.92054 62.35898
#
# Poissons Ratio (x) = 0.10843 0.19083
# Poissons Ratio (y) = 0.11899 0.39326
# Poissons Ratio (z) = 0.22810 0.42833
#
# Static dielectric constant tensor:
#      x y z
#    x 3.542760 0.000000 -0.046850 
#    y 0.000000 3.564830 0.000000 
#    z -0.046850 0.000000 3.662620 
# 
# 
# High freq. dielectric constant tensor:
#      x y z
#    x 1.771400 0.000000 -0.009570 
#    y 0.000000 1.762080 0.000000 
#    z -0.009570 0.000000 1.764830 
# 
# From -- ./inp_files/379100.got.cif
#   From: 2010.06.25/outbox.cif.g09.slc.cpg/sg12_190_cif.got.tgz:379100.got - 2010.06.28 00:19:55.
