data_PCOD8097858
_publ_section_title
;
Structure prediction by ZEFSAII (Michael W. Deem and Ramdas Pophale) SiO2 
 PCOD8097858
Probable space group: C 2/M
;
_chemical_formula_sum "Si O2"
_cell_formula_units_Z 56
_cell_length_a 19.456500
_cell_length_b 9.567545
_cell_length_c 16.331818
_cell_angle_alpha 90.000000
_cell_angle_beta 119.096735
_cell_angle_gamma 90.000000
_cell_volume 2656.511937
_symmetry_space_group_name_H-M "C 2/M"
_symmetry_group_IT_number 12
_symmetry_cell_setting 'monoclinic'
loop_
_space_group_symop_operation_xyz
x,y,z
-x,y,-z
-x,-y,-z
x,-y,z
1/2+x,1/2+y,z
1/2-x,1/2+y,-z
1/2-x,1/2-y,-z
1/2+x,1/2-y,z
loop_
_atom_site_type_symbol
_atom_site_label
_atom_site_fract_x
_atom_site_fract_y
_atom_site_fract_z
Si Si1 0.672899 0.341416 0.133588
Si Si2 0.549462 0.753860 0.603271
Si Si3 0.588590 0.658578 0.373962
Si Si4 0.329225 0.338501 0.048608
Si Si5 0.855399 0.667380 0.733494
Si Si6 0.311496 0.658513 0.421335
Si Si7 0.850961 0.652943 0.200368
O O1 0.662776 0.500000 0.160499
O O2 0.629010 0.232213 0.167758
O O3 0.765180 0.301207 0.183053
O O4 0.632809 0.328720 0.020098
O O5 0.500000 0.827113 0.500000
O O6 0.492306 0.653474 0.621769
O O7 0.621235 0.664871 0.608627
O O8 0.587874 0.862494 0.689047
O O9 0.606224 0.500000 0.354999
O O10 0.582522 0.765177 0.294106
O O11 0.656765 0.720050 0.474070
O O12 0.314094 0.500000 0.063704
O O13 0.381836 0.264752 0.150008
O O14 0.250000 0.250000 0.000000
O O15 0.864338 0.500000 0.741782
O O16 0.769847 0.727462 0.655689
O O17 0.290015 0.500000 0.425295
O O18 0.843849 0.500000 0.154877
#
# Coordination Sequence:
#
# PCOD8097858 Si02
#       7
#     8   8   8   8   8   8   8
#     4   9  18  34  54  80 111 143 183 228 279 334
#     4  10  20  36  57  82 114 150 194 236 279 326
#     4  10  21  36  54  76 110 152 190 232 279 334
#     4   9  18  32  53  82 114 145 181 231 286 339
#     4  11  21  33  54  81 111 145 184 234 283 333
#     4   9  18  34  54  79 106 141 192 239 280 328
#     4  10  20  34  54  83 116 148 185 233 285 337
#
# _framework density 21.080275
#
# number of rings (size 3 to 8) (size 9 to 14) (size 15 to 20)
#    0.000    2.286    1.429    2.571    0.000    6.571 
#    0.000    2.857    0.000    0.857    0.000    5.000 
#    0.000    0.000    0.000    0.000    0.000    0.000 
#
# Total GULP energy -346896.362656 kJ/mol
# GULP energy per Si atom -12389.155809 kJ/mol
# Density = 2.103230 g / cm^3
# Si number density = 21.080275 Si / 1000 Ang^3
#
#
#
# Elastic Constant Matrix: (Units=GPa)
#
#
# Indices 1 2 3 4 5 6 
#
# 1 59.0257 30.8871 25.9297 0.0000 -23.4067 0.0000
# 2 30.8871 121.3690 50.8830 0.0000 -29.8973 0.0000
# 3 25.9297 50.8830 115.4454 0.0000 -24.3531 0.0000
# 4 0.0000 0.0000 0.0000 28.4954 0.0000 -9.1326
# 5 -23.4067 -29.8973 -24.3531 0.0000 31.9319 0.0000
# 6 0.0000 0.0000 0.0000 -9.1326 0.0000 20.7117
#
#
#
# Elastic Compliance Matrix: (Units=1/GPa)
#
#
# Indices 1 2 3 4 5 6 
#
# 1 0.024583 -0.001912 -0.001496 0.000000 0.015089 0.000000
# 2 -0.001912 0.011881 -0.003285 0.000000 0.007217 0.000000
# 3 -0.001496 -0.003285 0.011400 0.000000 0.004522 0.000000
# 4 0.000000 0.000000 0.000000 0.040869 0.000000 0.018021
# 5 0.015089 0.007217 0.004522 0.000000 0.052583 0.000000
# 6 0.000000 0.000000 0.000000 0.018021 0.000000 0.056228
#
#
# Mechanical properties :
#
#
# Convention : Reuss Voigt Hill
#
# Bulk Modulus (GPa) = 29.00352 56.80442 42.90397
# Shear Modulus (GPa) = 22.47984 28.77048 25.62516
#
# Velocity S-wave (km/s) = 3.26911 3.69834 3.49033
# Velocity P-wave (km/s) = 5.29508 6.72623 6.05310
#
# Compressibility (1/GPa) = 0.03447857
#
# Stress axis : x y z
#
# Youngs Moduli (GPa) = 40.67867 84.16920 87.72127
#
# Poissons Ratio (x) = 0.16094 0.13121
# Poissons Ratio (y) = 0.07778 0.28813
# Poissons Ratio (z) = 0.06084 0.27646
#
# Static dielectric constant tensor:
#      x y z
#    x 3.510690 0.000000 -0.151450 
#    y 0.000000 3.541720 0.000000 
#    z -0.151450 0.000000 4.324550 
# 
# 
# High freq. dielectric constant tensor:
#      x y z
#    x 1.795420 0.000000 -0.018910 
#    y 0.000000 1.808090 0.000000 
#    z -0.018910 0.000000 1.829040 
# 
# From -- ./inp_files/281748.got.cif
#   From: 2010.06.25/outbox.cif.g09.slc.cpg/sg12_141_cif.got.tgz:281748.got - 2010.06.28 00:19:55.
