data_PCOD8097992
_publ_section_title
;
Structure prediction by ZEFSAII (Michael W. Deem and Ramdas Pophale) SiO2 
 PCOD8097992
Probable space group: C 2/M
;
_chemical_formula_sum "Si O2"
_cell_formula_units_Z 64
_cell_length_a 22.489754
_cell_length_b 8.505851
_cell_length_c 21.344705
_cell_angle_alpha 90.000000
_cell_angle_beta 129.635466
_cell_angle_gamma 90.000000
_cell_volume 3144.489915
_symmetry_space_group_name_H-M "C 2/M"
_symmetry_group_IT_number 12
_symmetry_cell_setting 'monoclinic'
loop_
_space_group_symop_operation_xyz
x,y,z
-x,y,-z
-x,-y,-z
x,-y,z
1/2+x,1/2+y,z
1/2-x,1/2+y,-z
1/2-x,1/2-y,-z
1/2+x,1/2-y,z
loop_
_atom_site_type_symbol
_atom_site_label
_atom_site_fract_x
_atom_site_fract_y
_atom_site_fract_z
Si Si1 0.494985 0.319251 0.927776
Si Si2 0.738071 0.314268 0.421225
Si Si3 0.082407 0.813319 0.247962
Si Si4 0.189783 0.179361 0.889573
Si Si5 0.952998 0.321807 0.248984
Si Si6 0.977714 0.320949 0.406036
Si Si7 0.354660 0.823507 0.013726
Si Si8 0.123291 0.182972 0.567126
O O1 0.474528 0.500000 0.924361
O O2 0.431708 0.252994 0.834207
O O3 0.500000 0.234802 0.000000
O O4 0.580618 0.303100 0.957868
O O5 0.733008 0.500000 0.424318
O O6 0.750000 0.250000 0.500000
O O7 0.660153 0.248651 0.334133
O O8 0.807573 0.269235 0.422223
O O9 0.008226 0.757416 0.235874
O O10 0.083764 0.000000 0.248574
O O11 0.126404 0.224414 0.795421
O O12 0.276429 0.204096 0.920135
O O13 0.180183 0.000000 0.905979
O O14 0.172668 0.301660 0.933611
O O15 0.937105 0.500000 0.217348
O O16 0.991149 0.313022 0.341802
O O17 0.987535 0.500000 0.435860
O O18 0.894360 0.256566 0.375530
O O19 0.044731 0.209371 0.476529
O O20 0.387197 0.000000 0.025937
O O21 0.143685 0.000000 0.585906
#
# Coordination Sequence:
#
# PCOD8097992 Si02
#       8
#     8   8   8   8   8   8   8   8
#     4  10  21  39  61  84 113 155 200 242 296 357
#     4  11  23  40  62  89 123 160 203 247 297 355
#     4  10  22  39  60  85 116 155 196 245 298 351
#     4  10  20  34  55  81 115 148 180 230 290 345
#     4  11  22  35  57  88 116 147 191 240 293 352
#     4  10  21  38  60  86 117 154 193 239 296 354
#     4  10  20  35  56  83 111 144 188 236 287 340
#     4  11  22  38  60  86 117 155 198 240 292 355
#
# _framework density 20.353061
#
# number of rings (size 3 to 8) (size 9 to 14) (size 15 to 20)
#    0.000    1.625    1.250    4.500    0.000    6.750 
#    2.250    0.000    0.000    0.000    0.000    0.000 
#    0.000    0.000    0.000    0.000    0.000    0.000 
#
# Total GULP energy -396427.913029 kJ/mol
# GULP energy per Si atom -12388.372282 kJ/mol
# Density = 2.030674 g / cm^3
# Si number density = 20.353061 Si / 1000 Ang^3
#
#
#
# Elastic Constant Matrix: (Units=GPa)
#
#
# Indices 1 2 3 4 5 6 
#
# 1 80.0139 9.9174 50.7341 0.0000 0.5510 0.0000
# 2 9.9174 37.3769 22.1323 0.0000 4.5186 0.0000
# 3 50.7341 22.1323 137.9844 0.0000 -1.6400 0.0000
# 4 0.0000 0.0000 0.0000 25.9028 0.0000 1.4454
# 5 0.5510 4.5186 -1.6400 0.0000 34.1170 0.0000
# 6 0.0000 0.0000 0.0000 1.4454 0.0000 28.0114
#
#
#
# Elastic Compliance Matrix: (Units=1/GPa)
#
#
# Indices 1 2 3 4 5 6 
#
# 1 0.016329 -0.000797 -0.005881 0.000000 -0.000441 0.000000
# 2 -0.000797 0.030199 -0.004601 0.000000 -0.004208 0.000000
# 3 -0.005881 -0.004601 0.010162 0.000000 0.001193 0.000000
# 4 0.000000 0.000000 0.000000 0.038717 0.000000 -0.001998
# 5 -0.000441 -0.004208 0.001193 0.000000 0.029933 0.000000
# 6 0.000000 0.000000 0.000000 -0.001998 0.000000 0.035803
#
#
# Mechanical properties :
#
#
# Convention : Reuss Voigt Hill
#
# Bulk Modulus (GPa) = 29.29825 46.77139 38.03482
# Shear Modulus (GPa) = 25.63089 29.11233 27.37161
#
# Velocity S-wave (km/s) = 3.55253 3.78612 3.67118
# Velocity P-wave (km/s) = 5.59049 6.49175 6.05790
#
# Compressibility (1/GPa) = 0.03413173
#
# Stress axis : x y z
#
# Youngs Moduli (GPa) = 61.24198 33.11367 98.40852
#
# Poissons Ratio (x) = 0.02639 0.57876
# Poissons Ratio (y) = 0.04880 0.45276
# Poissons Ratio (z) = 0.36017 0.15235
#
# Static dielectric constant tensor:
#      x y z
#    x 3.840170 0.000000 0.155290 
#    y 0.000000 3.633220 0.000000 
#    z 0.155290 0.000000 4.248130 
# 
# 
# High freq. dielectric constant tensor:
#      x y z
#    x 1.785060 0.000000 0.005000 
#    y 0.000000 1.793580 0.000000 
#    z 0.005000 0.000000 1.799710 
# 
# From -- ./inp_files/324267.got.cif
#   From: 2010.06.25/outbox.cif.g09.slc.cpg/sg12_163_cif.got.tgz:324267.got - 2010.06.28 00:19:55.
