data_PCOD8097868
_publ_section_title
;
Structure prediction by ZEFSAII (Michael W. Deem and Ramdas Pophale) SiO2 
 PCOD8097868
Probable space group: C 2/M
;
_chemical_formula_sum "Si O2"
_cell_formula_units_Z 56
_cell_length_a 29.938437
_cell_length_b 14.401410
_cell_length_c 11.875565
_cell_angle_alpha 90.000000
_cell_angle_beta 33.779916
_cell_angle_gamma 90.000000
_cell_volume 2846.862982
_symmetry_space_group_name_H-M "C 2/M"
_symmetry_group_IT_number 12
_symmetry_cell_setting 'monoclinic'
loop_
_space_group_symop_operation_xyz
x,y,z
-x,y,-z
-x,-y,-z
x,-y,z
1/2+x,1/2+y,z
1/2-x,1/2+y,-z
1/2-x,1/2-y,-z
1/2+x,1/2-y,z
loop_
_atom_site_type_symbol
_atom_site_label
_atom_site_fract_x
_atom_site_fract_y
_atom_site_fract_z
Si Si1 0.186019 0.279974 0.493857
Si Si2 0.540282 0.604820 0.295757
Si Si3 0.601170 0.105296 0.098284
Si Si4 0.215508 0.608082 0.647417
Si Si5 0.676674 0.181016 0.163582
Si Si6 0.779040 0.897068 0.126465
Si Si7 0.048936 0.268037 0.605684
O O1 0.174160 0.350274 0.622537
O O2 0.208620 0.174748 0.483098
O O3 0.256548 0.321346 0.267561
O O4 0.101589 0.276251 0.607240
O O5 0.500000 0.620735 0.500000
O O6 0.528299 0.500000 0.278692
O O7 0.497453 0.670016 0.294007
O O8 0.634428 0.631328 0.106209
O O9 0.652365 0.149199 0.091318
O O10 0.514368 0.149317 0.264175
O O11 0.584729 0.000000 0.165623
O O12 0.650378 0.115154 0.881204
O O13 0.242838 0.500000 0.573840
O O14 0.711744 0.098784 0.168983
O O15 0.601200 0.228441 0.382502
O O16 0.750000 0.250000 0.000000
O O17 0.782807 0.000000 0.172648
#
# Coordination Sequence:
#
# PCOD8097868 Si02
#       7
#     8   8   8   8   8   8   8
#     4  10  22  39  61  84 108 146 190 233 281 335
#     4  10  20  34  54  83 118 152 185 226 279 335
#     4  11  23  37  56  84 117 151 187 231 284 339
#     4  10  22  41  62  83 109 143 188 238 283 333
#     4  11  21  35  56  81 114 153 191 231 277 331
#     4  10  20  35  57  82 111 148 189 231 274 330
#     4  11  22  36  56  82 116 150 183 227 280 339
#
# _framework density 19.670774000000002
#
# number of rings (size 3 to 8) (size 9 to 14) (size 15 to 20)
#    0.000    1.571    0.000    6.429    0.000    5.143 
#    0.000    5.000    0.000    0.000    0.000    8.000 
#    0.000    0.000    0.000    0.000    0.000    0.000 
#
# Total GULP energy -347201.758002 kJ/mol
# GULP energy per Si atom -12400.062786 kJ/mol
# Density = 1.962600 g / cm^3
# Si number density = 19.670774 Si / 1000 Ang^3
#
#
#
# Elastic Constant Matrix: (Units=GPa)
#
#
# Indices 1 2 3 4 5 6 
#
# 1 139.6102 65.1232 60.0013 0.0000 -8.1405 0.0000
# 2 65.1232 127.8232 39.5398 0.0000 -16.6311 0.0000
# 3 60.0013 39.5398 72.2885 0.0000 -14.5394 0.0000
# 4 0.0000 0.0000 0.0000 26.4814 0.0000 1.4723
# 5 -8.1405 -16.6311 -14.5394 0.0000 31.6107 0.0000
# 6 0.0000 0.0000 0.0000 1.4723 0.0000 26.5265
#
#
#
# Elastic Compliance Matrix: (Units=1/GPa)
#
#
# Indices 1 2 3 4 5 6 
#
# 1 0.012749 -0.004123 -0.008929 0.000000 -0.002993 0.000000
# 2 -0.004123 0.010988 -0.001806 0.000000 0.003889 0.000000
# 3 -0.008929 -0.001806 0.023779 0.000000 0.007687 0.000000
# 4 0.000000 0.000000 0.000000 0.037879 0.000000 -0.002102
# 5 -0.002993 0.003889 0.007687 0.000000 0.036446 0.000000
# 6 0.000000 0.000000 0.000000 -0.002102 0.000000 0.037815
#
#
# Mechanical properties :
#
#
# Convention : Reuss Voigt Hill
#
# Bulk Modulus (GPa) = 56.17823 74.33894 65.25858
# Shear Modulus (GPa) = 25.60103 28.59425 27.09764
#
# Velocity S-wave (km/s) = 3.61151 3.81680 3.71557
# Velocity P-wave (km/s) = 6.78321 7.56952 7.18712
#
# Compressibility (1/GPa) = 0.01780049
#
# Stress axis : x y z
#
# Youngs Moduli (GPa) = 78.43912 91.00493 42.05440
#
# Poissons Ratio (x) = 0.37518 0.37549
# Poissons Ratio (y) = 0.32338 0.07596
# Poissons Ratio (z) = 0.70036 0.16438
#
# Static dielectric constant tensor:
#      x y z
#    x 3.720610 0.000000 -0.013770 
#    y 0.000000 3.901550 0.000000 
#    z -0.013770 0.000000 3.599970 
# 
# 
# High freq. dielectric constant tensor:
#      x y z
#    x 1.762710 0.000000 -0.002620 
#    y 0.000000 1.782860 0.000000 
#    z -0.002620 0.000000 1.766110 
# 
# From -- ./inp_files/189636.got.cif
#   From: 2010.06.25/outbox.cif.g09.slc.cpg/sg12_95_cif.got.tgz:189636.got - 2010.06.28 00:19:55.
