data_PCOD8097185
_publ_section_title
;
Structure prediction by ZEFSAII (Michael W. Deem and Ramdas Pophale) SiO2 
 PCOD8097185
Probable space group: C 2/M
;
_chemical_formula_sum "Si O2"
_cell_formula_units_Z 56
_cell_length_a 14.455865
_cell_length_b 8.530593
_cell_length_c 30.098981
_cell_angle_alpha 90.000000
_cell_angle_beta 128.386036
_cell_angle_gamma 90.000000
_cell_volume 2909.411764
_symmetry_space_group_name_H-M "C 2/M"
_symmetry_group_IT_number 12
_symmetry_cell_setting 'monoclinic'
loop_
_space_group_symop_operation_xyz
x,y,z
-x,y,-z
-x,-y,-z
x,-y,z
1/2+x,1/2+y,z
1/2-x,1/2+y,-z
1/2-x,1/2-y,-z
1/2+x,1/2-y,z
loop_
_atom_site_type_symbol
_atom_site_label
_atom_site_fract_x
_atom_site_fract_y
_atom_site_fract_z
Si Si1 0.278110 0.685684 0.143389
Si Si2 0.417425 0.814804 0.846657
Si Si3 0.361373 0.182987 0.559011
Si Si4 0.182603 0.685114 0.937857
Si Si5 0.311551 0.317705 0.636891
Si Si6 0.455428 0.315735 0.765578
Si Si7 0.937612 0.818002 0.435465
O O1 0.268804 0.500000 0.137756
O O2 0.181359 0.753731 0.149144
O O3 0.252000 0.754607 0.086917
O O4 0.408477 0.739547 0.197915
O O5 0.547361 0.753150 0.899296
O O6 0.390400 0.760785 0.788461
O O7 0.412510 0.000000 0.846748
O O8 0.250000 0.250000 0.500000
O O9 0.348127 0.207570 0.607270
O O10 0.475003 0.280925 0.578554
O O11 0.375233 0.000000 0.552136
O O12 0.186219 0.500000 0.939447
O O13 0.250000 0.750000 0.000000
O O14 0.334084 0.500000 0.632642
O O15 0.387945 0.260543 0.701498
O O16 0.174599 0.291009 0.606098
O O17 0.447211 0.500000 0.769431
O O18 0.000000 0.770815 0.500000
O O19 0.901031 0.000000 0.424499
#
# Coordination Sequence:
#
# PCOD8097185 Si02
#       7
#     8   8   8   8   8   8   8
#     4   9  18  36  58  79 108 147 185 227 276 324
#     4   9  19  35  57  81 108 147 190 230 275 328
#     4  12  24  39  60  85 113 147 184 228 282 341
#     4  10  20  34  52  80 114 148 188 231 276 327
#     4  11  23  39  59  86 118 150 186 231 283 345
#     4   9  20  37  57  82 111 142 181 228 278 330
#     4  11  23  39  60  84 110 145 188 229 278 336
#
# _framework density 19.247876999999999
#
# number of rings (size 3 to 8) (size 9 to 14) (size 15 to 20)
#    0.000    1.857    1.429    2.571    0.000    4.571 
#    0.000    4.286    0.000    0.000    0.000    0.000 
#    0.000    0.000    0.000    0.000    0.000    0.000 
#
# Total GULP energy -347290.807842 kJ/mol
# GULP energy per Si atom -12403.243137 kJ/mol
# Density = 1.920407 g / cm^3
# Si number density = 19.247877 Si / 1000 Ang^3
#
#
#
# Elastic Constant Matrix: (Units=GPa)
#
#
# Indices 1 2 3 4 5 6 
#
# 1 144.0015 15.4955 61.3318 0.0000 -19.0814 0.0000
# 2 15.4955 38.2297 27.0489 0.0000 -2.0823 0.0000
# 3 61.3318 27.0489 152.2438 0.0000 -10.9413 0.0000
# 4 0.0000 0.0000 0.0000 32.0462 0.0000 -4.6671
# 5 -19.0814 -2.0823 -10.9413 0.0000 24.4015 0.0000
# 6 0.0000 0.0000 0.0000 -4.6671 0.0000 29.1154
#
#
#
# Elastic Compliance Matrix: (Units=1/GPa)
#
#
# Indices 1 2 3 4 5 6 
#
# 1 0.009127 -0.001232 -0.003051 0.000000 0.005664 0.000000
# 2 -0.001232 0.030086 -0.004891 0.000000 -0.000589 0.000000
# 3 -0.003051 -0.004891 0.008747 0.000000 0.001119 0.000000
# 4 0.000000 0.000000 0.000000 0.031951 0.000000 0.005122
# 5 0.005664 -0.000589 0.001119 0.000000 0.045862 0.000000
# 6 0.000000 0.000000 0.000000 0.005122 0.000000 0.035167
#
#
# Mechanical properties :
#
#
# Convention : Reuss Voigt Hill
#
# Bulk Modulus (GPa) = 33.77141 60.24750 47.00946
# Shear Modulus (GPa) = 26.43295 32.48588 29.45941
#
# Velocity S-wave (km/s) = 3.70982 4.11270 3.91644
# Velocity P-wave (km/s) = 5.99449 7.34310 6.70280
#
# Compressibility (1/GPa) = 0.02961084
#
# Stress axis : x y z
#
# Youngs Moduli (GPa) = 109.56680 33.23833 114.32679
#
# Poissons Ratio (x) = 0.04096 0.34879
# Poissons Ratio (y) = 0.13502 0.55920
# Poissons Ratio (z) = 0.33426 0.16258
#
# Static dielectric constant tensor:
#      x y z
#    x 3.771180 0.000000 0.043250 
#    y 0.000000 3.526590 0.000000 
#    z 0.043250 0.000000 3.622560 
# 
# 
# High freq. dielectric constant tensor:
#      x y z
#    x 1.756230 0.000000 -0.004470 
#    y 0.000000 1.746970 0.000000 
#    z -0.004470 0.000000 1.747940 
# 
# From -- ./inp_files/360020.got.cif
#   From: 2010.06.25/outbox.cif.g09.slc.cpg/sg12_181_cif.got.tgz:360020.got - 2010.06.28 00:19:55.
