data_PCOD8097116
_publ_section_title
;
Structure prediction by ZEFSAII (Michael W. Deem and Ramdas Pophale) SiO2 
 PCOD8097116
Probable space group: C 2/M
;
_chemical_formula_sum "Si O2"
_cell_formula_units_Z 64
_cell_length_a 25.067117
_cell_length_b 22.255851
_cell_length_c 11.220261
_cell_angle_alpha 90.000000
_cell_angle_beta 33.313725
_cell_angle_gamma 90.000000
_cell_volume 3437.955745
_symmetry_space_group_name_H-M "C 2/M"
_symmetry_group_IT_number 12
_symmetry_cell_setting 'monoclinic'
loop_
_space_group_symop_operation_xyz
x,y,z
-x,y,-z
-x,-y,-z
x,-y,z
1/2+x,1/2+y,z
1/2-x,1/2+y,-z
1/2-x,1/2-y,-z
1/2+x,1/2-y,z
loop_
_atom_site_type_symbol
_atom_site_label
_atom_site_fract_x
_atom_site_fract_y
_atom_site_fract_z
Si Si1 0.389673 0.609816 0.693901
Si Si2 0.267234 0.687774 0.611170
Si Si3 0.726067 0.930885 0.155743
Si Si4 0.591911 0.151399 0.525915
Si Si5 0.773789 0.934550 0.694544
Si Si6 0.819219 0.235945 0.759858
Si Si7 0.088101 0.432369 0.188684
Si Si8 0.400220 0.781820 0.246157
O O1 0.500000 0.588817 0.500000
O O2 0.341100 0.567946 0.685198
O O3 0.387854 0.680125 0.664330
O O4 0.330226 0.597445 0.926594
O O5 0.301213 0.618351 0.552819
O O6 0.253313 0.716859 0.768792
O O7 0.352506 0.720938 0.382271
O O8 0.166092 0.689240 0.731572
O O9 0.684038 0.893815 0.346382
O O10 0.647213 0.920877 0.198968
O O11 0.739514 0.000000 0.165711
O O12 0.611551 0.208152 0.402198
O O13 0.494454 0.117682 0.667323
O O14 0.582819 0.170796 0.679840
O O15 0.788701 0.000000 0.606710
O O16 0.661324 0.926010 0.941498
O O17 0.750000 0.250000 0.000000
O O18 0.042784 0.500000 0.275036
O O19 0.500000 0.762784 0.000000
#
# Coordination Sequence:
#
# PCOD8097116 Si02
#       8
#     8   8   8   8   8   8   8   8
#     4  10  20  35  51  78 115 150 186 220 271 337
#     4   9  20  39  59  78 109 146 187 229 273 339
#     4  10  20  34  52  76 115 155 183 221 277 343
#     4  11  20  33  56  82 112 142 185 230 276 335
#     4   9  18  35  57  80 108 147 188 224 271 333
#     4  10  20  38  54  84 115 142 175 227 288 333
#     4   9  18  32  52  81 117 151 178 214 278 351
#     4  10  21  39  58  81 108 149 191 229 281 330
#
# _framework density 18.615714000000001
#
# number of rings (size 3 to 8) (size 9 to 14) (size 15 to 20)
#    0.000    2.250    1.250    2.625    0.000    3.000 
#    9.000    1.250    0.000    3.750    0.000    0.000 
#    0.000    0.000    0.000    0.000    0.000    0.000 
#
# Total GULP energy -396755.155983 kJ/mol
# GULP energy per Si atom -12398.598624 kJ/mol
# Density = 1.857334 g / cm^3
# Si number density = 18.615714 Si / 1000 Ang^3
#
#
#
# Elastic Constant Matrix: (Units=GPa)
#
#
# Indices 1 2 3 4 5 6 
#
# 1 55.3600 30.0660 48.7175 0.0000 2.5827 0.0000
# 2 30.0660 136.8210 47.9318 0.0000 -3.8286 0.0000
# 3 48.7175 47.9318 115.7011 0.0000 -11.6931 0.0000
# 4 0.0000 0.0000 0.0000 25.8898 0.0000 -3.4393
# 5 2.5827 -3.8286 -11.6931 0.0000 25.3365 0.0000
# 6 0.0000 0.0000 0.0000 -3.4393 0.0000 17.9249
#
#
#
# Elastic Compliance Matrix: (Units=1/GPa)
#
#
# Indices 1 2 3 4 5 6 
#
# 1 0.031515 -0.002579 -0.013180 0.000000 -0.009685 0.000000
# 2 -0.002579 0.008764 -0.002501 0.000000 0.000433 0.000000
# 3 -0.013180 -0.002501 0.016076 0.000000 0.008385 0.000000
# 4 0.000000 0.000000 0.000000 0.039636 0.000000 0.007605
# 5 -0.009685 0.000433 0.008385 0.000000 0.044391 0.000000
# 6 0.000000 0.000000 0.000000 0.007605 0.000000 0.057248
#
#
# Mechanical properties :
#
#
# Convention : Reuss Voigt Hill
#
# Bulk Modulus (GPa) = 50.41691 62.36805 56.39248
# Shear Modulus (GPa) = 20.76756 25.90803 23.33779
#
# Velocity S-wave (km/s) = 3.34367 3.73464 3.54455
# Velocity P-wave (km/s) = 6.48449 7.22304 6.86371
#
# Compressibility (1/GPa) = 0.01983462
#
# Stress axis : x y z
#
# Youngs Moduli (GPa) = 31.73130 114.10584 62.20425
#
# Poissons Ratio (x) = 0.29427 0.81986
# Poissons Ratio (y) = 0.08183 0.15557
# Poissons Ratio (z) = 0.41822 0.28537
#
# Static dielectric constant tensor:
#      x y z
#    x 3.239760 0.000000 0.079040 
#    y 0.000000 3.625640 0.000000 
#    z 0.079040 0.000000 3.388730 
# 
# 
# High freq. dielectric constant tensor:
#      x y z
#    x 1.690780 0.000000 -0.001140 
#    y 0.000000 1.738530 0.000000 
#    z -0.001140 0.000000 1.718260 
# 
# From -- ./inp_files/178400.got.cif
#   From: 2010.06.25/outbox.cif.g09.slc.cpg/sg12_90_cif.got.tgz:178400.got - 2010.06.28 00:19:55.
