data_PCOD8097229
_publ_section_title
;
Structure prediction by ZEFSAII (Michael W. Deem and Ramdas Pophale) SiO2 
 PCOD8097229
Probable space group: C 2/M
;
_chemical_formula_sum "Si O2"
_cell_formula_units_Z 48
_cell_length_a 24.343718
_cell_length_b 8.702324
_cell_length_c 12.285854
_cell_angle_alpha 90.000000
_cell_angle_beta 77.102914
_cell_angle_gamma 90.000000
_cell_volume 2537.060342
_symmetry_space_group_name_H-M "C 2/M"
_symmetry_group_IT_number 12
_symmetry_cell_setting 'monoclinic'
loop_
_space_group_symop_operation_xyz
x,y,z
-x,y,-z
-x,-y,-z
x,-y,z
1/2+x,1/2+y,z
1/2-x,1/2+y,-z
1/2-x,1/2-y,-z
1/2+x,1/2-y,z
loop_
_atom_site_type_symbol
_atom_site_label
_atom_site_fract_x
_atom_site_fract_y
_atom_site_fract_z
Si Si1 0.910593 0.317493 0.526067
Si Si2 0.240241 0.179483 0.177980
Si Si3 0.783984 0.682011 0.584763
Si Si4 0.494046 0.182879 0.671818
Si Si5 0.037860 0.317177 0.080115
Si Si6 0.334626 0.820024 0.965439
O O1 0.908048 0.500000 0.530483
O O2 0.847588 0.250420 0.550489
O O3 0.942752 0.256352 0.619322
O O4 0.945853 0.263071 0.404051
O O5 0.244364 0.267947 0.289809
O O6 0.185986 0.232141 0.133152
O O7 0.236042 0.000000 0.203813
O O8 0.296506 0.222016 0.086081
O O9 0.783499 0.500000 0.576453
O O10 0.750000 0.750000 0.500000
O O11 0.486384 0.250279 0.796037
O O12 0.491620 0.000000 0.675047
O O13 0.033880 0.500000 0.081854
O O14 0.102329 0.265155 0.035286
O O15 0.000000 0.247505 0.000000
O O16 0.331819 0.000000 0.939529
#
# Coordination Sequence:
#
# PCOD8097229 Si02
#       6
#     8   8   8   8   8   8
#     4   8  15  27  45  68  93 122 157 202 248 287
#     4  10  20  34  53  76 101 132 171 210 249 296
#     4  11  22  35  51  74 105 137 168 204 249 299
#     4   8  13  24  43  68  94 119 154 200 249 291
#     4   9  16  25  42  71 102 127 154 198 252 297
#     4   9  18  33  53  77 103 131 167 211 254 295
#
# _framework density 18.919533000000001
#
# number of rings (size 3 to 8) (size 9 to 14) (size 15 to 20)
#    0.000    2.833    0.000    3.000    0.000    4.667 
#    0.000    5.000    0.000    0.500    0.000   26.833 
#    0.000    0.000    0.000    0.000    0.000    0.000 
#
# Total GULP energy -297543.947197 kJ/mol
# GULP energy per Si atom -12397.664467 kJ/mol
# Density = 1.887647 g / cm^3
# Si number density = 18.919533 Si / 1000 Ang^3
#
#
#
# Elastic Constant Matrix: (Units=GPa)
#
#
# Indices 1 2 3 4 5 6 
#
# 1 116.3303 19.5188 93.3024 0.0000 6.2316 0.0000
# 2 19.5188 31.6994 26.4655 0.0000 1.7769 0.0000
# 3 93.3024 26.4655 174.9702 0.0000 6.4923 0.0000
# 4 0.0000 0.0000 0.0000 23.1593 0.0000 3.0707
# 5 6.2316 1.7769 6.4923 0.0000 26.1527 0.0000
# 6 0.0000 0.0000 0.0000 3.0707 0.0000 19.5135
#
#
#
# Elastic Compliance Matrix: (Units=1/GPa)
#
#
# Indices 1 2 3 4 5 6 
#
# 1 0.015324 -0.002947 -0.007668 0.000000 -0.001547 0.000000
# 2 -0.002947 0.036704 -0.003950 0.000000 -0.000811 0.000000
# 3 -0.007668 -0.003950 0.010420 0.000000 -0.000491 0.000000
# 4 0.000000 0.000000 0.000000 0.044099 0.000000 -0.006940
# 5 -0.001547 -0.000811 -0.000491 0.000000 0.038783 0.000000
# 6 0.000000 0.000000 0.000000 -0.006940 0.000000 0.052339
#
#
# Mechanical properties :
#
#
# Convention : Reuss Voigt Hill
#
# Bulk Modulus (GPa) = 30.01420 66.84150 48.42785
# Shear Modulus (GPa) = 21.01674 26.01264 23.51469
#
# Velocity S-wave (km/s) = 3.33656 3.71200 3.52927
# Velocity P-wave (km/s) = 5.54455 7.33335 6.50077
#
# Compressibility (1/GPa) = 0.03331757
#
# Stress axis : x y z
#
# Youngs Moduli (GPa) = 65.25770 27.24474 95.96838
#
# Poissons Ratio (x) = 0.08028 0.73591
# Poissons Ratio (y) = 0.19229 0.37911
# Poissons Ratio (z) = 0.50041 0.10763
#
# Static dielectric constant tensor:
#      x y z
#    x 3.749430 0.000000 -0.130260 
#    y 0.000000 2.967130 0.000000 
#    z -0.130260 0.000000 3.784600 
# 
# 
# High freq. dielectric constant tensor:
#      x y z
#    x 1.740230 0.000000 -0.008180 
#    y 0.000000 1.682860 0.000000 
#    z -0.008180 0.000000 1.744840 
# 
# From -- ./inp_files/172291.got.cif
#   From: 2010.06.25/outbox.cif.g09.slc.cpg/sg12_87_cif.got.tgz:172291.got - 2010.06.28 00:19:55.
