data_PCOD8097556
_publ_section_title
;
Structure prediction by ZEFSAII (Michael W. Deem and Ramdas Pophale) SiO2 
 PCOD8097556
Probable space group: C 2/M
;
_chemical_formula_sum "Si O2"
_cell_formula_units_Z 64
_cell_length_a 14.408910
_cell_length_b 9.150640
_cell_length_c 25.230182
_cell_angle_alpha 90.000000
_cell_angle_beta 71.765885
_cell_angle_gamma 90.000000
_cell_volume 3159.575269
_symmetry_space_group_name_H-M "C 2/M"
_symmetry_group_IT_number 12
_symmetry_cell_setting 'monoclinic'
loop_
_space_group_symop_operation_xyz
x,y,z
-x,y,-z
-x,-y,-z
x,-y,z
1/2+x,1/2+y,z
1/2-x,1/2+y,-z
1/2-x,1/2-y,-z
1/2+x,1/2-y,z
loop_
_atom_site_type_symbol
_atom_site_label
_atom_site_fract_x
_atom_site_fract_y
_atom_site_fract_z
Si Si1 0.588272 0.838626 0.125182
Si Si2 0.622271 0.826887 0.699227
Si Si3 0.443209 0.329392 0.769684
Si Si4 0.689922 0.659515 0.897041
Si Si5 0.802202 0.830463 0.414476
Si Si6 0.398077 0.168621 0.491557
Si Si7 0.282258 0.168756 0.207210
Si Si8 0.605235 0.837967 0.005228
O O1 0.532898 0.731142 0.175367
O O2 0.695535 0.859502 0.128860
O O3 0.592740 0.767544 0.065765
O O4 0.537089 0.000000 0.132917
O O5 0.514391 0.755701 0.716612
O O6 0.687131 0.759584 0.641212
O O7 0.674892 0.781925 0.744404
O O8 0.614003 0.000000 0.693549
O O9 0.467386 0.500000 0.764277
O O10 0.332947 0.296040 0.771533
O O11 0.638513 0.500000 0.905938
O O12 0.657609 0.751043 0.850979
O O13 0.671072 0.737753 0.956382
O O14 0.689985 0.808227 0.451489
O O15 0.878289 0.768256 0.444000
O O16 0.827118 0.000000 0.401003
O O17 0.500000 0.218182 0.500000
O O18 0.404021 0.000000 0.472178
O O19 0.299970 0.000000 0.192672
O O20 0.653412 0.000000 0.001703
O O21 0.500000 0.852230 0.000000
#
# Coordination Sequence:
#
# PCOD8097556 Si02
#       8
#     8   8   8   8   8   8   8   8
#     4   9  19  36  54  74 102 139 178 218 277 345
#     4  11  23  39  60  83 115 157 194 234 282 336
#     4  10  21  38  59  84 111 143 188 239 288 339
#     4  10  20  34  54  77 102 132 174 230 281 331
#     4  10  21  37  58  89 124 156 196 241 282 330
#     4   9  19  38  63  90 123 162 199 236 282 331
#     4   9  21  40  59  79 109 150 190 228 282 350
#     4  10  21  34  50  73 102 137 175 217 271 344
#
# _framework density 20.255887000000001
#
# number of rings (size 3 to 8) (size 9 to 14) (size 15 to 20)
#    0.000    2.250    0.000    1.875    1.750    4.500 
#    0.000    2.500    0.000    0.000    0.000    0.000 
#    0.000    0.000    0.000    0.000    0.000    0.000 
#
# Total GULP energy -396774.498742 kJ/mol
# GULP energy per Si atom -12399.203086 kJ/mol
# Density = 2.020978 g / cm^3
# Si number density = 20.255887 Si / 1000 Ang^3
#
#
#
# Elastic Constant Matrix: (Units=GPa)
#
#
# Indices 1 2 3 4 5 6 
#
# 1 70.5442 27.9792 26.4741 0.0000 4.4851 0.0000
# 2 27.9792 101.7966 51.5663 0.0000 -1.1334 0.0000
# 3 26.4741 51.5663 109.5371 0.0000 3.1484 0.0000
# 4 0.0000 0.0000 0.0000 42.6240 0.0000 4.2862
# 5 4.4851 -1.1334 3.1484 0.0000 24.1609 0.0000
# 6 0.0000 0.0000 0.0000 4.2862 0.0000 20.9706
#
#
#
# Elastic Compliance Matrix: (Units=1/GPa)
#
#
# Indices 1 2 3 4 5 6 
#
# 1 0.016587 -0.003419 -0.002315 0.000000 -0.002938 0.000000
# 2 -0.003419 0.013652 -0.005658 0.000000 0.002012 0.000000
# 3 -0.002315 -0.005658 0.012394 0.000000 -0.001451 0.000000
# 4 0.000000 0.000000 0.000000 0.023953 0.000000 -0.004896
# 5 -0.002938 0.002012 -0.001451 0.000000 0.042218 0.000000
# 6 0.000000 0.000000 0.000000 -0.004896 0.000000 0.048686
#
#
# Mechanical properties :
#
#
# Convention : Reuss Voigt Hill
#
# Bulk Modulus (GPa) = 50.38128 54.87967 52.63047
# Shear Modulus (GPa) = 26.75339 29.27499 28.01419
#
# Velocity S-wave (km/s) = 3.63818 3.80578 3.72293
# Velocity P-wave (km/s) = 6.52495 6.81645 6.67229
#
# Compressibility (1/GPa) = 0.01984864
#
# Stress axis : x y z
#
# Youngs Moduli (GPa) = 60.28766 73.24943 80.68233
#
# Poissons Ratio (x) = 0.25045 0.18677
# Poissons Ratio (y) = 0.20613 0.45653
# Poissons Ratio (z) = 0.13956 0.41447
#
# Static dielectric constant tensor:
#      x y z
#    x 3.591700 0.000000 0.023830 
#    y 0.000000 3.936210 0.000000 
#    z 0.023830 0.000000 3.747640 
# 
# 
# High freq. dielectric constant tensor:
#      x y z
#    x 1.786890 0.000000 0.000240 
#    y 0.000000 1.793220 0.000000 
#    z 0.000240 0.000000 1.788850 
# 
# From -- ./inp_files/359776.got.cif
#   From: 2010.06.25/outbox.cif.g09.slc.cpg/sg12_180_cif.got.tgz:359776.got - 2010.06.28 00:19:55.
