data_PCOD8097179
_publ_section_title
;
Structure prediction by ZEFSAII (Michael W. Deem and Ramdas Pophale) SiO2 
 PCOD8097179
Probable space group: C 2/M
;
_chemical_formula_sum "Si O2"
_cell_formula_units_Z 64
_cell_length_a 32.066293
_cell_length_b 13.882763
_cell_length_c 12.695117
_cell_angle_alpha 90.000000
_cell_angle_beta 36.599268
_cell_angle_gamma 90.000000
_cell_volume 3369.488621
_symmetry_space_group_name_H-M "C 2/M"
_symmetry_group_IT_number 12
_symmetry_cell_setting 'monoclinic'
loop_
_space_group_symop_operation_xyz
x,y,z
-x,y,-z
-x,-y,-z
x,-y,z
1/2+x,1/2+y,z
1/2-x,1/2+y,-z
1/2-x,1/2-y,-z
1/2+x,1/2-y,z
loop_
_atom_site_type_symbol
_atom_site_label
_atom_site_fract_x
_atom_site_fract_y
_atom_site_fract_z
Si Si1 0.241816 0.225089 0.189314
Si Si2 0.184043 0.705792 0.758492
Si Si3 0.062052 0.388513 0.450678
Si Si4 0.279667 0.110079 0.918250
Si Si5 0.404535 0.228879 0.415248
Si Si6 0.451753 0.607423 0.193415
Si Si7 0.418046 0.890205 0.179382
Si Si8 0.803145 0.892875 0.389564
O O1 0.307043 0.201888 0.133788
O O2 0.252795 0.328190 0.111173
O O3 0.169445 0.226200 0.400081
O O4 0.241830 0.140540 0.102813
O O5 0.110353 0.664986 0.866780
O O6 0.193066 0.818337 0.713706
O O7 0.240635 0.636211 0.591880
O O8 0.050705 0.500000 0.502500
O O9 0.136724 0.371924 0.242788
O O10 0.058386 0.330135 0.567124
O O11 0.000000 0.351964 0.500000
O O12 0.262019 0.000000 0.929619
O O13 0.457079 0.316833 0.278697
O O14 0.391287 0.161945 0.339807
O O15 0.474861 0.500000 0.183021
O O16 0.372418 0.609114 0.317787
O O17 0.500000 0.643614 0.000000
O O18 0.391090 0.000000 0.238140
O O19 0.500000 0.885915 0.000000
O O20 0.790448 0.000000 0.369093
#
# Coordination Sequence:
#
# PCOD8097179 Si02
#       8
#     8   8   8   8   8   8   8   8
#     4  10  21  35  55  84 108 143 193 231 279 340
#     4  11  20  35  55  82 116 149 189 235 282 340
#     4   9  19  36  59  86 111 144 189 231 285 352
#     4   9  20  38  57  80 114 144 179 240 292 334
#     4  11  19  36  59  79 111 153 189 231 283 335
#     4  10  20  35  55  79 110 149 194 235 276 332
#     4  11  24  38  54  85 123 155 187 227 283 352
#     4  10  20  34  52  79 113 150 191 232 275 333
#
# _framework density 18.993980000000001
#
# number of rings (size 3 to 8) (size 9 to 14) (size 15 to 20)
#    0.000    1.875    2.500    1.875    0.000    3.500 
#    0.000    2.500    0.000    0.375    0.000    0.000 
#    0.000    0.000    0.000    0.000    0.000    0.000 
#
# Total GULP energy -396758.053889 kJ/mol
# GULP energy per Si atom -12398.689184 kJ/mol
# Density = 1.895075 g / cm^3
# Si number density = 18.993980 Si / 1000 Ang^3
#
#
#
# Elastic Constant Matrix: (Units=GPa)
#
#
# Indices 1 2 3 4 5 6 
#
# 1 112.9860 45.0545 28.1536 0.0000 10.8974 0.0000
# 2 45.0545 128.2817 50.8371 0.0000 13.7200 0.0000
# 3 28.1536 50.8371 72.7289 0.0000 14.3135 0.0000
# 4 0.0000 0.0000 0.0000 27.5187 0.0000 0.5696
# 5 10.8974 13.7200 14.3135 0.0000 28.4525 0.0000
# 6 0.0000 0.0000 0.0000 0.5696 0.0000 24.9948
#
#
#
# Elastic Compliance Matrix: (Units=1/GPa)
#
#
# Indices 1 2 3 4 5 6 
#
# 1 0.010593 -0.002826 -0.001770 0.000000 -0.001804 0.000000
# 2 -0.002826 0.011599 -0.006799 0.000000 -0.001090 0.000000
# 3 -0.001770 -0.006799 0.020432 0.000000 -0.006322 0.000000
# 4 0.000000 0.000000 0.000000 0.036356 0.000000 -0.000828
# 5 -0.001804 -0.001090 -0.006322 0.000000 0.039543 0.000000
# 6 0.000000 0.000000 0.000000 -0.000828 0.000000 0.040027
#
#
# Mechanical properties :
#
#
# Convention : Reuss Voigt Hill
#
# Bulk Modulus (GPa) = 50.42118 62.45413 56.43766
# Shear Modulus (GPa) = 26.60272 28.85663 27.72967
#
# Velocity S-wave (km/s) = 3.74650 3.90199 3.82503
# Velocity P-wave (km/s) = 6.73190 7.29747 7.02038
#
# Compressibility (1/GPa) = 0.01983294
#
# Stress axis : x y z
#
# Youngs Moduli (GPa) = 94.40589 86.21538 48.94370
#
# Poissons Ratio (x) = 0.24363 0.08664
# Poissons Ratio (y) = 0.26678 0.33277
# Poissons Ratio (z) = 0.16711 0.58618
#
# Static dielectric constant tensor:
#      x y z
#    x 3.565140 0.000000 -0.083650 
#    y 0.000000 3.871430 0.000000 
#    z -0.083650 0.000000 3.458950 
# 
# 
# High freq. dielectric constant tensor:
#      x y z
#    x 1.721010 0.000000 -0.002780 
#    y 0.000000 1.751660 0.000000 
#    z -0.002780 0.000000 1.732080 
# 
# From -- ./inp_files/189451.got.cif
#   From: 2010.06.25/outbox.cif.g09.slc.cpg/sg12_95_cif.got.tgz:189451.got - 2010.06.28 00:19:55.
