data_PCOD8097180
_publ_section_title
;
Structure prediction by ZEFSAII (Michael W. Deem and Ramdas Pophale) SiO2 
 PCOD8097180
Probable space group: C 2/M
;
_chemical_formula_sum "Si O2"
_cell_formula_units_Z 64
_cell_length_a 14.518917
_cell_length_b 8.965952
_cell_length_c 25.868519
_cell_angle_alpha 90.000000
_cell_angle_beta 89.459861
_cell_angle_gamma 90.000000
_cell_volume 3367.308441
_symmetry_space_group_name_H-M "C 2/M"
_symmetry_group_IT_number 12
_symmetry_cell_setting 'monoclinic'
loop_
_space_group_symop_operation_xyz
x,y,z
-x,y,-z
-x,-y,-z
x,-y,z
1/2+x,1/2+y,z
1/2-x,1/2+y,-z
1/2-x,1/2-y,-z
1/2+x,1/2-y,z
loop_
_atom_site_type_symbol
_atom_site_label
_atom_site_fract_x
_atom_site_fract_y
_atom_site_fract_z
Si Si1 0.348182 0.823356 0.493709
Si Si2 0.906114 0.824017 0.871953
Si Si3 0.883727 0.825516 0.139234
Si Si4 0.757996 0.324157 0.326884
Si Si5 0.597901 0.668397 0.610255
Si Si6 0.396127 0.668144 0.593001
Si Si7 0.242334 0.174058 0.210494
Si Si8 0.764568 0.324532 0.945215
O O1 0.250000 0.750000 0.500000
O O2 0.391304 0.767273 0.440623
O O3 0.407993 0.772149 0.542662
O O4 0.341726 0.000000 0.492332
O O5 0.850062 0.781264 0.820206
O O6 0.857549 0.741553 0.919940
O O7 0.011369 0.766194 0.866713
O O8 0.903563 0.000000 0.882883
O O9 0.834090 0.751892 0.188495
O O10 0.825464 0.785559 0.088373
O O11 0.885301 0.000000 0.149794
O O12 0.773749 0.500000 0.330242
O O13 0.851737 0.240174 0.340939
O O14 0.681942 0.269708 0.368367
O O15 0.727352 0.276044 0.269717
O O16 0.633737 0.500000 0.600145
O O17 0.490264 0.668228 0.624893
O O18 0.371756 0.500000 0.574725
O O19 0.260836 0.000000 0.205682
O O20 0.777461 0.500000 0.951616
O O21 0.750000 0.250000 0.000000
#
# Coordination Sequence:
#
# PCOD8097180 Si02
#       8
#     8   8   8   8   8   8   8   8
#     4  12  23  37  59  83 110 143 179 220 271 327
#     4   9  18  35  57  79 106 143 186 226 270 325
#     4   9  19  35  56  80 107 142 184 227 273 323
#     4  10  21  38  57  79 110 145 177 220 275 326
#     4  11  23  38  58  84 110 142 183 223 268 326
#     4  10  22  39  58  81 111 144 180 221 269 326
#     4   9  19  35  56  80 106 139 181 225 273 322
#     4  10  20  34  52  79 114 148 183 225 272 320
#
# _framework density 19.006277000000001
#
# number of rings (size 3 to 8) (size 9 to 14) (size 15 to 20)
#    0.000    2.000    1.250    2.250    0.000    5.500 
#    0.000    5.000    0.000    0.000    0.000    0.000 
#    0.000    0.000    0.000    0.000    0.000    0.000 
#
# Total GULP energy -396834.685057 kJ/mol
# GULP energy per Si atom -12401.083908 kJ/mol
# Density = 1.896302 g / cm^3
# Si number density = 19.006277 Si / 1000 Ang^3
#
#
#
# Elastic Constant Matrix: (Units=GPa)
#
#
# Indices 1 2 3 4 5 6 
#
# 1 115.1794 31.0846 33.1992 0.0000 5.2720 0.0000
# 2 31.0846 73.0667 42.9152 0.0000 0.8779 0.0000
# 3 33.1992 42.9152 111.0856 0.0000 4.4956 0.0000
# 4 0.0000 0.0000 0.0000 31.2211 0.0000 -0.0841
# 5 5.2720 0.8779 4.4956 0.0000 18.0341 0.0000
# 6 0.0000 0.0000 0.0000 -0.0841 0.0000 29.2367
#
#
#
# Elastic Compliance Matrix: (Units=1/GPa)
#
#
# Indices 1 2 3 4 5 6 
#
# 1 0.010166 -0.003323 -0.001658 0.000000 -0.002397 0.000000
# 2 -0.003323 0.018802 -0.006337 0.000000 0.001636 0.000000
# 3 -0.001658 -0.006337 0.012035 0.000000 -0.002207 0.000000
# 4 0.000000 0.000000 0.000000 0.032030 0.000000 0.000092
# 5 -0.002397 0.001636 -0.002207 0.000000 0.056622 0.000000
# 6 0.000000 0.000000 0.000000 0.000092 0.000000 0.034204
#
#
# Mechanical properties :
#
#
# Convention : Reuss Voigt Hill
#
# Bulk Modulus (GPa) = 54.44014 57.08109 55.76062
# Shear Modulus (GPa) = 25.95840 28.50722 27.23281
#
# Velocity S-wave (km/s) = 3.69966 3.87704 3.78938
# Velocity P-wave (km/s) = 6.85240 7.08095 6.96761
#
# Compressibility (1/GPa) = 0.01836880
#
# Stress axis : x y z
#
# Youngs Moduli (GPa) = 98.36375 53.18608 83.09157
#
# Poissons Ratio (x) = 0.17672 0.13774
# Poissons Ratio (y) = 0.32682 0.52654
# Poissons Ratio (z) = 0.16306 0.33703
#
# Static dielectric constant tensor:
#      x y z
#    x 3.618420 0.000000 0.021250 
#    y 0.000000 3.547850 0.000000 
#    z 0.021250 0.000000 3.528890 
# 
# 
# High freq. dielectric constant tensor:
#      x y z
#    x 1.745800 0.000000 0.003930 
#    y 0.000000 1.737010 0.000000 
#    z 0.003930 0.000000 1.733220 
# 
# From -- ./inp_files/338925.got.cif
#   From: 2010.06.25/outbox.cif.g09.slc.cpg/sg12_170_cif.got.tgz:338925.got - 2010.06.28 00:19:55.
