data_PCOD8097866
_publ_section_title
;
Structure prediction by ZEFSAII (Michael W. Deem and Ramdas Pophale) SiO2 
 PCOD8097866
Probable space group: C 2/M
;
_chemical_formula_sum "Si O2"
_cell_formula_units_Z 48
_cell_length_a 22.224144
_cell_length_b 10.482035
_cell_length_c 11.440825
_cell_angle_alpha 90.000000
_cell_angle_beta 74.956354
_cell_angle_gamma 90.000000
_cell_volume 2573.848544
_symmetry_space_group_name_H-M "C 2/M"
_symmetry_group_IT_number 12
_symmetry_cell_setting 'monoclinic'
loop_
_space_group_symop_operation_xyz
x,y,z
-x,y,-z
-x,-y,-z
x,-y,z
1/2+x,1/2+y,z
1/2-x,1/2+y,-z
1/2-x,1/2-y,-z
1/2+x,1/2-y,z
loop_
_atom_site_type_symbol
_atom_site_label
_atom_site_fract_x
_atom_site_fract_y
_atom_site_fract_z
Si Si1 0.479454 0.641159 0.142116
Si Si2 0.820955 0.361334 0.737189
Si Si3 0.795644 0.784509 0.083368
Si Si4 0.876774 0.356621 0.216817
Si Si5 0.114920 0.858802 0.149521
Si Si6 0.700138 0.858786 0.513803
O O1 0.452627 0.500000 0.189669
O O2 0.430852 0.752845 0.187069
O O3 0.541668 0.670123 0.184703
O O4 0.500000 0.639085 0.000000
O O5 0.847497 0.500000 0.763188
O O6 0.746492 0.363238 0.803529
O O7 0.854871 0.247552 0.785157
O O8 0.833390 0.342485 0.593921
O O9 0.824563 0.666849 0.142724
O O10 0.750000 0.750000 0.000000
O O11 0.854395 0.858288 0.996604
O O12 0.902830 0.500000 0.183234
O O13 0.849839 0.343522 0.359594
O O14 0.127098 0.000000 0.195999
O O15 0.750000 0.750000 0.500000
O O16 0.731267 0.000000 0.505703
#
# Coordination Sequence:
#
# PCOD8097866 Si02
#       6
#     8   8   8   8   8   8
#     4  10  21  39  59  82 113 152 191 234 285 339
#     4  10  21  36  58  85 115 150 188 232 285 337
#     4  10  20  34  54  83 118 148 178 228 282 341
#     4  11  23  38  59  87 116 149 192 238 280 335
#     4  10  21  37  58  83 114 150 189 233 283 340
#     4  10  21  38  58  84 115 150 191 233 281 335
#
# _framework density 18.649115999999999
#
# number of rings (size 3 to 8) (size 9 to 14) (size 15 to 20)
#    0.000    1.833    3.333    0.500    0.000    8.333 
#    0.000    0.833    0.000    5.000    0.000    0.000 
#    0.000    0.000    0.000    0.000    0.000    0.000 
#
# Total GULP energy -297354.755849 kJ/mol
# GULP energy per Si atom -12389.781494 kJ/mol
# Density = 1.860667 g / cm^3
# Si number density = 18.649116 Si / 1000 Ang^3
#
#
#
# Elastic Constant Matrix: (Units=GPa)
#
#
# Indices 1 2 3 4 5 6 
#
# 1 93.0390 86.4712 46.1299 0.0000 -1.2851 0.0000
# 2 86.4712 186.9661 56.8916 0.0000 2.5638 0.0000
# 3 46.1299 56.8916 96.4621 0.0000 8.0540 0.0000
# 4 0.0000 0.0000 0.0000 -5.6650 0.0000 -39.3785
# 5 -1.2851 2.5638 8.0540 0.0000 16.6933 0.0000
# 6 0.0000 0.0000 0.0000 -39.3785 0.0000 -10.3525
#
#
#
# Elastic Compliance Matrix: (Units=1/GPa)
#
#
# Indices 1 2 3 4 5 6 
#
# 1 0.021307 -0.008150 -0.005861 0.000000 0.005719 0.000000
# 2 -0.008150 0.009648 -0.001685 0.000000 -0.001296 0.000000
# 3 -0.005861 -0.001685 0.014774 0.000000 -0.007321 0.000000
# 4 0.000000 0.000000 0.000000 0.006939 0.000000 -0.026393
# 5 0.005719 -0.001296 -0.007321 0.000000 0.064076 0.000000
# 6 0.000000 0.000000 0.000000 -0.026393 0.000000 0.003797
#
#
# Mechanical properties :
#
#
# Convention : Reuss Voigt Hill
#
# Bulk Modulus (GPa) = 69.73615 83.93917 76.83766
# Shear Modulus (GPa) = 31.90587 12.60010 22.25298
#
# Velocity S-wave (km/s) = 4.14073 2.60213 3.45809
# Velocity P-wave (km/s) = 7.76762 7.35769 7.56543
#
# Compressibility (1/GPa) = 0.01433976
#
# Stress axis : x y z
#
# Youngs Moduli (GPa) = 46.93226 103.64621 67.68529
#
# Poissons Ratio (x) = 0.84469 0.39667
# Poissons Ratio (y) = 0.38248 0.11403
# Poissons Ratio (z) = 0.27505 0.17462
#
# Static dielectric constant tensor:
#      x y z
#    x 3.455670 0.000000 -0.039820 
#    y 0.000000 3.659240 0.000000 
#    z -0.039820 0.000000 3.337090 
# 
# 
# High freq. dielectric constant tensor:
#      x y z
#    x 1.707600 0.000000 0.002340 
#    y 0.000000 1.737310 0.000000 
#    z 0.002340 0.000000 1.722010 
# 
# From -- ./inp_files/172440.got.cif
#   From: 2010.06.25/outbox.cif.g09.slc.cpg/sg12_87_cif.got.tgz:172440.got - 2010.06.28 00:19:55.
