data_PCOD8097128
_publ_section_title
;
Structure prediction by ZEFSAII (Michael W. Deem and Ramdas Pophale) SiO2 
 PCOD8097128
Probable space group: C 2/M
;
_chemical_formula_sum "Si O2"
_cell_formula_units_Z 48
_cell_length_a 18.478166
_cell_length_b 15.023226
_cell_length_c 8.778296
_cell_angle_alpha 90.000000
_cell_angle_beta 84.300030
_cell_angle_gamma 90.000000
_cell_volume 2424.820771
_symmetry_space_group_name_H-M "C 2/M"
_symmetry_group_IT_number 12
_symmetry_cell_setting 'monoclinic'
loop_
_space_group_symop_operation_xyz
x,y,z
-x,y,-z
-x,-y,-z
x,-y,z
1/2+x,1/2+y,z
1/2-x,1/2+y,-z
1/2-x,1/2-y,-z
1/2+x,1/2-y,z
loop_
_atom_site_type_symbol
_atom_site_label
_atom_site_fract_x
_atom_site_fract_y
_atom_site_fract_z
Si Si1 0.424029 0.244515 0.444049
Si Si2 0.325392 0.597846 0.422219
Si Si3 0.291535 0.159558 0.961960
Si Si4 0.355049 0.405027 0.059429
Si Si5 0.333326 0.896791 0.623889
Si Si6 0.575464 0.225504 0.914289
O O1 0.500000 0.272479 0.500000
O O2 0.368564 0.324314 0.499912
O O3 0.397674 0.151400 0.519474
O O4 0.433384 0.234330 0.262670
O O5 0.347889 0.500000 0.481479
O O6 0.341987 0.602886 0.241066
O O7 0.239337 0.612529 0.462894
O O8 0.225685 0.089598 0.001816
O O9 0.324395 0.152274 0.786553
O O10 0.250000 0.250000 0.000000
O O11 0.360100 0.154025 0.063555
O O12 0.393466 0.500000 0.010729
O O13 0.404642 0.320061 0.005263
O O14 0.354076 0.000000 0.645436
O O15 0.500000 0.190704 0.000000
#
# Coordination Sequence:
#
# PCOD8097128 Si02
#       6
#     8   8   8   8   8   8
#     4  11  22  35  55  80 112 152 187 224 273 329
#     4   8  16  32  55  82 109 139 176 222 276 329
#     4   9  17  32  56  80 103 134 174 221 269 319
#     4   8  15  30  53  79 105 133 168 214 271 330
#     4  10  20  37  60  82 109 145 184 227 276 329
#     4  10  20  34  52  77 108 142 181 224 270 319
#
# _framework density 19.795278
#
# number of rings (size 3 to 8) (size 9 to 14) (size 15 to 20)
#    0.000    2.667    0.000    4.000    0.000    1.000 
#    0.000    1.667    0.000   16.500    0.000    0.000 
#    0.000    0.000    0.000    0.000    0.000    0.000 
#
# Total GULP energy -297356.687674 kJ/mol
# GULP energy per Si atom -12389.861986 kJ/mol
# Density = 1.975022 g / cm^3
# Si number density = 19.795278 Si / 1000 Ang^3
#
#
#
# Elastic Constant Matrix: (Units=GPa)
#
#
# Indices 1 2 3 4 5 6 
#
# 1 94.0466 25.8923 30.7312 0.0000 21.7591 0.0000
# 2 25.8923 98.2952 28.7875 0.0000 6.0133 0.0000
# 3 30.7312 28.7875 62.6699 0.0000 12.0163 0.0000
# 4 0.0000 0.0000 0.0000 20.6336 0.0000 -3.2877
# 5 21.7591 6.0133 12.0163 0.0000 28.2085 0.0000
# 6 0.0000 0.0000 0.0000 -3.2877 0.0000 22.2455
#
#
#
# Elastic Compliance Matrix: (Units=1/GPa)
#
#
# Indices 1 2 3 4 5 6 
#
# 1 0.014769 -0.001992 -0.004600 0.000000 -0.009008 0.000000
# 2 -0.001992 0.012025 -0.004737 0.000000 0.000991 0.000000
# 3 -0.004600 -0.004737 0.021250 0.000000 -0.004494 0.000000
# 4 0.000000 0.000000 0.000000 0.049633 0.000000 0.007335
# 5 -0.009008 0.000991 -0.004494 0.000000 0.044102 0.000000
# 6 0.000000 0.000000 0.000000 0.007335 0.000000 0.046037
#
#
# Mechanical properties :
#
#
# Convention : Reuss Voigt Hill
#
# Bulk Modulus (GPa) = 39.39195 47.31487 43.35341
# Shear Modulus (GPa) = 22.83783 25.52423 24.18103
#
# Velocity S-wave (km/s) = 3.40030 3.59473 3.49887
# Velocity P-wave (km/s) = 5.94634 6.41743 6.18637
#
# Compressibility (1/GPa) = 0.02538589
#
# Stress axis : x y z
#
# Youngs Moduli (GPa) = 67.71088 83.16150 47.05937
#
# Poissons Ratio (x) = 0.16566 0.21646
# Poissons Ratio (y) = 0.13488 0.22291
# Poissons Ratio (z) = 0.31146 0.39392
#
# Static dielectric constant tensor:
#      x y z
#    x 3.866840 0.000000 0.243610 
#    y 0.000000 3.894130 0.000000 
#    z 0.243610 0.000000 3.280480 
# 
# 
# High freq. dielectric constant tensor:
#      x y z
#    x 1.772210 0.000000 0.006170 
#    y 0.000000 1.768130 0.000000 
#    z 0.006170 0.000000 1.737590 
# 
# From -- ./inp_files/73622.got.cif
#   From: 2010.06.25/outbox.cif.g09.slc.cpg/sg12_37_cif.got.tgz:73622.got - 2010.06.28 00:19:55.
