data_PCOD8097221
_publ_section_title
;
Structure prediction by ZEFSAII (Michael W. Deem and Ramdas Pophale) SiO2 
 PCOD8097221
Probable space group: C 2/M
;
_chemical_formula_sum "Si O2"
_cell_formula_units_Z 56
_cell_length_a 18.974125
_cell_length_b 10.104251
_cell_length_c 23.794060
_cell_angle_alpha 90.000000
_cell_angle_beta 138.755491
_cell_angle_gamma 90.000000
_cell_volume 3007.462532
_symmetry_space_group_name_H-M "C 2/M"
_symmetry_group_IT_number 12
_symmetry_cell_setting 'monoclinic'
loop_
_space_group_symop_operation_xyz
x,y,z
-x,y,-z
-x,-y,-z
x,-y,z
1/2+x,1/2+y,z
1/2-x,1/2+y,-z
1/2-x,1/2-y,-z
1/2+x,1/2-y,z
loop_
_atom_site_type_symbol
_atom_site_label
_atom_site_fract_x
_atom_site_fract_y
_atom_site_fract_z
Si Si1 0.568641 0.845608 0.212147
Si Si2 0.116277 0.651215 0.551988
Si Si3 0.824502 0.347195 0.079205
Si Si4 0.855603 0.349865 0.222362
Si Si5 0.176311 0.861928 0.497356
Si Si6 0.905011 0.711186 0.644703
Si Si7 0.274833 0.345377 0.749999
O O1 0.442958 0.840760 0.124285
O O2 0.594038 0.778305 0.287393
O O3 0.625643 0.754060 0.199600
O O4 0.607630 0.000000 0.234693
O O5 0.112398 0.500000 0.529260
O O6 0.154619 0.737967 0.523417
O O7 0.194499 0.670791 0.650698
O O8 0.000000 0.701165 0.500000
O O9 0.783809 0.500000 0.052215
O O10 0.826332 0.288951 0.144009
O O11 0.750000 0.250000 0.000000
O O12 0.820912 0.500000 0.198545
O O13 0.785939 0.288561 0.231140
O O14 0.982336 0.344359 0.310213
O O15 0.116436 0.849312 0.400884
O O16 0.304194 0.877334 0.564656
O O17 0.135503 0.000000 0.499769
O O18 0.311231 0.500000 0.777611
#
# Coordination Sequence:
#
# PCOD8097221 Si02
#       7
#     8   8   8   8   8   8   8
#     4  10  20  37  59  81 109 149 183 218 277 337
#     4  10  21  35  51  73 106 149 191 233 281 329
#     4   9  19  37  63  89 111 139 176 218 267 328
#     4   9  18  36  59  79 106 145 185 217 265 332
#     4  11  22  33  51  78 106 140 188 241 285 320
#     4  10  20  34  53  75 105 144 188 227 274 327
#     4  10  20  34  54  81 107 140 187 233 270 316
#
# _framework density 18.620349000000001
#
# number of rings (size 3 to 8) (size 9 to 14) (size 15 to 20)
#    0.000    2.143    1.429    3.000    0.000    6.000 
#    0.000    5.714    0.000    4.286    0.000    0.000 
#    0.000    0.000    0.000    0.000    0.000    0.000 
#
# Total GULP energy -346875.619069 kJ/mol
# GULP energy per Si atom -12388.414967 kJ/mol
# Density = 1.857797 g / cm^3
# Si number density = 18.620349 Si / 1000 Ang^3
#
#
#
# Elastic Constant Matrix: (Units=GPa)
#
#
# Indices 1 2 3 4 5 6 
#
# 1 136.0793 62.9568 41.6878 0.0000 2.4392 0.0000
# 2 62.9568 94.6702 48.7128 0.0000 -1.3939 0.0000
# 3 41.6878 48.7128 97.1117 0.0000 0.5819 0.0000
# 4 0.0000 0.0000 0.0000 -12.1851 0.0000 -14.0996
# 5 2.4392 -1.3939 0.5819 0.0000 16.8693 0.0000
# 6 0.0000 0.0000 0.0000 -14.0996 0.0000 9.8360
#
#
#
# Elastic Compliance Matrix: (Units=1/GPa)
#
#
# Indices 1 2 3 4 5 6 
#
# 1 0.010822 -0.006528 -0.001359 0.000000 -0.002057 0.000000
# 2 -0.006528 0.018210 -0.006348 0.000000 0.002667 0.000000
# 3 -0.001359 -0.006348 0.014070 0.000000 -0.000813 0.000000
# 4 0.000000 0.000000 0.000000 -0.030868 0.000000 -0.044248
# 5 -0.002057 0.002667 -0.000813 0.000000 0.059825 0.000000
# 6 0.000000 0.000000 0.000000 -0.044248 0.000000 0.038239
#
#
# Mechanical properties :
#
#
# Convention : Reuss Voigt Hill
#
# Bulk Modulus (GPa) = 68.34244 70.50843 69.42544
# Shear Modulus (GPa) = 34.80799 14.53764 24.67282
#
# Velocity S-wave (km/s) = 4.32829 2.79720 3.64407
# Velocity P-wave (km/s) = 7.85885 6.95564 7.42100
#
# Compressibility (1/GPa) = 0.01463220
#
# Stress axis : x y z
#
# Youngs Moduli (GPa) = 92.40559 54.91580 71.07381
#
# Poissons Ratio (x) = 0.35848 0.09658
# Poissons Ratio (y) = 0.60320 0.45118
# Poissons Ratio (z) = 0.12556 0.34861
#
# Static dielectric constant tensor:
#      x y z
#    x 3.981420 0.000000 -0.254230 
#    y 0.000000 3.357840 0.000000 
#    z -0.254230 0.000000 3.465790 
# 
# 
# High freq. dielectric constant tensor:
#      x y z
#    x 1.725810 0.000000 0.001980 
#    y 0.000000 1.707740 0.000000 
#    z 0.001980 0.000000 1.707720 
# 
# From -- ./inp_files/343103.got.cif
#   From: 2010.06.25/outbox.cif.g09.slc.cpg/sg12_172_cif.got.tgz:343103.got - 2010.06.28 00:19:55.
