data_PCOD8097073
_publ_section_title
;
Structure prediction by ZEFSAII (Michael W. Deem and Ramdas Pophale) SiO2 
 PCOD8097073
Probable space group: C 2/M
;
_chemical_formula_sum "Si O2"
_cell_formula_units_Z 56
_cell_length_a 18.760798
_cell_length_b 8.908171
_cell_length_c 18.102545
_cell_angle_alpha 90.000000
_cell_angle_beta 90.643505
_cell_angle_gamma 90.000000
_cell_volume 3025.186100
_symmetry_space_group_name_H-M "C 2/M"
_symmetry_group_IT_number 12
_symmetry_cell_setting 'monoclinic'
loop_
_space_group_symop_operation_xyz
x,y,z
-x,y,-z
-x,-y,-z
x,-y,z
1/2+x,1/2+y,z
1/2-x,1/2+y,-z
1/2-x,1/2-y,-z
1/2+x,1/2-y,z
loop_
_atom_site_type_symbol
_atom_site_label
_atom_site_fract_x
_atom_site_fract_y
_atom_site_fract_z
Si Si1 0.163744 0.672332 0.071230
Si Si2 0.084088 0.832999 0.645365
Si Si3 0.073682 0.178923 0.196560
Si Si4 0.084874 0.165554 0.359246
Si Si5 0.078423 0.678008 0.795439
Si Si6 0.167774 0.827673 0.920892
Si Si7 0.085161 0.667570 0.501677
O O1 0.138022 0.500000 0.068208
O O2 0.128342 0.758593 0.138237
O O3 0.247694 0.683349 0.082922
O O4 0.139363 0.754772 0.996262
O O5 0.104858 0.730249 0.715085
O O6 0.115948 0.763590 0.570360
O O7 0.999828 0.841698 0.636702
O O8 0.115830 0.000000 0.656893
O O9 0.104456 0.225891 0.277695
O O10 0.996457 0.249770 0.182273
O O11 0.066163 0.000000 0.190886
O O12 0.115678 0.270847 0.424177
O O13 0.117079 0.000000 0.372007
O O14 0.071212 0.500000 0.796142
O O15 0.137443 0.731432 0.853567
O O16 0.141790 0.000000 0.916587
O O17 0.113957 0.500000 0.511508
O O18 0.000000 0.671606 0.500000
#
# Coordination Sequence:
#
# PCOD8097073 Si02
#       7
#     8   8   8   8   8   8   8
#     4  10  21  37  57  79 101 128 166 209 249 295
#     4   9  16  27  42  62  93 130 165 201 246 296
#     4  10  20  34  52  75 105 137 168 205 253 303
#     4   8  15  26  40  61  91 128 164 198 240 291
#     4  11  21  33  51  76 105 133 168 211 252 296
#     4  10  21  38  57  76 101 132 166 204 250 302
#     4   9  15  22  36  60  90 125 163 202 243 286
#
# _framework density 18.511258000000002
#
# number of rings (size 3 to 8) (size 9 to 14) (size 15 to 20)
#    0.000    2.429    0.000    4.286    0.000    8.000 
#    0.000    2.857    0.000    0.000    0.000    1.000 
#    0.000    0.000    0.000    0.000    0.000    0.000 
#
# Total GULP energy -347159.773198 kJ/mol
# GULP energy per Si atom -12398.563329 kJ/mol
# Density = 1.846913 g / cm^3
# Si number density = 18.511258 Si / 1000 Ang^3
#
#
#
# Elastic Constant Matrix: (Units=GPa)
#
#
# Indices 1 2 3 4 5 6 
#
# 1 13.8351 23.3204 27.4621 0.0000 0.9078 0.0000
# 2 23.3204 147.9484 70.5966 0.0000 -1.8685 0.0000
# 3 27.4621 70.5966 151.5192 0.0000 -5.1613 0.0000
# 4 0.0000 0.0000 0.0000 39.1688 0.0000 -1.2488
# 5 0.9078 -1.8685 -5.1613 0.0000 -4.4867 0.0000
# 6 0.0000 0.0000 0.0000 -1.2488 0.0000 20.6719
#
#
#
# Elastic Compliance Matrix: (Units=1/GPa)
#
#
# Indices 1 2 3 4 5 6 
#
# 1 0.116483 -0.010865 -0.014524 0.000000 0.044800 0.000000
# 2 -0.010865 0.009700 -0.002659 0.000000 -0.003179 0.000000
# 3 -0.014524 -0.002659 0.010016 0.000000 -0.013353 0.000000
# 4 0.000000 0.000000 0.000000 0.025580 0.000000 0.001545
# 5 0.044800 -0.003179 -0.013353 0.000000 -0.197130 0.000000
# 6 0.000000 0.000000 0.000000 0.001545 0.000000 0.048468
#
#
# Mechanical properties :
#
#
# Convention : Reuss Voigt Hill
#
# Bulk Modulus (GPa) = 12.48361 61.78455 37.13408
# Shear Modulus (GPa) = 52.13077 23.86570 37.99823
#
# Velocity S-wave (km/s) = 5.31251 3.59451 4.53560
# Velocity P-wave (km/s) = 6.66249 7.11875 6.89440
#
# Compressibility (1/GPa) = 0.08010502
#
# Stress axis : x y z
#
# Youngs Moduli (GPa) = 8.58494 103.09137 99.83926
#
# Poissons Ratio (x) = 1.12004 1.45006
# Poissons Ratio (y) = 0.09327 0.26544
# Poissons Ratio (z) = 0.12469 0.27409
#
# Static dielectric constant tensor:
#      x y z
#    x 2.833010 0.000000 -0.100730 
#    y 0.000000 3.668320 0.000000 
#    z -0.100730 0.000000 3.709470 
# 
# 
# High freq. dielectric constant tensor:
#      x y z
#    x 1.654370 0.000000 -0.007410 
#    y 0.000000 1.735790 0.000000 
#    z -0.007410 0.000000 1.737700 
# 
# From -- ./inp_files/280447.got.cif
#   From: 2010.06.25/outbox.cif.g09.slc.cpg/sg12_141_cif.got.tgz:280447.got - 2010.06.28 00:19:55.
