data_PCOD8097103
_publ_section_title
;
Structure prediction by ZEFSAII (Michael W. Deem and Ramdas Pophale) SiO2 
 PCOD8097103
Probable space group: C 2/M
;
_chemical_formula_sum "Si O2"
_cell_formula_units_Z 56
_cell_length_a 27.794801
_cell_length_b 9.414100
_cell_length_c 15.018952
_cell_angle_alpha 90.000000
_cell_angle_beta 130.716141
_cell_angle_gamma 90.000000
_cell_volume 2978.673538
_symmetry_space_group_name_H-M "C 2/M"
_symmetry_group_IT_number 12
_symmetry_cell_setting 'monoclinic'
loop_
_space_group_symop_operation_xyz
x,y,z
-x,y,-z
-x,-y,-z
x,-y,z
1/2+x,1/2+y,z
1/2-x,1/2+y,-z
1/2-x,1/2-y,-z
1/2+x,1/2-y,z
loop_
_atom_site_type_symbol
_atom_site_label
_atom_site_fract_x
_atom_site_fract_y
_atom_site_fract_z
Si Si1 0.546662 0.668954 0.477934
Si Si2 0.611496 0.837697 0.918069
Si Si3 0.064834 0.839207 0.124673
Si Si4 0.815574 0.159376 0.322423
Si Si5 0.677701 0.163801 0.180431
Si Si6 0.004061 0.160879 0.230435
Si Si7 0.691755 0.339666 0.895819
O O1 0.500000 0.728276 0.500000
O O2 0.550950 0.500000 0.493994
O O3 0.618048 0.736172 0.571676
O O4 0.523258 0.713731 0.351910
O O5 0.545864 0.770749 0.872448
O O6 0.629289 0.739692 0.855566
O O7 0.602653 0.000000 0.876845
O O8 0.663582 0.825548 0.058220
O O9 0.126631 0.749489 0.175006
O O10 0.061227 0.834128 0.228082
O O11 0.075605 0.000000 0.103743
O O12 0.000000 0.780986 0.000000
O O13 0.749612 0.226542 0.281544
O O14 0.811158 0.157370 0.212081
O O15 0.818048 0.000000 0.363008
O O16 0.673767 0.000000 0.205751
O O17 0.976879 0.000000 0.203048
O O18 0.695831 0.500000 0.938763
O O19 0.750000 0.250000 0.000000
#
# Coordination Sequence:
#
# PCOD8097103 Si02
#       7
#     8   8   8   8   8   8   8
#     4   9  17  32  57  83 104 135 184 230 264 311
#     4  11  21  33  50  78 111 142 178 220 271 328
#     4  10  20  34  52  78 111 140 174 223 278 328
#     4   9  18  34  53  77 109 141 180 227 266 316
#     4  10  20  34  52  76 107 142 180 219 268 326
#     4  10  20  35  56  81 105 138 182 227 275 319
#     4  11  20  32  51  77 110 142 177 220 270 325
#
# _framework density 18.800315000000001
#
# number of rings (size 3 to 8) (size 9 to 14) (size 15 to 20)
#    0.000    2.000    2.857    1.714    0.000    3.714 
#    0.000    0.714    0.000    5.571    0.000    0.000 
#    0.000    0.000    0.000    0.000    0.000    0.000 
#
# Total GULP energy -346972.656820 kJ/mol
# GULP energy per Si atom -12391.880601 kJ/mol
# Density = 1.875752 g / cm^3
# Si number density = 18.800315 Si / 1000 Ang^3
#
#
#
# Elastic Constant Matrix: (Units=GPa)
#
#
# Indices 1 2 3 4 5 6 
#
# 1 134.6821 44.3955 46.1563 0.0000 16.9108 0.0000
# 2 44.3955 81.0030 21.4938 0.0000 8.6668 0.0000
# 3 46.1563 21.4938 80.0848 0.0000 12.4927 0.0000
# 4 0.0000 0.0000 0.0000 13.6796 0.0000 0.2834
# 5 16.9108 8.6668 12.4927 0.0000 36.4810 0.0000
# 6 0.0000 0.0000 0.0000 0.2834 0.0000 30.8406
#
#
#
# Elastic Compliance Matrix: (Units=1/GPa)
#
#
# Indices 1 2 3 4 5 6 
#
# 1 0.010771 -0.004417 -0.004656 0.000000 -0.002349 0.000000
# 2 -0.004417 0.015249 -0.001375 0.000000 -0.001105 0.000000
# 3 -0.004656 -0.001375 0.016007 0.000000 -0.002996 0.000000
# 4 0.000000 0.000000 0.000000 0.073116 0.000000 -0.000672
# 5 -0.002349 -0.001105 -0.002996 0.000000 0.029789 0.000000
# 6 0.000000 0.000000 0.000000 -0.000672 0.000000 0.032431
#
#
# Mechanical properties :
#
#
# Convention : Reuss Voigt Hill
#
# Bulk Modulus (GPa) = 47.32221 57.76235 52.54228
# Shear Modulus (GPa) = 24.35439 28.44852 26.40145
#
# Velocity S-wave (km/s) = 3.60311 3.89420 3.75148
# Velocity P-wave (km/s) = 6.52192 7.14217 6.83908
#
# Compressibility (1/GPa) = 0.02113173
#
# Stress axis : x y z
#
# Youngs Moduli (GPa) = 92.83800 65.57875 62.47376
#
# Poissons Ratio (x) = 0.28964 0.29089
# Poissons Ratio (y) = 0.41003 0.08589
# Poissons Ratio (z) = 0.43227 0.09016
#
# Static dielectric constant tensor:
#      x y z
#    x 3.875910 0.000000 0.275210 
#    y 0.000000 3.657240 0.000000 
#    z 0.275210 0.000000 3.882070 
# 
# 
# High freq. dielectric constant tensor:
#      x y z
#    x 1.742920 0.000000 0.007730 
#    y 0.000000 1.696160 0.000000 
#    z 0.007730 0.000000 1.712050 
# 
# From -- ./inp_files/249275.got.cif
#   From: 2010.06.25/outbox.cif.g09.slc.cpg/sg12_125_cif.got.tgz:249275.got - 2010.06.28 00:19:55.
