data_PCOD8097938
_publ_section_title
;
Structure prediction by ZEFSAII (Michael W. Deem and Ramdas Pophale) SiO2 
 PCOD8097938
Probable space group: C 2/M
;
_chemical_formula_sum "Si O2"
_cell_formula_units_Z 56
_cell_length_a 16.475179
_cell_length_b 12.596376
_cell_length_c 16.411781
_cell_angle_alpha 90.000000
_cell_angle_beta 62.854944
_cell_angle_gamma 90.000000
_cell_volume 3030.751816
_symmetry_space_group_name_H-M "C 2/M"
_symmetry_group_IT_number 12
_symmetry_cell_setting 'monoclinic'
loop_
_space_group_symop_operation_xyz
x,y,z
-x,y,-z
-x,-y,-z
x,-y,z
1/2+x,1/2+y,z
1/2-x,1/2+y,-z
1/2-x,1/2-y,-z
1/2+x,1/2-y,z
loop_
_atom_site_type_symbol
_atom_site_label
_atom_site_fract_x
_atom_site_fract_y
_atom_site_fract_z
Si Si1 0.032017 0.254019 0.155517
Si Si2 0.267371 0.749038 0.679593
Si Si3 0.175421 0.224502 0.968089
Si Si4 0.401844 0.621729 0.507410
Si Si5 0.822229 0.622879 0.803420
Si Si6 0.103011 0.875957 0.679157
Si Si7 0.133877 0.624495 0.846188
O O1 0.102620 0.326526 0.172386
O O2 0.986426 0.167929 0.234895
O O3 0.958307 0.331120 0.149920
O O4 0.084308 0.189590 0.058935
O O5 0.330467 0.699759 0.581671
O O6 0.327689 0.819253 0.713743
O O7 0.194572 0.824807 0.670673
O O8 0.218984 0.653117 0.749580
O O9 0.218913 0.136286 0.887565
O O10 0.150641 0.329308 0.928260
O O11 0.250000 0.250000 0.000000
O O12 0.500000 0.642380 0.500000
O O13 0.370915 0.500000 0.534299
O O14 0.406732 0.651634 0.410798
O O15 0.844180 0.500000 0.781326
O O16 0.108061 0.000000 0.693788
O O17 0.125403 0.500000 0.859014
#
# Coordination Sequence:
#
# PCOD8097938 Si02
#       7
#     8   8   8   8   8   8   8
#     4  10  20  35  54  80 109 137 177 223 262 310
#     4  10  20  36  55  78 110 140 174 217 261 316
#     4   9  20  34  49  76 107 138 176 214 259 312
#     4  10  20  35  57  82 106 136 175 219 267 313
#     4  10  20  35  54  76 106 143 178 215 265 318
#     4  10  21  36  56  80 106 141 177 213 265 319
#     4  10  20  34  55  80 106 139 178 221 265 308
#
# _framework density 18.477264000000002
#
# number of rings (size 3 to 8) (size 9 to 14) (size 15 to 20)
#    0.000    2.143    0.000    3.000    0.000    4.000 
#    0.000    7.143    0.000   15.429    0.000    0.000 
#    0.000    0.000    0.000    0.000    0.000    0.000 
#
# Total GULP energy -347175.018458 kJ/mol
# GULP energy per Si atom -12399.107802 kJ/mol
# Density = 1.843521 g / cm^3
# Si number density = 18.477264 Si / 1000 Ang^3
#
#
#
# Elastic Constant Matrix: (Units=GPa)
#
#
# Indices 1 2 3 4 5 6 
#
# 1 88.1706 43.0149 53.5885 0.0000 9.6230 0.0000
# 2 43.0149 93.6267 69.4214 0.0000 -6.2029 0.0000
# 3 53.5885 69.4214 147.1005 0.0000 -7.6178 0.0000
# 4 0.0000 0.0000 0.0000 16.1138 0.0000 2.9400
# 5 9.6230 -6.2029 -7.6178 0.0000 34.0085 0.0000
# 6 0.0000 0.0000 0.0000 2.9400 0.0000 22.8621
#
#
#
# Elastic Compliance Matrix: (Units=1/GPa)
#
#
# Indices 1 2 3 4 5 6 
#
# 1 0.017147 -0.005282 -0.004103 0.000000 -0.006734 0.000000
# 2 -0.005282 0.018112 -0.006450 0.000000 0.003353 0.000000
# 3 -0.004103 -0.006450 0.011469 0.000000 0.002553 0.000000
# 4 0.000000 0.000000 0.000000 0.063550 0.000000 -0.008172
# 5 -0.006734 0.003353 0.002553 0.000000 0.032494 0.000000
# 6 0.000000 0.000000 0.000000 -0.008172 0.000000 0.044792
#
#
# Mechanical properties :
#
#
# Convention : Reuss Voigt Hill
#
# Bulk Modulus (GPa) = 66.40585 73.43862 69.92223
# Shear Modulus (GPa) = 22.29648 25.45506 23.87577
#
# Velocity S-wave (km/s) = 3.47752 3.71569 3.59858
# Velocity P-wave (km/s) = 7.22091 7.63152 7.42905
#
# Compressibility (1/GPa) = 0.01505891
#
# Stress axis : x y z
#
# Youngs Moduli (GPa) = 58.31909 55.21257 87.19392
#
# Poissons Ratio (x) = 0.29164 0.35772
# Poissons Ratio (y) = 0.30804 0.56237
# Poissons Ratio (z) = 0.23926 0.35610
#
# Static dielectric constant tensor:
#      x y z
#    x 3.546150 0.000000 0.075060 
#    y 0.000000 3.179100 0.000000 
#    z 0.075060 0.000000 3.308210 
# 
# 
# High freq. dielectric constant tensor:
#      x y z
#    x 1.731190 0.000000 0.007730 
#    y 0.000000 1.701840 0.000000 
#    z 0.007730 0.000000 1.730050 
# 
# From -- ./inp_files/223736.got.cif
#   From: 2010.06.25/outbox.cif.g09.slc.cpg/sg12_112_cif.got.tgz:223736.got - 2010.06.28 00:19:55.
