data_PCOD8097546
_publ_section_title
;
Structure prediction by ZEFSAII (Michael W. Deem and Ramdas Pophale) SiO2 
 PCOD8097546
Probable space group: C 2/M
;
_chemical_formula_sum "Si O2"
_cell_formula_units_Z 64
_cell_length_a 20.072092
_cell_length_b 9.177640
_cell_length_c 21.958013
_cell_angle_alpha 90.000000
_cell_angle_beta 117.371591
_cell_angle_gamma 90.000000
_cell_volume 3592.120639
_symmetry_space_group_name_H-M "C 2/M"
_symmetry_group_IT_number 12
_symmetry_cell_setting 'monoclinic'
loop_
_space_group_symop_operation_xyz
x,y,z
-x,y,-z
-x,-y,-z
x,-y,z
1/2+x,1/2+y,z
1/2-x,1/2+y,-z
1/2-x,1/2-y,-z
1/2+x,1/2-y,z
loop_
_atom_site_type_symbol
_atom_site_label
_atom_site_fract_x
_atom_site_fract_y
_atom_site_fract_z
Si Si1 0.191441 0.666479 0.792537
Si Si2 0.420416 0.326789 0.945549
Si Si3 0.725535 0.330464 0.049858
Si Si4 0.653974 0.330994 0.208510
Si Si5 0.093434 0.669231 0.297925
Si Si6 0.039403 0.831737 0.454425
Si Si7 0.327029 0.831067 0.542198
Si Si8 0.958517 0.169354 0.295984
O O1 0.164399 0.500000 0.774076
O O2 0.214391 0.698117 0.871721
O O3 0.261172 0.696680 0.777332
O O4 0.125409 0.774077 0.746528
O O5 0.420540 0.500000 0.949475
O O6 0.355374 0.268303 0.962985
O O7 0.403007 0.281324 0.868851
O O8 0.500000 0.260001 0.000000
O O9 0.719488 0.500000 0.032450
O O10 0.750000 0.250000 0.000000
O O11 0.641803 0.500000 0.220071
O O12 0.638157 0.232403 0.259817
O O13 0.076961 0.500000 0.280619
O O14 0.145846 0.696931 0.377934
O O15 0.013802 0.748859 0.272611
O O16 0.113077 0.733753 0.479731
O O17 0.000000 0.784403 0.500000
O O18 0.982433 0.800700 0.375413
O O19 0.064322 0.000000 0.466158
O O20 0.250000 0.750000 0.500000
O O21 0.316301 0.000000 0.523037
O O22 0.961170 0.000000 0.280546
#
# Coordination Sequence:
#
# PCOD8097546 Si02
#       8
#     8   8   8   8   8   8   8   8
#     4   9  19  35  51  71 105 140 168 208 258 301
#     4   8  15  30  51  73  98 129 166 206 246 291
#     4   9  18  32  50  73 101 132 165 205 252 298
#     4   9  18  33  53  76 102 135 173 209 249 301
#     4  10  21  36  53  75 105 136 166 208 259 302
#     4   9  19  36  55  76 104 133 164 210 260 301
#     4  10  21  36  54  76 103 136 171 207 250 301
#     4  10  20  34  54  77 100 132 174 212 249 302
#
# _framework density 17.816773000000001
#
# number of rings (size 3 to 8) (size 9 to 14) (size 15 to 20)
#    0.000    2.750    0.000    2.625    0.000    5.250 
#    0.000    6.875    0.000    0.750    0.000    0.000 
#    0.000    0.000    0.000    0.000    0.000    0.000 
#
# Total GULP energy -396833.261988 kJ/mol
# GULP energy per Si atom -12401.039437 kJ/mol
# Density = 1.777622 g / cm^3
# Si number density = 17.816773 Si / 1000 Ang^3
#
#
#
# Elastic Constant Matrix: (Units=GPa)
#
#
# Indices 1 2 3 4 5 6 
#
# 1 129.0060 74.1020 78.0683 0.0000 -1.7254 0.0000
# 2 74.1020 95.0570 58.5663 0.0000 0.6222 0.0000
# 3 78.0683 58.5663 81.1105 0.0000 -3.2567 0.0000
# 4 0.0000 0.0000 0.0000 30.1258 0.0000 -1.1070
# 5 -1.7254 0.6222 -3.2567 0.0000 40.1582 0.0000
# 6 0.0000 0.0000 0.0000 -1.1070 0.0000 35.8300
#
#
#
# Elastic Compliance Matrix: (Units=1/GPa)
#
#
# Indices 1 2 3 4 5 6 
#
# 1 0.020876 -0.007003 -0.015045 0.000000 -0.000215 0.000000
# 2 -0.007003 0.021379 -0.008751 0.000000 -0.001342 0.000000
# 3 -0.015045 -0.008751 0.033215 0.000000 0.002183 0.000000
# 4 0.000000 0.000000 0.000000 0.033232 0.000000 0.001027
# 5 -0.000215 -0.001342 0.002183 0.000000 0.025090 0.000000
# 6 0.000000 0.000000 0.000000 0.001027 0.000000 0.027941
#
#
# Mechanical properties :
#
#
# Convention : Reuss Voigt Hill
#
# Bulk Modulus (GPa) = 72.07883 80.73851 76.40867
# Shear Modulus (GPa) = 21.93415 27.51859 24.72637
#
# Velocity S-wave (km/s) = 3.51250 3.93432 3.72938
# Velocity P-wave (km/s) = 7.54942 8.12729 7.84368
#
# Compressibility (1/GPa) = 0.01387370
#
# Stress axis : x y z
#
# Youngs Moduli (GPa) = 47.90294 46.77399 30.10644
#
# Poissons Ratio (x) = 0.32755 0.45294
# Poissons Ratio (y) = 0.33546 0.26345
# Poissons Ratio (z) = 0.72069 0.40931
#
# Static dielectric constant tensor:
#      x y z
#    x 3.406930 0.000000 0.062110 
#    y 0.000000 3.191050 0.000000 
#    z 0.062110 0.000000 3.315910 
# 
# 
# High freq. dielectric constant tensor:
#      x y z
#    x 1.695750 0.000000 0.000030 
#    y 0.000000 1.680240 0.000000 
#    z 0.000030 0.000000 1.688520 
# 
# From -- ./inp_files/320183.got.cif
#   From: 2010.06.25/outbox.cif.g09.slc.cpg/sg12_161_cif.got.tgz:320183.got - 2010.06.28 00:19:55.
