data_PCOD8097289
_publ_section_title
;
Structure prediction by ZEFSAII (Michael W. Deem and Ramdas Pophale) SiO2 
 PCOD8097289
Probable space group: C 2/M
;
_chemical_formula_sum "Si O2"
_cell_formula_units_Z 64
_cell_length_a 29.088816
_cell_length_b 9.725343
_cell_length_c 12.653607
_cell_angle_alpha 90.000000
_cell_angle_beta 99.155882
_cell_angle_gamma 90.000000
_cell_volume 3534.080609
_symmetry_space_group_name_H-M "C 2/M"
_symmetry_group_IT_number 12
_symmetry_cell_setting 'monoclinic'
loop_
_space_group_symop_operation_xyz
x,y,z
-x,y,-z
-x,-y,-z
x,-y,z
1/2+x,1/2+y,z
1/2-x,1/2+y,-z
1/2-x,1/2-y,-z
1/2+x,1/2-y,z
loop_
_atom_site_type_symbol
_atom_site_label
_atom_site_fract_x
_atom_site_fract_y
_atom_site_fract_z
Si Si1 0.211856 0.842116 0.692584
Si Si2 0.680847 0.845426 0.862550
Si Si3 0.049739 0.841201 0.555427
Si Si4 0.546877 0.160169 0.971500
Si Si5 0.683059 0.158714 0.309187
Si Si6 0.575207 0.151090 0.752952
Si Si7 0.646421 0.163571 0.069579
Si Si8 0.644045 0.659153 0.480591
O O1 0.211201 0.753821 0.799651
O O2 0.261844 0.823196 0.656010
O O3 0.173222 0.792435 0.594165
O O4 0.203210 0.000000 0.721952
O O5 0.628949 0.846357 0.800427
O O6 0.701874 0.000000 0.865237
O O7 0.679166 0.788289 0.983017
O O8 0.064114 0.766911 0.666292
O O9 0.089195 0.817878 0.481074
O O10 0.000000 0.782403 0.500000
O O11 0.045343 0.000000 0.583518
O O12 0.545255 0.183704 0.845764
O O13 0.546872 0.000000 0.000593
O O14 0.500000 0.231130 0.000000
O O15 0.594002 0.225265 0.039395
O O16 0.668465 0.212311 0.187729
O O17 0.656864 0.249348 0.385480
O O18 0.668254 0.000000 0.319187
O O19 0.561978 0.000000 0.703464
O O20 0.643738 0.000000 0.059675
O O21 0.655474 0.500000 0.460097
#
# Coordination Sequence:
#
# PCOD8097289 Si02
#       8
#     8   8   8   8   8   8   8   8
#     4  10  20  34  53  77 102 134 175 213 255 309
#     4   9  17  31  53  76 101 134 169 208 255 305
#     4  10  21  36  53  73 100 137 171 205 259 310
#     4   8  14  26  47  73 100 131 164 199 251 309
#     4  10  21  35  53  77 105 136 171 213 259 307
#     4   9  17  30  50  76 100 126 167 214 250 294
#     4   8  16  31  47  70 105 135 162 207 261 303
#     4  10  21  37  53  71 102 138 173 213 256 305
#
# _framework density 18.109378
#
# number of rings (size 3 to 8) (size 9 to 14) (size 15 to 20)
#    0.000    2.750    1.250    1.875    0.000    3.250 
#    0.000    1.875    0.000    1.125    0.000    0.000 
#    0.000    0.000    0.000    0.000    0.000    0.000 
#
# Total GULP energy -396697.475756 kJ/mol
# GULP energy per Si atom -12396.796117 kJ/mol
# Density = 1.806816 g / cm^3
# Si number density = 18.109378 Si / 1000 Ang^3
#
#
#
# Elastic Constant Matrix: (Units=GPa)
#
#
# Indices 1 2 3 4 5 6 
#
# 1 69.3616 28.1755 41.4777 0.0000 -12.2193 0.0000
# 2 28.1755 50.6687 47.7347 0.0000 -7.9798 0.0000
# 3 41.4777 47.7347 107.0235 0.0000 -5.1727 0.0000
# 4 0.0000 0.0000 0.0000 20.6702 0.0000 -5.0653
# 5 -12.2193 -7.9798 -5.1727 0.0000 22.8295 0.0000
# 6 0.0000 0.0000 0.0000 -5.0653 0.0000 17.2988
#
#
#
# Elastic Compliance Matrix: (Units=1/GPa)
#
#
# Indices 1 2 3 4 5 6 
#
# 1 0.021341 -0.005428 -0.005449 0.000000 0.008291 0.000000
# 2 -0.005428 0.037155 -0.014136 0.000000 0.006879 0.000000
# 3 -0.005449 -0.014136 0.017573 0.000000 -0.003876 0.000000
# 4 0.000000 0.000000 0.000000 0.052119 0.000000 0.015261
# 5 0.008291 0.006879 -0.003876 0.000000 0.049767 0.000000
# 6 0.000000 0.000000 0.000000 0.015261 0.000000 0.062276
#
#
# Mechanical properties :
#
#
# Convention : Reuss Voigt Hill
#
# Bulk Modulus (GPa) = 38.39730 51.31441 44.85585
# Shear Modulus (GPa) = 16.72588 19.47075 18.09832
#
# Velocity S-wave (km/s) = 3.04238 3.28254 3.16474
# Velocity P-wave (km/s) = 5.79573 6.53943 6.17878
#
# Compressibility (1/GPa) = 0.02604350
#
# Stress axis : x y z
#
# Youngs Moduli (GPa) = 46.85749 26.91430 56.90488
#
# Poissons Ratio (x) = 0.14609 0.31009
# Poissons Ratio (y) = 0.25434 0.80440
# Poissons Ratio (z) = 0.25534 0.38045
#
# Static dielectric constant tensor:
#      x y z
#    x 3.582350 0.000000 0.067850 
#    y 0.000000 3.185190 0.000000 
#    z 0.067850 0.000000 3.499610 
# 
# 
# High freq. dielectric constant tensor:
#      x y z
#    x 1.704820 0.000000 -0.004390 
#    y 0.000000 1.669630 0.000000 
#    z -0.004390 0.000000 1.700090 
# 
# From -- ./inp_files/182036.got.cif
#   From: 2010.06.25/outbox.cif.g09.slc.cpg/sg12_92_cif.got.tgz:182036.got - 2010.06.28 00:19:55.
