data_PCOD8097745
_publ_section_title
;
Structure prediction by ZEFSAII (Michael W. Deem and Ramdas Pophale) SiO2 
 PCOD8097745
Probable space group: C 2/M
;
_chemical_formula_sum "Si O2"
_cell_formula_units_Z 64
_cell_length_a 20.720844
_cell_length_b 8.920656
_cell_length_c 24.413500
_cell_angle_alpha 90.000000
_cell_angle_beta 52.253446
_cell_angle_gamma 90.000000
_cell_volume 3568.293053
_symmetry_space_group_name_H-M "C 2/M"
_symmetry_group_IT_number 12
_symmetry_cell_setting 'monoclinic'
loop_
_space_group_symop_operation_xyz
x,y,z
-x,y,-z
-x,-y,-z
x,-y,z
1/2+x,1/2+y,z
1/2-x,1/2+y,-z
1/2-x,1/2-y,-z
1/2+x,1/2-y,z
loop_
_atom_site_type_symbol
_atom_site_label
_atom_site_fract_x
_atom_site_fract_y
_atom_site_fract_z
Si Si1 0.466877 0.822282 0.208895
Si Si2 0.523359 0.177383 0.298456
Si Si3 0.624104 0.823595 0.071558
Si Si4 0.252948 0.173405 0.079849
Si Si5 0.715029 0.822934 0.709723
Si Si6 0.123235 0.823847 0.569016
Si Si7 0.805467 0.826432 0.773348
Si Si8 0.231443 0.323922 0.426071
O O1 0.497439 0.763665 0.251946
O O2 0.531286 0.765240 0.128944
O O3 0.377411 0.758611 0.241750
O O4 0.462490 0.000000 0.211730
O O5 0.464509 0.253074 0.373469
O O6 0.615096 0.224758 0.263850
O O7 0.515320 0.000000 0.307396
O O8 0.678841 0.763304 0.092385
O O9 0.624055 0.000000 0.078435
O O10 0.661059 0.775529 0.993110
O O11 0.254659 0.203934 0.143812
O O12 0.237493 0.000000 0.074650
O O13 0.755082 0.779180 0.746343
O O14 0.766027 0.741565 0.636101
O O15 0.716766 0.000000 0.697977
O O16 0.155856 0.752835 0.495953
O O17 0.184406 0.783265 0.586837
O O18 0.114382 0.000000 0.565337
O O19 0.832202 0.000000 0.757492
O O20 0.215993 0.500000 0.432260
#
# Coordination Sequence:
#
# PCOD8097745 Si02
#       8
#     8   8   8   8   8   8   8   8
#     4   9  17  30  51  77 101 132 176 218 258 305
#     4  11  20  33  55  80 106 136 176 223 260 304
#     4   9  16  29  49  74 101 132 172 219 264 306
#     4   9  17  29  47  73 104 134 171 215 262 312
#     4  10  20  36  54  73 106 145 177 212 262 320
#     4  10  20  34  55  82 110 137 169 214 264 312
#     4  10  21  35  51  75 108 144 176 214 266 318
#     4  10  20  34  54  81 109 137 173 215 259 308
#
# _framework density 17.935746000000002
#
# number of rings (size 3 to 8) (size 9 to 14) (size 15 to 20)
#    0.000    2.250    2.500    1.125    0.000    1.500 
#    0.000    1.875    0.000    7.500    0.000    0.000 
#    0.000    6.000    0.000    0.000    0.000    0.000 
#
# Total GULP energy -396758.244323 kJ/mol
# GULP energy per Si atom -12398.695135 kJ/mol
# Density = 1.789492 g / cm^3
# Si number density = 17.935746 Si / 1000 Ang^3
#
#
#
# Elastic Constant Matrix: (Units=GPa)
#
#
# Indices 1 2 3 4 5 6 
#
# 1 97.7058 29.2017 69.2586 0.0000 1.6961 0.0000
# 2 29.2017 47.6537 43.5631 -0.0001 0.9139 0.0004
# 3 69.2586 43.5631 168.8577 0.0000 -0.8761 0.0001
# 4 0.0000 -0.0001 0.0000 24.0710 0.0000 -0.9181
# 5 1.6961 0.9139 -0.8761 0.0000 28.5505 0.0000
# 6 0.0000 0.0004 0.0001 -0.9181 0.0000 22.4728
#
#
#
# Elastic Compliance Matrix: (Units=1/GPa)
#
#
# Indices 1 2 3 4 5 6 
#
# 1 0.015228 -0.004711 -0.005035 0.000000 -0.000908 0.000000
# 2 -0.004711 0.028953 -0.005541 0.000000 -0.000817 -0.000001
# 3 -0.005035 -0.005541 0.009421 0.000000 0.000766 0.000000
# 4 0.000000 0.000000 0.000000 0.041609 0.000000 0.001700
# 5 -0.000908 -0.000817 0.000766 0.000000 0.035129 0.000000
# 6 0.000000 -0.000001 0.000000 0.001700 0.000000 0.044568
#
#
# Mechanical properties :
#
#
# Convention : Reuss Voigt Hill
#
# Bulk Modulus (GPa) = 43.42832 66.47377 54.95105
# Shear Modulus (GPa) = 23.45676 26.49844 24.97760
#
# Velocity S-wave (km/s) = 3.62031 3.84788 3.73583
# Velocity P-wave (km/s) = 6.46075 7.54216 7.02230
#
# Compressibility (1/GPa) = 0.02302645
#
# Stress axis : x y z
#
# Youngs Moduli (GPa) = 65.66963 34.53860 106.14645
#
# Poissons Ratio (x) = 0.16271 0.53446
# Poissons Ratio (y) = 0.30938 0.58821
# Poissons Ratio (z) = 0.33065 0.19139
#
# Static dielectric constant tensor:
#      x y z
#    x 3.166090 0.000000 -0.134940 
#    y 0.000000 3.170460 0.000000 
#    z -0.134940 0.000000 3.685140 
# 
# 
# High freq. dielectric constant tensor:
#      x y z
#    x 1.661790 0.000000 -0.007460 
#    y 0.000000 1.683570 0.000000 
#    z -0.007460 0.000000 1.714900 
# 
# From -- ./inp_files/346023.got.cif
#   From: 2010.06.25/outbox.cif.g09.slc.cpg/sg12_174_cif.got.tgz:346023.got - 2010.06.28 00:19:55.
