data_PCOD8097893
_publ_section_title
;
Structure prediction by ZEFSAII (Michael W. Deem and Ramdas Pophale) SiO2 
 PCOD8097893
Probable space group: C 2/M
;
_chemical_formula_sum "Si O2"
_cell_formula_units_Z 56
_cell_length_a 24.559639
_cell_length_b 13.144089
_cell_length_c 8.532116
_cell_angle_alpha 90.000000
_cell_angle_beta 81.261149
_cell_angle_gamma 90.000000
_cell_volume 2722.312920
_symmetry_space_group_name_H-M "C 2/M"
_symmetry_group_IT_number 12
_symmetry_cell_setting 'monoclinic'
loop_
_space_group_symop_operation_xyz
x,y,z
-x,y,-z
-x,-y,-z
x,-y,z
1/2+x,1/2+y,z
1/2-x,1/2+y,-z
1/2-x,1/2-y,-z
1/2+x,1/2-y,z
loop_
_atom_site_type_symbol
_atom_site_label
_atom_site_fract_x
_atom_site_fract_y
_atom_site_fract_z
Si Si1 0.339203 0.620388 0.104622
Si Si2 0.648306 0.117553 0.239920
Si Si3 0.452683 0.620520 0.901907
Si Si4 0.722323 0.720644 0.354886
Si Si5 0.132482 0.116978 0.559005
Si Si6 0.765719 0.617171 0.047040
Si Si7 0.053488 0.753296 0.395836
O O1 0.336515 0.500000 0.105015
O O2 0.343981 0.656071 0.283448
O O3 0.392717 0.658846 0.986225
O O4 0.283130 0.662005 0.045877
O O5 0.692029 0.174693 0.327605
O O6 0.588239 0.166023 0.291468
O O7 0.646076 0.000000 0.291101
O O8 0.672891 0.129181 0.052636
O O9 0.454377 0.500000 0.887513
O O10 0.464577 0.664814 0.725857
O O11 0.500000 0.658927 0.000000
O O12 0.750000 0.750000 0.500000
O O13 0.679200 0.628985 0.405135
O O14 0.765254 0.680941 0.207210
O O15 0.083094 0.189528 0.526901
O O16 0.112663 0.000000 0.576929
O O17 0.752969 0.500000 0.088040
O O18 0.000000 0.702447 0.500000
#
# Coordination Sequence:
#
# PCOD8097893 Si02
#       7
#     8   8   8   8   8   8   8
#     4   9  17  31  54  83 117 154 183 214 268 340
#     4  10  23  41  59  80 110 152 198 240 283 334
#     4  10  20  34  55  85 119 152 185 227 286 355
#     4  11  22  34  56  89 121 152 187 227 277 336
#     4  10  20  34  54  85 120 149 183 231 289 347
#     4  10  20  37  60  85 115 150 186 227 279 340
#     4  11  23  38  58  82 108 145 194 247 299 347
#
# _framework density 20.570743
#
# number of rings (size 3 to 8) (size 9 to 14) (size 15 to 20)
#    0.000    1.857    0.000    4.714    0.000    7.143 
#    0.000    0.000    0.000    0.429    0.000    0.000 
#    0.000    0.000    0.000    0.000    0.000    0.000 
#
# Total GULP energy -347096.587463 kJ/mol
# GULP energy per Si atom -12396.306695 kJ/mol
# Density = 2.052392 g / cm^3
# Si number density = 20.570743 Si / 1000 Ang^3
#
#
#
# Elastic Constant Matrix: (Units=GPa)
#
#
# Indices 1 2 3 4 5 6 
#
# 1 98.3994 36.3602 65.1112 0.0000 -15.8201 0.0000
# 2 36.3602 72.1851 53.2839 0.0000 -7.7983 0.0000
# 3 65.1112 53.2839 143.6686 0.0000 -6.7540 0.0000
# 4 0.0000 0.0000 0.0000 32.7611 0.0000 -2.8152
# 5 -15.8201 -7.7983 -6.7540 0.0000 47.4261 0.0000
# 6 0.0000 0.0000 0.0000 -2.8152 0.0000 19.4261
#
#
#
# Elastic Compliance Matrix: (Units=1/GPa)
#
#
# Indices 1 2 3 4 5 6 
#
# 1 0.015824 -0.003291 -0.005767 0.000000 0.003916 0.000000
# 2 -0.003291 0.019979 -0.005855 0.000000 0.001354 0.000000
# 3 -0.005767 -0.005855 0.011688 0.000000 -0.001222 0.000000
# 4 0.000000 0.000000 0.000000 0.030909 0.000000 0.004479
# 5 0.003916 0.001354 -0.001222 0.000000 0.022440 0.000000
# 6 0.000000 0.000000 0.000000 0.004479 0.000000 0.052126
#
#
# Mechanical properties :
#
#
# Convention : Reuss Voigt Hill
#
# Bulk Modulus (GPa) = 56.60557 69.30708 62.95632
# Shear Modulus (GPa) = 26.49979 30.55586 28.52783
#
# Velocity S-wave (km/s) = 3.59308 3.85827 3.72804
# Velocity P-wave (km/s) = 6.69260 7.32213 7.01443
#
# Compressibility (1/GPa) = 0.01766611
#
# Stress axis : x y z
#
# Youngs Moduli (GPa) = 63.19362 50.05301 85.55717
#
# Poissons Ratio (x) = 0.16471 0.49342
# Poissons Ratio (y) = 0.20796 0.50091
# Poissons Ratio (z) = 0.36444 0.29305
#
# Static dielectric constant tensor:
#      x y z
#    x 3.457580 0.000000 -0.011940 
#    y 0.000000 3.429870 0.000000 
#    z -0.011940 0.000000 3.891060 
# 
# 
# High freq. dielectric constant tensor:
#      x y z
#    x 1.793460 0.000000 -0.009230 
#    y 0.000000 1.792150 0.000000 
#    z -0.009230 0.000000 1.817640 
# 
# From -- ./inp_files/96275.got.cif
#   From: 2010.06.25/outbox.cif.g09.slc.cpg/sg12_49_cif.got.tgz:96275.got - 2010.06.28 00:19:55.
