data_PCOD8097410
_publ_section_title
;
Structure prediction by ZEFSAII (Michael W. Deem and Ramdas Pophale) SiO2 
 PCOD8097410
Probable space group: C 2/M
;
_chemical_formula_sum "Si O2"
_cell_formula_units_Z 56
_cell_length_a 21.073327
_cell_length_b 8.890374
_cell_length_c 29.905563
_cell_angle_alpha 90.000000
_cell_angle_beta 150.595226
_cell_angle_gamma 90.000000
_cell_volume 2750.842258
_symmetry_space_group_name_H-M "C 2/M"
_symmetry_group_IT_number 12
_symmetry_cell_setting 'monoclinic'
loop_
_space_group_symop_operation_xyz
x,y,z
-x,y,-z
-x,-y,-z
x,-y,z
1/2+x,1/2+y,z
1/2-x,1/2+y,-z
1/2-x,1/2-y,-z
1/2+x,1/2-y,z
loop_
_atom_site_type_symbol
_atom_site_label
_atom_site_fract_x
_atom_site_fract_y
_atom_site_fract_z
Si Si1 0.363811 0.679396 0.792083
Si Si2 0.628822 0.678605 0.102041
Si Si3 0.169970 0.335315 0.510684
Si Si4 0.854758 0.323239 0.407480
Si Si5 0.058982 0.165158 0.368625
Si Si6 0.130656 0.323669 0.809554
Si Si7 0.876486 0.821469 0.098974
O O1 0.361649 0.500000 0.790135
O O2 0.357454 0.742257 0.838983
O O3 0.238778 0.745170 0.688458
O O4 0.496573 0.734337 0.850028
O O5 0.623823 0.500000 0.101629
O O6 0.744769 0.731999 0.141526
O O7 0.500000 0.743355 0.000000
O O8 0.102918 0.500000 0.473393
O O9 0.209985 0.281106 0.584728
O O10 0.064719 0.225305 0.423187
O O11 0.295854 0.349700 0.558492
O O12 0.862191 0.500000 0.403291
O O13 0.000000 0.254988 0.500000
O O14 0.990064 0.288495 0.295978
O O15 0.991911 0.000000 0.326156
O O16 0.137043 0.500000 0.824826
O O17 0.114457 0.229266 0.844400
O O18 0.864701 0.000000 0.089532
O O19 0.750000 0.750000 0.000000
#
# Coordination Sequence:
#
# PCOD8097410 Si02
#       7
#     8   8   8   8   8   8   8
#     4   9  18  33  54  82 115 150 188 238 292 335
#     4   9  18  33  54  82 113 144 186 239 285 331
#     4   9  18  33  52  77 107 141 186 234 279 326
#     4   9  17  28  49  80 109 137 181 236 282 324
#     4  10  20  34  53  78 110 147 183 227 282 336
#     4  11  22  35  58  88 114 144 188 234 284 344
#     4  11  22  38  61  86 116 150 189 238 293 348
#
# _framework density 20.357402
#
# number of rings (size 3 to 8) (size 9 to 14) (size 15 to 20)
#    0.000    2.286    0.000    3.000    2.000    5.143 
#    0.000    0.000    0.000    9.857    0.000    0.000 
#    0.000    0.000    0.000    0.000    0.000    0.000 
#
# Total GULP energy -347037.943583 kJ/mol
# GULP energy per Si atom -12394.212271 kJ/mol
# Density = 2.031107 g / cm^3
# Si number density = 20.357402 Si / 1000 Ang^3
#
#
#
# Elastic Constant Matrix: (Units=GPa)
#
#
# Indices 1 2 3 4 5 6 
#
# 1 110.6400 17.7866 41.4048 -0.0003 -13.7701 0.0001
# 2 17.7866 41.7823 17.6556 -0.0007 2.5624 -0.0005
# 3 41.4048 17.6556 133.7773 -0.0017 -16.8306 0.0009
# 4 -0.0003 -0.0007 -0.0017 24.1537 0.0000 -9.2167
# 5 -13.7701 2.5624 -16.8306 0.0000 35.9951 0.0001
# 6 0.0001 -0.0005 0.0009 -9.2167 0.0001 15.1323
#
#
#
# Elastic Compliance Matrix: (Units=1/GPa)
#
#
# Indices 1 2 3 4 5 6 
#
# 1 0.010996 -0.003837 -0.002479 0.000000 0.003321 0.000000
# 2 -0.003837 0.027128 -0.002997 0.000001 -0.004800 0.000002
# 3 -0.002479 -0.002997 0.009080 0.000000 0.003510 0.000000
# 4 0.000000 0.000001 0.000000 0.053937 0.000000 0.032852
# 5 0.003321 -0.004800 0.003510 0.000000 0.031035 -0.000001
# 6 0.000000 0.000002 0.000000 0.032852 -0.000001 0.086093
#
#
# Mechanical properties :
#
#
# Convention : Reuss Voigt Hill
#
# Bulk Modulus (GPa) = 34.99231 48.87708 41.93470
# Shear Modulus (GPa) = 20.29058 29.01307 24.65182
#
# Velocity S-wave (km/s) = 3.16051 3.77926 3.48365
# Velocity P-wave (km/s) = 5.52673 6.56547 6.06836
#
# Compressibility (1/GPa) = 0.02857771
#
# Stress axis : x y z
#
# Youngs Moduli (GPa) = 90.94009 36.86274 110.13758
#
# Poissons Ratio (x) = 0.14145 0.27306
# Poissons Ratio (y) = 0.34895 0.33003
# Poissons Ratio (z) = 0.22546 0.11046
#
# Static dielectric constant tensor:
#      x y z
#    x 3.934320 0.000000 -0.174520 
#    y 0.000000 3.490780 0.000000 
#    z -0.174520 0.000000 3.956700 
# 
# 
# High freq. dielectric constant tensor:
#      x y z
#    x 1.805480 0.000000 -0.010660 
#    y 0.000000 1.746670 0.000000 
#    z -0.010660 0.000000 1.806280 
# 
# From -- ./inp_files/380607.got.cif
#   From: 2010.06.25/outbox.cif.g09.slc.cpg/sg12_191_cif.got.tgz:380607.got - 2010.06.28 00:19:55.
