data_PCOD8097575
_publ_section_title
;
Structure prediction by ZEFSAII (Michael W. Deem and Ramdas Pophale) SiO2 
 PCOD8097575
Probable space group: C 2/M
;
_chemical_formula_sum "Si O2"
_cell_formula_units_Z 64
_cell_length_a 14.369731
_cell_length_b 9.094223
_cell_length_c 26.811912
_cell_angle_alpha 90.000000
_cell_angle_beta 105.056836
_cell_angle_gamma 90.000000
_cell_volume 3383.530822
_symmetry_space_group_name_H-M "C 2/M"
_symmetry_group_IT_number 12
_symmetry_cell_setting 'monoclinic'
loop_
_space_group_symop_operation_xyz
x,y,z
-x,y,-z
-x,-y,-z
x,-y,z
1/2+x,1/2+y,z
1/2-x,1/2+y,-z
1/2-x,1/2-y,-z
1/2+x,1/2-y,z
loop_
_atom_site_type_symbol
_atom_site_label
_atom_site_fract_x
_atom_site_fract_y
_atom_site_fract_z
Si Si1 0.976673 0.171378 0.244400
Si Si2 0.706721 0.329395 0.420503
Si Si3 0.244399 0.830594 0.771485
Si Si4 0.447534 0.172341 0.942986
Si Si5 0.397366 0.830022 0.507908
Si Si6 0.722661 0.329230 0.126041
Si Si7 0.648227 0.826695 0.314098
Si Si8 0.943254 0.669758 0.141646
O O1 0.043292 0.254659 0.293465
O O2 0.868511 0.204454 0.246693
O O3 0.994583 0.234706 0.191522
O O4 0.001576 0.000000 0.247865
O O5 0.684111 0.500000 0.408418
O O6 0.626458 0.267417 0.447199
O O7 0.814752 0.304566 0.455400
O O8 0.701971 0.241453 0.368616
O O9 0.296338 0.738290 0.821965
O O10 0.288237 0.784806 0.724916
O O11 0.264103 0.000000 0.786903
O O12 0.346095 0.254883 0.924297
O O13 0.513995 0.214482 0.905469
O O14 0.426732 0.000000 0.943212
O O15 0.500000 0.229009 0.000000
O O16 0.500000 0.778805 0.500000
O O17 0.401571 0.000000 0.525117
O O18 0.699650 0.500000 0.125611
O O19 0.830386 0.295265 0.123225
O O20 0.637257 0.000000 0.319942
O O21 0.962753 0.500000 0.157505
#
# Coordination Sequence:
#
# PCOD8097575 Si02
#       8
#     8   8   8   8   8   8   8   8
#     4  10  20  35  55  80 106 135 176 218 258 309
#     4  10  21  36  55  82 112 141 178 221 263 310
#     4   9  20  37  55  76 105 141 176 210 255 315
#     4  10  21  36  53  73 100 136 174 211 258 317
#     4   9  19  38  61  82 107 142 182 222 265 312
#     4  10  20  34  54  78 103 132 169 216 262 307
#     4  11  22  36  54  77 110 146 175 212 262 310
#     4   9  19  36  54  74 103 137 171 209 260 316
#
# _framework density 18.915151000000002
#
# number of rings (size 3 to 8) (size 9 to 14) (size 15 to 20)
#    0.000    2.250    0.000    2.250    0.000    8.000 
#    0.000    2.500    0.000    0.000    0.000    0.000 
#    0.000    0.000    0.000    0.000    0.000    0.000 
#
# Total GULP energy -396960.729837 kJ/mol
# GULP energy per Si atom -12405.022807 kJ/mol
# Density = 1.887210 g / cm^3
# Si number density = 18.915151 Si / 1000 Ang^3
#
#
#
# Elastic Constant Matrix: (Units=GPa)
#
#
# Indices 1 2 3 4 5 6 
#
# 1 79.6443 31.3991 33.0993 0.0000 3.6361 0.0000
# 2 31.3991 75.8475 44.4480 0.0000 6.5199 0.0000
# 3 33.0993 44.4480 103.2966 0.0000 8.4112 0.0000
# 4 0.0000 0.0000 0.0000 37.5611 0.0000 4.3014
# 5 3.6361 6.5199 8.4112 0.0000 20.9227 0.0000
# 6 0.0000 0.0000 0.0000 4.3014 0.0000 27.2637
#
#
#
# Elastic Compliance Matrix: (Units=1/GPa)
#
#
# Indices 1 2 3 4 5 6 
#
# 1 0.015662 -0.004735 -0.002977 0.000000 -0.000050 0.000000
# 2 -0.004735 0.019191 -0.006535 0.000000 -0.002530 0.000000
# 3 -0.002977 -0.006535 0.013687 0.000000 -0.002949 0.000000
# 4 0.000000 0.000000 0.000000 0.027113 0.000000 -0.004278
# 5 -0.000050 -0.002530 -0.002949 0.000000 0.049777 0.000000
# 6 0.000000 0.000000 0.000000 -0.004278 0.000000 0.037354
#
#
# Mechanical properties :
#
#
# Convention : Reuss Voigt Hill
#
# Bulk Modulus (GPa) = 49.88324 52.96460 51.42392
# Shear Modulus (GPa) = 25.25759 27.13897 26.19828
#
# Velocity S-wave (km/s) = 3.65815 3.79195 3.72565
# Velocity P-wave (km/s) = 6.65373 6.87268 6.76409
#
# Compressibility (1/GPa) = 0.02004681
#
# Stress axis : x y z
#
# Youngs Moduli (GPa) = 63.84872 52.10656 73.06295
#
# Poissons Ratio (x) = 0.24671 0.21752
# Poissons Ratio (y) = 0.30231 0.47745
# Poissons Ratio (z) = 0.19009 0.34051
#
# Static dielectric constant tensor:
#      x y z
#    x 3.524770 0.000000 0.055060 
#    y 0.000000 3.484440 0.000000 
#    z 0.055060 0.000000 3.450970 
# 
# 
# High freq. dielectric constant tensor:
#      x y z
#    x 1.741010 0.000000 0.005420 
#    y 0.000000 1.738420 0.000000 
#    z 0.005420 0.000000 1.732220 
# 
# From -- ./inp_files/360011.got.cif
#   From: 2010.06.25/outbox.cif.g09.slc.cpg/sg12_181_cif.got.tgz:360011.got - 2010.06.28 00:19:55.
