data_PCOD8097634
_publ_section_title
;
Structure prediction by ZEFSAII (Michael W. Deem and Ramdas Pophale) SiO2 
 PCOD8097634
Probable space group: C 2/M
;
_chemical_formula_sum "Si O2"
_cell_formula_units_Z 56
_cell_length_a 18.783587
_cell_length_b 8.880948
_cell_length_c 25.964683
_cell_angle_alpha 90.000000
_cell_angle_beta 40.020446
_cell_angle_gamma 90.000000
_cell_volume 2785.306599
_symmetry_space_group_name_H-M "C 2/M"
_symmetry_group_IT_number 12
_symmetry_cell_setting 'monoclinic'
loop_
_space_group_symop_operation_xyz
x,y,z
-x,y,-z
-x,-y,-z
x,-y,z
1/2+x,1/2+y,z
1/2-x,1/2+y,-z
1/2-x,1/2-y,-z
1/2+x,1/2-y,z
loop_
_atom_site_type_symbol
_atom_site_label
_atom_site_fract_x
_atom_site_fract_y
_atom_site_fract_z
Si Si1 0.834660 0.172608 0.822651
Si Si2 0.445236 0.171003 0.478660
Si Si3 0.169463 0.175937 0.767981
Si Si4 0.882172 0.175830 0.086651
Si Si5 0.954557 0.678367 0.257573
Si Si6 0.209430 0.827126 0.574532
Si Si7 0.114358 0.828744 0.323692
O O1 0.710785 0.237761 0.894902
O O2 0.877005 0.191971 0.741505
O O3 0.918421 0.265107 0.812507
O O4 0.833506 0.000000 0.841412
O O5 0.500000 0.235196 0.500000
O O6 0.313011 0.182180 0.556338
O O7 0.491295 0.273343 0.406558
O O8 0.482802 0.000000 0.447548
O O9 0.121975 0.216041 0.850659
O O10 0.098938 0.266719 0.765695
O O11 0.297087 0.226573 0.694925
O O12 0.161439 0.000000 0.759472
O O13 0.862159 0.000000 0.088919
O O14 0.000000 0.229469 0.000000
O O15 0.950965 0.500000 0.262289
O O16 0.892130 0.743090 0.342348
O O17 0.250000 0.750000 0.500000
O O18 0.174920 0.000000 0.582947
O O19 0.133561 0.000000 0.329910
#
# Coordination Sequence:
#
# PCOD8097634 Si02
#       7
#     8   8   8   8   8   8   8
#     4  10  21  37  58  84 113 146 185 227 276 334
#     4  10  21  35  51  72 100 138 183 230 279 328
#     4  10  20  36  59  84 114 150 185 227 282 339
#     4   9  19  38  64  92 119 147 182 225 276 337
#     4  12  24  38  57  82 114 150 193 240 284 334
#     4  11  23  38  56  79 110 149 192 238 290 341
#     4  10  20  34  54  79 106 139 184 233 276 329
#
# _framework density 20.105505000000001
#
# number of rings (size 3 to 8) (size 9 to 14) (size 15 to 20)
#    0.000    1.714    0.000    4.714    0.000    7.429 
#    0.000    0.714    0.000    0.000    0.000    0.000 
#    0.000    0.000    0.000    0.000    0.000    0.000 
#
# Total GULP energy -347313.131509 kJ/mol
# GULP energy per Si atom -12404.040411 kJ/mol
# Density = 2.005974 g / cm^3
# Si number density = 20.105505 Si / 1000 Ang^3
#
#
#
# Elastic Constant Matrix: (Units=GPa)
#
#
# Indices 1 2 3 4 5 6 
#
# 1 85.1405 45.6616 17.1491 0.0000 -18.1489 0.0000
# 2 45.6616 121.0611 33.0420 0.0001 -11.8196 0.0000
# 3 17.1491 33.0420 81.5933 0.0000 -19.9614 0.0000
# 4 0.0000 0.0001 0.0000 28.8261 0.0000 -3.8452
# 5 -18.1489 -11.8196 -19.9614 0.0000 26.6610 0.0001
# 6 0.0000 0.0000 0.0000 -3.8452 0.0001 35.3521
#
#
#
# Elastic Compliance Matrix: (Units=1/GPa)
#
#
# Indices 1 2 3 4 5 6 
#
# 1 0.016592 -0.005630 0.001157 0.000000 0.009665 0.000000
# 2 -0.005630 0.011253 -0.003784 0.000000 -0.001677 0.000000
# 3 0.001157 -0.003784 0.016316 0.000000 0.011326 0.000000
# 4 0.000000 0.000000 0.000000 0.035202 0.000000 0.003829
# 5 0.009665 -0.001677 0.011326 0.000000 0.051824 0.000000
# 6 0.000000 0.000000 0.000000 0.003829 0.000000 0.028703
#
#
# Mechanical properties :
#
#
# Convention : Reuss Voigt Hill
#
# Bulk Modulus (GPa) = 36.17035 53.27780 44.72407
# Shear Modulus (GPa) = 26.93689 30.96401 28.95045
#
# Velocity S-wave (km/s) = 3.66427 3.92864 3.79875
# Velocity P-wave (km/s) = 5.99431 6.86553 6.44466
#
# Compressibility (1/GPa) = 0.02764695
#
# Stress axis : x y z
#
# Youngs Moduli (GPa) = 60.26991 88.86537 61.28989
#
# Poissons Ratio (x) = 0.50035 -0.07093
# Poissons Ratio (y) = 0.33934 0.23191
# Poissons Ratio (z) = -0.06975 0.33626
#
# Static dielectric constant tensor:
#      x y z
#    x 3.750520 0.000000 -0.190430 
#    y 0.000000 3.687500 0.000000 
#    z -0.190430 0.000000 3.590840 
# 
# 
# High freq. dielectric constant tensor:
#      x y z
#    x 1.791160 0.000000 -0.014180 
#    y 0.000000 1.791260 0.000000 
#    z -0.014180 0.000000 1.769640 
# 
# From -- ./inp_files/362975.got.cif
#   From: 2010.06.25/outbox.cif.g09.slc.cpg/sg12_182_cif.got.tgz:362975.got - 2010.06.28 00:19:55.
