data_PCOD8097928
_publ_section_title
;
Structure prediction by ZEFSAII (Michael W. Deem and Ramdas Pophale) SiO2 
 PCOD8097928
Probable space group: C 2/M
;
_chemical_formula_sum "Si O2"
_cell_formula_units_Z 56
_cell_length_a 17.814768
_cell_length_b 9.351692
_cell_length_c 25.065418
_cell_angle_alpha 90.000000
_cell_angle_beta 135.784735
_cell_angle_gamma 90.000000
_cell_volume 2912.057254
_symmetry_space_group_name_H-M "C 2/M"
_symmetry_group_IT_number 12
_symmetry_cell_setting 'monoclinic'
loop_
_space_group_symop_operation_xyz
x,y,z
-x,y,-z
-x,-y,-z
x,-y,z
1/2+x,1/2+y,z
1/2-x,1/2+y,-z
1/2-x,1/2-y,-z
1/2+x,1/2-y,z
loop_
_atom_site_type_symbol
_atom_site_label
_atom_site_fract_x
_atom_site_fract_y
_atom_site_fract_z
Si Si1 0.350990 0.333787 0.762303
Si Si2 0.011581 0.334050 0.348596
Si Si3 0.273879 0.164198 0.194244
Si Si4 0.589135 0.665610 0.914511
Si Si5 0.440027 0.666371 0.522582
Si Si6 0.784691 0.666563 0.937229
Si Si7 0.201066 0.666737 0.368650
O O1 0.346913 0.500000 0.745518
O O2 0.277946 0.297547 0.775669
O O3 0.472754 0.284310 0.835383
O O4 0.302220 0.247651 0.688643
O O5 0.027338 0.500000 0.370378
O O6 0.900923 0.306009 0.261122
O O7 0.009326 0.249962 0.402518
O O8 0.107341 0.276784 0.359831
O O9 0.219441 0.265660 0.123182
O O10 0.250400 0.000000 0.166732
O O11 0.589691 0.500000 0.932133
O O12 0.671425 0.695216 0.908469
O O13 0.619400 0.759374 0.981227
O O14 0.500000 0.719856 0.500000
O O15 0.462553 0.500000 0.543481
O O16 0.313669 0.699925 0.454503
O O17 0.811113 0.500000 0.945669
O O18 0.186871 0.500000 0.349098
#
# Coordination Sequence:
#
# PCOD8097928 Si02
#       7
#     8   8   8   8   8   8   8
#     4  10  21  36  55  78 103 137 177 212 255 310
#     4  10  21  36  55  79 105 137 176 214 257 308
#     4  10  21  36  53  76 107 138 170 213 262 308
#     4   9  19  36  55  76 104 136 172 214 257 304
#     4  10  21  36  54  78 108 140 173 212 260 308
#     4  10  20  34  55  80 103 134 175 213 255 308
#     4  10  21  36  54  78 107 137 172 216 262 305
#
# _framework density 19.230391999999998
#
# number of rings (size 3 to 8) (size 9 to 14) (size 15 to 20)
#    0.000    2.143    0.000    2.571    0.000    4.286 
#    0.000    2.857    0.000    0.000    0.000    0.000 
#    0.000    0.000    0.000    0.000    0.000    0.000 
#
# Total GULP energy -347366.115267 kJ/mol
# GULP energy per Si atom -12405.932688 kJ/mol
# Density = 1.918662 g / cm^3
# Si number density = 19.230392 Si / 1000 Ang^3
#
#
#
# Elastic Constant Matrix: (Units=GPa)
#
#
# Indices 1 2 3 4 5 6 
#
# 1 63.3596 21.3136 7.5808 0.0000 -10.5778 0.0000
# 2 21.3136 62.7148 32.4393 0.0000 -21.7470 0.0000
# 3 7.5808 32.4393 49.0623 0.0000 -20.7083 0.0000
# 4 0.0000 0.0000 0.0000 28.8551 0.0000 -9.7043
# 5 -10.5778 -21.7470 -20.7083 0.0000 36.2366 0.0000
# 6 0.0000 0.0000 0.0000 -9.7043 0.0000 28.0133
#
#
#
# Elastic Compliance Matrix: (Units=1/GPa)
#
#
# Indices 1 2 3 4 5 6 
#
# 1 0.018159 -0.006600 0.002798 0.000000 0.002939 0.000000
# 2 -0.006600 0.028101 -0.014833 0.000000 0.006461 0.000000
# 3 0.002798 -0.014833 0.034719 0.000000 0.011756 0.000000
# 4 0.000000 0.000000 0.000000 0.039226 0.000000 0.013589
# 5 0.002939 0.006461 0.011756 0.000000 0.039050 0.000000
# 6 0.000000 0.000000 0.000000 0.013589 0.000000 0.040405
#
#
# Mechanical properties :
#
#
# Convention : Reuss Voigt Hill
#
# Bulk Modulus (GPa) = 22.87769 33.08935 27.98352
# Shear Modulus (GPa) = 19.88078 26.20785 23.04432
#
# Velocity S-wave (km/s) = 3.21880 3.69566 3.46544
# Velocity P-wave (km/s) = 5.07313 5.95439 5.53134
#
# Compressibility (1/GPa) = 0.04371071
#
# Stress axis : x y z
#
# Youngs Moduli (GPa) = 55.06957 35.58585 28.80236
#
# Poissons Ratio (x) = 0.23485 -0.08060
# Poissons Ratio (y) = 0.36343 0.42723
# Poissons Ratio (z) = -0.15410 0.52785
#
# Static dielectric constant tensor:
#      x y z
#    x 3.570490 0.000000 0.150230 
#    y 0.000000 3.425850 0.000000 
#    z 0.150230 0.000000 3.448530 
# 
# 
# High freq. dielectric constant tensor:
#      x y z
#    x 1.755760 0.000000 0.004150 
#    y 0.000000 1.741710 0.000000 
#    z 0.004150 0.000000 1.754690 
# 
# From -- ./inp_files/342554.got.cif
#   From: 2010.06.25/outbox.cif.g09.slc.cpg/sg12_172_cif.got.tgz:342554.got - 2010.06.28 00:19:55.
