data_PCOD8097690
_publ_section_title
;
Structure prediction by ZEFSAII (Michael W. Deem and Ramdas Pophale) SiO2 
 PCOD8097690
Probable space group: C 2/M
;
_chemical_formula_sum "Si O2"
_cell_formula_units_Z 64
_cell_length_a 19.995449
_cell_length_b 8.735960
_cell_length_c 20.105379
_cell_angle_alpha 90.000000
_cell_angle_beta 90.166988
_cell_angle_gamma 90.000000
_cell_volume 3511.981482
_symmetry_space_group_name_H-M "C 2/M"
_symmetry_group_IT_number 12
_symmetry_cell_setting 'monoclinic'
loop_
_space_group_symop_operation_xyz
x,y,z
-x,y,-z
-x,-y,-z
x,-y,z
1/2+x,1/2+y,z
1/2-x,1/2+y,-z
1/2-x,1/2-y,-z
1/2+x,1/2-y,z
loop_
_atom_site_type_symbol
_atom_site_label
_atom_site_fract_x
_atom_site_fract_y
_atom_site_fract_z
Si Si1 0.698682 0.679975 0.195437
Si Si2 0.449816 0.680464 0.441999
Si Si3 0.556699 0.180105 0.696465
Si Si4 0.800600 0.820017 0.297365
Si Si5 0.551953 0.819488 0.052174
Si Si6 0.557522 0.820279 0.201104
Si Si7 0.200086 0.177608 0.551472
Si Si8 0.201828 0.681296 0.054345
O O1 0.698776 0.500000 0.184501
O O2 0.751875 0.723778 0.251290
O O3 0.625714 0.733403 0.219468
O O4 0.721496 0.759411 0.127200
O O5 0.500000 0.729645 0.500000
O O6 0.452773 0.500000 0.426374
O O7 0.470295 0.771603 0.375930
O O8 0.375603 0.730777 0.464202
O O9 0.623197 0.271638 0.716411
O O10 0.499762 0.228721 0.748245
O O11 0.571386 0.000000 0.698952
O O12 0.781205 0.777742 0.373062
O O13 0.793083 0.000000 0.283422
O O14 0.532663 0.772679 0.127300
O O15 0.626876 0.762799 0.036377
O O16 0.549028 0.000000 0.044042
O O17 0.500000 0.742444 0.000000
O O18 0.573568 0.000000 0.204327
O O19 0.250000 0.250000 0.500000
O O20 0.206283 0.000000 0.540707
O O21 0.207720 0.500000 0.054485
O O22 0.250000 0.750000 0.000000
#
# Coordination Sequence:
#
# PCOD8097690 Si02
#       8
#     8   8   8   8   8   8   8   8
#     4  11  22  36  56  80 106 141 185 226 266 317
#     4   9  19  36  54  73 101 137 176 218 266 316
#     4  10  20  34  54  80 108 139 178 221 265 318
#     4  10  21  38  56  77 109 143 176 220 274 323
#     4   8  15  30  52  75 100 134 172 209 252 302
#     4   9  19  35  53  77 110 141 172 217 268 314
#     4   9  19  34  53  76 103 136 171 214 265 316
#     4  10  20  35  55  79 109 142 176 220 271 320
#
# _framework density 18.223331000000002
#
# number of rings (size 3 to 8) (size 9 to 14) (size 15 to 20)
#    0.000    2.500    0.000    3.750    0.000    5.750 
#    0.000    5.000    0.000    9.375    0.000    0.000 
#    0.000    0.000    0.000    0.000    0.000    0.000 
#
# Total GULP energy -396802.053643 kJ/mol
# GULP energy per Si atom -12400.064176 kJ/mol
# Density = 1.818185 g / cm^3
# Si number density = 18.223331 Si / 1000 Ang^3
#
#
#
# Elastic Constant Matrix: (Units=GPa)
#
#
# Indices 1 2 3 4 5 6 
#
# 1 105.8934 33.8347 96.5367 0.0000 -11.5531 0.0000
# 2 33.8347 58.0850 40.1478 0.0000 -7.1629 0.0000
# 3 96.5367 40.1478 136.8107 0.0000 -11.4133 0.0000
# 4 0.0000 0.0000 0.0000 30.1315 0.0000 -2.9495
# 5 -11.5531 -7.1629 -11.4133 0.0000 41.7236 0.0000
# 6 0.0000 0.0000 0.0000 -2.9495 0.0000 29.4328
#
#
#
# Elastic Compliance Matrix: (Units=1/GPa)
#
#
# Indices 1 2 3 4 5 6 
#
# 1 0.027107 -0.003055 -0.018061 0.000000 0.002041 0.000000
# 2 -0.003055 0.022109 -0.004182 0.000000 0.001806 0.000000
# 3 -0.018061 -0.004182 0.021289 0.000000 0.000105 0.000000
# 4 0.000000 0.000000 0.000000 0.033517 0.000000 0.003359
# 5 0.002041 0.001806 0.000105 0.000000 0.024871 0.000000
# 6 0.000000 0.000000 0.000000 0.003359 0.000000 0.034312
#
#
# Mechanical properties :
#
#
# Convention : Reuss Voigt Hill
#
# Bulk Modulus (GPa) = 50.22458 71.31419 60.76939
# Shear Modulus (GPa) = 22.68234 28.94223 25.81229
#
# Velocity S-wave (km/s) = 3.53184 3.98954 3.76765
# Velocity P-wave (km/s) = 6.65224 7.77434 7.23507
#
# Compressibility (1/GPa) = 0.01991057
#
# Stress axis : x y z
#
# Youngs Moduli (GPa) = 36.89089 45.23118 46.97228
#
# Poissons Ratio (x) = 0.13818 0.84834
# Poissons Ratio (y) = 0.11270 0.19642
# Poissons Ratio (z) = 0.66627 0.18914
#
# Static dielectric constant tensor:
#      x y z
#    x 3.047460 0.000000 0.448830 
#    y 0.000000 3.273170 0.000000 
#    z 0.448830 0.000000 3.085550 
# 
# 
# High freq. dielectric constant tensor:
#      x y z
#    x 1.709640 0.000000 0.000940 
#    y 0.000000 1.699120 0.000000 
#    z 0.000940 0.000000 1.711570 
# 
# From -- ./inp_files/314117.got.cif
#   From: 2010.06.25/outbox.cif.g09.slc.cpg/sg12_158_cif.got.tgz:314117.got - 2010.06.28 00:19:55.
