data_PCOD8097631
_publ_section_title
;
Structure prediction by ZEFSAII (Michael W. Deem and Ramdas Pophale) SiO2 
 PCOD8097631
Probable space group: C 2/M
;
_chemical_formula_sum "Si O2"
_cell_formula_units_Z 56
_cell_length_a 18.224307
_cell_length_b 9.134766
_cell_length_c 25.378691
_cell_angle_alpha 90.000000
_cell_angle_beta 44.102581
_cell_angle_gamma 90.000000
_cell_volume 2940.306996
_symmetry_space_group_name_H-M "C 2/M"
_symmetry_group_IT_number 12
_symmetry_cell_setting 'monoclinic'
loop_
_space_group_symop_operation_xyz
x,y,z
-x,y,-z
-x,-y,-z
x,-y,z
1/2+x,1/2+y,z
1/2-x,1/2+y,-z
1/2-x,1/2-y,-z
1/2+x,1/2-y,z
loop_
_atom_site_type_symbol
_atom_site_label
_atom_site_fract_x
_atom_site_fract_y
_atom_site_fract_z
Si Si1 0.417640 0.673999 0.500000
Si Si2 0.878465 0.669054 0.206215
Si Si3 0.088187 0.829555 0.087610
Si Si4 0.027688 0.172728 0.644723
Si Si5 0.790895 0.830946 0.793785
Si Si6 0.317134 0.827272 0.355277
Si Si7 0.763407 0.329555 0.912390
O O1 0.500000 0.739218 0.500000
O O2 0.421778 0.500000 0.500000
O O3 0.449289 0.730507 0.425887
O O4 0.301064 0.730507 0.574112
O O5 0.912627 0.500000 0.186214
O O6 0.776028 0.698887 0.223972
O O7 0.850947 0.718095 0.279320
O O8 0.973334 0.766223 0.134768
O O9 0.136063 0.750000 0.113937
O O10 0.080924 0.000000 0.104521
O O11 0.158864 0.798344 0.000000
O O12 0.106518 0.250000 0.643482
O O13 0.909587 0.218094 0.720681
O O14 0.044786 0.000000 0.639748
O O15 0.742870 0.733777 0.865232
O O16 0.785054 0.000000 0.813787
O O17 0.324281 0.000000 0.360252
O O18 0.789965 0.500000 0.895479
#
# Coordination Sequence:
#
# PCOD8097631 Si02
#       7
#     8   8   8   8   8   8   8
#     4   9  17  32  55  79 104 137 176 216 258 307
#     4  10  21  36  54  78 108 141 178 220 266 316
#     4  10  21  37  57  80 106 138 177 219 264 317
#     4  10  20  34  54  79 106 138 177 218 260 310
#     4  10  21  36  54  78 108 141 178 220 266 316
#     4  10  20  34  54  79 106 138 177 218 260 310
#     4  10  21  37  57  80 106 138 177 219 264 317
#
# _framework density 19.045632000000001
#
# number of rings (size 3 to 8) (size 9 to 14) (size 15 to 20)
#    0.000    2.143    0.000    3.000    0.000    9.714 
#    0.000    2.857    0.000    3.429    0.000    0.000 
#    0.000    0.000    0.000    0.000    0.000    0.000 
#
# Total GULP energy -347333.870809 kJ/mol
# GULP energy per Si atom -12404.781100 kJ/mol
# Density = 1.900228 g / cm^3
# Si number density = 19.045632 Si / 1000 Ang^3
#
#
#
# Elastic Constant Matrix: (Units=GPa)
#
#
# Indices 1 2 3 4 5 6 
#
# 1 162.1507 51.6341 79.4329 0.0000 -0.5184 -0.0001
# 2 51.6341 58.6596 51.3073 0.0000 -0.0253 -0.0003
# 3 79.4329 51.3073 124.3737 0.0000 -2.4112 0.0000
# 4 0.0000 0.0000 0.0000 17.7429 0.0000 -1.3626
# 5 -0.5184 -0.0253 -2.4112 0.0000 37.8685 0.0000
# 6 -0.0001 -0.0003 0.0000 -1.3626 0.0000 35.3091
#
#
#
# Elastic Compliance Matrix: (Units=1/GPa)
#
#
# Indices 1 2 3 4 5 6 
#
# 1 0.009812 -0.004933 -0.004234 0.000000 -0.000139 0.000000
# 2 -0.004933 0.029169 -0.008894 0.000000 -0.000614 0.000000
# 3 -0.004234 -0.008894 0.014430 0.000000 0.000855 0.000000
# 4 0.000000 0.000000 0.000000 0.056528 0.000000 0.002181
# 5 -0.000139 -0.000614 0.000855 0.000000 0.026459 0.000000
# 6 0.000000 0.000000 0.000000 0.002181 0.000000 0.028406
#
#
# Mechanical properties :
#
#
# Convention : Reuss Voigt Hill
#
# Bulk Modulus (GPa) = 57.84390 78.88141 68.36265
# Shear Modulus (GPa) = 24.19091 29.03807 26.61449
#
# Velocity S-wave (km/s) = 3.56779 3.90892 3.74225
# Velocity P-wave (km/s) = 6.88544 7.86638 7.39220
#
# Compressibility (1/GPa) = 0.01728791
#
# Stress axis : x y z
#
# Youngs Moduli (GPa) = 101.91942 34.28280 69.30035
#
# Poissons Ratio (x) = 0.16913 0.29341
# Poissons Ratio (y) = 0.50281 0.61637
# Poissons Ratio (z) = 0.43152 0.30492
#
# Static dielectric constant tensor:
#      x y z
#    x 3.510130 0.000000 0.008410 
#    y 0.000000 3.298860 0.000000 
#    z 0.008410 0.000000 3.618560 
# 
# 
# High freq. dielectric constant tensor:
#      x y z
#    x 1.749240 0.000000 0.000370 
#    y 0.000000 1.720010 0.000000 
#    z 0.000370 0.000000 1.754020 
# 
# From -- ./inp_files/342267.got.cif
#   From: 2010.06.25/outbox.cif.g09.slc.cpg/sg12_172_cif.got.tgz:342267.got - 2010.06.28 00:19:55.
