data_PCOD8097454
_publ_section_title
;
Structure prediction by ZEFSAII (Michael W. Deem and Ramdas Pophale) SiO2 
 PCOD8097454
Probable space group: C 2/M
;
_chemical_formula_sum "Si O2"
_cell_formula_units_Z 64
_cell_length_a 32.133159
_cell_length_b 8.742408
_cell_length_c 16.167500
_cell_angle_alpha 90.000000
_cell_angle_beta 46.884953
_cell_angle_gamma 90.000000
_cell_volume 3315.431022
_symmetry_space_group_name_H-M "C 2/M"
_symmetry_group_IT_number 12
_symmetry_cell_setting 'monoclinic'
loop_
_space_group_symop_operation_xyz
x,y,z
-x,y,-z
-x,-y,-z
x,-y,z
1/2+x,1/2+y,z
1/2-x,1/2+y,-z
1/2-x,1/2-y,-z
1/2+x,1/2-y,z
loop_
_atom_site_type_symbol
_atom_site_label
_atom_site_fract_x
_atom_site_fract_y
_atom_site_fract_z
Si Si1 0.239997 0.821708 0.601637
Si Si2 0.927787 0.680501 0.360604
Si Si3 0.874515 0.675709 0.257387
Si Si4 0.830797 0.819267 0.598161
Si Si5 0.669775 0.319493 0.056390
Si Si6 0.221554 0.180181 0.158734
Si Si7 0.546628 0.319556 0.166056
Si Si8 0.942255 0.165369 0.035839
O O1 0.250000 0.750000 0.500000
O O2 0.174286 0.790038 0.708199
O O3 0.278464 0.733683 0.614063
O O4 0.255456 0.000000 0.582514
O O5 0.929279 0.500000 0.364831
O O6 0.900220 0.731714 0.310240
O O7 0.889810 0.744568 0.487534
O O8 0.992047 0.741823 0.283190
O O9 0.854273 0.500000 0.291391
O O10 0.917928 0.696306 0.123568
O O11 0.815383 0.765564 0.712182
O O12 0.837843 0.000000 0.582628
O O13 0.672229 0.500000 0.043251
O O14 0.686955 0.265066 0.124917
O O15 0.605458 0.260884 0.127697
O O16 0.714833 0.251920 0.928721
O O17 0.229916 0.000000 0.149256
O O18 0.539036 0.500000 0.186528
O O19 0.549026 0.268765 0.067595
O O20 0.908274 0.000000 0.078430
O O21 0.000000 0.120597 0.000000
#
# Coordination Sequence:
#
# PCOD8097454 Si02
#       8
#     8   8   8   8   8   8   8   8
#     4  12  24  38  57  81 113 151 193 237 282 338
#     4  11  23  38  57  81 114 155 197 240 286 339
#     4  11  23  37  53  77 112 153 193 236 283 333
#     4  11  23  39  60  85 115 153 194 240 290 344
#     4   9  19  38  63  89 117 149 187 234 291 350
#     4   9  20  39  62  89 117 147 187 236 291 348
#     4  10  21  37  58  84 114 153 195 237 289 346
#     4  10  20  34  53  79 112 149 191 232 279 338
#
# _framework density 19.303674999999998
#
# number of rings (size 3 to 8) (size 9 to 14) (size 15 to 20)
#    0.000    1.625    2.500    2.250    1.750    3.250 
#    0.000    0.625    0.000    3.750    0.000    0.000 
#    0.000    0.000    0.000    0.000    0.000    0.000 
#
# Total GULP energy -396680.121252 kJ/mol
# GULP energy per Si atom -12396.253789 kJ/mol
# Density = 1.925974 g / cm^3
# Si number density = 19.303675 Si / 1000 Ang^3
#
#
#
# Elastic Constant Matrix: (Units=GPa)
#
#
# Indices 1 2 3 4 5 6 
#
# 1 113.0150 26.0599 69.3330 0.0000 -14.3685 0.0002
# 2 26.0599 44.5956 45.8813 0.0000 -4.6650 0.0003
# 3 69.3330 45.8813 160.0614 0.0001 -7.2756 -0.0001
# 4 0.0000 0.0000 0.0001 35.4008 0.0000 -6.1197
# 5 -14.3685 -4.6650 -7.2756 0.0000 32.3756 0.0000
# 6 0.0002 0.0003 -0.0001 -6.1197 0.0000 25.0323
#
#
#
# Elastic Compliance Matrix: (Units=1/GPa)
#
#
# Indices 1 2 3 4 5 6 
#
# 1 0.012794 -0.002164 -0.004726 0.000000 0.004304 0.000000
# 2 -0.002164 0.032380 -0.008260 0.000000 0.001849 0.000000
# 3 -0.004726 -0.008260 0.010622 0.000000 -0.000901 0.000000
# 4 0.000000 0.000000 0.000000 0.029494 0.000000 0.007211
# 5 0.004304 0.001849 -0.000901 0.000000 0.032862 0.000000
# 6 0.000000 0.000000 0.000000 0.007211 0.000000 0.041711
#
#
# Mechanical properties :
#
#
# Convention : Reuss Voigt Hill
#
# Bulk Modulus (GPa) = 39.22290 66.69117 52.95703
# Shear Modulus (GPa) = 25.16847 30.32161 27.74504
#
# Velocity S-wave (km/s) = 3.61476 3.96759 3.79528
# Velocity P-wave (km/s) = 6.14695 7.45738 6.83365
#
# Compressibility (1/GPa) = 0.02549531
#
# Stress axis : x y z
#
# Youngs Moduli (GPa) = 78.16248 30.88324 94.14782
#
# Poissons Ratio (x) = 0.06682 0.44494
# Poissons Ratio (y) = 0.16913 0.77769
# Poissons Ratio (z) = 0.36939 0.25511
#
# Static dielectric constant tensor:
#      x y z
#    x 3.466080 0.000000 -0.037580 
#    y 0.000000 3.393240 0.000000 
#    z -0.037580 0.000000 3.604360 
# 
# 
# High freq. dielectric constant tensor:
#      x y z
#    x 1.741050 0.000000 -0.007360 
#    y 0.000000 1.750080 0.000000 
#    z -0.007360 0.000000 1.756890 
# 
# From -- ./inp_files/249805.got.cif
#   From: 2010.06.25/outbox.cif.g09.slc.cpg/sg12_125_cif.got.tgz:249805.got - 2010.06.28 00:19:55.
