data_PCOD8097902
_publ_section_title
;
Structure prediction by ZEFSAII (Michael W. Deem and Ramdas Pophale) SiO2 
 PCOD8097902
Probable space group: C 2/M
;
_chemical_formula_sum "Si O2"
_cell_formula_units_Z 56
_cell_length_a 20.016783
_cell_length_b 8.817074
_cell_length_c 16.193853
_cell_angle_alpha 90.000000
_cell_angle_beta 87.798202
_cell_angle_gamma 90.000000
_cell_volume 2855.934260
_symmetry_space_group_name_H-M "C 2/M"
_symmetry_group_IT_number 12
_symmetry_cell_setting 'monoclinic'
loop_
_space_group_symop_operation_xyz
x,y,z
-x,y,-z
-x,-y,-z
x,-y,z
1/2+x,1/2+y,z
1/2-x,1/2+y,-z
1/2-x,1/2-y,-z
1/2+x,1/2-y,z
loop_
_atom_site_type_symbol
_atom_site_label
_atom_site_fract_x
_atom_site_fract_y
_atom_site_fract_z
Si Si1 0.236967 0.179957 0.755590
Si Si2 0.491430 0.323264 0.227739
Si Si3 0.698531 0.680165 0.938903
Si Si4 0.440962 0.178237 0.064585
Si Si5 0.123236 0.823671 0.640535
Si Si6 0.074696 0.320992 0.484111
Si Si7 0.384075 0.179655 0.699439
O O1 0.218093 0.240419 0.846999
O O2 0.183845 0.244780 0.692036
O O3 0.310568 0.235778 0.727695
O O4 0.232686 0.000000 0.755516
O O5 0.492967 0.500000 0.204533
O O6 0.458943 0.232253 0.154822
O O7 0.446782 0.292317 0.310516
O O8 0.565497 0.262590 0.241055
O O9 0.701114 0.500000 0.944157
O O10 0.624786 0.737307 0.965122
O O11 0.750000 0.750000 0.000000
O O12 0.427393 0.000000 0.065779
O O13 0.500000 0.223253 0.000000
O O14 0.123371 0.742719 0.552178
O O15 0.134806 0.000000 0.624433
O O16 0.074397 0.500000 0.491520
O O17 0.102674 0.267647 0.394702
O O18 0.000000 0.255441 0.500000
O O19 0.393129 0.000000 0.709484
#
# Coordination Sequence:
#
# PCOD8097902 Si02
#       7
#     8   8   8   8   8   8   8
#     4   9  20  40  61  82 115 159 197 234 294 359
#     4  11  22  38  61  89 119 153 197 248 298 349
#     4  11  23  42  64  90 125 160 201 248 300 361
#     4  11  25  43  64  91 121 158 202 245 301 365
#     4  10  20  37  60  83 113 156 196 238 297 355
#     4  10  20  34  54  86 119 151 197 247 293 344
#     4  10  21  38  60  84 118 160 199 242 294 355
#
# _framework density 19.608294999999998
#
# number of rings (size 3 to 8) (size 9 to 14) (size 15 to 20)
#    0.000    1.714    2.857    1.286    2.000    3.143 
#    0.000    1.429    0.000    0.000    0.000    0.000 
#    0.000    0.000    0.000    0.000    0.000    0.000 
#
# Total GULP energy -347326.376268 kJ/mol
# GULP energy per Si atom -12404.513438 kJ/mol
# Density = 1.956367 g / cm^3
# Si number density = 19.608295 Si / 1000 Ang^3
#
#
#
# Elastic Constant Matrix: (Units=GPa)
#
#
# Indices 1 2 3 4 5 6 
#
# 1 158.7145 36.2914 58.2301 0.0000 11.4500 0.0000
# 2 36.2914 44.1679 34.0297 0.0000 -0.8885 0.0000
# 3 58.2301 34.0297 106.5984 0.0000 16.1518 0.0000
# 4 0.0000 0.0000 0.0000 32.6571 0.0000 8.7515
# 5 11.4500 -0.8885 16.1518 0.0000 41.2986 0.0000
# 6 0.0000 0.0000 0.0000 8.7515 0.0000 28.5477
#
#
#
# Elastic Compliance Matrix: (Units=1/GPa)
#
#
# Indices 1 2 3 4 5 6 
#
# 1 0.008577 -0.004800 -0.002952 0.000000 -0.001327 0.000000
# 2 -0.004800 0.033584 -0.008940 0.000000 0.005550 0.000000
# 3 -0.002952 -0.008940 0.014619 0.000000 -0.005091 0.000000
# 4 0.000000 0.000000 0.000000 0.033362 0.000000 -0.010227
# 5 -0.001327 0.005550 -0.005091 0.000000 0.026692 0.000000
# 6 0.000000 0.000000 0.000000 -0.010227 0.000000 0.038164
#
#
# Mechanical properties :
#
#
# Convention : Reuss Voigt Hill
#
# Bulk Modulus (GPa) = 42.74146 62.95369 52.84757
# Shear Modulus (GPa) = 25.48658 32.56264 29.02461
#
# Velocity S-wave (km/s) = 3.60917 4.07954 3.85154
# Velocity P-wave (km/s) = 6.26203 7.37330 6.84027
#
# Compressibility (1/GPa) = 0.02339649
#
# Stress axis : x y z
#
# Youngs Moduli (GPa) = 116.59308 29.77568 68.40406
#
# Poissons Ratio (x) = 0.14291 0.20192
# Poissons Ratio (y) = 0.55961 0.61155
# Poissons Ratio (z) = 0.34417 0.26620
#
# Static dielectric constant tensor:
#      x y z
#    x 3.917140 0.000000 0.020130 
#    y 0.000000 3.364000 0.000000 
#    z 0.020130 0.000000 3.668210 
# 
# 
# High freq. dielectric constant tensor:
#      x y z
#    x 1.773890 0.000000 0.006110 
#    y 0.000000 1.747250 0.000000 
#    z 0.006110 0.000000 1.773170 
# 
# From -- ./inp_files/230989.got.cif
#   From: 2010.06.25/outbox.cif.g09.slc.cpg/sg12_116_cif.got.tgz:230989.got - 2010.06.28 00:19:55.
