data_PCOD8097108
_publ_section_title
;
Structure prediction by ZEFSAII (Michael W. Deem and Ramdas Pophale) SiO2 
 PCOD8097108
Probable space group: C 2/M
;
_chemical_formula_sum "Si O2"
_cell_formula_units_Z 40
_cell_length_a 24.258238
_cell_length_b 8.478070
_cell_length_c 20.908243
_cell_angle_alpha 90.000000
_cell_angle_beta 31.042056
_cell_angle_gamma 90.000000
_cell_volume 2217.395808
_symmetry_space_group_name_H-M "C 2/M"
_symmetry_group_IT_number 12
_symmetry_cell_setting 'monoclinic'
loop_
_space_group_symop_operation_xyz
x,y,z
-x,y,-z
-x,-y,-z
x,-y,z
1/2+x,1/2+y,z
1/2-x,1/2+y,-z
1/2-x,1/2-y,-z
1/2+x,1/2-y,z
loop_
_atom_site_type_symbol
_atom_site_label
_atom_site_fract_x
_atom_site_fract_y
_atom_site_fract_z
Si Si1 0.763527 0.315487 0.416329
Si Si2 0.931318 0.184209 0.155688
Si Si3 0.134755 0.315822 0.310016
Si Si4 0.082832 0.183346 0.496930
Si Si5 0.144316 0.684727 0.900907
O O1 0.787101 0.500000 0.394011
O O2 0.750000 0.250000 0.500000
O O3 0.864412 0.229589 0.284435
O O4 0.655076 0.276060 0.486023
O O5 0.866472 0.231168 0.156871
O O6 0.954906 0.000000 0.131338
O O7 0.044820 0.274055 0.045368
O O8 0.130612 0.500000 0.299725
O O9 0.123173 0.285399 0.397120
O O10 0.247112 0.245127 0.173769
O O11 0.039406 0.230528 0.365780
O O12 0.090558 0.000000 0.470518
O O13 0.149763 0.500000 0.882769
#
# Coordination Sequence:
#
# PCOD8097108 Si02
#       5
#     8   8   8   8   8
#     4  11  23  38  57  79 109 147 185 224 266 317
#     4  11  21  34  53  79 109 140 181 224 270 322
#     4  11  20  31  52  80 110 141 176 222 273 321
#     4  10  20  34  52  76 108 143 180 220 270 323
#     4  11  20  33  53  78 111 144 176 219 274 327
#
# _framework density 18.039180000000002
#
# number of rings (size 3 to 8) (size 9 to 14) (size 15 to 20)
#    0.000    1.200    2.000    9.000    0.000    2.400 
#    0.000    0.000    0.000    1.200    0.000    0.000 
#    0.000    0.000    0.000    0.000    0.000    0.000 
#
# Total GULP energy -248079.334199 kJ/mol
# GULP energy per Si atom -12403.966710 kJ/mol
# Density = 1.799812 g / cm^3
# Si number density = 18.039180 Si / 1000 Ang^3
#
#
#
# Elastic Constant Matrix: (Units=GPa)
#
#
# Indices 1 2 3 4 5 6 
#
# 1 77.7476 17.2140 47.0530 -0.0032 -7.5296 0.0009
# 2 17.2140 73.4939 17.2688 -0.0098 -3.7438 0.0043
# 3 47.0530 17.2688 125.0366 -0.0088 -15.7030 0.0044
# 4 -0.0032 -0.0098 -0.0088 33.6322 0.0035 -2.9033
# 5 -7.5296 -3.7438 -15.7030 0.0035 33.6548 -0.0008
# 6 0.0009 0.0043 0.0044 -2.9033 -0.0008 23.2446
#
#
#
# Elastic Compliance Matrix: (Units=1/GPa)
#
#
# Indices 1 2 3 4 5 6 
#
# 1 0.017133 -0.002565 -0.005999 -0.000001 0.000749 0.000001
# 2 -0.002565 0.014463 -0.000958 0.000003 0.000588 -0.000002
# 3 -0.005999 -0.000958 0.010841 0.000002 0.003609 -0.000001
# 4 -0.000001 0.000003 0.000002 0.030057 -0.000002 0.003754
# 5 0.000749 0.000588 0.003609 -0.000002 0.031630 0.000000
# 6 0.000001 -0.000002 -0.000001 0.003754 0.000000 0.043490
#
#
# Mechanical properties :
#
#
# Convention : Reuss Voigt Hill
#
# Bulk Modulus (GPa) = 42.75091 48.81664 45.78377
# Shear Modulus (GPa) = 28.66038 31.08916 29.87477
#
# Velocity S-wave (km/s) = 3.99028 4.15592 4.07394
# Velocity P-wave (km/s) = 6.70673 7.08160 6.89671
#
# Compressibility (1/GPa) = 0.02339132
#
# Stress axis : x y z
#
# Youngs Moduli (GPa) = 58.36576 69.14427 92.24338
#
# Poissons Ratio (x) = 0.17737 0.55339
# Poissons Ratio (y) = 0.14972 0.08839
# Poissons Ratio (z) = 0.35015 0.06626
#
# Static dielectric constant tensor:
#      x y z
#    x 3.101870 0.000000 -0.398780 
#    y 0.000000 3.481440 0.000010 
#    z -0.398780 0.000010 3.566310 
# 
# 
# High freq. dielectric constant tensor:
#      x y z
#    x 1.660240 0.000000 -0.032980 
#    y 0.000000 1.720810 0.000000 
#    z -0.032980 0.000000 1.702080 
# 
# From -- ./inp_files/162720.got.cif
#   From: 2010.06.25/outbox.cif.g09.slc.cpg/sg12_82_cif.got.tgz:162720.got - 2010.06.28 00:19:55.
