data_PCOD8097164
_publ_section_title
;
Structure prediction by ZEFSAII (Michael W. Deem and Ramdas Pophale) SiO2 
 PCOD8097164
Probable space group: C 2/M
;
_chemical_formula_sum "Si O2"
_cell_formula_units_Z 64
_cell_length_a 14.626392
_cell_length_b 25.012186
_cell_length_c 9.348869
_cell_angle_alpha 90.000000
_cell_angle_beta 77.576310
_cell_angle_gamma 90.000000
_cell_volume 3340.083117
_symmetry_space_group_name_H-M "C 2/M"
_symmetry_group_IT_number 12
_symmetry_cell_setting 'monoclinic'
loop_
_space_group_symop_operation_xyz
x,y,z
-x,y,-z
-x,-y,-z
x,-y,z
1/2+x,1/2+y,z
1/2-x,1/2+y,-z
1/2-x,1/2-y,-z
1/2+x,1/2-y,z
loop_
_atom_site_type_symbol
_atom_site_label
_atom_site_fract_x
_atom_site_fract_y
_atom_site_fract_z
Si Si1 0.914459 0.437396 0.122234
Si Si2 0.283563 0.141034 0.672477
Si Si3 0.096304 0.562619 0.548900
Si Si4 0.606265 0.228291 0.968387
Si Si5 0.724761 0.127328 0.991068
Si Si6 0.594060 0.303889 0.713429
Si Si7 0.885826 0.183926 0.810118
Si Si8 0.656884 0.251156 0.438226
O O1 0.927416 0.500000 0.127685
O O2 0.913880 0.415143 0.285145
O O3 0.817925 0.424585 0.071890
O O4 0.000000 0.412524 0.000000
O O5 0.320515 0.093745 0.559149
O O6 0.176214 0.152638 0.660969
O O7 0.351813 0.192982 0.632716
O O8 0.286277 0.121823 0.835703
O O9 0.122226 0.500000 0.537922
O O10 0.000000 0.573998 0.500000
O O11 0.672232 0.177645 0.939390
O O12 0.630632 0.267755 0.830856
O O13 0.500000 0.208198 0.000000
O O14 0.627984 0.260412 0.103821
O O15 0.832549 0.134850 0.905598
O O16 0.495343 0.332931 0.776431
O O17 0.576341 0.264837 0.582340
O O18 0.844507 0.198343 0.668955
O O19 0.750000 0.250000 0.500000
#
# Coordination Sequence:
#
# PCOD8097164 Si02
#       8
#     8   8   8   8   8   8   8   8
#     4  10  23  42  62  85 111 140 181 232 288 347
#     4  11  22  36  56  84 115 150 192 232 280 339
#     4  10  23  42  63  86 112 141 180 235 294 345
#     4  10  20  34  52  78 115 151 189 230 275 328
#     4  12  21  34  58  83 111 151 192 232 279 332
#     4  10  22  36  53  82 117 157 192 231 275 327
#     4  11  21  36  54  78 119 158 190 229 274 323
#     4  10  21  35  52  79 115 152 193 235 272 327
#
# _framework density 19.161200000000001
#
# number of rings (size 3 to 8) (size 9 to 14) (size 15 to 20)
#    0.000    1.500    2.500    3.375    5.250    2.500 
#    0.000    0.000    0.000    0.750    0.000    3.500 
#    0.000    0.000    0.000    0.000    0.000    0.000 
#
# Total GULP energy -396709.547623 kJ/mol
# GULP energy per Si atom -12397.173363 kJ/mol
# Density = 1.911759 g / cm^3
# Si number density = 19.161200 Si / 1000 Ang^3
#
#
#
# Elastic Constant Matrix: (Units=GPa)
#
#
# Indices 1 2 3 4 5 6 
#
# 1 63.4146 23.0374 58.3784 0.0000 -7.5111 0.0000
# 2 23.0374 37.5613 36.0120 0.0000 -8.8972 0.0000
# 3 58.3784 36.0120 155.0575 0.0000 -3.2512 0.0000
# 4 0.0000 0.0000 0.0000 24.6263 0.0000 -0.2029
# 5 -7.5111 -8.8972 -3.2512 0.0000 35.1991 0.0000
# 6 0.0000 0.0000 0.0000 -0.2029 0.0000 25.1684
#
#
#
# Elastic Compliance Matrix: (Units=1/GPa)
#
#
# Indices 1 2 3 4 5 6 
#
# 1 0.026348 -0.007739 -0.008061 0.000000 0.002922 0.000000
# 2 -0.007739 0.038889 -0.005958 0.000000 0.007628 0.000000
# 3 -0.008061 -0.005958 0.010821 0.000000 -0.002227 0.000000
# 4 0.000000 0.000000 0.000000 0.040610 0.000000 0.000327
# 5 0.002922 0.007628 -0.002227 0.000000 0.030756 0.000000
# 6 0.000000 0.000000 0.000000 0.000327 0.000000 0.039735
#
#
# Mechanical properties :
#
#
# Convention : Reuss Voigt Hill
#
# Bulk Modulus (GPa) = 30.73032 54.54322 42.63677
# Shear Modulus (GPa) = 20.70198 26.23913 23.47056
#
# Velocity S-wave (km/s) = 3.29053 3.70454 3.50365
# Velocity P-wave (km/s) = 5.52353 6.84291 6.21831
#
# Compressibility (1/GPa) = 0.03254115
#
# Stress axis : x y z
#
# Youngs Moduli (GPa) = 37.95398 25.71405 92.41012
#
# Poissons Ratio (x) = 0.19900 0.74493
# Poissons Ratio (y) = 0.29373 0.55061
# Poissons Ratio (z) = 0.30595 0.15321
#
# Static dielectric constant tensor:
#      x y z
#    x 3.694220 0.000000 -0.193660 
#    y 0.000000 3.176230 0.000000 
#    z -0.193660 0.000000 3.998120 
# 
# 
# High freq. dielectric constant tensor:
#      x y z
#    x 1.743320 0.000000 0.000800 
#    y 0.000000 1.697660 0.000000 
#    z 0.000800 0.000000 1.774760 
# 
# From -- ./inp_files/66967.got.cif
#   From: 2010.06.25/outbox.cif.g09.slc.cpg/sg12_34_cif.got.tgz:66967.got - 2010.06.28 00:19:55.
