data_PCOD8097801
_publ_section_title
;
Structure prediction by ZEFSAII (Michael W. Deem and Ramdas Pophale) SiO2 
 PCOD8097801
Probable space group: C 2/M
;
_chemical_formula_sum "Si O2"
_cell_formula_units_Z 40
_cell_length_a 16.224562
_cell_length_b 17.655570
_cell_length_c 10.036676
_cell_angle_alpha 90.000000
_cell_angle_beta 132.798438
_cell_angle_gamma 90.000000
_cell_volume 2109.559547
_symmetry_space_group_name_H-M "C 2/M"
_symmetry_group_IT_number 12
_symmetry_cell_setting 'monoclinic'
loop_
_space_group_symop_operation_xyz
x,y,z
-x,y,-z
-x,-y,-z
x,-y,z
1/2+x,1/2+y,z
1/2-x,1/2+y,-z
1/2-x,1/2-y,-z
1/2+x,1/2-y,z
loop_
_atom_site_type_symbol
_atom_site_label
_atom_site_fract_x
_atom_site_fract_y
_atom_site_fract_z
Si Si1 0.872088 0.138433 0.335921
Si Si2 0.368963 0.417390 0.842879
Si Si3 0.648242 0.697642 0.412350
Si Si4 0.054510 0.289182 0.695190
Si Si5 0.728147 0.085378 0.947117
O O1 0.822413 0.144648 0.429281
O O2 0.863898 0.221192 0.258846
O O3 0.000000 0.109875 0.500000
O O4 0.799886 0.083543 0.163166
O O5 0.318942 0.500000 0.746916
O O6 0.352374 0.354728 0.715599
O O7 0.310256 0.390836 0.916186
O O8 0.500000 0.427272 0.000000
O O9 0.750000 0.750000 0.500000
O O10 0.537669 0.750495 0.308646
O O11 0.123808 0.356079 0.843396
O O12 0.000000 0.323600 0.500000
O O13 0.681411 0.000000 0.876571
#
# Coordination Sequence:
#
# PCOD8097801 Si02
#       5
#     8   8   8   8   8
#     4   9  19  35  55  79 110 147 187 232 276 331
#     4  10  20  34  54  82 112 141 181 234 283 325
#     4  10  20  35  57  81 107 144 187 235 284 331
#     4   9  19  36  56  80 109 145 192 235 277 335
#     4  11  22  36  57  84 116 152 187 228 283 345
#
# _framework density 18.961304999999999
#
# number of rings (size 3 to 8) (size 9 to 14) (size 15 to 20)
#    0.000    2.600    0.000    5.400    0.000    3.200 
#    0.000    1.000    0.000    1.800    0.000    0.000 
#    0.000    0.000    0.000    0.000    0.000    0.000 
#
# Total GULP energy -247800.506613 kJ/mol
# GULP energy per Si atom -12390.025331 kJ/mol
# Density = 1.891815 g / cm^3
# Si number density = 18.961305 Si / 1000 Ang^3
#
#
#
# Elastic Constant Matrix: (Units=GPa)
#
#
# Indices 1 2 3 4 5 6 
#
# 1 86.5080 33.3619 39.1739 0.0000 -17.7673 0.0000
# 2 33.3619 85.5747 50.8009 0.0000 3.5452 0.0000
# 3 39.1739 50.8009 103.2979 0.0000 -9.4516 0.0000
# 4 0.0000 0.0000 0.0000 31.1520 0.0000 1.7802
# 5 -17.7673 3.5452 -9.4516 0.0000 24.8937 0.0000
# 6 0.0000 0.0000 0.0000 1.7802 0.0000 2.2835
#
#
#
# Elastic Compliance Matrix: (Units=1/GPa)
#
#
# Indices 1 2 3 4 5 6 
#
# 1 0.017520 -0.005739 -0.002696 0.000000 0.012298 0.000000
# 2 -0.005739 0.019182 -0.008165 0.000000 -0.009928 0.000000
# 3 -0.002696 -0.008165 0.015177 0.000000 0.005001 0.000000
# 4 0.000000 0.000000 0.000000 0.033597 0.000000 -0.026193
# 5 0.012298 -0.009928 0.005001 0.000000 0.052260 0.000000
# 6 0.000000 0.000000 0.000000 -0.026193 0.000000 0.458348
#
#
# Mechanical properties :
#
#
# Convention : Reuss Voigt Hill
#
# Bulk Modulus (GPa) = 53.54361 58.00600 55.77481
# Shear Modulus (GPa) = 7.86769 21.80211 14.83490
#
# Velocity S-wave (km/s) = 2.03920 3.39458 2.80014
# Velocity P-wave (km/s) = 5.81757 6.78398 6.31928
#
# Compressibility (1/GPa) = 0.01867636
#
# Stress axis : x y z
#
# Youngs Moduli (GPa) = 57.07880 52.13312 65.89132
#
# Poissons Ratio (x) = 0.29919 0.17767
# Poissons Ratio (y) = 0.32757 0.53803
# Poissons Ratio (z) = 0.15391 0.42569
#
# Static dielectric constant tensor:
#      x y z
#    x 3.475820 0.000000 -0.118300 
#    y 0.000000 3.250280 0.000000 
#    z -0.118300 0.000000 3.405080 
# 
# 
# High freq. dielectric constant tensor:
#      x y z
#    x 1.727990 0.000000 -0.010170 
#    y 0.000000 1.732430 0.000000 
#    z -0.010170 0.000000 1.729460 
# 
# From -- ./inp_files/63139.got.cif
#   From: 2010.06.25/outbox.cif.g09.slc.cpg/sg12_32_cif.got.tgz:63139.got - 2010.06.28 00:19:55.
