data_PCOD8097178
_publ_section_title
;
Structure prediction by ZEFSAII (Michael W. Deem and Ramdas Pophale) SiO2 
 PCOD8097178
Probable space group: C 2/M
;
_chemical_formula_sum "Si O2"
_cell_formula_units_Z 56
_cell_length_a 25.107534
_cell_length_b 8.808319
_cell_length_c 13.953038
_cell_angle_alpha 90.000000
_cell_angle_beta 105.305922
_cell_angle_gamma 90.000000
_cell_volume 2976.334059
_symmetry_space_group_name_H-M "C 2/M"
_symmetry_group_IT_number 12
_symmetry_cell_setting 'monoclinic'
loop_
_space_group_symop_operation_xyz
x,y,z
-x,y,-z
-x,-y,-z
x,-y,z
1/2+x,1/2+y,z
1/2-x,1/2+y,-z
1/2-x,1/2-y,-z
1/2+x,1/2-y,z
loop_
_atom_site_type_symbol
_atom_site_label
_atom_site_fract_x
_atom_site_fract_y
_atom_site_fract_z
Si Si1 0.691518 0.320388 0.454164
Si Si2 0.087800 0.175308 0.704004
Si Si3 0.190751 0.178245 0.076419
Si Si4 0.868073 0.178030 0.764278
Si Si5 0.031503 0.825056 0.306720
Si Si6 0.907416 0.320900 0.493112
Si Si7 0.682126 0.176537 0.871609
O O1 0.694388 0.500000 0.462102
O O2 0.750000 0.250000 0.500000
O O3 0.670169 0.263674 0.340567
O O4 0.651216 0.257959 0.516452
O O5 0.073101 0.267252 0.601600
O O6 0.142104 0.236529 0.780801
O O7 0.033526 0.195526 0.746374
O O8 0.097307 0.000000 0.683028
O O9 0.153615 0.246512 0.145636
O O10 0.255006 0.211069 0.129768
O O11 0.181269 0.000000 0.053785
O O12 0.171074 0.267161 0.973630
O O13 0.931789 0.222757 0.769234
O O14 0.860811 0.000000 0.771660
O O15 0.047742 0.726301 0.406540
O O16 0.045987 0.000000 0.338688
O O17 0.900240 0.500000 0.490722
O O18 0.668339 0.000000 0.858902
#
# Coordination Sequence:
#
# PCOD8097178 Si02
#       7
#     8   8   8   8   8   8   8
#     4  10  20  34  52  79 113 146 184 228 270 321
#     4  11  22  36  56  80 108 144 184 228 275 327
#     4   9  18  36  59  79 104 139 177 220 273 330
#     4   8  16  33  57  78 101 138 180 222 269 319
#     4   9  19  37  57  79 108 142 184 229 273 325
#     4  11  22  35  53  78 111 149 185 223 272 326
#     4  10  21  35  54  82 111 138 174 225 275 328
#
# _framework density 18.815092
#
# number of rings (size 3 to 8) (size 9 to 14) (size 15 to 20)
#    0.000    2.286    0.000    3.857    2.000    3.429 
#    0.000    4.286    0.000    4.286    0.000    0.000 
#    0.000    0.000    0.000    0.000    0.000    0.000 
#
# Total GULP energy -347150.522617 kJ/mol
# GULP energy per Si atom -12398.232951 kJ/mol
# Density = 1.877227 g / cm^3
# Si number density = 18.815092 Si / 1000 Ang^3
#
#
#
# Elastic Constant Matrix: (Units=GPa)
#
#
# Indices 1 2 3 4 5 6 
#
# 1 95.2570 27.8920 39.3559 0.0000 -13.3329 0.0000
# 2 27.8920 75.7249 20.5484 0.0000 1.2622 0.0000
# 3 39.3559 20.5484 66.0648 0.0000 -17.1302 0.0000
# 4 0.0000 0.0000 0.0000 29.9116 0.0000 3.9799
# 5 -13.3329 1.2622 -17.1302 0.0000 31.9626 0.0000
# 6 0.0000 0.0000 0.0000 3.9799 0.0000 23.1366
#
#
#
# Elastic Compliance Matrix: (Units=1/GPa)
#
#
# Indices 1 2 3 4 5 6 
#
# 1 0.014818 -0.003587 -0.007052 0.000000 0.002543 0.000000
# 2 -0.003587 0.015627 -0.003800 0.000000 -0.004150 0.000000
# 3 -0.007052 -0.003800 0.022991 0.000000 0.009530 0.000000
# 4 0.000000 0.000000 0.000000 0.034215 0.000000 -0.005886
# 5 0.002543 -0.004150 0.009530 0.000000 0.037619 0.000000
# 6 0.000000 0.000000 0.000000 -0.005886 0.000000 0.044234
#
#
# Mechanical properties :
#
#
# Convention : Reuss Voigt Hill
#
# Bulk Modulus (GPa) = 40.71987 45.84882 43.28435
# Shear Modulus (GPa) = 24.20524 26.95218 25.57871
#
# Velocity S-wave (km/s) = 3.59064 3.78891 3.69111
# Velocity P-wave (km/s) = 6.23534 6.60016 6.42034
#
# Compressibility (1/GPa) = 0.02455804
#
# Stress axis : x y z
#
# Youngs Moduli (GPa) = 67.48683 63.99156 43.49576
#
# Poissons Ratio (x) = 0.22951 0.30674
# Poissons Ratio (y) = 0.24205 0.16528
# Poissons Ratio (z) = 0.47593 0.24316
#
# Static dielectric constant tensor:
#      x y z
#    x 3.714110 0.000000 -0.217280 
#    y 0.000000 3.367220 0.000000 
#    z -0.217280 0.000000 3.353990 
# 
# 
# High freq. dielectric constant tensor:
#      x y z
#    x 1.743650 0.000000 -0.008370 
#    y 0.000000 1.723060 0.000000 
#    z -0.008370 0.000000 1.711910 
# 
# From -- ./inp_files/181102.got.cif
#   From: 2010.06.25/outbox.cif.g09.slc.cpg/sg12_91_cif.got.tgz:181102.got - 2010.06.28 00:19:55.
