data_PCOD8097367
_publ_section_title
;
Structure prediction by ZEFSAII (Michael W. Deem and Ramdas Pophale) SiO2 
 PCOD8097367
Probable space group: C 2/M
;
_chemical_formula_sum "Si O2"
_cell_formula_units_Z 64
_cell_length_a 14.641485
_cell_length_b 8.570817
_cell_length_c 26.799162
_cell_angle_alpha 90.000000
_cell_angle_beta 103.639292
_cell_angle_gamma 90.000000
_cell_volume 3268.174540
_symmetry_space_group_name_H-M "C 2/M"
_symmetry_group_IT_number 12
_symmetry_cell_setting 'monoclinic'
loop_
_space_group_symop_operation_xyz
x,y,z
-x,y,-z
-x,-y,-z
x,-y,z
1/2+x,1/2+y,z
1/2-x,1/2+y,-z
1/2-x,1/2-y,-z
1/2+x,1/2-y,z
loop_
_atom_site_type_symbol
_atom_site_label
_atom_site_fract_x
_atom_site_fract_y
_atom_site_fract_z
Si Si1 0.452672 0.685368 0.442642
Si Si2 0.722544 0.184497 0.625669
Si Si3 0.394871 0.184554 0.995883
Si Si4 0.720035 0.184128 0.923461
Si Si5 0.428865 0.318696 0.633255
Si Si6 0.753436 0.817990 0.266465
Si Si7 0.552702 0.681137 0.253219
Si Si8 0.132317 0.317241 0.808506
O O1 0.500000 0.739846 0.500000
O O2 0.441492 0.500000 0.438963
O O3 0.350822 0.764325 0.425980
O O4 0.512360 0.757271 0.404181
O O5 0.823125 0.247545 0.619753
O O6 0.699330 0.266402 0.675362
O O7 0.723948 0.000000 0.634399
O O8 0.323380 0.242704 0.944036
O O9 0.399486 0.000000 0.994216
O O10 0.500000 0.253236 0.000000
O O11 0.354043 0.242141 0.043988
O O12 0.682021 0.240874 0.865345
O O13 0.731465 0.000000 0.927311
O O14 0.424226 0.500000 0.620954
O O15 0.476811 0.285203 0.693025
O O16 0.642722 0.783313 0.250670
O O17 0.800918 0.721361 0.228727
O O18 0.772581 0.000000 0.260538
O O19 0.579113 0.500000 0.249671
O O20 0.466479 0.727475 0.207264
O O21 0.111108 0.500000 0.807287
#
# Coordination Sequence:
#
# PCOD8097367 Si02
#       8
#     8   8   8   8   8   8   8   8
#     4  10  20  34  53  78 107 139 176 218 268 328
#     4  10  20  36  56  76 103 139 179 224 273 327
#     4   9  18  35  58  80 105 141 183 225 269 317
#     4   9  20  36  53  79 112 143 179 223 267 317
#     4   8  17  34  53  73 102 138 172 212 262 316
#     4  11  22  37  57  81 109 143 185 230 279 332
#     4  10  20  36  57  81 110 146 187 227 272 327
#     4  11  22  36  54  81 118 152 184 224 271 326
#
# _framework density 19.582798
#
# number of rings (size 3 to 8) (size 9 to 14) (size 15 to 20)
#    0.000    2.250    0.000    3.750    0.000    4.000 
#    0.000    4.375    0.000    0.000    0.000    0.000 
#    0.000    0.000    0.000    0.000    0.000    0.000 
#
# Total GULP energy -396831.019470 kJ/mol
# GULP energy per Si atom -12400.969358 kJ/mol
# Density = 1.953823 g / cm^3
# Si number density = 19.582798 Si / 1000 Ang^3
#
#
#
# Elastic Constant Matrix: (Units=GPa)
#
#
# Indices 1 2 3 4 5 6 
#
# 1 88.8264 12.9010 44.5043 0.0000 21.1454 0.0000
# 2 12.9010 35.1748 18.2985 0.0000 7.0992 0.0000
# 3 44.5043 18.2985 111.5783 0.0000 27.7841 0.0000
# 4 0.0000 0.0000 0.0000 26.9372 0.0000 7.1059
# 5 21.1454 7.0992 27.7841 0.0000 29.1061 0.0000
# 6 0.0000 0.0000 0.0000 7.1059 0.0000 28.7247
#
#
#
# Elastic Compliance Matrix: (Units=1/GPa)
#
#
# Indices 1 2 3 4 5 6 
#
# 1 0.015177 -0.002118 -0.004052 0.000000 -0.006641 0.000000
# 2 -0.002118 0.031661 -0.003683 0.000000 -0.002668 0.000000
# 3 -0.004052 -0.003683 0.013415 0.000000 -0.008963 0.000000
# 4 0.000000 0.000000 0.000000 0.039715 0.000000 -0.009825
# 5 -0.006641 -0.002668 -0.008963 0.000000 0.048388 0.000000
# 6 0.000000 0.000000 0.000000 -0.009825 0.000000 0.037244
#
#
# Mechanical properties :
#
#
# Convention : Reuss Voigt Hill
#
# Bulk Modulus (GPa) = 24.66404 42.99856 33.83130
# Shear Modulus (GPa) = 22.84973 27.61198 25.23085
#
# Velocity S-wave (km/s) = 3.41959 3.75909 3.59335
# Velocity P-wave (km/s) = 5.31164 6.39108 5.87620
#
# Compressibility (1/GPa) = 0.04054487
#
# Stress axis : x y z
#
# Youngs Moduli (GPa) = 65.89009 31.58491 74.54596
#
# Poissons Ratio (x) = 0.06689 0.30209
# Poissons Ratio (y) = 0.13955 0.27457
# Poissons Ratio (z) = 0.26702 0.11633
#
# Static dielectric constant tensor:
#      x y z
#    x 3.748380 0.000000 -0.022380 
#    y 0.000000 3.334180 0.000000 
#    z -0.022380 0.000000 3.663340 
# 
# 
# High freq. dielectric constant tensor:
#      x y z
#    x 1.770850 0.000000 0.007160 
#    y 0.000000 1.748500 0.000000 
#    z 0.007160 0.000000 1.760350 
# 
# From -- ./inp_files/359950.got.cif
#   From: 2010.06.25/outbox.cif.g09.slc.cpg/sg12_180_cif.got.tgz:359950.got - 2010.06.28 00:19:55.
