data_PCOD8097033
_publ_section_title
;
Structure prediction by ZEFSAII (Michael W. Deem and Ramdas Pophale) SiO2 
 PCOD8097033
Probable space group: C 2/M
;
_chemical_formula_sum "Si O2"
_cell_formula_units_Z 56
_cell_length_a 8.901782
_cell_length_b 10.517440
_cell_length_c 31.305549
_cell_angle_alpha 90.000000
_cell_angle_beta 72.733950
_cell_angle_gamma 90.000000
_cell_volume 2798.871560
_symmetry_space_group_name_H-M "C 2/M"
_symmetry_group_IT_number 12
_symmetry_cell_setting 'monoclinic'
loop_
_space_group_symop_operation_xyz
x,y,z
-x,y,-z
-x,-y,-z
x,-y,z
1/2+x,1/2+y,z
1/2-x,1/2+y,-z
1/2-x,1/2-y,-z
1/2+x,1/2-y,z
loop_
_atom_site_type_symbol
_atom_site_label
_atom_site_fract_x
_atom_site_fract_y
_atom_site_fract_z
Si Si1 0.250861 0.857768 0.093135
Si Si2 0.288070 0.145582 0.236006
Si Si3 0.014236 0.143971 0.949555
Si Si4 0.475759 0.357996 0.808490
Si Si5 0.822216 0.140218 0.665128
Si Si6 0.910800 0.640783 0.547403
Si Si7 0.115993 0.287185 0.606230
O O1 0.380145 0.747515 0.083631
O O2 0.135130 0.833147 0.142020
O O3 0.158028 0.849081 0.056410
O O4 0.326663 0.000000 0.090860
O O5 0.398595 0.244676 0.202023
O O6 0.120656 0.147931 0.227144
O O7 0.263956 0.199961 0.286263
O O8 0.357025 0.000000 0.229514
O O9 0.083261 0.000000 0.938484
O O10 0.000000 0.181832 0.000000
O O11 0.553137 0.500000 0.805987
O O12 0.704694 0.131986 0.634719
O O13 0.986622 0.204383 0.640973
O O14 0.869967 0.000000 0.675045
O O15 0.865146 0.500000 0.536543
O O16 0.746370 0.706493 0.570624
O O17 0.000000 0.709441 0.500000
O O18 0.024803 0.630070 0.578875
#
# Coordination Sequence:
#
# PCOD8097033 Si02
#       7
#     8   8   8   8   8   8   8
#     4  10  21  36  55  79 107 140 178 219 264 316
#     4  10  21  36  55  79 106 138 176 217 262 314
#     4  10  21  36  54  79 109 140 178 222 266 315
#     4  10  21  37  55  79 109 139 176 220 264 314
#     4  10  20  35  53  75 103 133 169 211 254 304
#     4  10  20  34  52  75 102 132 168 208 250 300
#     4  10  20  34  53  75 101 134 168 206 255 302
#
# _framework density 20.008063
#
# number of rings (size 3 to 8) (size 9 to 14) (size 15 to 20)
#    0.000    2.000    0.000    3.429    0.000    2.000 
#    0.000    3.571    0.000    6.857    0.000    0.000 
#    0.000    0.000    0.000    0.000    0.000    0.000 
#
# Total GULP energy -347069.917035 kJ/mol
# GULP energy per Si atom -12395.354180 kJ/mol
# Density = 1.996252 g / cm^3
# Si number density = 20.008063 Si / 1000 Ang^3
#
#
#
# Elastic Constant Matrix: (Units=GPa)
#
#
# Indices 1 2 3 4 5 6 
#
# 1 48.3294 26.3456 4.6441 0.0000 -10.6168 0.0000
# 2 26.3456 104.6655 32.0418 0.0000 -26.1690 0.0000
# 3 4.6441 32.0418 79.9875 0.0000 -3.6542 0.0000
# 4 0.0000 0.0000 0.0000 27.9636 0.0000 -0.4854
# 5 -10.6168 -26.1690 -3.6542 0.0000 30.6764 0.0000
# 6 0.0000 0.0000 0.0000 -0.4854 0.0000 17.3251
#
#
#
# Elastic Compliance Matrix: (Units=1/GPa)
#
#
# Indices 1 2 3 4 5 6 
#
# 1 0.024438 -0.005464 0.000949 0.000000 0.003909 0.000000
# 2 -0.005464 0.015145 -0.005274 0.000000 0.010400 0.000000
# 3 0.000949 -0.005274 0.014448 0.000000 -0.002450 0.000000
# 4 0.000000 0.000000 0.000000 0.035778 0.000000 0.001002
# 5 0.003909 0.010400 -0.002450 0.000000 0.042531 0.000000
# 6 0.000000 0.000000 0.000000 0.001002 0.000000 0.057748
#
#
# Mechanical properties :
#
#
# Convention : Reuss Voigt Hill
#
# Bulk Modulus (GPa) = 29.02750 39.89392 34.46071
# Shear Modulus (GPa) = 22.60902 26.52307 24.56604
#
# Velocity S-wave (km/s) = 3.36519 3.64485 3.50781
# Velocity P-wave (km/s) = 5.44414 6.13967 5.80234
#
# Compressibility (1/GPa) = 0.03445008
#
# Stress axis : x y z
#
# Youngs Moduli (GPa) = 40.92049 66.03020 69.21486
#
# Poissons Ratio (x) = 0.36081 -0.06566
# Poissons Ratio (y) = 0.22360 0.36506
# Poissons Ratio (z) = -0.03882 0.34826
#
# Static dielectric constant tensor:
#      x y z
#    x 3.482580 0.000000 0.178380 
#    y 0.000000 3.627470 0.000000 
#    z 0.178380 0.000000 3.761620 
# 
# 
# High freq. dielectric constant tensor:
#      x y z
#    x 1.769300 0.000000 0.015360 
#    y 0.000000 1.779390 0.000000 
#    z 0.015360 0.000000 1.796010 
# 
# From -- ./inp_files/355756.got.cif
#   From: 2010.06.25/outbox.cif.g09.slc.cpg/sg12_178_cif.got.tgz:355756.got - 2010.06.28 00:19:55.
