data_PCOD8097235
_publ_section_title
;
Structure prediction by ZEFSAII (Michael W. Deem and Ramdas Pophale) SiO2 
 PCOD8097235
Probable space group: C 2/M
;
_chemical_formula_sum "Si O2"
_cell_formula_units_Z 64
_cell_length_a 20.117772
_cell_length_b 9.259949
_cell_length_c 25.205368
_cell_angle_alpha 90.000000
_cell_angle_beta 51.461250
_cell_angle_gamma 90.000000
_cell_volume 3672.756125
_symmetry_space_group_name_H-M "C 2/M"
_symmetry_group_IT_number 12
_symmetry_cell_setting 'monoclinic'
loop_
_space_group_symop_operation_xyz
x,y,z
-x,y,-z
-x,-y,-z
x,-y,z
1/2+x,1/2+y,z
1/2-x,1/2+y,-z
1/2-x,1/2-y,-z
1/2+x,1/2-y,z
loop_
_atom_site_type_symbol
_atom_site_label
_atom_site_fract_x
_atom_site_fract_y
_atom_site_fract_z
Si Si1 0.828627 0.668387 0.434616
Si Si2 0.377038 0.670048 0.589781
Si Si3 0.454403 0.671044 0.441172
Si Si4 0.866566 0.832062 0.908608
Si Si5 0.059099 0.170881 0.819100
Si Si6 0.579088 0.671371 0.927640
Si Si7 0.188966 0.666834 0.681205
Si Si8 0.781875 0.168147 0.060919
O O1 0.824669 0.500000 0.452006
O O2 0.750000 0.750000 0.500000
O O3 0.916790 0.739362 0.410751
O O4 0.825601 0.689883 0.373526
O O5 0.373639 0.500000 0.584778
O O6 0.406074 0.727328 0.517836
O O7 0.445410 0.710612 0.601438
O O8 0.282828 0.726798 0.650558
O O9 0.441936 0.500000 0.437688
O O10 0.807809 0.750147 0.895371
O O11 0.963347 0.784314 0.851625
O O12 0.854348 0.000000 0.904433
O O13 0.839537 0.790308 0.981694
O O14 0.080016 0.231621 0.867395
O O15 0.120801 0.240937 0.746227
O O16 0.070805 0.000000 0.811403
O O17 0.568299 0.500000 0.931831
O O18 0.666978 0.716514 0.912165
O O19 0.500000 0.737208 0.000000
O O20 0.178831 0.500000 0.702179
O O21 0.761445 0.000000 0.071775
#
# Coordination Sequence:
#
# PCOD8097235 Si02
#       8
#     8   8   8   8   8   8   8   8
#     4  11  21  34  54  79 106 135 172 217 259 303
#     4   8  15  31  54  76 101 137 171 201 251 313
#     4   9  16  31  56  80 102 131 172 214 253 304
#     4   9  17  30  48  73 104 132 164 208 253 299
#     4  10  20  34  53  76 101 134 174 212 251 300
#     4   9  15  29  53  77  99 127 168 212 252 295
#     4  10  21  37  53  73 105 142 172 204 255 311
#     4   9  16  28  51  77  99 129 166 207 255 303
#
# _framework density 17.425605000000001
#
# number of rings (size 3 to 8) (size 9 to 14) (size 15 to 20)
#    0.000    2.625    2.500    1.125    0.000    1.500 
#    0.000    3.750    0.000    6.750    0.000    0.000 
#    0.000    0.000    0.000    0.000    0.000    0.000 
#
# Total GULP energy -396698.625622 kJ/mol
# GULP energy per Si atom -12396.832051 kJ/mol
# Density = 1.738594 g / cm^3
# Si number density = 17.425605 Si / 1000 Ang^3
#
#
#
# Elastic Constant Matrix: (Units=GPa)
#
#
# Indices 1 2 3 4 5 6 
#
# 1 155.6888 55.2991 64.4282 0.0000 -19.9996 0.0000
# 2 55.2991 48.9501 38.9203 -0.0001 -5.9947 -0.0007
# 3 64.4282 38.9203 95.7287 0.0000 -17.2672 0.0000
# 4 0.0000 -0.0001 0.0000 25.4447 0.0000 -2.3888
# 5 -19.9996 -5.9947 -17.2672 0.0000 26.5306 0.0000
# 6 0.0000 -0.0007 0.0000 -2.3888 0.0000 29.2962
#
#
#
# Elastic Compliance Matrix: (Units=1/GPa)
#
#
# Indices 1 2 3 4 5 6 
#
# 1 0.012038 -0.010724 -0.002880 0.000000 0.004777 0.000000
# 2 -0.010724 0.039782 -0.009963 0.000000 -0.005579 0.000001
# 3 -0.002880 -0.009963 0.017717 0.000000 0.007109 0.000000
# 4 0.000000 0.000000 0.000000 0.039604 0.000000 0.003229
# 5 0.004777 -0.005579 0.007109 0.000000 0.044659 0.000000
# 6 0.000000 0.000001 0.000000 0.003229 0.000000 0.034397
#
#
# Mechanical properties :
#
#
# Convention : Reuss Voigt Hill
#
# Bulk Modulus (GPa) = 44.63648 68.62919 56.63284
# Shear Modulus (GPa) = 20.59311 25.70232 23.14771
#
# Velocity S-wave (km/s) = 3.44142 3.84471 3.64864
# Velocity P-wave (km/s) = 6.43912 7.69276 7.09369
#
# Compressibility (1/GPa) = 0.02240320
#
# Stress axis : x y z
#
# Youngs Moduli (GPa) = 83.07352 25.13686 56.44148
#
# Poissons Ratio (x) = 0.26957 0.16255
# Poissons Ratio (y) = 0.89088 0.56233
# Poissons Ratio (z) = 0.23925 0.25044
#
# Static dielectric constant tensor:
#      x y z
#    x 3.641060 0.000000 -0.141510 
#    y 0.000000 2.990160 0.000000 
#    z -0.141510 0.000000 3.160160 
# 
# 
# High freq. dielectric constant tensor:
#      x y z
#    x 1.692600 0.000000 -0.009370 
#    y 0.000000 1.644310 0.000000 
#    z -0.009370 0.000000 1.647060 
# 
# From -- ./inp_files/365171.got.cif
#   From: 2010.06.25/outbox.cif.g09.slc.cpg/sg12_183_cif.got.tgz:365171.got - 2010.06.28 00:19:55.
