data_PCOD8097176
_publ_section_title
;
Structure prediction by ZEFSAII (Michael W. Deem and Ramdas Pophale) SiO2 
 PCOD8097176
Probable space group: C 2/M
;
_chemical_formula_sum "Si O2"
_cell_formula_units_Z 56
_cell_length_a 14.430265
_cell_length_b 8.993349
_cell_length_c 29.364689
_cell_angle_alpha 90.000000
_cell_angle_beta 126.077787
_cell_angle_gamma 90.000000
_cell_volume 3079.993582
_symmetry_space_group_name_H-M "C 2/M"
_symmetry_group_IT_number 12
_symmetry_cell_setting 'monoclinic'
loop_
_space_group_symop_operation_xyz
x,y,z
-x,y,-z
-x,-y,-z
x,-y,z
1/2+x,1/2+y,z
1/2-x,1/2+y,-z
1/2-x,1/2-y,-z
1/2+x,1/2-y,z
loop_
_atom_site_type_symbol
_atom_site_label
_atom_site_fract_x
_atom_site_fract_y
_atom_site_fract_z
Si Si1 0.467416 0.325718 0.269244
Si Si2 0.550735 0.169967 0.060172
Si Si3 0.799057 0.326330 0.652662
Si Si4 0.837818 0.671158 0.059206
Si Si5 0.836290 0.325436 0.559382
Si Si6 0.302140 0.323085 0.142292
Si Si7 0.928567 0.174901 0.361146
O O1 0.485751 0.500000 0.269870
O O2 0.589641 0.251807 0.294037
O O3 0.376177 0.264640 0.206256
O O4 0.418006 0.284645 0.304712
O O5 0.465072 0.185100 0.076829
O O6 0.672352 0.238252 0.110603
O O7 0.575394 0.000000 0.053809
O O8 0.500000 0.249837 0.000000
O O9 0.814418 0.500000 0.665550
O O10 0.791038 0.288042 0.596904
O O11 0.685031 0.268716 0.645431
O O12 0.800247 0.500000 0.054084
O O13 0.849880 0.753681 0.110133
O O14 0.750000 0.750000 0.000000
O O15 0.840318 0.500000 0.551514
O O16 0.750000 0.250000 0.500000
O O17 0.962355 0.259791 0.586687
O O18 0.309375 0.500000 0.141333
O O19 0.947248 0.000000 0.374192
#
# Coordination Sequence:
#
# PCOD8097176 Si02
#       7
#     8   8   8   8   8   8   8
#     4   9  19  34  54  77 102 133 171 217 263 308
#     4   9  17  32  53  73  97 133 168 201 249 311
#     4   9  19  35  56  78 105 139 177 220 262 304
#     4  11  21  34  54  77 100 131 168 208 255 309
#     4  10  20  34  52  79 112 145 177 218 264 308
#     4  10  20  36  54  75 104 135 170 211 257 313
#     4   9  18  35  56  77 102 139 181 219 260 308
#
# _framework density 18.181856
#
# number of rings (size 3 to 8) (size 9 to 14) (size 15 to 20)
#    0.000    2.429    1.429    0.857    0.000    3.429 
#    0.000    7.857    0.000    0.000    0.000    0.000 
#    0.000    0.000    0.000    0.000    0.000    0.000 
#
# Total GULP energy -347177.074575 kJ/mol
# GULP energy per Si atom -12399.181235 kJ/mol
# Density = 1.814047 g / cm^3
# Si number density = 18.181856 Si / 1000 Ang^3
#
#
#
# Elastic Constant Matrix: (Units=GPa)
#
#
# Indices 1 2 3 4 5 6 
#
# 1 138.2019 33.3215 77.0227 0.0000 19.0329 0.0000
# 2 33.3215 40.9813 47.5816 0.0000 6.6515 0.0000
# 3 77.0227 47.5816 175.0993 0.0000 20.2823 0.0000
# 4 0.0000 0.0000 0.0000 27.5331 0.0000 -0.1899
# 5 19.0329 6.6515 20.2823 0.0000 24.6784 0.0000
# 6 0.0000 0.0000 0.0000 -0.1899 0.0000 28.1851
#
#
#
# Elastic Compliance Matrix: (Units=1/GPa)
#
#
# Indices 1 2 3 4 5 6 
#
# 1 0.010559 -0.004479 -0.002900 0.000000 -0.004553 0.000000
# 2 -0.004479 0.037623 -0.008266 0.000000 0.000108 0.000000
# 3 -0.002900 -0.008266 0.009633 0.000000 -0.003452 0.000000
# 4 0.000000 0.000000 0.000000 0.036322 0.000000 0.000245
# 5 -0.004553 0.000108 -0.003452 0.000000 0.046841 0.000000
# 6 0.000000 0.000000 0.000000 0.000245 0.000000 0.035481
#
#
# Mechanical properties :
#
#
# Convention : Reuss Voigt Hill
#
# Bulk Modulus (GPa) = 37.70115 74.45933 56.08024
# Shear Modulus (GPa) = 23.08499 29.16977 26.12738
#
# Velocity S-wave (km/s) = 3.56711 4.00976 3.79489
# Velocity P-wave (km/s) = 6.14380 7.90437 7.07903
#
# Compressibility (1/GPa) = 0.02652439
#
# Stress axis : x y z
#
# Youngs Moduli (GPa) = 94.70493 26.57944 103.81175
#
# Poissons Ratio (x) = 0.11906 0.30107
# Poissons Ratio (y) = 0.42421 0.85809
# Poissons Ratio (z) = 0.27466 0.21970
#
# Static dielectric constant tensor:
#      x y z
#    x 3.382930 0.000000 0.102760 
#    y 0.000000 3.238510 0.000000 
#    z 0.102760 0.000000 3.490710 
# 
# 
# High freq. dielectric constant tensor:
#      x y z
#    x 1.710920 0.000000 0.004630 
#    y 0.000000 1.688480 0.000000 
#    z 0.004630 0.000000 1.708710 
# 
# From -- ./inp_files/338176.got.cif
#   From: 2010.06.25/outbox.cif.g09.slc.cpg/sg12_170_cif.got.tgz:338176.got - 2010.06.28 00:19:55.
