data_PCOD8097010
_publ_section_title
;
Structure prediction by ZEFSAII (Michael W. Deem and Ramdas Pophale) SiO2 
 PCOD8097010
Probable space group: C 2/M
;
_chemical_formula_sum "Si O2"
_cell_formula_units_Z 64
_cell_length_a 8.744036
_cell_length_b 28.066103
_cell_length_c 15.360358
_cell_angle_alpha 90.000000
_cell_angle_beta 90.236808
_cell_angle_gamma 90.000000
_cell_volume 3769.568851
_symmetry_space_group_name_H-M "C 2/M"
_symmetry_group_IT_number 12
_symmetry_cell_setting 'monoclinic'
loop_
_space_group_symop_operation_xyz
x,y,z
-x,y,-z
-x,-y,-z
x,-y,z
1/2+x,1/2+y,z
1/2-x,1/2+y,-z
1/2-x,1/2-y,-z
1/2+x,1/2-y,z
loop_
_atom_site_type_symbol
_atom_site_label
_atom_site_fract_x
_atom_site_fract_y
_atom_site_fract_z
Si Si1 0.828886 0.943565 0.008281
Si Si2 0.674345 0.944099 0.506543
Si Si3 0.820145 0.299230 0.600784
Si Si4 0.323559 0.393220 0.346177
Si Si5 0.677792 0.800457 0.601367
Si Si6 0.825643 0.443714 0.816879
Si Si7 0.683439 0.604943 0.331939
Si Si8 0.678410 0.056039 0.828990
O O1 0.727043 0.928343 0.925815
O O2 0.836541 0.000000 0.015310
O O3 0.748966 0.923160 0.094872
O O4 0.000000 0.922419 0.000000
O O5 0.500000 0.925880 0.500000
O O6 0.772549 0.918128 0.434441
O O7 0.737451 0.931477 0.601303
O O8 0.684919 0.000000 0.490548
O O9 0.739062 0.339534 0.658000
O O10 0.751586 0.249095 0.631206
O O11 0.784718 0.309838 0.499643
O O12 0.999001 0.298674 0.619709
O O13 0.260249 0.421435 0.264308
O O14 0.504539 0.393247 0.346892
O O15 0.750244 0.842197 0.658497
O O16 0.805230 0.500000 0.811249
O O17 0.003002 0.429613 0.814290
O O18 0.716046 0.585562 0.236072
O O19 0.705913 0.000000 0.814149
#
# Coordination Sequence:
#
# PCOD8097010 Si02
#       8
#     8   8   8   8   8   8   8   8
#     4   9  17  31  51  75 102 131 168 215 261 303
#     4  11  23  37  50  67  98 139 177 211 251 301
#     4  10  20  35  55  75 100 131 168 213 260 306
#     4  12  23  34  51  75 103 135 173 213 256 304
#     4  10  20  35  55  75 100 131 168 213 260 306
#     4  10  20  34  52  74 103 139 176 213 256 306
#     4  12  23  34  51  75 103 135 173 213 256 304
#     4  10  20  34  52  74 103 139 176 213 256 306
#
# _framework density 16.978069999999999
#
# number of rings (size 3 to 8) (size 9 to 14) (size 15 to 20)
#    0.000    1.500    1.250    5.250    0.000    8.000 
#    0.000    0.000    0.000    0.000    0.000    0.875 
#    0.000    0.000    0.000    0.000    0.000    0.000 
#
# Total GULP energy -396958.021995 kJ/mol
# GULP energy per Si atom -12404.938187 kJ/mol
# Density = 1.693943 g / cm^3
# Si number density = 16.978070 Si / 1000 Ang^3
#
#
#
# Elastic Constant Matrix: (Units=GPa)
#
#
# Indices 1 2 3 4 5 6 
#
# 1 110.8354 29.5842 10.4201 0.0000 -7.3950 0.0000
# 2 29.5842 52.3238 6.5609 0.0000 -8.5582 0.0000
# 3 10.4201 6.5609 49.5395 0.0000 -8.1507 0.0000
# 4 0.0000 0.0000 0.0000 3.4943 0.0000 -3.9582
# 5 -7.3950 -8.5582 -8.1507 0.0000 31.9915 0.0000
# 6 0.0000 0.0000 0.0000 -3.9582 0.0000 27.3381
#
#
#
# Elastic Compliance Matrix: (Units=1/GPa)
#
#
# Indices 1 2 3 4 5 6 
#
# 1 0.010741 -0.005804 -0.001396 0.000000 0.000574 0.000000
# 2 -0.005804 0.023285 -0.001105 0.000000 0.004606 0.000000
# 3 -0.001396 -0.001105 0.021422 0.000000 0.004840 0.000000
# 4 0.000000 0.000000 0.000000 0.342329 0.000000 0.049565
# 5 0.000574 0.004606 0.004840 0.000000 0.033856 0.000000
# 6 0.000000 0.000000 0.000000 0.049565 0.000000 0.043755
#
#
# Mechanical properties :
#
#
# Convention : Reuss Voigt Hill
#
# Bulk Modulus (GPa) = 25.74805 33.98101 29.86453
# Shear Modulus (GPa) = 9.90204 23.64031 16.77118
#
# Velocity S-wave (km/s) = 2.41763 3.73554 3.14636
# Velocity P-wave (km/s) = 4.79496 6.21802 5.55227
#
# Compressibility (1/GPa) = 0.03883790
#
# Stress axis : x y z
#
# Youngs Moduli (GPa) = 93.09931 42.94533 46.68058
#
# Poissons Ratio (x) = 0.24926 0.06517
# Poissons Ratio (y) = 0.54036 0.05159
# Poissons Ratio (z) = 0.12997 0.04746
#
# Static dielectric constant tensor:
#      x y z
#    x 3.389370 0.000000 -0.064340 
#    y 0.000000 3.088440 0.000000 
#    z -0.064340 0.000000 3.148920 
# 
# 
# High freq. dielectric constant tensor:
#      x y z
#    x 1.677920 0.000000 -0.003630 
#    y 0.000000 1.635150 0.000000 
#    z -0.003630 0.000000 1.643800 
# 
# From -- ./inp_files/199827.got.cif
#   From: 2010.06.25/outbox.cif.g09.slc.cpg/sg12_100_cif.got.tgz:199827.got - 2010.06.28 00:19:55.
