data_PCOD8097811
_publ_section_title
;
Structure prediction by ZEFSAII (Michael W. Deem and Ramdas Pophale) SiO2 
 PCOD8097811
Probable space group: C 2/M
;
_chemical_formula_sum "Si O2"
_cell_formula_units_Z 56
_cell_length_a 15.268216
_cell_length_b 8.971235
_cell_length_c 31.216658
_cell_angle_alpha 90.000000
_cell_angle_beta 136.744394
_cell_angle_gamma 90.000000
_cell_volume 2930.074579
_symmetry_space_group_name_H-M "C 2/M"
_symmetry_group_IT_number 12
_symmetry_cell_setting 'monoclinic'
loop_
_space_group_symop_operation_xyz
x,y,z
-x,y,-z
-x,-y,-z
x,-y,z
1/2+x,1/2+y,z
1/2-x,1/2+y,-z
1/2-x,1/2-y,-z
1/2+x,1/2-y,z
loop_
_atom_site_type_symbol
_atom_site_label
_atom_site_fract_x
_atom_site_fract_y
_atom_site_fract_z
Si Si1 0.403742 0.823395 0.876616
Si Si2 0.286728 0.172092 0.133992
Si Si3 0.268167 0.323887 0.349751
Si Si4 0.934107 0.676802 0.791169
Si Si5 0.558809 0.673732 0.440429
Si Si6 0.651792 0.672474 0.996443
Si Si7 0.243510 0.825651 0.430308
O O1 0.268340 0.772516 0.847426
O O2 0.409329 0.763141 0.830059
O O3 0.514397 0.748248 0.943983
O O4 0.419414 0.000000 0.884598
O O5 0.428394 0.234180 0.175579
O O6 0.289876 0.000000 0.149466
O O7 0.199250 0.192987 0.061406
O O8 0.256642 0.500000 0.351093
O O9 0.175731 0.263044 0.279504
O O10 0.411416 0.277062 0.387593
O O11 0.221612 0.250738 0.377076
O O12 0.933404 0.500000 0.792108
O O13 0.574852 0.500000 0.456919
O O14 0.627475 0.764302 0.502437
O O15 0.621446 0.711872 0.416776
O O16 0.641471 0.500000 0.980169
O O17 0.750000 0.750000 0.000000
O O18 0.260048 0.000000 0.429243
#
# Coordination Sequence:
#
# PCOD8097811 Si02
#       7
#     8   8   8   8   8   8   8
#     4  11  22  38  59  85 112 145 188 232 276 333
#     4  10  21  39  58  80 111 147 182 226 282 336
#     4  10  20  36  58  78 104 148 189 220 265 330
#     4   9  20  39  57  76 109 149 185 223 274 328
#     4   9  19  35  55  80 109 143 182 220 269 332
#     4  11  21  36  60  85 114 147 182 230 285 335
#     4  10  20  34  54  82 114 141 174 229 280 318
#
# _framework density 19.112141999999999
#
# number of rings (size 3 to 8) (size 9 to 14) (size 15 to 20)
#    0.000    2.000    1.429    2.143    0.000    6.857 
#    0.000    3.571    0.000    0.000    0.000    0.000 
#    0.000    0.000    0.000    0.000    0.000    0.000 
#
# Total GULP energy -347298.773315 kJ/mol
# GULP energy per Si atom -12403.527618 kJ/mol
# Density = 1.906864 g / cm^3
# Si number density = 19.112142 Si / 1000 Ang^3
#
#
#
# Elastic Constant Matrix: (Units=GPa)
#
#
# Indices 1 2 3 4 5 6 
#
# 1 139.5513 42.6284 67.0703 0.0000 1.8709 0.0000
# 2 42.6284 60.6136 39.6114 0.0000 -1.4400 0.0000
# 3 67.0703 39.6114 130.0853 0.0000 5.6597 0.0000
# 4 0.0000 0.0000 0.0000 22.8304 0.0000 -2.7069
# 5 1.8709 -1.4400 5.6597 0.0000 15.9901 0.0000
# 6 0.0000 0.0000 0.0000 -2.7069 0.0000 36.0912
#
#
#
# Elastic Compliance Matrix: (Units=1/GPa)
#
#
# Indices 1 2 3 4 5 6 
#
# 1 0.010548 -0.004842 -0.003952 0.000000 -0.000271 0.000000
# 2 -0.004842 0.023092 -0.004723 0.000000 0.004318 0.000000
# 3 -0.003952 -0.004723 0.011336 0.000000 -0.003975 0.000000
# 4 0.000000 0.000000 0.000000 0.044194 0.000000 0.003315
# 5 -0.000271 0.004318 -0.003975 0.000000 0.064366 0.000000
# 6 0.000000 0.000000 0.000000 0.003315 0.000000 0.027956
#
#
# Mechanical properties :
#
#
# Convention : Reuss Voigt Hill
#
# Bulk Modulus (GPa) = 55.73515 69.87448 62.80481
# Shear Modulus (GPa) = 23.30911 27.04501 25.17706
#
# Velocity S-wave (km/s) = 3.49606 3.76582 3.63345
# Velocity P-wave (km/s) = 6.74700 7.45307 7.10881
#
# Compressibility (1/GPa) = 0.01794200
#
# Stress axis : x y z
#
# Youngs Moduli (GPa) = 94.80483 43.30445 88.21326
#
# Poissons Ratio (x) = 0.20967 0.34864
# Poissons Ratio (y) = 0.45903 0.41665
# Poissons Ratio (z) = 0.37469 0.20453
#
# Static dielectric constant tensor:
#      x y z
#    x 2.669440 0.000000 -0.196510 
#    y 0.000000 3.385960 0.000000 
#    z -0.196510 0.000000 3.647120 
# 
# 
# High freq. dielectric constant tensor:
#      x y z
#    x 1.758970 0.000000 0.000340 
#    y 0.000000 1.729640 0.000000 
#    z 0.000340 0.000000 1.739360 
# 
# From -- ./inp_files/375137.got.cif
#   From: 2010.06.25/outbox.cif.g09.slc.cpg/sg12_188_cif.got.tgz:375137.got - 2010.06.28 00:19:55.
