data_PCOD8097626
_publ_section_title
;
Structure prediction by ZEFSAII (Michael W. Deem and Ramdas Pophale) SiO2 
 PCOD8097626
Probable space group: C 2/M
;
_chemical_formula_sum "Si O2"
_cell_formula_units_Z 48
_cell_length_a 24.796002
_cell_length_b 17.414052
_cell_length_c 18.649287
_cell_angle_alpha 90.000000
_cell_angle_beta 161.384985
_cell_angle_gamma 90.000000
_cell_volume 2570.496711
_symmetry_space_group_name_H-M "C 2/M"
_symmetry_group_IT_number 12
_symmetry_cell_setting 'monoclinic'
loop_
_space_group_symop_operation_xyz
x,y,z
-x,y,-z
-x,-y,-z
x,-y,z
1/2+x,1/2+y,z
1/2-x,1/2+y,-z
1/2-x,1/2-y,-z
1/2+x,1/2-y,z
loop_
_atom_site_type_symbol
_atom_site_label
_atom_site_fract_x
_atom_site_fract_y
_atom_site_fract_z
Si Si1 0.849844 0.588140 0.361006
Si Si2 0.681545 0.409200 0.701109
Si Si3 0.166340 0.588249 0.495784
Si Si4 0.323669 0.916303 0.736856
Si Si5 0.510224 0.171028 0.171583
Si Si6 0.506904 0.674437 0.927417
O O1 0.810113 0.500000 0.292577
O O2 0.902463 0.597305 0.510267
O O3 0.000000 0.619607 0.500000
O O4 0.684973 0.636406 0.135267
O O5 0.500000 0.382286 0.500000
O O6 0.712588 0.500000 0.751648
O O7 0.686786 0.387652 0.622983
O O8 0.825809 0.363573 0.924796
O O9 0.144386 0.500000 0.441758
O O10 0.057345 0.648437 0.311860
O O11 0.363752 0.609677 0.740421
O O12 0.338756 0.861711 0.687903
O O13 0.271756 0.000000 0.642312
O O14 0.500000 0.920806 0.000000
O O15 0.514379 0.261410 0.160896
O O16 0.500000 0.710012 0.000000
#
# Coordination Sequence:
#
# PCOD8097626 Si02
#       6
#     8   8   8   8   8   8
#     4   9  19  38  60  77  98 135 180 218 256 309
#     4   9  17  29  45  67 100 144 184 209 240 301
#     4  10  20  35  56  79 103 134 174 220 263 303
#     4   8  14  26  44  64  91 133 175 204 237 292
#     4  11  19  31  50  78 108 134 166 213 267 308
#     4  10  20  34  54  79 106 137 173 212 256 310
#
# _framework density 18.673434
#
# number of rings (size 3 to 8) (size 9 to 14) (size 15 to 20)
#    0.000    2.500    0.000    5.000    0.000    2.667 
#    0.000    2.500    0.000    4.000    0.000    0.000 
#    0.000    0.000    0.000    0.000    0.000    0.167 
#
# Total GULP energy -297513.911604 kJ/mol
# GULP energy per Si atom -12396.412984 kJ/mol
# Density = 1.863093 g / cm^3
# Si number density = 18.673434 Si / 1000 Ang^3
#
#
#
# Elastic Constant Matrix: (Units=GPa)
#
#
# Indices 1 2 3 4 5 6 
#
# 1 119.3396 49.1528 58.8575 -0.0069 21.0522 -0.0037
# 2 49.1528 80.3159 35.8483 -0.0091 -0.3780 -0.0060
# 3 58.8575 35.8483 72.6243 -0.0070 13.8022 -0.0068
# 4 -0.0069 -0.0091 -0.0070 20.3658 -0.0110 -6.3921
# 5 21.0522 -0.3780 13.8022 -0.0110 36.2568 -0.0075
# 6 -0.0037 -0.0060 -0.0068 -6.3921 -0.0075 23.9624
#
#
#
# Elastic Compliance Matrix: (Units=1/GPa)
#
#
# Indices 1 2 3 4 5 6 
#
# 1 0.016483 -0.005993 -0.009238 -0.000005 -0.006116 -0.000005
# 2 -0.005993 0.018550 -0.005387 0.000010 0.005724 0.000007
# 3 -0.009238 -0.005387 0.024693 0.000002 -0.004093 0.000003
# 4 -0.000005 0.000010 0.000002 0.053589 0.000021 0.014295
# 5 -0.006116 0.005724 -0.004093 0.000021 0.032750 0.000015
# 6 -0.000005 0.000007 0.000003 0.014295 0.000015 0.045545
#
#
# Mechanical properties :
#
#
# Convention : Reuss Voigt Hill
#
# Bulk Modulus (GPa) = 54.08374 62.22187 58.15280
# Shear Modulus (GPa) = 20.91970 24.67841 22.79905
#
# Velocity S-wave (km/s) = 3.35071 3.63930 3.49798
# Velocity P-wave (km/s) = 6.63291 7.14512 6.89377
#
# Compressibility (1/GPa) = 0.01848985
#
# Stress axis : x y z
#
# Youngs Moduli (GPa) = 60.66977 53.90813 40.49717
#
# Poissons Ratio (x) = 0.32307 0.37409
# Poissons Ratio (y) = 0.36359 0.21818
# Poissons Ratio (z) = 0.56044 0.29043
#
# Static dielectric constant tensor:
#      x y z
#    x 3.735700 0.000000 0.154910 
#    y 0.000000 3.345880 0.000000 
#    z 0.154910 0.000000 3.190830 
# 
# 
# High freq. dielectric constant tensor:
#      x y z
#    x 1.724060 0.000000 0.006930 
#    y 0.000000 1.721430 0.000000 
#    z 0.006930 0.000000 1.699970 
# 
# From -- ./inp_files/97878.got.cif
#   From: 2010.06.25/outbox.cif.g09.slc.cpg/sg12_49_cif.got.tgz:97878.got - 2010.06.28 00:19:55.
