data_PCOD8097347
_publ_section_title
;
Structure prediction by ZEFSAII (Michael W. Deem and Ramdas Pophale) SiO2 
 PCOD8097347
Probable space group: C 2/M
;
_chemical_formula_sum "Si O2"
_cell_formula_units_Z 44
_cell_length_a 9.111660
_cell_length_b 13.063373
_cell_length_c 18.032794
_cell_angle_alpha 90.000000
_cell_angle_beta 87.826950
_cell_angle_gamma 90.000000
_cell_volume 2144.882100
_symmetry_space_group_name_H-M "C 2/M"
_symmetry_group_IT_number 12
_symmetry_cell_setting 'monoclinic'
loop_
_space_group_symop_operation_xyz
x,y,z
-x,y,-z
-x,-y,-z
x,-y,z
1/2+x,1/2+y,z
1/2-x,1/2+y,-z
1/2-x,1/2-y,-z
1/2+x,1/2-y,z
loop_
_atom_site_type_symbol
_atom_site_label
_atom_site_fract_x
_atom_site_fract_y
_atom_site_fract_z
Si Si1 0.072626 0.113435 0.645606
Si Si2 0.002117 0.881586 0.912297
Si Si3 0.261321 0.250832 0.836581
Si Si4 0.000000 0.773711 0.500000
Si Si5 0.391258 0.111357 0.604077
Si Si6 0.017595 0.699070 0.737216
O O1 0.062171 0.153661 0.561863
O O2 0.246124 0.113272 0.657136
O O3 0.998561 0.182390 0.710206
O O4 0.003916 0.000000 0.652511
O O5 0.147333 0.821724 0.882229
O O6 0.851224 0.829027 0.886987
O O7 0.008322 0.000000 0.885453
O O8 0.000000 0.875199 0.000000
O O9 0.168873 0.317770 0.778559
O O10 0.378916 0.177478 0.793086
O O11 0.881340 0.696578 0.539679
O O12 0.520820 0.131500 0.662045
O O13 0.415505 0.000000 0.566808
#
# Coordination Sequence:
#
# PCOD8097347 Si02
#       6
#     8   8   8   4   8   8
#     4  10  20  35  56  78 108 149 196 247 304 360
#     4  10  22  41  66  95 127 165 205 246 296 358
#     4  10  21  38  63  91 125 161 199 251 302 354
#     4  10  20  34  54  76 108 144 200 250 300 362
#     4  10  20  34  53  77 111 150 191 242 306 362
#     4  10  20  36  57  85 118 150 198 247 297 357
#
# _framework density 20.513947000000002
#
# number of rings (size 3 to 8) (size 9 to 14) (size 15 to 20)
#    0.000    2.000    1.818    1.636    0.000    4.364 
#    0.000    2.727    0.000    9.818    0.000    0.000 
#    0.000    0.000    0.000    0.000    0.000    0.000 
#
# Total GULP energy -272605.069508 kJ/mol
# GULP energy per Si atom -12391.139523 kJ/mol
# Density = 2.046726 g / cm^3
# Si number density = 20.513947 Si / 1000 Ang^3
#
#
#
# Elastic Constant Matrix: (Units=GPa)
#
#
# Indices 1 2 3 4 5 6 
#
# 1 94.8057 33.5730 28.3568 0.0000 6.3312 0.0000
# 2 33.5730 128.3382 35.2763 0.0000 5.0382 0.0000
# 3 28.3568 35.2763 85.5515 0.0000 14.0454 0.0000
# 4 0.0000 0.0000 0.0000 19.9751 0.0000 -3.1177
# 5 6.3312 5.0382 14.0454 0.0000 34.6245 0.0000
# 6 0.0000 0.0000 0.0000 -3.1177 0.0000 22.1839
#
#
#
# Elastic Compliance Matrix: (Units=1/GPa)
#
#
# Indices 1 2 3 4 5 6 
#
# 1 0.012331 -0.002376 -0.002994 0.000000 -0.000695 0.000000
# 2 -0.002376 0.009247 -0.003081 0.000000 0.000339 0.000000
# 3 -0.002994 -0.003081 0.014772 0.000000 -0.004996 0.000000
# 4 0.000000 0.000000 0.000000 0.051185 0.000000 0.007194
# 5 -0.000695 0.000339 -0.004996 0.000000 0.030986 0.000000
# 6 0.000000 0.000000 0.000000 0.007194 0.000000 0.046089
#
#
# Mechanical properties :
#
#
# Convention : Reuss Voigt Hill
#
# Bulk Modulus (GPa) = 51.41597 55.90084 53.65840
# Shear Modulus (GPa) = 26.59670 29.45598 28.02634
#
# Velocity S-wave (km/s) = 3.60463 3.79344 3.70024
# Velocity P-wave (km/s) = 6.51481 6.81881 6.66854
#
# Compressibility (1/GPa) = 0.01944921
#
# Stress axis : x y z
#
# Youngs Moduli (GPa) = 81.09677 108.14353 67.69627
#
# Poissons Ratio (x) = 0.25691 0.20265
# Poissons Ratio (y) = 0.19266 0.20858
# Poissons Ratio (z) = 0.24277 0.33320
#
# Static dielectric constant tensor:
#      x y z
#    x 3.639950 0.000000 0.090290 
#    y 0.000000 3.707740 0.000000 
#    z 0.090290 0.000000 3.743940 
# 
# 
# High freq. dielectric constant tensor:
#      x y z
#    x 1.795580 0.000000 0.002560 
#    y 0.000000 1.790660 0.000000 
#    z 0.002560 0.000000 1.810000 
# 
# From -- ./inp_files/255446.got.cif
#   From: 2010.06.25/outbox.cif.g09.slc.cpg/sg12_128_cif.got.tgz:255446.got - 2010.06.28 00:19:55.
