data_PCOD8097477
_publ_section_title
;
Structure prediction by ZEFSAII (Michael W. Deem and Ramdas Pophale) SiO2 
 PCOD8097477
Probable space group: C 2/M
;
_chemical_formula_sum "Si O2"
_cell_formula_units_Z 56
_cell_length_a 24.804168
_cell_length_b 8.938307
_cell_length_c 14.884965
_cell_angle_alpha 90.000000
_cell_angle_beta 105.963875
_cell_angle_gamma 90.000000
_cell_volume 3172.837356
_symmetry_space_group_name_H-M "C 2/M"
_symmetry_group_IT_number 12
_symmetry_cell_setting 'monoclinic'
loop_
_space_group_symop_operation_xyz
x,y,z
-x,y,-z
-x,-y,-z
x,-y,z
1/2+x,1/2+y,z
1/2-x,1/2+y,-z
1/2-x,1/2-y,-z
1/2+x,1/2-y,z
loop_
_atom_site_type_symbol
_atom_site_label
_atom_site_fract_x
_atom_site_fract_y
_atom_site_fract_z
Si Si1 0.179537 0.826268 0.616133
Si Si2 0.985254 0.672341 0.593731
Si Si3 0.824372 0.174748 0.102668
Si Si4 0.395750 0.827511 0.271318
Si Si5 0.626425 0.673981 0.403035
Si Si6 0.305599 0.175900 0.719726
Si Si7 0.788130 0.824758 0.890834
O O1 0.139268 0.730682 0.660310
O O2 0.164399 0.790023 0.506726
O O3 0.243540 0.776868 0.659847
O O4 0.170376 0.000000 0.635147
O O5 0.965097 0.500000 0.584300
O O6 0.937205 0.778379 0.609255
O O7 0.000000 0.723934 0.500000
O O8 0.038687 0.696164 0.681727
O O9 0.880852 0.238673 0.173075
O O10 0.772948 0.252332 0.129836
O O11 0.819163 0.000000 0.119161
O O12 0.824280 0.210670 0.996686
O O13 0.380816 0.000000 0.250744
O O14 0.628137 0.500000 0.379285
O O15 0.649488 0.768085 0.330883
O O16 0.320165 0.252801 0.821492
O O17 0.311732 0.000000 0.733708
O O18 0.780531 0.000000 0.872607
#
# Coordination Sequence:
#
# PCOD8097477 Si02
#       7
#     8   8   8   8   8   8   8
#     4  10  21  35  52  79 112 146 182 220 269 323
#     4  10  21  38  56  78 108 144 185 228 273 319
#     4  10  20  34  53  80 113 143 176 223 274 322
#     4  11  21  33  56  82 109 145 182 225 271 321
#     4  11  23  37  55  79 109 148 189 227 267 323
#     4  11  22  36  55  79 112 150 182 223 273 324
#     4  10  20  34  54  80 110 144 181 220 267 326
#
# _framework density 17.649816000000001
#
# number of rings (size 3 to 8) (size 9 to 14) (size 15 to 20)
#    0.000    1.571    2.857    2.571    0.000    4.286 
#    0.000    0.000    0.000    0.857    0.000    6.000 
#    0.000    0.000    0.000    0.000    0.000    0.000 
#
# Total GULP energy -347342.056679 kJ/mol
# GULP energy per Si atom -12405.073453 kJ/mol
# Density = 1.760964 g / cm^3
# Si number density = 17.649816 Si / 1000 Ang^3
#
#
#
# Elastic Constant Matrix: (Units=GPa)
#
#
# Indices 1 2 3 4 5 6 
#
# 1 69.7641 32.7876 39.0794 0.0000 -9.0750 0.0000
# 2 32.7876 82.3327 49.3003 0.0000 -4.9844 0.0000
# 3 39.0794 49.3003 116.5956 0.0000 -7.9020 0.0000
# 4 0.0000 0.0000 0.0000 31.4017 0.0000 -1.3706
# 5 -9.0750 -4.9844 -7.9020 0.0000 20.8572 0.0000
# 6 0.0000 0.0000 0.0000 -1.3706 0.0000 30.1965
#
#
#
# Elastic Compliance Matrix: (Units=1/GPa)
#
#
# Indices 1 2 3 4 5 6 
#
# 1 0.019765 -0.005072 -0.004084 0.000000 0.005840 0.000000
# 2 -0.005072 0.017600 -0.005754 0.000000 -0.000181 0.000000
# 3 -0.004084 -0.005754 0.012486 0.000000 0.001578 0.000000
# 4 0.000000 0.000000 0.000000 0.031909 0.000000 0.001448
# 5 0.005840 -0.000181 0.001578 0.000000 0.051041 0.000000
# 6 0.000000 0.000000 0.000000 0.001448 0.000000 0.033182
#
#
# Mechanical properties :
#
#
# Convention : Reuss Voigt Hill
#
# Bulk Modulus (GPa) = 49.92465 56.78079 53.35272
# Shear Modulus (GPa) = 24.69367 26.32608 25.50987
#
# Velocity S-wave (km/s) = 3.74450 3.86629 3.80588
# Velocity P-wave (km/s) = 6.85876 7.22298 7.04323
#
# Compressibility (1/GPa) = 0.02003019
#
# Stress axis : x y z
#
# Youngs Moduli (GPa) = 50.59351 56.81714 80.09200
#
# Poissons Ratio (x) = 0.28817 0.32713
# Poissons Ratio (y) = 0.25661 0.46087
# Poissons Ratio (z) = 0.20664 0.32694
#
# Static dielectric constant tensor:
#      x y z
#    x 3.055220 0.000000 0.086180 
#    y 0.000000 3.364290 0.000000 
#    z 0.086180 0.000000 3.468760 
# 
# 
# High freq. dielectric constant tensor:
#      x y z
#    x 1.657210 0.000000 0.002030 
#    y 0.000000 1.696490 0.000000 
#    z 0.002030 0.000000 1.690770 
# 
# From -- ./inp_files/230866.got.cif
#   From: 2010.06.25/outbox.cif.g09.slc.cpg/sg12_116_cif.got.tgz:230866.got - 2010.06.28 00:19:55.
