data_PCOD8097771
_publ_section_title
;
Structure prediction by ZEFSAII (Michael W. Deem and Ramdas Pophale) SiO2 
 PCOD8097771
Probable space group: C 2/M
;
_chemical_formula_sum "Si O2"
_cell_formula_units_Z 40
_cell_length_a 21.176442
_cell_length_b 9.479091
_cell_length_c 30.671180
_cell_angle_alpha 90.000000
_cell_angle_beta 19.192812
_cell_angle_gamma 90.000000
_cell_volume 2024.013999
_symmetry_space_group_name_H-M "C 2/M"
_symmetry_group_IT_number 12
_symmetry_cell_setting 'monoclinic'
loop_
_space_group_symop_operation_xyz
x,y,z
-x,y,-z
-x,-y,-z
x,-y,z
1/2+x,1/2+y,z
1/2-x,1/2+y,-z
1/2-x,1/2-y,-z
1/2+x,1/2-y,z
loop_
_atom_site_type_symbol
_atom_site_label
_atom_site_fract_x
_atom_site_fract_y
_atom_site_fract_z
Si Si1 0.791366 0.165915 0.125334
Si Si2 0.085681 0.333564 0.581335
Si Si3 0.655271 0.345325 0.004485
Si Si4 0.035172 0.344201 0.809719
Si Si5 0.843682 0.337298 0.565059
O O1 0.618632 0.225319 0.267654
O O2 0.797143 0.000000 0.129373
O O3 0.750782 0.208026 0.101731
O O4 0.000000 0.232614 0.000000
O O5 0.113396 0.500000 0.572613
O O6 0.250000 0.250000 0.500000
O O7 0.084039 0.302126 0.530694
O O8 0.559421 0.500000 0.059763
O O9 0.484392 0.242374 0.132226
O O10 0.821776 0.359389 0.930915
O O11 0.122277 0.500000 0.761760
O O12 0.161435 0.260711 0.692513
O O13 0.780753 0.500000 0.609871
O O14 0.000000 0.300155 0.500000
#
# Coordination Sequence:
#
# PCOD8097771 Si02
#       5
#     8   8   8   8   8
#     4   9  18  32  56  84 108 140 186 235 277 324
#     4  10  21  38  60  87 116 151 193 235 286 343
#     4   9  18  33  55  80 108 143 183 227 273 333
#     4  10  20  34  54  81 111 145 184 227 281 337
#     4  10  22  37  57  84 113 148 192 237 279 332
#
# _framework density 19.762709999999998
#
# number of rings (size 3 to 8) (size 9 to 14) (size 15 to 20)
#    0.000    2.400    0.000    1.800    2.800    3.600 
#    0.000    1.000    0.000    1.200    0.000    0.000 
#    0.000    0.000    0.000    0.000    0.000    0.000 
#
# Total GULP energy -247887.225639 kJ/mol
# GULP energy per Si atom -12394.361282 kJ/mol
# Density = 1.971773 g / cm^3
# Si number density = 19.762710 Si / 1000 Ang^3
#
#
#
# Elastic Constant Matrix: (Units=GPa)
#
#
# Indices 1 2 3 4 5 6 
#
# 1 111.5539 40.3482 54.9817 -0.0053 23.0241 -0.0212
# 2 40.3482 85.0032 58.0100 0.0380 18.8337 -0.0243
# 3 54.9817 58.0100 151.3858 -0.0237 29.5124 0.0028
# 4 -0.0053 0.0380 -0.0237 25.5272 -0.0430 3.2005
# 5 23.0241 18.8337 29.5124 -0.0430 41.1012 -0.0019
# 6 -0.0212 -0.0243 0.0028 3.2005 -0.0019 14.7220
#
#
#
# Elastic Compliance Matrix: (Units=1/GPa)
#
#
# Indices 1 2 3 4 5 6 
#
# 1 0.012083 -0.003291 -0.002444 -0.000002 -0.003506 0.000013
# 2 -0.003291 0.017243 -0.004920 -0.000039 -0.002525 0.000033
# 3 -0.002444 -0.004920 0.010084 0.000012 -0.003617 -0.000017
# 4 -0.000002 -0.000039 0.000012 0.040272 0.000052 -0.008755
# 5 -0.003506 -0.002525 -0.003617 0.000052 0.030048 -0.000016
# 6 0.000013 0.000033 -0.000017 -0.008755 -0.000016 0.069829
#
#
# Mechanical properties :
#
#
# Convention : Reuss Voigt Hill
#
# Bulk Modulus (GPa) = 55.24735 72.73585 63.99160
# Shear Modulus (GPa) = 24.16605 29.24361 26.70483
#
# Velocity S-wave (km/s) = 3.50066 3.85091 3.67996
# Velocity P-wave (km/s) = 6.66000 7.52709 7.10678
#
# Compressibility (1/GPa) = 0.01810042
#
# Stress axis : x y z
#
# Youngs Moduli (GPa) = 82.76397 57.99291 99.16966
#
# Poissons Ratio (x) = 0.19083 0.24236
# Poissons Ratio (y) = 0.27234 0.48793
# Poissons Ratio (z) = 0.20226 0.28534
#
# Static dielectric constant tensor:
#      x y z
#    x 3.572900 0.000070 0.183120 
#    y 0.000070 3.705050 0.000260 
#    z 0.183120 0.000260 3.677360 
# 
# 
# High freq. dielectric constant tensor:
#      x y z
#    x 1.768890 0.000000 0.017230 
#    y 0.000000 1.745700 0.000020 
#    z 0.017230 0.000020 1.773480 
# 
# From -- ./inp_files/280716.got.cif
#   From: 2010.06.25/outbox.cif.g09.slc.cpg/sg12_141_cif.got.tgz:280716.got - 2010.06.28 00:19:55.
