data_PCOD8097779
_publ_section_title
;
Structure prediction by ZEFSAII (Michael W. Deem and Ramdas Pophale) SiO2 
 PCOD8097779
Probable space group: C 2/M
;
_chemical_formula_sum "Si O2"
_cell_formula_units_Z 56
_cell_length_a 20.635100
_cell_length_b 8.692641
_cell_length_c 17.837173
_cell_angle_alpha 90.000000
_cell_angle_beta 116.248244
_cell_angle_gamma 90.000000
_cell_volume 2869.602452
_symmetry_space_group_name_H-M "C 2/M"
_symmetry_group_IT_number 12
_symmetry_cell_setting 'monoclinic'
loop_
_space_group_symop_operation_xyz
x,y,z
-x,y,-z
-x,-y,-z
x,-y,z
1/2+x,1/2+y,z
1/2-x,1/2+y,-z
1/2-x,1/2-y,-z
1/2+x,1/2-y,z
loop_
_atom_site_type_symbol
_atom_site_label
_atom_site_fract_x
_atom_site_fract_y
_atom_site_fract_z
Si Si1 0.822586 0.681995 0.502850
Si Si2 0.098015 0.682776 0.752113
Si Si3 0.172584 0.318137 0.943102
Si Si4 0.065139 0.317912 0.315993
Si Si5 0.919206 0.316722 0.964734
Si Si6 0.684368 0.682193 0.661020
Si Si7 0.844700 0.683253 0.777359
O O1 0.814497 0.500000 0.497028
O O2 0.750000 0.750000 0.500000
O O3 0.890062 0.734367 0.588317
O O4 0.839384 0.744931 0.429397
O O5 0.100612 0.500000 0.742619
O O6 0.144831 0.735825 0.847726
O O7 0.128131 0.765137 0.694482
O O8 0.016448 0.743838 0.721169
O O9 0.178066 0.500000 0.950095
O O10 0.250000 0.250000 0.000000
O O11 0.116410 0.256947 0.976685
O O12 0.063741 0.500000 0.308739
O O13 0.103772 0.250325 0.261610
O O14 0.921405 0.500000 0.964181
O O15 0.872651 0.253301 0.871165
O O16 0.000000 0.249800 0.000000
O O17 0.683770 0.500000 0.652899
O O18 0.763725 0.744331 0.723303
O O19 0.845449 0.500000 0.776543
#
# Coordination Sequence:
#
# PCOD8097779 Si02
#       7
#     8   8   8   8   8   8   8
#     4  11  21  37  60  86 114 144 185 230 279 333
#     4  10  21  37  56  80 111 148 191 233 278 328
#     4  10  20  34  54  81 112 148 185 227 277 331
#     4   9  18  34  56  80 109 146 186 232 277 326
#     4   9  16  27  48  79 107 133 177 233 274 310
#     4  11  22  37  57  82 113 145 185 231 281 337
#     4   9  16  29  51  77 104 139 182 225 271 323
#
# _framework density 19.514899
#
# number of rings (size 3 to 8) (size 9 to 14) (size 15 to 20)
#    0.000    2.143    1.429    2.571    0.000    5.714 
#    0.000    4.286    0.000    0.429    0.000    0.000 
#    0.000    0.000    0.000    0.000    0.000    0.000 
#
# Total GULP energy -347236.744094 kJ/mol
# GULP energy per Si atom -12401.312289 kJ/mol
# Density = 1.947048 g / cm^3
# Si number density = 19.514899 Si / 1000 Ang^3
#
#
#
# Elastic Constant Matrix: (Units=GPa)
#
#
# Indices 1 2 3 4 5 6 
#
# 1 141.8990 20.3820 55.8804 0.0000 -4.7140 0.0000
# 2 20.3820 31.1311 27.8915 0.0000 -1.2938 0.0000
# 3 55.8804 27.8915 145.0483 0.0000 -8.9379 0.0000
# 4 0.0000 0.0000 0.0000 23.0401 0.0000 0.2298
# 5 -4.7140 -1.2938 -8.9379 0.0000 44.2929 0.0000
# 6 0.0000 0.0000 0.0000 0.2298 0.0000 26.8201
#
#
#
# Elastic Compliance Matrix: (Units=1/GPa)
#
#
# Indices 1 2 3 4 5 6 
#
# 1 0.008567 -0.003209 -0.002666 0.000000 0.000280 0.000000
# 2 -0.003209 0.040016 -0.006488 0.000000 -0.000482 0.000000
# 3 -0.002666 -0.006488 0.009255 0.000000 0.001394 0.000000
# 4 0.000000 0.000000 0.000000 0.043406 0.000000 -0.000372
# 5 0.000280 -0.000482 0.001394 0.000000 0.022874 0.000000
# 6 0.000000 0.000000 0.000000 -0.000372 0.000000 0.037289
#
#
# Mechanical properties :
#
#
# Convention : Reuss Voigt Hill
#
# Bulk Modulus (GPa) = 30.20062 58.48734 44.34398
# Shear Modulus (GPa) = 25.35860 33.09224 29.22542
#
# Velocity S-wave (km/s) = 3.60870 4.12241 3.87408
# Velocity P-wave (km/s) = 5.73349 7.25911 6.54093
#
# Compressibility (1/GPa) = 0.03311191
#
# Stress axis : x y z
#
# Youngs Moduli (GPa) = 116.72026 24.98995 108.04914
#
# Poissons Ratio (x) = 0.08019 0.28810
# Poissons Ratio (y) = 0.37452 0.70105
# Poissons Ratio (z) = 0.31122 0.16214
#
# Static dielectric constant tensor:
#      x y z
#    x 3.812860 0.000000 0.092770 
#    y 0.000000 3.138670 0.000000 
#    z 0.092770 0.000000 4.037260 
# 
# 
# High freq. dielectric constant tensor:
#      x y z
#    x 1.773190 0.000000 -0.002350 
#    y 0.000000 1.712880 0.000000 
#    z -0.002350 0.000000 1.779030 
# 
# From -- ./inp_files/281760.got.cif
#   From: 2010.06.25/outbox.cif.g09.slc.cpg/sg12_141_cif.got.tgz:281760.got - 2010.06.28 00:19:55.
