data_PCOD8097040
_publ_section_title
;
Structure prediction by ZEFSAII (Michael W. Deem and Ramdas Pophale) SiO2 
 PCOD8097040
Probable space group: C 2/M
;
_chemical_formula_sum "Si O2"
_cell_formula_units_Z 64
_cell_length_a 24.337706
_cell_length_b 9.461949
_cell_length_c 31.731998
_cell_angle_alpha 90.000000
_cell_angle_beta 28.463580
_cell_angle_gamma 90.000000
_cell_volume 3482.665313
_symmetry_space_group_name_H-M "C 2/M"
_symmetry_group_IT_number 12
_symmetry_cell_setting 'monoclinic'
loop_
_space_group_symop_operation_xyz
x,y,z
-x,y,-z
-x,-y,-z
x,-y,z
1/2+x,1/2+y,z
1/2-x,1/2+y,-z
1/2-x,1/2-y,-z
1/2+x,1/2-y,z
loop_
_atom_site_type_symbol
_atom_site_label
_atom_site_fract_x
_atom_site_fract_y
_atom_site_fract_z
Si Si1 0.274751 0.836001 0.735852
Si Si2 0.437431 0.832121 0.317784
Si Si3 0.502986 0.163847 0.630188
Si Si4 0.689952 0.661130 0.457100
Si Si5 0.393374 0.164860 0.868049
Si Si6 0.371011 0.335901 0.964908
Si Si7 0.128908 0.839171 0.405106
Si Si8 0.469795 0.667617 0.066289
O O1 0.370666 0.811606 0.706967
O O2 0.305168 0.754371 0.673015
O O3 0.154998 0.776113 0.834908
O O4 0.264355 0.000000 0.730719
O O5 0.479510 0.775681 0.334628
O O6 0.307622 0.777813 0.397590
O O7 0.522004 0.773374 0.224723
O O8 0.442218 0.000000 0.313028
O O9 0.582829 0.246597 0.543960
O O10 0.537627 0.000000 0.604337
O O11 0.668642 0.500000 0.485899
O O12 0.701761 0.669930 0.398837
O O13 0.264446 0.193157 0.938444
O O14 0.414443 0.000000 0.862767
O O15 0.421026 0.247844 0.892170
O O16 0.396696 0.500000 0.938765
O O17 0.433631 0.284042 0.965260
O O18 0.000000 0.780589 0.500000
O O19 0.121303 0.000000 0.393424
O O20 0.466236 0.500000 0.065199
O O21 0.500000 0.732370 0.000000
#
# Coordination Sequence:
#
# PCOD8097040 Si02
#       8
#     8   8   8   8   8   8   8   8
#     4  10  21  34  53  80 105 134 173 216 259 303
#     4   9  19  33  52  76 100 130 171 211 250 300
#     4  10  20  34  52  75 103 132 168 213 255 297
#     4  10  20  35  53  73 101 136 172 206 250 306
#     4   9  18  33  54  76  99 133 169 206 252 300
#     4   9  18  33  53  76 103 131 165 208 252 299
#     4  10  20  35  54  75 102 139 177 211 253 309
#     4   9  19  34  54  80 108 137 170 211 260 311
#
# _framework density 18.376729999999998
#
# number of rings (size 3 to 8) (size 9 to 14) (size 15 to 20)
#    0.000    2.500    1.250    0.375    3.500    0.750 
#    0.000    1.250    0.000    1.500    0.000    0.000 
#    0.000    0.000    0.000    0.000    0.000    0.000 
#
# Total GULP energy -396857.936671 kJ/mol
# GULP energy per Si atom -12401.810521 kJ/mol
# Density = 1.833490 g / cm^3
# Si number density = 18.376730 Si / 1000 Ang^3
#
#
#
# Elastic Constant Matrix: (Units=GPa)
#
#
# Indices 1 2 3 4 5 6 
#
# 1 134.4019 33.9912 55.3610 0.0168 4.3480 -0.0311
# 2 33.9912 39.9274 38.3324 0.0092 5.2039 -0.0851
# 3 55.3610 38.3324 126.2979 0.0213 8.7536 0.0294
# 4 0.0168 0.0092 0.0213 16.7026 0.0011 2.4103
# 5 4.3480 5.2039 8.7536 0.0011 29.2832 0.0161
# 6 -0.0311 -0.0851 0.0294 2.4103 0.0161 21.9020
#
#
#
# Elastic Compliance Matrix: (Units=1/GPa)
#
#
# Indices 1 2 3 4 5 6 
#
# 1 0.010035 -0.006129 -0.002564 -0.000003 0.000366 -0.000006
# 2 -0.006129 0.039373 -0.009029 -0.000027 -0.003388 0.000162
# 3 -0.002564 -0.009029 0.011891 0.000000 -0.001569 -0.000054
# 4 -0.000003 -0.000027 0.000000 0.060837 0.000007 -0.006695
# 5 0.000366 -0.003388 -0.001569 0.000007 0.035166 -0.000037
# 6 -0.000006 0.000162 -0.000054 -0.006695 -0.000037 0.046395
#
#
# Mechanical properties :
#
#
# Convention : Reuss Voigt Hill
#
# Bulk Modulus (GPa) = 38.67642 61.77740 50.22691
# Shear Modulus (GPa) = 20.18092 25.10706 22.64399
#
# Velocity S-wave (km/s) = 3.31747 3.70028 3.51409
# Velocity P-wave (km/s) = 5.98049 7.20738 6.62241
#
# Compressibility (1/GPa) = 0.02585555
#
# Stress axis : x y z
#
# Youngs Moduli (GPa) = 99.65486 25.39789 84.10014
#
# Poissons Ratio (x) = 0.15567 0.21560
# Poissons Ratio (y) = 0.61080 0.75931
# Poissons Ratio (z) = 0.25548 0.22931
#
# Static dielectric constant tensor:
#      x y z
#    x 3.584780 -0.000050 -0.029810 
#    y -0.000050 3.088580 0.000010 
#    z -0.029810 0.000010 3.444120 
# 
# 
# High freq. dielectric constant tensor:
#      x y z
#    x 1.727290 0.000000 -0.003490 
#    y 0.000000 1.676470 0.000000 
#    z -0.003490 0.000000 1.715330 
# 
# From -- ./inp_files/382233.got.cif
#   From: 2010.06.25/outbox.cif.g09.slc.cpg/sg12_192_cif.got.tgz:382233.got - 2010.06.28 00:19:55.
