data_PCOD8097605
_publ_section_title
;
Structure prediction by ZEFSAII (Michael W. Deem and Ramdas Pophale) SiO2 
 PCOD8097605
Probable space group: C 2/M
;
_chemical_formula_sum "Si O2"
_cell_formula_units_Z 56
_cell_length_a 29.196331
_cell_length_b 9.284732
_cell_length_c 18.723913
_cell_angle_alpha 90.000000
_cell_angle_beta 141.642098
_cell_angle_gamma 90.000000
_cell_volume 3149.824079
_symmetry_space_group_name_H-M "C 2/M"
_symmetry_group_IT_number 12
_symmetry_cell_setting 'monoclinic'
loop_
_space_group_symop_operation_xyz
x,y,z
-x,y,-z
-x,-y,-z
x,-y,z
1/2+x,1/2+y,z
1/2-x,1/2+y,-z
1/2-x,1/2-y,-z
1/2+x,1/2-y,z
loop_
_atom_site_type_symbol
_atom_site_label
_atom_site_fract_x
_atom_site_fract_y
_atom_site_fract_z
Si Si1 0.536762 0.333769 0.468600
Si Si2 0.343536 0.331772 0.847987
Si Si3 0.181969 0.667401 0.618394
Si Si4 0.512574 0.162446 0.722006
Si Si5 0.845349 0.658744 0.569627
Si Si6 0.613987 0.665794 0.252876
Si Si7 0.052233 0.167358 0.901391
O O1 0.500000 0.317396 0.500000
O O2 0.543245 0.500000 0.452816
O O3 0.618489 0.266930 0.573050
O O4 0.485064 0.249619 0.349320
O O5 0.362031 0.500000 0.867204
O O6 0.256622 0.303078 0.753917
O O7 0.370082 0.263719 0.805081
O O8 0.389175 0.267543 0.970203
O O9 0.157058 0.500000 0.592975
O O10 0.199788 0.704807 0.556677
O O11 0.430018 0.161340 0.649443
O O12 0.563497 0.243237 0.842358
O O13 0.542116 0.000000 0.746087
O O14 0.822077 0.500000 0.566688
O O15 0.833443 0.764455 0.621975
O O16 0.636720 0.500000 0.280739
O O17 0.528509 0.690755 0.164727
O O18 0.066671 0.000000 0.901900
#
# Coordination Sequence:
#
# PCOD8097605 Si02
#       7
#     8   8   8   8   8   8   8
#     4  10  20  34  54  78  98 114 140 185 236 285
#     4   9  17  29  45  66  94 130 167 200 233 269
#     4   9  18  32  48  67  95 128 158 189 232 286
#     4   9  17  30  49  72  97 123 152 188 230 278
#     4   8  15  27  41  60  89 122 155 195 238 274
#     4   9  16  26  43  66  90 123 168 206 232 264
#     4   9  16  28  47  68  94 129 167 202 231 263
#
# _framework density 17.778769
#
# number of rings (size 3 to 8) (size 9 to 14) (size 15 to 20)
#    0.000    3.000    0.000    2.143    0.000    6.857 
#    0.000    2.143    0.000    4.286    0.000    0.000 
#    0.000    0.000    0.000    0.000    0.000    0.000 
#
# Total GULP energy -347106.904139 kJ/mol
# GULP energy per Si atom -12396.675148 kJ/mol
# Density = 1.773830 g / cm^3
# Si number density = 17.778769 Si / 1000 Ang^3
#
#
#
# Elastic Constant Matrix: (Units=GPa)
#
#
# Indices 1 2 3 4 5 6 
#
# 1 53.9635 40.8139 23.9461 0.0000 -17.2012 0.0000
# 2 40.8139 89.7425 43.3580 0.0000 -13.2987 0.0000
# 3 23.9461 43.3580 104.4941 0.0000 -18.9723 0.0000
# 4 0.0000 0.0000 0.0000 22.7728 0.0000 -4.9151
# 5 -17.2012 -13.2987 -18.9723 0.0000 18.6963 0.0000
# 6 0.0000 0.0000 0.0000 -4.9151 0.0000 18.1720
#
#
#
# Elastic Compliance Matrix: (Units=1/GPa)
#
#
# Indices 1 2 3 4 5 6 
#
# 1 0.036057 -0.013584 0.002013 0.000000 0.025554 0.000000
# 2 -0.013584 0.019440 -0.005776 0.000000 -0.004532 0.000000
# 3 0.002013 -0.005776 0.013602 0.000000 0.011546 0.000000
# 4 0.000000 0.000000 0.000000 0.046635 0.000000 0.012614
# 5 0.025554 -0.004532 0.011546 0.000000 0.085491 0.000000
# 6 0.000000 0.000000 0.000000 0.012614 0.000000 0.058442
#
#
# Mechanical properties :
#
#
# Convention : Reuss Voigt Hill
#
# Bulk Modulus (GPa) = 29.06560 51.60400 40.33480
# Shear Modulus (GPa) = 16.34901 21.26701 18.80801
#
# Velocity S-wave (km/s) = 3.03575 3.46237 3.25605
# Velocity P-wave (km/s) = 5.35459 6.71362 6.07224
#
# Compressibility (1/GPa) = 0.03440494
#
# Stress axis : x y z
#
# Youngs Moduli (GPa) = 27.73348 51.43987 73.52075
#
# Poissons Ratio (x) = 0.69878 -0.14803
# Poissons Ratio (y) = 0.37674 0.42466
# Poissons Ratio (z) = -0.05584 0.29712
#
# Static dielectric constant tensor:
#      x y z
#    x 2.938930 0.000000 -0.229690 
#    y 0.000000 3.295100 0.000000 
#    z -0.229690 0.000000 3.580030 
# 
# 
# High freq. dielectric constant tensor:
#      x y z
#    x 1.654400 0.000000 -0.013490 
#    y 0.000000 1.671520 0.000000 
#    z -0.013490 0.000000 1.692980 
# 
# From -- ./inp_files/295166.got.cif
#   From: 2010.06.25/outbox.cif.g09.slc.cpg/sg12_148_cif.got.tgz:295166.got - 2010.06.28 00:19:55.
