data_PCOD8097336
_publ_section_title
;
Structure prediction by ZEFSAII (Michael W. Deem and Ramdas Pophale) SiO2 
 PCOD8097336
Probable space group: C 2/M
;
_chemical_formula_sum "Si O2"
_cell_formula_units_Z 48
_cell_length_a 15.607226
_cell_length_b 9.649833
_cell_length_c 28.510212
_cell_angle_alpha 90.000000
_cell_angle_beta 35.741180
_cell_angle_gamma 90.000000
_cell_volume 2508.138728
_symmetry_space_group_name_H-M "C 2/M"
_symmetry_group_IT_number 12
_symmetry_cell_setting 'monoclinic'
loop_
_space_group_symop_operation_xyz
x,y,z
-x,y,-z
-x,-y,-z
x,-y,z
1/2+x,1/2+y,z
1/2-x,1/2+y,-z
1/2-x,1/2-y,-z
1/2+x,1/2-y,z
loop_
_atom_site_type_symbol
_atom_site_label
_atom_site_fract_x
_atom_site_fract_y
_atom_site_fract_z
Si Si1 0.599666 0.657005 0.664790
Si Si2 0.941374 0.660313 0.806331
Si Si3 0.397251 0.159291 0.174335
Si Si4 0.873612 0.837946 0.092577
Si Si5 0.413240 0.160681 0.491885
Si Si6 0.581017 0.344882 0.344788
O O1 0.624170 0.500000 0.672166
O O2 0.564570 0.752947 0.724421
O O3 0.746202 0.709409 0.573460
O O4 0.465310 0.666076 0.688749
O O5 0.965943 0.500000 0.782717
O O6 0.779184 0.709235 0.863312
O O7 0.965353 0.684563 0.851518
O O8 0.409374 0.257247 0.124234
O O9 0.252213 0.194163 0.269331
O O10 0.392320 0.000000 0.159165
O O11 0.871460 0.000000 0.105800
O O12 0.000000 0.800397 0.000000
O O13 0.500000 0.197099 0.500000
O O14 0.484738 0.241045 0.417433
O O15 0.422205 0.000000 0.474743
O O16 0.554332 0.500000 0.375992
#
# Coordination Sequence:
#
# PCOD8097336 Si02
#       6
#     8   8   8   8   8   8
#     4  10  20  35  54  78 110 147 188 232 275 325
#     4  10  21  37  59  85 113 148 188 229 276 333
#     4  10  21  38  59  85 115 147 187 231 276 330
#     4  10  22  40  60  85 116 146 181 228 280 336
#     4  10  21  34  49  75 109 144 186 232 275 323
#     4  10  20  34  53  77 107 144 186 231 274 322
#
# _framework density 19.137698
#
# number of rings (size 3 to 8) (size 9 to 14) (size 15 to 20)
#    0.000    2.000    1.667    1.500    0.000    4.000 
#    0.000    0.000    0.000    0.000    0.000    0.000 
#    0.000    0.000    0.000    0.000    0.000    0.000 
#
# Total GULP energy -297647.424534 kJ/mol
# GULP energy per Si atom -12401.976022 kJ/mol
# Density = 1.909414 g / cm^3
# Si number density = 19.137698 Si / 1000 Ang^3
#
#
#
# Elastic Constant Matrix: (Units=GPa)
#
#
# Indices 1 2 3 4 5 6 
#
# 1 98.6797 47.0092 51.7415 -0.0001 7.8033 0.0000
# 2 47.0092 71.8172 56.1507 -0.0001 13.2524 0.0000
# 3 51.7415 56.1507 96.1570 0.0000 10.4772 0.0000
# 4 -0.0001 -0.0001 0.0000 28.2313 0.0000 14.5112
# 5 7.8033 13.2524 10.4772 0.0000 21.3384 0.0000
# 6 0.0000 0.0000 0.0000 14.5112 0.0000 23.1152
#
#
#
# Elastic Compliance Matrix: (Units=1/GPa)
#
#
# Indices 1 2 3 4 5 6 
#
# 1 0.015731 -0.006907 -0.004513 0.000000 0.000753 0.000000
# 2 -0.006907 0.030424 -0.012959 0.000000 -0.010006 0.000000
# 3 -0.004513 -0.012959 0.020432 0.000000 -0.000333 0.000000
# 4 0.000000 0.000000 0.000000 0.052297 0.000000 -0.032831
# 5 0.000753 -0.010006 -0.000333 0.000000 0.052967 0.000000
# 6 0.000000 0.000000 0.000000 -0.032831 0.000000 0.063872
#
#
# Mechanical properties :
#
#
# Convention : Reuss Voigt Hill
#
# Bulk Modulus (GPa) = 56.09205 64.05076 60.07141
# Shear Modulus (GPa) = 17.21615 21.98717 19.60166
#
# Velocity S-wave (km/s) = 3.00258 3.39321 3.20385
# Velocity P-wave (km/s) = 6.43381 6.99234 6.71888
#
# Compressibility (1/GPa) = 0.01782784
#
# Stress axis : x y z
#
# Youngs Moduli (GPa) = 63.56739 32.86871 48.94273
#
# Poissons Ratio (x) = 0.22703 0.22090
# Poissons Ratio (y) = 0.43908 0.63425
# Poissons Ratio (z) = 0.28691 0.42595
#
# Static dielectric constant tensor:
#      x y z
#    x 3.652240 0.000000 -0.203090 
#    y 0.000000 3.440530 0.000000 
#    z -0.203090 0.000000 3.325880 
# 
# 
# High freq. dielectric constant tensor:
#      x y z
#    x 1.756690 0.000000 -0.010470 
#    y 0.000000 1.738780 0.000000 
#    z -0.010470 0.000000 1.734880 
# 
# From -- ./inp_files/274081.got.cif
#   From: 2010.06.25/outbox.cif.g09.slc.cpg/sg12_138_cif.got.tgz:274081.got - 2010.06.28 00:19:55.
