data_PCOD8097610
_publ_section_title
;
Structure prediction by ZEFSAII (Michael W. Deem and Ramdas Pophale) SiO2 
 PCOD8097610
Probable space group: C 2/M
;
_chemical_formula_sum "Si O2"
_cell_formula_units_Z 56
_cell_length_a 19.180441
_cell_length_b 8.918324
_cell_length_c 26.462022
_cell_angle_alpha 90.000000
_cell_angle_beta 140.953387
_cell_angle_gamma 90.000000
_cell_volume 2851.495012
_symmetry_space_group_name_H-M "C 2/M"
_symmetry_group_IT_number 12
_symmetry_cell_setting 'monoclinic'
loop_
_space_group_symop_operation_xyz
x,y,z
-x,y,-z
-x,-y,-z
x,-y,z
1/2+x,1/2+y,z
1/2-x,1/2+y,-z
1/2-x,1/2-y,-z
1/2+x,1/2-y,z
loop_
_atom_site_type_symbol
_atom_site_label
_atom_site_fract_x
_atom_site_fract_y
_atom_site_fract_z
Si Si1 0.923259 0.676534 0.233681
Si Si2 0.706739 0.823343 0.739339
Si Si3 0.028037 0.177502 0.572653
Si Si4 0.146251 0.674557 0.916182
Si Si5 0.179438 0.329858 0.502169
Si Si6 0.370123 0.329874 0.684761
Si Si7 0.405217 0.824462 0.807712
O O1 0.948761 0.500000 0.248036
O O2 0.844951 0.723499 0.235999
O O3 0.865250 0.726521 0.148566
O O4 0.039201 0.765174 0.303817
O O5 0.642823 0.747964 0.656372
O O6 0.833515 0.764146 0.809299
O O7 0.705126 0.000000 0.730495
O O8 0.000000 0.229151 0.500000
O O9 0.933703 0.239748 0.556229
O O10 0.035302 0.000000 0.581188
O O11 0.167801 0.500000 0.930020
O O12 0.035374 0.716365 0.885387
O O13 0.250000 0.750000 0.000000
O O14 0.151314 0.500000 0.470169
O O15 0.250000 0.250000 0.500000
O O16 0.248547 0.326610 0.592662
O O17 0.402414 0.500000 0.718106
O O18 0.364163 0.222574 0.729363
O O19 0.385005 0.000000 0.803319
#
# Coordination Sequence:
#
# PCOD8097610 Si02
#       7
#     8   8   8   8   8   8   8
#     4   9  20  37  56  81 113 146 179 222 276 326
#     4  11  22  37  58  82 110 145 186 230 274 324
#     4  11  24  39  55  77 109 149 188 231 284 332
#     4   9  19  37  60  85 112 142 177 217 264 321
#     4  11  23  36  52  76 106 140 183 234 281 327
#     4  10  20  34  54  79 104 137 185 231 270 322
#     4  10  21  37  57  81 111 144 177 218 268 322
#
# _framework density 19.638819999999999
#
# number of rings (size 3 to 8) (size 9 to 14) (size 15 to 20)
#    0.000    1.857    0.000    4.714    0.000   12.000 
#    0.000    0.714    0.000    4.286    0.000    0.000 
#    0.000    0.000    0.000    0.000    0.000    0.000 
#
# Total GULP energy -347253.442137 kJ/mol
# GULP energy per Si atom -12401.908648 kJ/mol
# Density = 1.959412 g / cm^3
# Si number density = 19.638820 Si / 1000 Ang^3
#
#
#
# Elastic Constant Matrix: (Units=GPa)
#
#
# Indices 1 2 3 4 5 6 
#
# 1 113.3682 34.9294 25.2744 0.0000 18.2698 0.0000
# 2 34.9294 68.4681 30.7889 0.0000 9.1661 0.0002
# 3 25.2744 30.7889 81.8193 0.0000 14.0832 0.0000
# 4 0.0000 0.0000 0.0000 33.3087 0.0000 4.6495
# 5 18.2698 9.1661 14.0832 0.0000 25.4019 0.0000
# 6 0.0000 0.0002 0.0000 4.6495 0.0000 36.8770
#
#
#
# Elastic Compliance Matrix: (Units=1/GPa)
#
#
# Indices 1 2 3 4 5 6 
#
# 1 0.011408 -0.004682 -0.000708 0.000000 -0.006123 0.000000
# 2 -0.004682 0.019705 -0.005886 0.000000 -0.000480 0.000000
# 3 -0.000708 -0.005886 0.015701 0.000000 -0.006071 0.000000
# 4 0.000000 0.000000 0.000000 0.030560 0.000000 -0.003853
# 5 -0.006123 -0.000480 -0.006071 0.000000 0.047310 0.000000
# 6 0.000000 0.000000 0.000000 -0.003853 0.000000 0.027603
#
#
# Mechanical properties :
#
#
# Convention : Reuss Voigt Hill
#
# Bulk Modulus (GPa) = 41.21794 49.51566 45.36680
# Shear Modulus (GPa) = 27.33342 30.62838 28.98090
#
# Velocity S-wave (km/s) = 3.73474 3.95344 3.84564
# Velocity P-wave (km/s) = 6.29534 6.79025 6.54747
#
# Compressibility (1/GPa) = 0.02426128
#
# Stress axis : x y z
#
# Youngs Moduli (GPa) = 87.65866 50.74891 63.69055
#
# Poissons Ratio (x) = 0.23758 0.04512
# Poissons Ratio (y) = 0.41038 0.37490
# Poissons Ratio (z) = 0.06209 0.29872
#
# Static dielectric constant tensor:
#      x y z
#    x 3.759930 0.000000 0.169370 
#    y 0.000000 3.636070 0.000000 
#    z 0.169370 0.000000 3.617730 
# 
# 
# High freq. dielectric constant tensor:
#      x y z
#    x 1.772550 0.000000 0.012490 
#    y 0.000000 1.772740 0.000000 
#    z 0.012490 0.000000 1.747230 
# 
# From -- ./inp_files/363170.got.cif
#   From: 2010.06.25/outbox.cif.g09.slc.cpg/sg12_182_cif.got.tgz:363170.got - 2010.06.28 00:19:55.
