data_PCOD8097926
_publ_section_title
;
Structure prediction by ZEFSAII (Michael W. Deem and Ramdas Pophale) SiO2 
 PCOD8097926
Probable space group: C 2/M
;
_chemical_formula_sum "Si O2"
_cell_formula_units_Z 64
_cell_length_a 18.480310
_cell_length_b 9.135519
_cell_length_c 30.869610
_cell_angle_alpha 90.000000
_cell_angle_beta 41.458071
_cell_angle_gamma 90.000000
_cell_volume 3450.473535
_symmetry_space_group_name_H-M "C 2/M"
_symmetry_group_IT_number 12
_symmetry_cell_setting 'monoclinic'
loop_
_space_group_symop_operation_xyz
x,y,z
-x,y,-z
-x,-y,-z
x,-y,z
1/2+x,1/2+y,z
1/2-x,1/2+y,-z
1/2-x,1/2-y,-z
1/2+x,1/2-y,z
loop_
_atom_site_type_symbol
_atom_site_label
_atom_site_fract_x
_atom_site_fract_y
_atom_site_fract_z
Si Si1 0.049396 0.328299 0.690392
Si Si2 0.714654 0.329887 0.558969
Si Si3 0.081600 0.171217 0.065482
Si Si4 0.120754 0.668902 0.437448
Si Si5 0.747063 0.669758 0.065887
Si Si6 0.786542 0.670633 0.307380
Si Si7 0.641082 0.169360 0.819074
Si Si8 0.327636 0.331518 0.805352
O O1 0.051591 0.500000 0.679315
O O2 0.103753 0.243404 0.625966
O O3 0.113211 0.290369 0.705953
O O4 0.926507 0.274584 0.749902
O O5 0.692320 0.500000 0.559865
O O6 0.750000 0.250000 0.500000
O O7 0.810892 0.305404 0.549925
O O8 0.142828 0.208796 0.082907
O O9 0.962437 0.239522 0.119468
O O10 0.070378 0.000000 0.062933
O O11 0.148169 0.237502 0.995403
O O12 0.114180 0.500000 0.427229
O O13 0.175833 0.751063 0.372405
O O14 0.000000 0.733165 0.500000
O O15 0.778125 0.500000 0.047619
O O16 0.719644 0.714106 0.126992
O O17 0.760681 0.500000 0.318527
O O18 0.817489 0.727994 0.245914
O O19 0.735483 0.194878 0.811278
O O20 0.606993 0.000000 0.831016
O O21 0.367609 0.500000 0.787886
#
# Coordination Sequence:
#
# PCOD8097926 Si02
#       8
#     8   8   8   8   8   8   8   8
#     4  10  20  35  55  77 103 136 174 215 257 303
#     4  10  20  35  55  78 106 138 173 214 258 307
#     4  10  20  34  55  80 103 133 175 217 256 303
#     4   9  19  35  54  77 104 135 171 211 256 303
#     4   9  19  36  56  77 103 137 175 213 256 307
#     4   9  19  35  54  76 101 134 174 211 252 303
#     4  10  21  36  53  76 107 138 169 210 261 311
#     4  10  21  36  54  77 105 138 174 211 257 311
#
# _framework density 18.548179000000001
#
# number of rings (size 3 to 8) (size 9 to 14) (size 15 to 20)
#    0.000    2.375    0.000    1.875    0.000    4.750 
#    0.000    5.000    0.000    0.000    0.000    0.000 
#    0.000    0.000    0.000    0.000    0.000    0.000 
#
# Total GULP energy -396941.520486 kJ/mol
# GULP energy per Si atom -12404.422515 kJ/mol
# Density = 1.850596 g / cm^3
# Si number density = 18.548179 Si / 1000 Ang^3
#
#
#
# Elastic Constant Matrix: (Units=GPa)
#
#
# Indices 1 2 3 4 5 6 
#
# 1 68.5063 44.6286 70.1423 -0.0004 4.3594 0.0001
# 2 44.6286 87.8729 77.2368 -0.0016 -3.0675 -0.0027
# 3 70.1423 77.2368 163.9309 0.0003 -0.1092 0.0004
# 4 -0.0004 -0.0016 0.0003 30.8097 0.0000 -7.5336
# 5 4.3594 -3.0675 -0.1092 0.0000 35.4332 0.0001
# 6 0.0001 -0.0027 0.0004 -7.5336 0.0001 22.4983
#
#
#
# Elastic Compliance Matrix: (Units=1/GPa)
#
#
# Indices 1 2 3 4 5 6 
#
# 1 0.028445 -0.006639 -0.009046 0.000000 -0.004102 -0.000001
# 2 -0.006639 0.021071 -0.007085 0.000002 0.002619 0.000003
# 3 -0.009046 -0.007085 0.013309 -0.000001 0.000541 -0.000001
# 4 0.000000 0.000002 -0.000001 0.035352 0.000000 0.011838
# 5 -0.004102 0.002619 0.000541 0.000000 0.028955 0.000000
# 6 -0.000001 0.000003 -0.000001 0.011838 0.000000 0.048412
#
#
# Mechanical properties :
#
#
# Convention : Reuss Voigt Hill
#
# Bulk Modulus (GPa) = 57.85272 78.25838 68.05555
# Shear Modulus (GPa) = 22.04146 26.30174 24.17160
#
# Velocity S-wave (km/s) = 3.45096 3.76975 3.61387
# Velocity P-wave (km/s) = 6.86565 7.82506 7.36100
#
# Compressibility (1/GPa) = 0.01728527
#
# Stress axis : x y z
#
# Youngs Moduli (GPa) = 35.15568 47.45884 75.13585
#
# Poissons Ratio (x) = 0.31507 0.67966
# Poissons Ratio (y) = 0.23339 0.53236
# Poissons Ratio (z) = 0.31801 0.33626
#
# Static dielectric constant tensor:
#      x y z
#    x 3.380450 0.000000 0.071420 
#    y 0.000000 3.420010 0.000000 
#    z 0.071420 0.000000 3.542600 
# 
# 
# High freq. dielectric constant tensor:
#      x y z
#    x 1.713270 0.000000 0.002040 
#    y 0.000000 1.720580 0.000000 
#    z 0.002040 0.000000 1.731310 
# 
# From -- ./inp_files/378000.got.cif
#   From: 2010.06.25/outbox.cif.g09.slc.cpg/sg12_189_cif.got.tgz:378000.got - 2010.06.28 00:19:55.
