data_PCOD8097383
_publ_section_title
;
Structure prediction by ZEFSAII (Michael W. Deem and Ramdas Pophale) SiO2 
 PCOD8097383
Probable space group: C 2/M
;
_chemical_formula_sum "Si O2"
_cell_formula_units_Z 64
_cell_length_a 33.133352
_cell_length_b 13.962227
_cell_length_c 14.156747
_cell_angle_alpha 90.000000
_cell_angle_beta 149.595090
_cell_angle_gamma 90.000000
_cell_volume 3314.564417
_symmetry_space_group_name_H-M "C 2/M"
_symmetry_group_IT_number 12
_symmetry_cell_setting 'monoclinic'
loop_
_space_group_symop_operation_xyz
x,y,z
-x,y,-z
-x,-y,-z
x,-y,z
1/2+x,1/2+y,z
1/2-x,1/2+y,-z
1/2-x,1/2-y,-z
1/2+x,1/2-y,z
loop_
_atom_site_type_symbol
_atom_site_label
_atom_site_fract_x
_atom_site_fract_y
_atom_site_fract_z
Si Si1 0.863955 0.393485 0.045291
Si Si2 0.890964 0.726569 0.624953
Si Si3 0.331514 0.794426 0.700403
Si Si4 0.733017 0.396222 0.638498
Si Si5 0.066847 0.227802 0.929835
Si Si6 0.358625 0.609642 0.079253
Si Si7 0.341311 0.774138 0.176607
Si Si8 0.829303 0.388577 0.329656
O O1 0.899562 0.500000 0.112402
O O2 0.857675 0.362030 0.140290
O O3 0.773916 0.388239 0.823499
O O4 0.922810 0.326792 0.105215
O O5 0.887845 0.681462 0.724429
O O6 0.831239 0.814707 0.499427
O O7 0.864845 0.642205 0.501924
O O8 0.975449 0.774620 0.775473
O O9 0.250000 0.750000 0.500000
O O10 0.304699 0.887756 0.705656
O O11 0.377922 0.722536 0.865232
O O12 0.692232 0.500000 0.543178
O O13 0.089272 0.139178 0.906893
O O14 0.377385 0.500000 0.144071
O O15 0.266194 0.624843 0.865002
O O16 0.382619 0.677015 0.218090
O O17 0.370662 0.815733 0.336972
O O18 0.250000 0.750000 0.000000
O O19 0.851047 0.500000 0.354291
#
# Coordination Sequence:
#
# PCOD8097383 Si02
#       8
#     8   8   8   8   8   8   8   8
#     4   9  17  32  53  74  99 134 175 218 262 309
#     4  11  21  34  52  76 111 142 174 216 267 323
#     4   9  18  35  56  75 100 136 178 221 262 308
#     4   9  18  33  54  78 102 133 175 219 264 314
#     4  10  20  34  53  78 108 140 173 215 267 322
#     4   9  18  34  56  80 107 140 179 221 266 317
#     4   9  16  30  53  80 106 131 175 226 268 309
#     4  10  20  34  54  80 107 139 181 226 269 315
#
# _framework density 19.308723000000001
#
# number of rings (size 3 to 8) (size 9 to 14) (size 15 to 20)
#    0.000    2.500    0.000    4.500    0.000    2.000 
#    0.000    6.875    0.000   12.000    0.000    0.000 
#    0.000    0.000    0.000    0.000    0.000    0.000 
#
# Total GULP energy -396506.728497 kJ/mol
# GULP energy per Si atom -12390.835266 kJ/mol
# Density = 1.926478 g / cm^3
# Si number density = 19.308723 Si / 1000 Ang^3
#
#
#
# Elastic Constant Matrix: (Units=GPa)
#
#
# Indices 1 2 3 4 5 6 
#
# 1 120.6865 43.1489 38.1026 0.0000 -14.5894 0.0000
# 2 43.1489 123.1380 29.2340 0.0000 -8.8923 0.0000
# 3 38.1026 29.2340 39.2842 0.0000 -0.7388 0.0000
# 4 0.0000 0.0000 0.0000 16.7295 0.0000 -1.2106
# 5 -14.5894 -8.8923 -0.7388 0.0000 30.6351 0.0000
# 6 0.0000 0.0000 0.0000 -1.2106 0.0000 18.0501
#
#
#
# Elastic Compliance Matrix: (Units=1/GPa)
#
#
# Indices 1 2 3 4 5 6 
#
# 1 0.013120 -0.001458 -0.011536 0.000000 0.005547 0.000000
# 2 -0.001458 0.010252 -0.006175 0.000000 0.002132 0.000000
# 3 -0.011536 -0.006175 0.041121 0.000000 -0.006294 0.000000
# 4 0.000000 0.000000 0.000000 0.060066 0.000000 0.004029
# 5 0.005547 0.002132 -0.006294 0.000000 0.035751 0.000000
# 6 0.000000 0.000000 0.000000 0.004029 0.000000 0.055671
#
#
# Mechanical properties :
#
#
# Convention : Reuss Voigt Hill
#
# Bulk Modulus (GPa) = 38.23305 56.00884 47.12094
# Shear Modulus (GPa) = 19.00875 24.59117 21.79996
#
# Velocity S-wave (km/s) = 3.14102 3.57259 3.36374
# Velocity P-wave (km/s) = 5.74444 6.78881 6.28834
#
# Compressibility (1/GPa) = 0.02615538
#
# Stress axis : x y z
#
# Youngs Moduli (GPa) = 76.22092 97.54355 24.31848
#
# Poissons Ratio (x) = 0.14223 0.28053
# Poissons Ratio (y) = 0.11114 0.15016
# Poissons Ratio (z) = 0.87927 0.60231
#
# Static dielectric constant tensor:
#      x y z
#    x 4.048070 0.000000 -0.316270 
#    y 0.000000 3.555320 0.000000 
#    z -0.316270 0.000000 3.313500 
# 
# 
# High freq. dielectric constant tensor:
#      x y z
#    x 1.761320 0.000000 -0.014360 
#    y 0.000000 1.742760 0.000000 
#    z -0.014360 0.000000 1.725610 
# 
# From -- ./inp_files/183831.got.cif
#   From: 2010.06.25/outbox.cif.g09.slc.cpg/sg12_92_cif.got.tgz:183831.got - 2010.06.28 00:19:55.
