data_PCOD8097493
_publ_section_title
;
Structure prediction by ZEFSAII (Michael W. Deem and Ramdas Pophale) SiO2 
 PCOD8097493
Probable space group: C 2/M
;
_chemical_formula_sum "Si O2"
_cell_formula_units_Z 56
_cell_length_a 9.104069
_cell_length_b 18.518680
_cell_length_c 29.577537
_cell_angle_alpha 90.000000
_cell_angle_beta 144.438292
_cell_angle_gamma 90.000000
_cell_volume 2900.124283
_symmetry_space_group_name_H-M "C 2/M"
_symmetry_group_IT_number 12
_symmetry_cell_setting 'monoclinic'
loop_
_space_group_symop_operation_xyz
x,y,z
-x,y,-z
-x,-y,-z
x,-y,z
1/2+x,1/2+y,z
1/2-x,1/2+y,-z
1/2-x,1/2-y,-z
1/2+x,1/2-y,z
loop_
_atom_site_type_symbol
_atom_site_label
_atom_site_fract_x
_atom_site_fract_y
_atom_site_fract_z
Si Si1 0.061859 0.809753 0.436549
Si Si2 0.704366 0.802371 0.177465
Si Si3 0.533556 0.082139 0.455091
Si Si4 0.780273 0.581425 0.884599
Si Si5 0.356863 0.417907 0.052902
Si Si6 0.649991 0.292044 0.355689
Si Si7 0.164497 0.800815 0.083222
O O1 0.250000 0.750000 0.500000
O O2 0.180576 0.886818 0.482583
O O3 0.033086 0.808168 0.375176
O O4 0.798073 0.785399 0.393267
O O5 0.808020 0.876642 0.181938
O O6 0.454264 0.813526 0.143978
O O7 0.637658 0.751680 0.118758
O O8 0.924741 0.775361 0.264885
O O9 0.500000 0.079477 0.500000
O O10 0.324749 0.139324 0.383662
O O11 0.506363 0.000000 0.428238
O O12 0.689928 0.500000 0.856211
O O13 0.652572 0.614028 0.898213
O O14 0.081316 0.587404 0.962492
O O15 0.448619 0.500000 0.077948
O O16 0.552493 0.377385 0.070107
O O17 0.000000 0.769732 0.000000
#
# Coordination Sequence:
#
# PCOD8097493 Si02
#       7
#     8   8   8   8   8   8   8
#     4   9  17  33  57  81 108 143 180 214 259 325
#     4  12  24  35  53  80 113 149 189 239 296 333
#     4   8  15  30  55  83 108 136 171 212 256 314
#     4   9  19  36  57  78 103 140 183 229 291 350
#     4   9  19  37  58  77 100 135 185 242 288 337
#     4  10  20  34  53  81 112 146 180 222 272 331
#     4  12  24  37  54  77 108 147 196 250 286 334
#
# _framework density 19.309518000000001
#
# number of rings (size 3 to 8) (size 9 to 14) (size 15 to 20)
#    0.000    2.143    1.429    4.286    2.000    1.429 
#    0.000    0.000    0.000    9.429    0.000    0.000 
#    0.000    0.000    0.000    0.000    0.000    0.000 
#
# Total GULP energy -346947.232595 kJ/mol
# GULP energy per Si atom -12390.972593 kJ/mol
# Density = 1.926557 g / cm^3
# Si number density = 19.309518 Si / 1000 Ang^3
#
#
#
# Elastic Constant Matrix: (Units=GPa)
#
#
# Indices 1 2 3 4 5 6 
#
# 1 69.3055 23.0980 21.0910 -0.0004 1.6275 -0.0001
# 2 23.0980 75.6162 15.7834 -0.0003 3.6864 -0.0002
# 3 21.0910 15.7834 84.0969 -0.0007 6.7297 -0.0004
# 4 -0.0004 -0.0003 -0.0007 20.1022 -0.0005 -2.3287
# 5 1.6275 3.6864 6.7297 -0.0005 20.0950 -0.0001
# 6 -0.0001 -0.0002 -0.0004 -2.3287 -0.0001 32.4874
#
#
#
# Elastic Compliance Matrix: (Units=1/GPa)
#
#
# Indices 1 2 3 4 5 6 
#
# 1 0.016964 -0.004489 -0.003461 0.000000 0.000609 0.000000
# 2 -0.004489 0.015009 -0.001541 0.000000 -0.001874 0.000000
# 3 -0.003461 -0.001541 0.013361 0.000000 -0.003912 0.000000
# 4 0.000000 0.000000 0.000000 0.050162 0.000001 0.003596
# 5 0.000609 -0.001874 -0.003912 0.000001 0.051368 0.000000
# 6 0.000000 0.000000 0.000000 0.003596 0.000000 0.031039
#
#
# Mechanical properties :
#
#
# Convention : Reuss Voigt Hill
#
# Bulk Modulus (GPa) = 37.94742 38.77373 38.36057
# Shear Modulus (GPa) = 24.31089 25.80665 25.05877
#
# Velocity S-wave (km/s) = 3.55210 3.65975 3.60633
# Velocity P-wave (km/s) = 6.04302 6.16296 6.10328
#
# Compressibility (1/GPa) = 0.02635225
#
# Stress axis : x y z
#
# Youngs Moduli (GPa) = 58.94889 66.62674 74.84360
#
# Poissons Ratio (x) = 0.29910 0.25900
# Poissons Ratio (y) = 0.26463 0.11534
# Poissons Ratio (z) = 0.20400 0.10268
#
# Static dielectric constant tensor:
#      x y z
#    x 3.069690 0.000000 -0.230170 
#    y 0.000000 3.696770 0.000000 
#    z -0.230170 0.000000 3.334030 
# 
# 
# High freq. dielectric constant tensor:
#      x y z
#    x 1.746550 0.000000 -0.006600 
#    y 0.000000 1.746590 0.000000 
#    z -0.006600 0.000000 1.731720 
# 
# From -- ./inp_files/356759.got.cif
#   From: 2010.06.25/outbox.cif.g09.slc.cpg/sg12_179_cif.got.tgz:356759.got - 2010.06.28 00:19:55.
