data_PCOD8097553
_publ_section_title
;
Structure prediction by ZEFSAII (Michael W. Deem and Ramdas Pophale) SiO2 
 PCOD8097553
Probable space group: C 2/M
;
_chemical_formula_sum "Si O2"
_cell_formula_units_Z 48
_cell_length_a 17.676948
_cell_length_b 9.478484
_cell_length_c 15.089612
_cell_angle_alpha 90.000000
_cell_angle_beta 90.112815
_cell_angle_gamma 90.000000
_cell_volume 2528.269681
_symmetry_space_group_name_H-M "C 2/M"
_symmetry_group_IT_number 12
_symmetry_cell_setting 'monoclinic'
loop_
_space_group_symop_operation_xyz
x,y,z
-x,y,-z
-x,-y,-z
x,-y,z
1/2+x,1/2+y,z
1/2-x,1/2+y,-z
1/2-x,1/2-y,-z
1/2+x,1/2-y,z
loop_
_atom_site_type_symbol
_atom_site_label
_atom_site_fract_x
_atom_site_fract_y
_atom_site_fract_z
Si Si1 0.913985 0.336447 0.010453
Si Si2 0.832463 0.337446 0.190066
Si Si3 0.089381 0.162894 0.662392
Si Si4 0.836948 0.834343 0.859085
Si Si5 0.674777 0.663250 0.483006
Si Si6 0.420023 0.332731 0.682712
O O1 0.903634 0.500000 0.985418
O O2 0.861084 0.246250 0.946933
O O3 0.890794 0.306715 0.111245
O O4 0.000000 0.286517 0.000000
O O5 0.834010 0.500000 0.219181
O O6 0.853677 0.246026 0.274686
O O7 0.749194 0.293172 0.159506
O O8 0.115404 0.182910 0.561973
O O9 0.004896 0.226414 0.671490
O O10 0.091162 0.000000 0.691317
O O11 0.888026 0.782566 0.777052
O O12 0.846655 0.000000 0.875948
O O13 0.697608 0.500000 0.471443
O O14 0.750000 0.750000 0.500000
O O15 0.634397 0.724825 0.395051
O O16 0.421510 0.500000 0.674660
#
# Coordination Sequence:
#
# PCOD8097553 Si02
#       6
#     8   8   8   8   8   8
#     4  10  21  36  53  75 105 139 172 210 259 309
#     4  10  21  36  53  76 107 139 169 209 264 311
#     4  10  20  34  55  80 102 133 177 215 250 300
#     4  10  20  34  54  77 101 135 175 213 256 305
#     4  10  20  35  55  78 106 138 171 210 255 304
#     4   9  18  34  54  76 104 136 171 213 259 304
#
# _framework density 18.985316000000001
#
# number of rings (size 3 to 8) (size 9 to 14) (size 15 to 20)
#    0.000    2.167    0.000    3.000    0.000    5.667 
#    0.000    1.667    0.000    2.000    0.000    0.000 
#    0.000    0.000    0.000    0.000    0.000    0.000 
#
# Total GULP energy -297706.800862 kJ/mol
# GULP energy per Si atom -12404.450036 kJ/mol
# Density = 1.894210 g / cm^3
# Si number density = 18.985316 Si / 1000 Ang^3
#
#
#
# Elastic Constant Matrix: (Units=GPa)
#
#
# Indices 1 2 3 4 5 6 
#
# 1 88.0049 23.0524 1.2279 0.0000 -0.1539 0.0000
# 2 23.0524 40.4737 21.6151 0.0000 12.4661 0.0000
# 3 1.2279 21.6151 52.7947 0.0000 14.0363 0.0000
# 4 0.0000 0.0000 0.0000 27.9242 0.0000 4.5434
# 5 -0.1539 12.4661 14.0363 0.0000 38.5654 0.0000
# 6 0.0000 0.0000 0.0000 4.5434 0.0000 26.0867
#
#
#
# Elastic Compliance Matrix: (Units=1/GPa)
#
#
# Indices 1 2 3 4 5 6 
#
# 1 0.014072 -0.010506 0.003384 0.000000 0.002221 0.000000
# 2 -0.010506 0.040816 -0.014335 0.000000 -0.008018 0.000000
# 3 0.003384 -0.014335 0.026013 0.000000 -0.004821 0.000000
# 4 0.000000 0.000000 0.000000 0.036856 0.000000 -0.006419
# 5 0.002221 -0.008018 -0.004821 0.000000 0.030285 0.000000
# 6 0.000000 0.000000 0.000000 -0.006419 0.000000 0.039452
#
#
# Mechanical properties :
#
#
# Convention : Reuss Voigt Hill
#
# Bulk Modulus (GPa) = 26.32460 30.34045 28.33252
# Shear Modulus (GPa) = 20.57024 27.54047 24.05536
#
# Velocity S-wave (km/s) = 3.29520 3.81283 3.56343
# Velocity P-wave (km/s) = 5.32669 5.94973 5.64681
#
# Compressibility (1/GPa) = 0.03798728
#
# Stress axis : x y z
#
# Youngs Moduli (GPa) = 71.06532 24.50005 38.44206
#
# Poissons Ratio (x) = 0.25739 -0.13007
# Poissons Ratio (y) = 0.74658 0.55106
# Poissons Ratio (z) = -0.24045 0.35120
#
# Static dielectric constant tensor:
#      x y z
#    x 3.651170 0.000000 -0.112780 
#    y 0.000000 3.237560 0.000000 
#    z -0.112780 0.000000 3.530000 
# 
# 
# High freq. dielectric constant tensor:
#      x y z
#    x 1.755290 0.000000 -0.005300 
#    y 0.000000 1.710210 0.000000 
#    z -0.005300 0.000000 1.749590 
# 
# From -- ./inp_files/212861.got.cif
#   From: 2010.06.25/outbox.cif.g09.slc.cpg/sg12_107_cif.got.tgz:212861.got - 2010.06.28 00:19:55.
