data_PCOD8097217
_publ_section_title
;
Structure prediction by ZEFSAII (Michael W. Deem and Ramdas Pophale) SiO2 
 PCOD8097217
Probable space group: C 2/M
;
_chemical_formula_sum "Si O2"
_cell_formula_units_Z 64
_cell_length_a 27.825552
_cell_length_b 9.010424
_cell_length_c 14.239211
_cell_angle_alpha 90.000000
_cell_angle_beta 76.113693
_cell_angle_gamma 90.000000
_cell_volume 3465.716373
_symmetry_space_group_name_H-M "C 2/M"
_symmetry_group_IT_number 12
_symmetry_cell_setting 'monoclinic'
loop_
_space_group_symop_operation_xyz
x,y,z
-x,y,-z
-x,-y,-z
x,-y,z
1/2+x,1/2+y,z
1/2-x,1/2+y,-z
1/2-x,1/2-y,-z
1/2+x,1/2-y,z
loop_
_atom_site_type_symbol
_atom_site_label
_atom_site_fract_x
_atom_site_fract_y
_atom_site_fract_z
Si Si1 0.609829 0.825667 0.886276
Si Si2 0.555207 0.323473 0.465908
Si Si3 0.786645 0.170457 0.650971
Si Si4 0.378789 0.669574 0.737240
Si Si5 0.514099 0.666433 0.885153
Si Si6 0.643522 0.323941 0.546474
Si Si7 0.684471 0.675742 0.724376
Si Si8 0.581964 0.173433 0.109620
O O1 0.564636 0.756862 0.847772
O O2 0.660465 0.753603 0.826029
O O3 0.610347 0.000000 0.868970
O O4 0.605218 0.785354 0.998082
O O5 0.500000 0.254819 0.500000
O O6 0.552915 0.500000 0.471635
O O7 0.579797 0.274698 0.356148
O O8 0.590026 0.264365 0.535217
O O9 0.824417 0.184959 0.719569
O O10 0.812931 0.229277 0.543842
O O11 0.741199 0.277673 0.692554
O O12 0.768813 0.000000 0.648797
O O13 0.389311 0.500000 0.761432
O O14 0.380314 0.772166 0.828509
O O15 0.521632 0.500000 0.842311
O O16 0.470359 0.745165 0.848356
O O17 0.500000 0.664380 0.000000
O O18 0.642779 0.500000 0.542050
O O19 0.655219 0.267146 0.645408
O O20 0.680878 0.500000 0.737146
O O21 0.572215 0.000000 0.121871
#
# Coordination Sequence:
#
# PCOD8097217 Si02
#       8
#     8   8   8   8   8   8   8   8
#     4  10  21  36  51  72 105 140 171 206 255 308
#     4   8  14  27  48  75 106 135 163 200 247 300
#     4   9  18  35  54  72 100 135 170 211 260 314
#     4   9  18  32  53  77  99 132 176 214 250 299
#     4   9  17  31  52  75  99 129 167 209 247 288
#     4   8  16  30  48  73 103 133 168 207 251 308
#     4  11  21  32  51  78 103 130 169 218 264 304
#     4  10  20  34  53  75 103 139 173 207 251 305
#
# _framework density 18.466602000000002
#
# number of rings (size 3 to 8) (size 9 to 14) (size 15 to 20)
#    0.000    2.750    0.000    3.375    0.000    4.500 
#    0.000    3.750    0.000    1.875    0.000    0.000 
#    0.000    0.000    0.000    0.000    0.000    0.000 
#
# Total GULP energy -396769.991711 kJ/mol
# GULP energy per Si atom -12399.062241 kJ/mol
# Density = 1.842457 g / cm^3
# Si number density = 18.466602 Si / 1000 Ang^3
#
#
#
# Elastic Constant Matrix: (Units=GPa)
#
#
# Indices 1 2 3 4 5 6 
#
# 1 109.3108 37.2399 56.8842 0.0000 -9.3297 0.0000
# 2 37.2399 69.4181 40.5509 0.0000 0.9467 0.0000
# 3 56.8842 40.5509 83.7411 0.0000 -0.0889 0.0000
# 4 0.0000 0.0000 0.0000 17.6544 0.0000 -1.7474
# 5 -9.3297 0.9467 -0.0889 0.0000 29.2005 0.0000
# 6 0.0000 0.0000 0.0000 -1.7474 0.0000 31.7362
#
#
#
# Elastic Compliance Matrix: (Units=1/GPa)
#
#
# Indices 1 2 3 4 5 6 
#
# 1 0.015217 -0.003061 -0.008849 0.000000 0.004934 0.000000
# 2 -0.003061 0.020717 -0.007954 0.000000 -0.001674 0.000000
# 3 -0.008849 -0.007954 0.021802 0.000000 -0.002503 0.000000
# 4 0.000000 0.000000 0.000000 0.056953 0.000000 0.003136
# 5 0.004934 -0.001674 -0.002503 0.000000 0.035869 0.000000
# 6 0.000000 0.000000 0.000000 0.003136 0.000000 0.031682
#
#
# Mechanical properties :
#
#
# Convention : Reuss Voigt Hill
#
# Bulk Modulus (GPa) = 55.53560 59.09111 57.31335
# Shear Modulus (GPa) = 21.93235 24.23788 23.08512
#
# Velocity S-wave (km/s) = 3.45001 3.62681 3.53951
# Velocity P-wave (km/s) = 6.78299 7.04320 6.91432
#
# Compressibility (1/GPa) = 0.01800647
#
# Stress axis : x y z
#
# Youngs Moduli (GPa) = 65.71421 48.26910 45.86766
#
# Poissons Ratio (x) = 0.14778 0.40589
# Poissons Ratio (y) = 0.20118 0.36484
# Poissons Ratio (z) = 0.58152 0.38395
#
# Static dielectric constant tensor:
#      x y z
#    x 3.520990 0.000000 0.036290 
#    y 0.000000 3.162810 0.000000 
#    z 0.036290 0.000000 3.327770 
# 
# 
# High freq. dielectric constant tensor:
#      x y z
#    x 1.717750 0.000000 0.000820 
#    y 0.000000 1.695020 0.000000 
#    z 0.000820 0.000000 1.705650 
# 
# From -- ./inp_files/243895.got.cif
#   From: 2010.06.25/outbox.cif.g09.slc.cpg/sg12_122_cif.got.tgz:243895.got - 2010.06.28 00:19:55.
