data_PCOD8097021
_publ_section_title
;
Structure prediction by ZEFSAII (Michael W. Deem and Ramdas Pophale) SiO2 
 PCOD8097021
Probable space group: C 2/M
;
_chemical_formula_sum "Si O2"
_cell_formula_units_Z 56
_cell_length_a 26.498079
_cell_length_b 13.590024
_cell_length_c 12.727466
_cell_angle_alpha 90.000000
_cell_angle_beta 141.159807
_cell_angle_gamma 90.000000
_cell_volume 2874.406840
_symmetry_space_group_name_H-M "C 2/M"
_symmetry_group_IT_number 12
_symmetry_cell_setting 'monoclinic'
loop_
_space_group_symop_operation_xyz
x,y,z
-x,y,-z
-x,-y,-z
x,-y,z
1/2+x,1/2+y,z
1/2-x,1/2+y,-z
1/2-x,1/2-y,-z
1/2+x,1/2-y,z
loop_
_atom_site_type_symbol
_atom_site_label
_atom_site_fract_x
_atom_site_fract_y
_atom_site_fract_z
Si Si1 0.734160 0.109174 0.752838
Si Si2 0.222523 0.222011 0.570508
Si Si3 0.871174 0.112674 0.298877
Si Si4 0.199560 0.387430 0.125002
Si Si5 0.118090 0.795540 0.901729
Si Si6 0.058820 0.610470 0.502257
Si Si7 0.444651 0.698552 0.620975
O O1 0.726671 0.177654 0.640819
O O2 0.652798 0.118819 0.691142
O O3 0.744129 0.000000 0.724350
O O4 0.811060 0.133416 0.947115
O O5 0.250000 0.250000 0.500000
O O6 0.282079 0.143721 0.723832
O O7 0.130090 0.181010 0.420421
O O8 0.780479 0.127466 0.190437
O O9 0.887391 0.191247 0.232925
O O10 0.930646 0.138392 0.490732
O O11 0.886395 0.000000 0.287629
O O12 0.168735 0.500000 0.072956
O O13 0.133721 0.317132 0.963279
O O14 0.031715 0.831872 0.810018
O O15 0.039789 0.500000 0.431768
O O16 0.044764 0.685087 0.384191
O O17 0.000000 0.640687 0.500000
#
# Coordination Sequence:
#
# PCOD8097021 Si02
#       7
#     8   8   8   8   8   8   8
#     4   9  19  34  52  78 106 133 169 211 257 308
#     4   9  19  38  60  75  94 132 178 221 261 303
#     4  10  20  34  52  74 106 148 183 208 243 301
#     4   9  20  36  53  78 108 138 175 213 254 308
#     4  11  20  32  52  77 110 142 167 206 261 318
#     4   9  17  31  50  71  99 133 168 205 244 295
#     4  10  21  34  50  77 105 133 176 218 255 305
#
# _framework density 19.482279999999999
#
# number of rings (size 3 to 8) (size 9 to 14) (size 15 to 20)
#    0.000    2.429    0.000    3.000    0.000    4.000 
#    0.000    7.857    0.000    1.714    0.000    0.000 
#    0.000    0.000    0.000    0.000    0.000    0.000 
#
# Total GULP energy -347002.344449 kJ/mol
# GULP energy per Si atom -12392.940873 kJ/mol
# Density = 1.943794 g / cm^3
# Si number density = 19.482280 Si / 1000 Ang^3
#
#
#
# Elastic Constant Matrix: (Units=GPa)
#
#
# Indices 1 2 3 4 5 6 
#
# 1 101.7485 24.7606 58.4600 0.0000 -0.5656 0.0000
# 2 24.7606 86.2728 29.2177 0.0000 -2.4622 0.0000
# 3 58.4600 29.2177 97.9501 0.0000 22.9751 0.0000
# 4 0.0000 0.0000 0.0000 17.4786 0.0000 -0.7560
# 5 -0.5656 -2.4622 22.9751 0.0000 28.6133 0.0000
# 6 0.0000 0.0000 0.0000 -0.7560 0.0000 10.5732
#
#
#
# Elastic Compliance Matrix: (Units=1/GPa)
#
#
# Indices 1 2 3 4 5 6 
#
# 1 0.017228 -0.000372 -0.012621 0.000000 0.010442 0.000000
# 2 -0.000372 0.013554 -0.005043 0.000000 0.005208 0.000000
# 3 -0.012621 -0.005043 0.023909 0.000000 -0.019881 0.000000
# 4 0.000000 0.000000 0.000000 0.057390 0.000000 0.004104
# 5 0.010442 0.005208 -0.019881 0.000000 0.051567 0.000000
# 6 0.000000 0.000000 0.000000 0.004104 0.000000 0.094873
#
#
# Mechanical properties :
#
#
# Convention : Reuss Voigt Hill
#
# Bulk Modulus (GPa) = 53.70341 56.76088 55.23215
# Shear Modulus (GPa) = 16.62240 22.90188 19.76214
#
# Velocity S-wave (km/s) = 2.92414 3.43231 3.18836
# Velocity P-wave (km/s) = 6.24707 6.70116 6.47809
#
# Compressibility (1/GPa) = 0.01862079
#
# Stress axis : x y z
#
# Youngs Moduli (GPa) = 58.04516 73.77703 41.82503
#
# Poissons Ratio (x) = 0.02747 0.52785
# Poissons Ratio (y) = 0.02161 0.21090
# Poissons Ratio (z) = 0.73256 0.37202
#
# Static dielectric constant tensor:
#      x y z
#    x 3.417680 0.000000 0.386900 
#    y 0.000000 3.803580 0.000000 
#    z 0.386900 0.000000 3.542940 
# 
# 
# High freq. dielectric constant tensor:
#      x y z
#    x 1.726510 0.000000 0.034830 
#    y 0.000000 1.770360 0.000000 
#    z 0.034830 0.000000 1.745890 
# 
# From -- ./inp_files/183530.got.cif
#   From: 2010.06.25/outbox.cif.g09.slc.cpg/sg12_92_cif.got.tgz:183530.got - 2010.06.28 00:19:55.
