data_PCOD8097301
_publ_section_title
;
Structure prediction by ZEFSAII (Michael W. Deem and Ramdas Pophale) SiO2 
 PCOD8097301
Probable space group: C 2/M
;
_chemical_formula_sum "Si O2"
_cell_formula_units_Z 48
_cell_length_a 32.540309
_cell_length_b 8.864460
_cell_length_c 18.304552
_cell_angle_alpha 90.000000
_cell_angle_beta 29.272554
_cell_angle_gamma 90.000000
_cell_volume 2581.728255
_symmetry_space_group_name_H-M "C 2/M"
_symmetry_group_IT_number 12
_symmetry_cell_setting 'monoclinic'
loop_
_space_group_symop_operation_xyz
x,y,z
-x,y,-z
-x,-y,-z
x,-y,z
1/2+x,1/2+y,z
1/2-x,1/2+y,-z
1/2-x,1/2-y,-z
1/2+x,1/2-y,z
loop_
_atom_site_type_symbol
_atom_site_label
_atom_site_fract_x
_atom_site_fract_y
_atom_site_fract_z
Si Si1 0.231611 0.321206 0.451069
Si Si2 0.417645 0.677765 0.405559
Si Si3 0.081302 0.327953 0.096333
Si Si4 0.252562 0.326418 0.918147
Si Si5 0.339629 0.831406 0.658015
Si Si6 0.165766 0.833104 0.842527
O O1 0.219972 0.500000 0.475026
O O2 0.250000 0.250000 0.500000
O O3 0.146040 0.252881 0.552528
O O4 0.311231 0.280876 0.275397
O O5 0.403432 0.500000 0.427161
O O6 0.511387 0.717037 0.235815
O O7 0.405477 0.738854 0.506733
O O8 0.049485 0.500000 0.146347
O O9 0.162907 0.305315 0.019201
O O10 0.102180 0.282657 0.979969
O O11 0.276268 0.500000 0.890723
O O12 0.326383 0.249926 0.756121
O O13 0.250000 0.250000 0.000000
O O14 0.252411 0.838785 0.751370
O O15 0.374901 0.000000 0.616698
O O16 0.124638 0.000000 0.905925
#
# Coordination Sequence:
#
# PCOD8097301 Si02
#       6
#     8   8   8   8   8   8
#     4  10  20  35  55  79 107 137 172 213 257 306
#     4  11  21  34  54  78 105 137 173 213 257 306
#     4  10  20  34  53  77 104 135 172 213 256 304
#     4  10  20  34  54  79 106 137 173 213 259 309
#     4   9  17  32  53  75 102 135 172 212 254 306
#     4   8  16  31  51  74 100 133 169 206 251 304
#
# _framework density 18.592196000000001
#
# number of rings (size 3 to 8) (size 9 to 14) (size 15 to 20)
#    0.000    2.333    0.000    4.500    0.000    6.667 
#    0.000    1.667    0.000   10.000    0.000    0.000 
#    0.000    0.000    0.000    0.000    0.000    0.000 
#
# Total GULP energy -297584.181528 kJ/mol
# GULP energy per Si atom -12399.340897 kJ/mol
# Density = 1.854988 g / cm^3
# Si number density = 18.592196 Si / 1000 Ang^3
#
#
#
# Elastic Constant Matrix: (Units=GPa)
#
#
# Indices 1 2 3 4 5 6 
#
# 1 84.4269 53.0506 42.0559 0.0001 39.2682 0.0000
# 2 53.0506 146.2313 60.1442 -0.0005 22.8262 0.0002
# 3 42.0559 60.1442 105.2517 -0.0004 32.8758 0.0001
# 4 0.0001 -0.0005 -0.0004 35.7192 0.0001 7.5139
# 5 39.2682 22.8262 32.8758 0.0001 33.6301 0.0000
# 6 0.0000 0.0002 0.0001 7.5139 0.0000 30.8686
#
#
#
# Elastic Compliance Matrix: (Units=1/GPa)
#
#
# Indices 1 2 3 4 5 6 
#
# 1 0.030311 -0.006680 0.001936 0.000000 -0.032750 0.000000
# 2 -0.006680 0.010468 -0.005081 0.000000 0.005662 0.000000
# 3 0.001936 -0.005081 0.016209 0.000000 -0.014657 0.000000
# 4 0.000000 0.000000 0.000000 0.029507 0.000000 -0.007182
# 5 -0.032750 0.005662 -0.014657 0.000000 0.078461 0.000000
# 6 0.000000 0.000000 0.000000 -0.007182 0.000000 0.034144
#
#
# Mechanical properties :
#
#
# Convention : Reuss Voigt Hill
#
# Bulk Modulus (GPa) = 26.78342 71.82349 49.30345
# Shear Modulus (GPa) = 21.62660 32.08753 26.85707
#
# Velocity S-wave (km/s) = 3.41428 4.15885 3.80483
# Velocity P-wave (km/s) = 5.47541 7.85979 6.77334
#
# Compressibility (1/GPa) = 0.03733654
#
# Stress axis : x y z
#
# Youngs Moduli (GPa) = 32.99177 95.52989 61.69286
#
# Poissons Ratio (x) = 0.63815 -0.11941
# Poissons Ratio (y) = 0.22039 0.31347
# Poissons Ratio (z) = -0.06386 0.48540
#
# Static dielectric constant tensor:
#      x y z
#    x 3.270000 0.000000 0.401600 
#    y 0.000000 3.622950 0.000000 
#    z 0.401600 0.000000 3.513820 
# 
# 
# High freq. dielectric constant tensor:
#      x y z
#    x 1.695290 0.000000 0.030510 
#    y 0.000000 1.737360 0.000000 
#    z 0.030510 0.000000 1.719760 
# 
# From -- ./inp_files/273713.got.cif
#   From: 2010.06.25/outbox.cif.g09.slc.cpg/sg12_137_cif.got.tgz:273713.got - 2010.06.28 00:19:55.
