data_PCOD8097039
_publ_section_title
;
Structure prediction by ZEFSAII (Michael W. Deem and Ramdas Pophale) SiO2 
 PCOD8097039
Probable space group: C 2/M
;
_chemical_formula_sum "Si O2"
_cell_formula_units_Z 56
_cell_length_a 14.167527
_cell_length_b 9.188110
_cell_length_c 22.871572
_cell_angle_alpha 90.000000
_cell_angle_beta 71.936804
_cell_angle_gamma 90.000000
_cell_volume 2830.522696
_symmetry_space_group_name_H-M "C 2/M"
_symmetry_group_IT_number 12
_symmetry_cell_setting 'monoclinic'
loop_
_space_group_symop_operation_xyz
x,y,z
-x,y,-z
-x,-y,-z
x,-y,z
1/2+x,1/2+y,z
1/2-x,1/2+y,-z
1/2-x,1/2-y,-z
1/2+x,1/2-y,z
loop_
_atom_site_type_symbol
_atom_site_label
_atom_site_fract_x
_atom_site_fract_y
_atom_site_fract_z
Si Si1 0.116593 0.834781 0.567591
Si Si2 0.110633 0.829678 0.990792
Si Si3 0.581256 0.829862 0.687670
Si Si4 0.210012 0.169721 0.092612
Si Si5 0.406897 0.670193 0.770607
Si Si6 0.650929 0.164487 0.450539
Si Si7 0.807574 0.167158 0.668157
O O1 0.060084 0.752735 0.630737
O O2 0.233367 0.831558 0.556578
O O3 0.091228 0.751718 0.512128
O O4 0.077007 0.000000 0.571737
O O5 0.185438 0.752047 0.931773
O O6 0.117586 0.000000 0.976889
O O7 0.139255 0.790776 0.051765
O O8 0.000000 0.771101 0.000000
O O9 0.507812 0.763331 0.750251
O O10 0.691232 0.797676 0.689142
O O11 0.561421 0.000000 0.682354
O O12 0.155317 0.222180 0.161573
O O13 0.234206 0.000000 0.090207
O O14 0.433505 0.500000 0.769493
O O15 0.343386 0.708373 0.725591
O O16 0.632675 0.239264 0.391317
O O17 0.610943 0.000000 0.456157
O O18 0.827591 0.000000 0.648545
#
# Coordination Sequence:
#
# PCOD8097039 Si02
#       7
#     8   8   8   8   8   8   8
#     4   9  16  28  48  72  99 133 170 211 265 321
#     4   9  18  34  56  82 111 140 171 211 257 300
#     4  10  20  34  52  75 102 133 173 219 263 309
#     4   9  19  35  54  78 108 141 176 212 251 301
#     4  10  21  37  54  74 105 142 176 211 255 308
#     4   9  16  27  47  74 100 128 168 218 266 312
#     4   9  19  35  52  71 100 137 173 212 262 317
#
# _framework density 19.784331999999999
#
# number of rings (size 3 to 8) (size 9 to 14) (size 15 to 20)
#    0.000    2.714    0.000    1.286    0.000    6.571 
#    0.000    0.714    0.000    4.286    0.000    0.000 
#    0.000    0.000    0.000    0.000    0.000    0.000 
#
# Total GULP energy -347294.954346 kJ/mol
# GULP energy per Si atom -12403.391227 kJ/mol
# Density = 1.973930 g / cm^3
# Si number density = 19.784332 Si / 1000 Ang^3
#
#
#
# Elastic Constant Matrix: (Units=GPa)
#
#
# Indices 1 2 3 4 5 6 
#
# 1 59.3598 20.3491 29.0292 0.0000 -5.9889 0.0000
# 2 20.3491 81.1781 44.3423 0.0000 -3.7869 0.0000
# 3 29.0292 44.3423 137.2225 0.0000 -8.3702 0.0000
# 4 0.0000 0.0000 0.0000 36.6151 0.0000 -5.4565
# 5 -5.9889 -3.7869 -8.3702 0.0000 25.8530 0.0000
# 6 0.0000 0.0000 0.0000 -5.4565 0.0000 21.0830
#
#
#
# Elastic Compliance Matrix: (Units=1/GPa)
#
#
# Indices 1 2 3 4 5 6 
#
# 1 0.019695 -0.003181 -0.002947 0.000000 0.003142 0.000000
# 2 -0.003181 0.015483 -0.004322 0.000000 0.000132 0.000000
# 3 -0.002947 -0.004322 0.009413 0.000000 0.001732 0.000000
# 4 0.000000 0.000000 0.000000 0.028407 0.000000 0.007352
# 5 0.003142 0.000132 0.001732 0.000000 0.039988 0.000000
# 6 0.000000 0.000000 0.000000 0.007352 0.000000 0.049334
#
#
# Mechanical properties :
#
#
# Convention : Reuss Voigt Hill
#
# Bulk Modulus (GPa) = 42.20950 51.68907 46.94928
# Shear Modulus (GPa) = 26.16190 28.97952 27.57071
#
# Velocity S-wave (km/s) = 3.64036 3.83139 3.73710
# Velocity P-wave (km/s) = 6.24906 6.76429 6.51178
#
# Compressibility (1/GPa) = 0.02369135
#
# Stress axis : x y z
#
# Youngs Moduli (GPa) = 50.77436 64.58675 106.23362
#
# Poissons Ratio (x) = 0.20543 0.31307
# Poissons Ratio (y) = 0.16150 0.45917
# Poissons Ratio (z) = 0.14963 0.27916
#
# Static dielectric constant tensor:
#      x y z
#    x 3.491970 0.000000 -0.022910 
#    y 0.000000 3.590060 0.000000 
#    z -0.022910 0.000000 3.648270 
# 
# 
# High freq. dielectric constant tensor:
#      x y z
#    x 1.768130 0.000000 -0.005350 
#    y 0.000000 1.769310 0.000000 
#    z -0.005350 0.000000 1.768590 
# 
# From -- ./inp_files/338557.got.cif
#   From: 2010.06.25/outbox.cif.g09.slc.cpg/sg12_170_cif.got.tgz:338557.got - 2010.06.28 00:19:55.
