data_PCOD8097057
_publ_section_title
;
Structure prediction by ZEFSAII (Michael W. Deem and Ramdas Pophale) SiO2 
 PCOD8097057
Probable space group: C 2/M
;
_chemical_formula_sum "Si O2"
_cell_formula_units_Z 56
_cell_length_a 14.107799
_cell_length_b 9.347772
_cell_length_c 26.021906
_cell_angle_alpha 90.000000
_cell_angle_beta 56.327249
_cell_angle_gamma 90.000000
_cell_volume 2855.903527
_symmetry_space_group_name_H-M "C 2/M"
_symmetry_group_IT_number 12
_symmetry_cell_setting 'monoclinic'
loop_
_space_group_symop_operation_xyz
x,y,z
-x,y,-z
-x,-y,-z
x,-y,z
1/2+x,1/2+y,z
1/2-x,1/2+y,-z
1/2-x,1/2-y,-z
1/2+x,1/2-y,z
loop_
_atom_site_type_symbol
_atom_site_label
_atom_site_fract_x
_atom_site_fract_y
_atom_site_fract_z
Si Si1 0.323997 0.338670 0.549765
Si Si2 0.245968 0.164037 0.776417
Si Si3 0.586246 0.841998 0.561573
Si Si4 0.101274 0.667240 0.900904
Si Si5 0.788041 0.169218 0.330576
Si Si6 0.346758 0.167484 0.000672
Si Si7 0.501041 0.164190 0.692904
O O1 0.360250 0.500000 0.553008
O O2 0.420730 0.270718 0.483253
O O3 0.206257 0.334427 0.554711
O O4 0.309607 0.244663 0.605620
O O5 0.163171 0.255328 0.836116
O O6 0.232366 0.211740 0.721872
O O7 0.376558 0.189145 0.754290
O O8 0.210791 0.000000 0.793795
O O9 0.492301 0.808766 0.633678
O O10 0.568137 0.000000 0.543585
O O11 0.118312 0.500000 0.888132
O O12 0.154411 0.715025 0.939406
O O13 0.968060 0.706917 0.939234
O O14 0.913576 0.225495 0.306591
O O15 0.781921 0.000000 0.342355
O O16 0.323228 0.000000 0.003017
O O17 0.250000 0.250000 0.000000
O O18 0.542583 0.000000 0.689595
#
# Coordination Sequence:
#
# PCOD8097057 Si02
#       7
#     8   8   8   8   8   8   8
#     4   9  16  27  46  71  98 130 170 217 269 322
#     4  10  22  38  55  78 109 143 180 219 259 309
#     4   8  14  26  46  69  93 126 170 218 267 317
#     4   9  20  38  57  80 113 147 177 213 259 308
#     4  10  20  34  52  75 103 136 176 221 267 317
#     4   9  19  37  60  86 114 144 178 215 256 304
#     4   9  19  36  54  73 101 138 178 219 265 319
#
# _framework density 19.608505000000001
#
# number of rings (size 3 to 8) (size 9 to 14) (size 15 to 20)
#    0.000    2.857    0.000    2.571    0.000    7.429 
#    0.000    7.857    0.000    4.286    0.000    0.000 
#    0.000    0.000    0.000    0.000    0.000    0.000 
#
# Total GULP energy -347164.391050 kJ/mol
# GULP energy per Si atom -12398.728252 kJ/mol
# Density = 1.956388 g / cm^3
# Si number density = 19.608505 Si / 1000 Ang^3
#
#
#
# Elastic Constant Matrix: (Units=GPa)
#
#
# Indices 1 2 3 4 5 6 
#
# 1 60.7838 33.4181 31.0363 0.0000 7.2973 0.0000
# 2 33.4181 92.1363 56.3723 0.0000 8.5995 0.0000
# 3 31.0363 56.3723 121.6772 0.0000 2.7534 0.0000
# 4 0.0000 0.0000 0.0000 40.9231 0.0000 4.2351
# 5 7.2973 8.5995 2.7534 0.0000 18.7934 0.0000
# 6 0.0000 0.0000 0.0000 4.2351 0.0000 26.8745
#
#
#
# Elastic Compliance Matrix: (Units=1/GPa)
#
#
# Indices 1 2 3 4 5 6 
#
# 1 0.021619 -0.005635 -0.002782 0.000000 -0.005409 0.000000
# 2 -0.005635 0.017302 -0.006471 0.000000 -0.004781 0.000000
# 3 -0.002782 -0.006471 0.011874 0.000000 0.002301 0.000000
# 4 0.000000 0.000000 0.000000 0.024841 0.000000 -0.003915
# 5 -0.005409 -0.004781 0.002301 0.000000 0.057161 0.000000
# 6 0.000000 0.000000 0.000000 -0.003915 0.000000 0.037827
#
#
# Mechanical properties :
#
#
# Convention : Reuss Voigt Hill
#
# Bulk Modulus (GPa) = 47.57014 57.36120 52.46567
# Shear Modulus (GPa) = 24.10735 27.56957 25.83846
#
# Velocity S-wave (km/s) = 3.51013 3.75374 3.63398
# Velocity P-wave (km/s) = 6.38284 6.93571 6.66501
#
# Compressibility (1/GPa) = 0.02102159
#
# Stress axis : x y z
#
# Youngs Moduli (GPa) = 46.25511 57.79514 84.21965
#
# Poissons Ratio (x) = 0.32566 0.23426
# Poissons Ratio (y) = 0.26063 0.54496
# Poissons Ratio (z) = 0.12866 0.37397
#
# Static dielectric constant tensor:
#      x y z
#    x 3.623320 0.000000 0.065360 
#    y 0.000000 3.543920 0.000000 
#    z 0.065360 0.000000 3.689570 
# 
# 
# High freq. dielectric constant tensor:
#      x y z
#    x 1.756370 0.000000 -0.003140 
#    y 0.000000 1.760820 0.000000 
#    z -0.003140 0.000000 1.765180 
# 
# From -- ./inp_files/374932.got.cif
#   From: 2010.06.25/outbox.cif.g09.slc.cpg/sg12_188_cif.got.tgz:374932.got - 2010.06.28 00:19:55.
