data_PCOD8097248
_publ_section_title
;
Structure prediction by ZEFSAII (Michael W. Deem and Ramdas Pophale) SiO2 
 PCOD8097248
Probable space group: C 2/M
;
_chemical_formula_sum "Si O2"
_cell_formula_units_Z 64
_cell_length_a 14.045986
_cell_length_b 9.113545
_cell_length_c 30.691171
_cell_angle_alpha 90.000000
_cell_angle_beta 64.484893
_cell_angle_gamma 90.000000
_cell_volume 3545.574739
_symmetry_space_group_name_H-M "C 2/M"
_symmetry_group_IT_number 12
_symmetry_cell_setting 'monoclinic'
loop_
_space_group_symop_operation_xyz
x,y,z
-x,y,-z
-x,-y,-z
x,-y,z
1/2+x,1/2+y,z
1/2-x,1/2+y,-z
1/2-x,1/2-y,-z
1/2+x,1/2-y,z
loop_
_atom_site_type_symbol
_atom_site_label
_atom_site_fract_x
_atom_site_fract_y
_atom_site_fract_z
Si Si1 0.380925 0.670005 0.241546
Si Si2 0.115226 0.330260 0.492093
Si Si3 0.183613 0.670402 0.575530
Si Si4 0.650292 0.830196 0.257972
Si Si5 0.417885 0.170441 0.825660
Si Si6 0.674868 0.329418 0.075291
Si Si7 0.400451 0.169967 0.991575
Si Si8 0.449111 0.670629 0.325104
O O1 0.400272 0.500000 0.226648
O O2 0.265614 0.722078 0.249719
O O3 0.464566 0.763874 0.197677
O O4 0.392144 0.700732 0.290522
O O5 0.135470 0.500000 0.476716
O O6 0.125331 0.300952 0.541405
O O7 0.198675 0.234872 0.448734
O O8 0.000000 0.278862 0.500000
O O9 0.190827 0.500000 0.585581
O O10 0.118050 0.750879 0.625112
O O11 0.638952 0.800714 0.208986
O O12 0.566691 0.735841 0.301646
O O13 0.631040 0.000000 0.273244
O O14 0.346762 0.250241 0.875161
O O15 0.425853 0.000000 0.835505
O O16 0.648954 0.500000 0.084952
O O17 0.796630 0.299623 0.040367
O O18 0.600435 0.263743 0.052364
O O19 0.409720 0.000000 0.976608
O O20 0.500000 0.222452 0.000000
O O21 0.456598 0.500000 0.334608
#
# Coordination Sequence:
#
# PCOD8097248 Si02
#       8
#     8   8   8   8   8   8   8   8
#     4   9  19  36  55  75 101 134 171 209 251 300
#     4   9  19  36  55  74  99 133 171 209 252 302
#     4  10  20  34  53  76 103 133 167 210 254 299
#     4   9  19  36  55  75 101 133 170 211 252 296
#     4  10  20  34  53  76 103 133 167 210 254 297
#     4  10  20  34  53  76 104 136 169 207 251 303
#     4   9  19  36  55  76 103 134 170 212 255 298
#     4  10  20  34  53  76 104 136 169 207 251 303
#
# _framework density 18.05067
#
# number of rings (size 3 to 8) (size 9 to 14) (size 15 to 20)
#    0.000    2.500    0.000    1.500    0.000    5.000 
#    0.000    7.500    0.000    0.000    0.000    0.000 
#    0.000    0.000    0.000    0.000    0.000    0.000 
#
# Total GULP energy -396943.569270 kJ/mol
# GULP energy per Si atom -12404.486540 kJ/mol
# Density = 1.800959 g / cm^3
# Si number density = 18.050670 Si / 1000 Ang^3
#
#
#
# Elastic Constant Matrix: (Units=GPa)
#
#
# Indices 1 2 3 4 5 6 
#
# 1 133.7109 45.4455 38.0333 0.0000 -11.0365 0.0000
# 2 45.4455 95.1408 60.9452 0.0000 -8.6267 0.0000
# 3 38.0333 60.9452 105.3751 0.0000 -10.9722 0.0000
# 4 0.0000 0.0000 0.0000 43.0962 0.0000 -3.9685
# 5 -11.0365 -8.6267 -10.9722 0.0000 14.0544 0.0000
# 6 0.0000 0.0000 0.0000 -3.9685 0.0000 29.1244
#
#
#
# Elastic Compliance Matrix: (Units=1/GPa)
#
#
# Indices 1 2 3 4 5 6 
#
# 1 0.009275 -0.003461 -0.000880 0.000000 0.004472 0.000000
# 2 -0.003461 0.018101 -0.009084 0.000000 0.001301 0.000000
# 3 -0.000880 -0.009084 0.015684 0.000000 0.005977 0.000000
# 4 0.000000 0.000000 0.000000 0.023499 0.000000 0.003202
# 5 0.004472 0.001301 0.005977 0.000000 0.080128 0.000000
# 6 0.000000 0.000000 0.000000 0.003202 0.000000 0.034772
#
#
# Mechanical properties :
#
#
# Convention : Reuss Voigt Hill
#
# Bulk Modulus (GPa) = 61.69538 69.23052 65.46295
# Shear Modulus (GPa) = 23.39592 29.90853 26.65222
#
# Velocity S-wave (km/s) = 3.60408 4.07494 3.84672
# Velocity P-wave (km/s) = 7.18139 7.78312 7.48830
#
# Compressibility (1/GPa) = 0.01620867
#
# Stress axis : x y z
#
# Youngs Moduli (GPa) = 107.82208 55.24531 63.75873
#
# Poissons Ratio (x) = 0.19119 0.05613
# Poissons Ratio (y) = 0.37315 0.57921
# Poissons Ratio (z) = 0.09492 0.50187
#
# Static dielectric constant tensor:
#      x y z
#    x 3.421690 0.000000 -0.023710 
#    y 0.000000 3.416600 0.000000 
#    z -0.023710 0.000000 3.271520 
# 
# 
# High freq. dielectric constant tensor:
#      x y z
#    x 1.700180 0.000000 -0.003240 
#    y 0.000000 1.706490 0.000000 
#    z -0.003240 0.000000 1.699860 
# 
# From -- ./inp_files/375058.got.cif
#   From: 2010.06.25/outbox.cif.g09.slc.cpg/sg12_188_cif.got.tgz:375058.got - 2010.06.28 00:19:55.
