data_PCOD8097762
_publ_section_title
;
Structure prediction by ZEFSAII (Michael W. Deem and Ramdas Pophale) SiO2 
 PCOD8097762
Probable space group: C 2/M
;
_chemical_formula_sum "Si O2"
_cell_formula_units_Z 56
_cell_length_a 19.541332
_cell_length_b 9.102206
_cell_length_c 27.325716
_cell_angle_alpha 90.000000
_cell_angle_beta 141.667493
_cell_angle_gamma 90.000000
_cell_volume 3014.540106
_symmetry_space_group_name_H-M "C 2/M"
_symmetry_group_IT_number 12
_symmetry_cell_setting 'monoclinic'
loop_
_space_group_symop_operation_xyz
x,y,z
-x,y,-z
-x,-y,-z
x,-y,z
1/2+x,1/2+y,z
1/2-x,1/2+y,-z
1/2-x,1/2-y,-z
1/2+x,1/2-y,z
loop_
_atom_site_type_symbol
_atom_site_label
_atom_site_fract_x
_atom_site_fract_y
_atom_site_fract_z
Si Si1 0.626423 0.672793 0.169185
Si Si2 0.602304 0.672169 0.528637
Si Si3 0.323128 0.827927 0.703530
Si Si4 0.133929 0.828054 0.436979
Si Si5 0.748816 0.329667 0.138715
Si Si6 0.564261 0.834864 0.985423
Si Si7 0.996393 0.670095 0.719369
O O1 0.610864 0.500000 0.166276
O O2 0.678170 0.738773 0.247063
O O3 0.709174 0.712330 0.171155
O O4 0.505967 0.743693 0.093380
O O5 0.500000 0.746025 0.500000
O O6 0.603621 0.500000 0.539031
O O7 0.719632 0.732167 0.613835
O O8 0.582749 0.708085 0.461040
O O9 0.433760 0.794667 0.734785
O O10 0.313481 0.000000 0.710339
O O11 0.250000 0.750000 0.500000
O O12 0.050299 0.768543 0.350093
O O13 0.152489 0.000000 0.439463
O O14 0.725562 0.500000 0.115812
O O15 0.682911 0.239456 0.060479
O O16 0.876088 0.288690 0.202970
O O17 0.581201 0.000000 0.975116
O O18 0.500000 0.834145 0.000000
O O19 0.980125 0.500000 0.695748
#
# Coordination Sequence:
#
# PCOD8097762 Si02
#       7
#     8   8   8   8   8   8   8
#     4  10  20  34  54  81 111 141 175 217 272 322
#     4   9  19  35  54  78 107 140 179 222 267 314
#     4  10  20  36  55  75 107 145 180 219 265 316
#     4  11  21  36  58  80 105 142 183 222 268 318
#     4   9  19  35  56  80 110 142 174 220 271 318
#     4   9  17  32  55  82 109 138 178 220 261 315
#     4  10  21  38  56  78 109 144 181 220 267 318
#
# _framework density 18.576630000000002
#
# number of rings (size 3 to 8) (size 9 to 14) (size 15 to 20)
#    0.000    2.286    1.429    1.286    2.000    3.429 
#    0.000    0.714    0.000    2.143    0.000    0.000 
#    0.000    0.000    0.000    0.000    0.000    0.000 
#
# Total GULP energy -347230.909664 kJ/mol
# GULP energy per Si atom -12401.103917 kJ/mol
# Density = 1.853435 g / cm^3
# Si number density = 18.576630 Si / 1000 Ang^3
#
#
#
# Elastic Constant Matrix: (Units=GPa)
#
#
# Indices 1 2 3 4 5 6 
#
# 1 87.4509 30.3947 36.8087 0.0000 18.0863 0.0000
# 2 30.3947 70.2380 34.7145 0.0000 3.9409 0.0000
# 3 36.8087 34.7145 86.8763 0.0000 15.3070 0.0000
# 4 0.0000 0.0000 0.0000 36.6144 0.0000 -6.4476
# 5 18.0863 3.9409 15.3070 0.0000 32.5820 0.0000
# 6 0.0000 0.0000 0.0000 -6.4476 0.0000 20.2836
#
#
#
# Elastic Compliance Matrix: (Units=1/GPa)
#
#
# Indices 1 2 3 4 5 6 
#
# 1 0.016002 -0.004706 -0.003745 0.000000 -0.006555 0.000000
# 2 -0.004706 0.019175 -0.006236 0.000000 0.003223 0.000000
# 3 -0.003745 -0.006236 0.016452 0.000000 -0.004896 0.000000
# 4 0.000000 0.000000 0.000000 0.028931 0.000000 0.009196
# 5 -0.006555 0.003223 -0.004896 0.000000 0.036241 0.000000
# 6 0.000000 0.000000 0.000000 0.009196 0.000000 0.052224
#
#
# Mechanical properties :
#
#
# Convention : Reuss Voigt Hill
#
# Bulk Modulus (GPa) = 44.93291 49.82232 47.37762
# Shear Modulus (GPa) = 24.29339 27.40583 25.84961
#
# Velocity S-wave (km/s) = 3.62019 3.84511 3.73434
# Velocity P-wave (km/s) = 6.45870 6.82578 6.64477
#
# Compressibility (1/GPa) = 0.02225540
#
# Stress axis : x y z
#
# Youngs Moduli (GPa) = 62.49025 52.15089 60.78441
#
# Poissons Ratio (x) = 0.24544 0.22762
# Poissons Ratio (y) = 0.29410 0.37904
# Poissons Ratio (z) = 0.23400 0.32521
#
# Static dielectric constant tensor:
#      x y z
#    x 2.267120 0.000000 1.431590 
#    y 0.000000 3.383910 0.000000 
#    z 1.431590 0.000000 2.281600 
# 
# 
# High freq. dielectric constant tensor:
#      x y z
#    x 1.710250 0.000000 0.003940 
#    y 0.000000 1.710550 0.000000 
#    z 0.003940 0.000000 1.728980 
# 
# From -- ./inp_files/342277.got.cif
#   From: 2010.06.25/outbox.cif.g09.slc.cpg/sg12_172_cif.got.tgz:342277.got - 2010.06.28 00:19:55.
