data_PCOD8097597
_publ_section_title
;
Structure prediction by ZEFSAII (Michael W. Deem and Ramdas Pophale) SiO2 
 PCOD8097597
Probable space group: C 2/M
;
_chemical_formula_sum "Si O2"
_cell_formula_units_Z 64
_cell_length_a 20.118460
_cell_length_b 8.865510
_cell_length_c 19.526954
_cell_angle_alpha 90.000000
_cell_angle_beta 89.447301
_cell_angle_gamma 90.000000
_cell_volume 3482.673445
_symmetry_space_group_name_H-M "C 2/M"
_symmetry_group_IT_number 12
_symmetry_cell_setting 'monoclinic'
loop_
_space_group_symop_operation_xyz
x,y,z
-x,y,-z
-x,-y,-z
x,-y,z
1/2+x,1/2+y,z
1/2-x,1/2+y,-z
1/2-x,1/2-y,-z
1/2+x,1/2-y,z
loop_
_atom_site_type_symbol
_atom_site_label
_atom_site_fract_x
_atom_site_fract_y
_atom_site_fract_z
Si Si1 0.798844 0.676052 0.803578
Si Si2 0.058953 0.175597 0.547430
Si Si3 0.440982 0.175010 0.951442
Si Si4 0.194865 0.675610 0.546573
Si Si5 0.058770 0.825205 0.704381
Si Si6 0.802054 0.821560 0.948168
Si Si7 0.695588 0.176461 0.704835
Si Si8 0.950571 0.328363 0.794146
O O1 0.788384 0.500000 0.819362
O O2 0.783573 0.767219 0.872471
O O3 0.750090 0.730374 0.745139
O O4 0.873877 0.706768 0.777799
O O5 0.123937 0.263905 0.523054
O O6 0.040591 0.211551 0.626077
O O7 0.000000 0.234691 0.500000
O O8 0.072602 0.000000 0.535574
O O9 0.375836 0.271147 0.969289
O O10 0.464650 0.202069 0.873763
O O11 0.423241 0.000000 0.963720
O O12 0.500000 0.230088 0.000000
O O13 0.196803 0.500000 0.533621
O O14 0.250000 0.750000 0.500000
O O15 0.207468 0.716524 0.625513
O O16 0.122110 0.728459 0.728171
O O17 0.995283 0.784278 0.750173
O O18 0.076243 0.000000 0.714129
O O19 0.796956 0.000000 0.951703
O O20 0.750000 0.750000 0.000000
O O21 0.703231 0.000000 0.720113
O O22 0.968570 0.500000 0.774514
#
# Coordination Sequence:
#
# PCOD8097597 Si02
#       8
#     8   8   8   8   8   8   8   8
#     4  10  21  38  58  81 109 141 180 224 271 321
#     4   9  19  36  55  76 104 138 177 222 268 313
#     4   9  19  37  58  79 106 141 181 224 269 315
#     4  10  21  36  55  79 108 142 180 222 267 320
#     4  10  20  34  54  78 106 140 177 219 265 316
#     4  11  22  37  57  81 112 146 182 224 268 318
#     4  10  21  37  56  79 108 142 180 222 270 321
#     4   9  19  35  54  77 107 139 172 217 268 317
#
# _framework density 18.376688000000001
#
# number of rings (size 3 to 8) (size 9 to 14) (size 15 to 20)
#    0.000    2.250    0.000    3.375    0.000    7.000 
#    0.000    7.500    0.000    0.000    0.000    0.000 
#    0.000    0.000    0.000    0.000    0.000    0.000 
#
# Total GULP energy -396928.260319 kJ/mol
# GULP energy per Si atom -12404.008135 kJ/mol
# Density = 1.833486 g / cm^3
# Si number density = 18.376688 Si / 1000 Ang^3
#
#
#
# Elastic Constant Matrix: (Units=GPa)
#
#
# Indices 1 2 3 4 5 6 
#
# 1 138.8908 64.8482 85.5437 0.0000 4.8107 0.0000
# 2 64.8482 94.3343 49.1825 0.0000 -3.5550 0.0000
# 3 85.5437 49.1825 86.1876 0.0000 3.2153 0.0000
# 4 0.0000 0.0000 0.0000 31.2330 0.0000 -2.1940
# 5 4.8107 -3.5550 3.2153 0.0000 41.6666 0.0000
# 6 0.0000 0.0000 0.0000 -2.1940 0.0000 38.1673
#
#
#
# Elastic Compliance Matrix: (Units=1/GPa)
#
#
# Indices 1 2 3 4 5 6 
#
# 1 0.020040 -0.004965 -0.017005 0.000000 -0.001425 0.000000
# 2 -0.004965 0.016481 -0.004564 0.000000 0.002332 0.000000
# 3 -0.017005 -0.004564 0.031116 0.000000 -0.000827 0.000000
# 4 0.000000 0.000000 0.000000 0.032147 0.000000 0.001848
# 5 -0.001425 0.002332 -0.000827 0.000000 0.024427 0.000000
# 6 0.000000 0.000000 0.000000 0.001848 0.000000 0.026307
#
#
# Mechanical properties :
#
#
# Convention : Reuss Voigt Hill
#
# Bulk Modulus (GPa) = 68.63350 79.84017 74.23684
# Shear Modulus (GPa) = 23.98755 30.20259 27.09507
#
# Velocity S-wave (km/s) = 3.61685 4.05844 3.84399
# Velocity P-wave (km/s) = 7.40752 8.09333 7.75801
#
# Compressibility (1/GPa) = 0.01457014
#
# Stress axis : x y z
#
# Youngs Moduli (GPa) = 49.89923 60.67635 32.13831
#
# Poissons Ratio (x) = 0.30123 0.54650
# Poissons Ratio (y) = 0.24773 0.14669
# Poissons Ratio (z) = 0.84851 0.27694
#
# Static dielectric constant tensor:
#      x y z
#    x 3.423400 0.000000 0.057870 
#    y 0.000000 3.423980 0.000000 
#    z 0.057870 0.000000 3.396270 
# 
# 
# High freq. dielectric constant tensor:
#      x y z
#    x 1.718420 0.000000 0.002000 
#    y 0.000000 1.720410 0.000000 
#    z 0.002000 0.000000 1.711080 
# 
# From -- ./inp_files/314215.got.cif
#   From: 2010.06.25/outbox.cif.g09.slc.cpg/sg12_158_cif.got.tgz:314215.got - 2010.06.28 00:19:55.
