data_PCOD8097857
_publ_section_title
;
Structure prediction by ZEFSAII (Michael W. Deem and Ramdas Pophale) SiO2 
 PCOD8097857
Probable space group: C 2/M
;
_chemical_formula_sum "Si O2"
_cell_formula_units_Z 64
_cell_length_a 30.132103
_cell_length_b 9.186005
_cell_length_c 12.182294
_cell_angle_alpha 90.000000
_cell_angle_beta 92.522650
_cell_angle_gamma 90.000000
_cell_volume 3368.713820
_symmetry_space_group_name_H-M "C 2/M"
_symmetry_group_IT_number 12
_symmetry_cell_setting 'monoclinic'
loop_
_space_group_symop_operation_xyz
x,y,z
-x,y,-z
-x,-y,-z
x,-y,z
1/2+x,1/2+y,z
1/2-x,1/2+y,-z
1/2-x,1/2-y,-z
1/2+x,1/2-y,z
loop_
_atom_site_type_symbol
_atom_site_label
_atom_site_fract_x
_atom_site_fract_y
_atom_site_fract_z
Si Si1 0.971286 0.831832 0.735926
Si Si2 0.731336 0.669076 0.662809
Si Si3 0.219031 0.170358 0.910162
Si Si4 0.547368 0.171990 0.053538
Si Si5 0.383048 0.667551 0.086682
Si Si6 0.432486 0.331317 0.309495
Si Si7 0.097202 0.168193 0.461398
Si Si8 0.183425 0.330905 0.469536
O O1 0.946467 0.740189 0.826146
O O2 0.944863 0.812005 0.620846
O O3 0.020516 0.764325 0.724338
O O4 0.973077 0.000000 0.773556
O O5 0.717626 0.500000 0.655021
O O6 0.729834 0.725065 0.787997
O O7 0.780296 0.697235 0.620698
O O8 0.696190 0.757483 0.586506
O O9 0.168314 0.206906 0.935347
O O10 0.228659 0.000000 0.919659
O O11 0.250000 0.250000 0.000000
O O12 0.550720 0.000000 0.061748
O O13 0.500000 0.223036 0.000000
O O14 0.587565 0.228122 0.984231
O O15 0.392990 0.500000 0.056581
O O16 0.394767 0.695904 0.215070
O O17 0.441834 0.500000 0.332953
O O18 0.415944 0.263369 0.421988
O O19 0.138514 0.259175 0.418925
O O20 0.111688 0.000000 0.471582
O O21 0.176337 0.500000 0.491054
#
# Coordination Sequence:
#
# PCOD8097857 Si02
#       8
#     8   8   8   8   8   8   8   8
#     4  10  20  35  58  83 108 146 190 231 273 325
#     4   9  19  38  60  79 107 145 187 231 276 328
#     4  10  22  39  59  85 115 149 188 235 290 340
#     4  11  23  38  56  80 113 149 186 232 287 338
#     4  10  20  36  61  86 108 144 194 238 277 330
#     4   9  17  33  58  83 108 141 185 233 274 320
#     4  10  20  34  54  83 116 146 181 225 276 332
#     4  10  20  34  56  85 112 145 183 223 277 334
#
# _framework density 18.998349000000001
#
# number of rings (size 3 to 8) (size 9 to 14) (size 15 to 20)
#    0.000    2.125    1.250    1.875    0.000    7.000 
#    0.000    5.000    0.000    1.500    0.000    0.000 
#    0.000    0.000    0.000    0.000    0.000    0.000 
#
# Total GULP energy -396906.931345 kJ/mol
# GULP energy per Si atom -12403.341605 kJ/mol
# Density = 1.895511 g / cm^3
# Si number density = 18.998349 Si / 1000 Ang^3
#
#
#
# Elastic Constant Matrix: (Units=GPa)
#
#
# Indices 1 2 3 4 5 6 
#
# 1 111.1647 44.3961 43.5570 0.0000 6.6313 0.0000
# 2 44.3961 61.6151 39.6687 0.0000 -0.7799 0.0000
# 3 43.5570 39.6687 103.6148 0.0000 -5.4454 0.0000
# 4 0.0000 0.0000 0.0000 23.1807 0.0000 3.5096
# 5 6.6313 -0.7799 -5.4454 0.0000 28.7250 0.0000
# 6 0.0000 0.0000 0.0000 3.5096 0.0000 31.3356
#
#
#
# Elastic Compliance Matrix: (Units=1/GPa)
#
#
# Indices 1 2 3 4 5 6 
#
# 1 0.013519 -0.007963 -0.002838 0.000000 -0.003875 0.000000
# 2 -0.007963 0.026257 -0.006637 0.000000 0.001293 0.000000
# 3 -0.002838 -0.006637 0.013545 0.000000 0.003043 0.000000
# 4 0.000000 0.000000 0.000000 0.043883 0.000000 -0.004915
# 5 -0.003875 0.001293 0.003043 0.000000 0.036319 0.000000
# 6 0.000000 0.000000 0.000000 -0.004915 0.000000 0.032463
#
#
# Mechanical properties :
#
#
# Convention : Reuss Voigt Hill
#
# Bulk Modulus (GPa) = 54.21565 59.07090 56.64327
# Shear Modulus (GPa) = 24.15332 26.56645 25.35989
#
# Velocity S-wave (km/s) = 3.56945 3.74352 3.65752
# Velocity P-wave (km/s) = 6.75181 7.06013 6.90769
#
# Compressibility (1/GPa) = 0.01844486
#
# Stress axis : x y z
#
# Youngs Moduli (GPa) = 73.96999 38.08559 73.82745
#
# Poissons Ratio (x) = 0.30327 0.20953
# Poissons Ratio (y) = 0.58901 0.48999
# Poissons Ratio (z) = 0.20994 0.25277
#
# Static dielectric constant tensor:
#      x y z
#    x 3.514160 0.000000 -0.094830 
#    y 0.000000 3.282880 0.000000 
#    z -0.094830 0.000000 3.508220 
# 
# 
# High freq. dielectric constant tensor:
#      x y z
#    x 1.747200 0.000000 -0.004660 
#    y 0.000000 1.716290 0.000000 
#    z -0.004660 0.000000 1.742320 
# 
# From -- ./inp_files/187600.got.cif
#   From: 2010.06.25/outbox.cif.g09.slc.cpg/sg12_94_cif.got.tgz:187600.got - 2010.06.28 00:19:55.
