data_PCOD8097063
_publ_section_title
;
Structure prediction by ZEFSAII (Michael W. Deem and Ramdas Pophale) SiO2 
 PCOD8097063
Probable space group: C 2/M
;
_chemical_formula_sum "Si O2"
_cell_formula_units_Z 64
_cell_length_a 31.467733
_cell_length_b 9.010096
_cell_length_c 25.318841
_cell_angle_alpha 90.000000
_cell_angle_beta 150.176841
_cell_angle_gamma 90.000000
_cell_volume 3570.086190
_symmetry_space_group_name_H-M "C 2/M"
_symmetry_group_IT_number 12
_symmetry_cell_setting 'monoclinic'
loop_
_space_group_symop_operation_xyz
x,y,z
-x,y,-z
-x,-y,-z
x,-y,z
1/2+x,1/2+y,z
1/2-x,1/2+y,-z
1/2-x,1/2-y,-z
1/2+x,1/2-y,z
loop_
_atom_site_type_symbol
_atom_site_label
_atom_site_fract_x
_atom_site_fract_y
_atom_site_fract_z
Si Si1 0.391697 0.325339 0.028799
Si Si2 0.005137 0.325126 0.769145
Si Si3 0.763791 0.826745 0.271563
Si Si4 0.039942 0.673306 0.687321
Si Si5 0.331881 0.675571 0.563055
Si Si6 0.926371 0.673328 0.960747
Si Si7 0.369695 0.673826 0.485091
Si Si8 0.700772 0.173739 0.794996
O O1 0.407200 0.500000 0.051982
O O2 0.439322 0.268502 0.027620
O O3 0.291873 0.283337 0.918132
O O4 0.427079 0.238300 0.116911
O O5 0.992442 0.500000 0.763858
O O6 0.042295 0.286503 0.751620
O O7 0.914909 0.244015 0.680790
O O8 0.663571 0.786956 0.163676
O O9 0.803313 0.769652 0.369274
O O10 0.812560 0.749238 0.275973
O O11 0.778592 0.000000 0.280581
O O12 0.028334 0.500000 0.665971
O O13 0.127701 0.731173 0.755971
O O14 0.960801 0.750926 0.573105
O O15 0.330387 0.500000 0.570853
O O16 0.250000 0.750000 0.500000
O O17 0.331889 0.717965 0.501236
O O18 0.932361 0.500000 0.981907
O O19 0.000000 0.721397 0.000000
O O20 0.384704 0.500000 0.497584
O O21 0.694339 0.000000 0.778627
#
# Coordination Sequence:
#
# PCOD8097063 Si02
#       8
#     8   8   8   8   8   8   8   8
#     4  10  20  34  52  75 104 134 166 209 258 306
#     4  10  20  35  54  75 101 134 172 212 252 299
#     4   9  18  33  51  73 100 130 166 205 247 298
#     4   9  19  35  53  73  99 132 170 209 250 300
#     4  10  20  35  54  77 105 136 170 209 254 302
#     4   9  18  33  53  75 100 133 171 208 248 299
#     4   9  19  34  51  73 103 135 167 207 252 297
#     4   9  19  35  52  73 102 133 165 206 255 302
#
# _framework density 17.926739000000001
#
# number of rings (size 3 to 8) (size 9 to 14) (size 15 to 20)
#    0.000    2.625    0.000    1.125    0.000    4.750 
#    0.000    5.000    0.000    0.000    0.000    0.000 
#    0.000    0.000    0.000    0.000    0.000    0.000 
#
# Total GULP energy -396878.008841 kJ/mol
# GULP energy per Si atom -12402.437776 kJ/mol
# Density = 1.788594 g / cm^3
# Si number density = 17.926739 Si / 1000 Ang^3
#
#
#
# Elastic Constant Matrix: (Units=GPa)
#
#
# Indices 1 2 3 4 5 6 
#
# 1 126.1609 43.4467 74.4201 0.0000 16.5477 0.0000
# 2 43.4467 54.7329 43.5434 0.0000 0.2644 0.0000
# 3 74.4201 43.5434 120.2224 0.0000 -9.6388 0.0000
# 4 0.0000 0.0000 0.0000 32.0388 0.0000 -0.6213
# 5 16.5477 0.2644 -9.6388 0.0000 31.9018 0.0000
# 6 0.0000 0.0000 0.0000 -0.6213 0.0000 30.0868
#
#
#
# Elastic Compliance Matrix: (Units=1/GPa)
#
#
# Indices 1 2 3 4 5 6 
#
# 1 0.016983 -0.006076 -0.009238 0.000000 -0.011550 0.000000
# 2 -0.006076 0.028142 -0.006352 0.000000 0.000999 0.000000
# 3 -0.009238 -0.006352 0.017141 0.000000 0.010024 0.000000
# 4 0.000000 0.000000 0.000000 0.031225 0.000000 0.000645
# 5 -0.011550 0.000999 0.010024 0.000000 0.040358 0.000000
# 6 0.000000 0.000000 0.000000 0.000645 0.000000 0.033250
#
#
# Mechanical properties :
#
#
# Convention : Reuss Voigt Hill
#
# Bulk Modulus (GPa) = 52.81414 69.32628 61.07021
# Shear Modulus (GPa) = 23.06898 28.11923 25.59410
#
# Velocity S-wave (km/s) = 3.59116 3.96481 3.78260
# Velocity P-wave (km/s) = 6.83522 7.72758 7.29506
#
# Compressibility (1/GPa) = 0.01893432
#
# Stress axis : x y z
#
# Youngs Moduli (GPa) = 58.88142 35.53462 58.34019
#
# Poissons Ratio (x) = 0.21590 0.53898
# Poissons Ratio (y) = 0.35774 0.37055
# Poissons Ratio (z) = 0.54398 0.22570
#
# Static dielectric constant tensor:
#      x y z
#    x 3.430720 0.000000 0.009180 
#    y 0.000000 3.304440 0.000000 
#    z 0.009180 0.000000 3.463760 
# 
# 
# High freq. dielectric constant tensor:
#      x y z
#    x 1.694620 0.000000 0.000220 
#    y 0.000000 1.694930 0.000000 
#    z 0.000220 0.000000 1.696720 
# 
# From -- ./inp_files/244200.got.cif
#   From: 2010.06.25/outbox.cif.g09.slc.cpg/sg12_123_cif.got.tgz:244200.got - 2010.06.28 00:19:55.
