data_PCOD8097122
_publ_section_title
;
Structure prediction by ZEFSAII (Michael W. Deem and Ramdas Pophale) SiO2 
 PCOD8097122
Probable space group: C 2/M
;
_chemical_formula_sum "Si O2"
_cell_formula_units_Z 56
_cell_length_a 14.411427
_cell_length_b 9.098961
_cell_length_c 24.035168
_cell_angle_alpha 90.000000
_cell_angle_beta 115.650625
_cell_angle_gamma 90.000000
_cell_volume 2841.108276
_symmetry_space_group_name_H-M "C 2/M"
_symmetry_group_IT_number 12
_symmetry_cell_setting 'monoclinic'
loop_
_space_group_symop_operation_xyz
x,y,z
-x,y,-z
-x,-y,-z
x,-y,z
1/2+x,1/2+y,z
1/2-x,1/2+y,-z
1/2-x,1/2-y,-z
1/2+x,1/2-y,z
loop_
_atom_site_type_symbol
_atom_site_label
_atom_site_fract_x
_atom_site_fract_y
_atom_site_fract_z
Si Si1 0.427497 0.172380 0.723274
Si Si2 0.126310 0.826900 0.816674
Si Si3 0.613187 0.669106 0.509077
Si Si4 0.686565 0.669803 0.404982
Si Si5 0.717988 0.163520 0.937062
Si Si6 0.068404 0.161582 0.065827
Si Si7 0.658665 0.167809 0.181864
O O1 0.534076 0.256786 0.758332
O O2 0.372143 0.233460 0.654958
O O3 0.353613 0.204624 0.756529
O O4 0.449505 0.000000 0.721783
O O5 0.133061 0.754080 0.879969
O O6 0.226634 0.789129 0.806239
O O7 0.109584 0.000000 0.819740
O O8 0.500000 0.718704 0.500000
O O9 0.634022 0.500000 0.531477
O O10 0.623241 0.689308 0.445547
O O11 0.696857 0.771805 0.560524
O O12 0.690415 0.500000 0.387682
O O13 0.815627 0.148601 0.923486
O O14 0.676164 0.000000 0.941224
O O15 0.750000 0.250000 0.000000
O O16 0.069374 0.249019 0.123881
O O17 0.020496 0.000000 0.064637
O O18 0.000000 0.241002 0.000000
O O19 0.636874 0.000000 0.162841
#
# Coordination Sequence:
#
# PCOD8097122 Si02
#       7
#     8   8   8   8   8   8   8
#     4  11  23  39  59  84 116 154 192 234 287 340
#     4  10  21  39  58  78 107 144 188 236 285 340
#     4   9  19  38  63  88 120 159 194 233 281 329
#     4  10  21  37  58  89 121 152 195 237 278 332
#     4  10  20  34  52  77 107 138 176 226 286 346
#     4   9  19  34  52  76 103 133 173 226 285 338
#     4   9  21  39  56  77 106 144 186 230 281 341
#
# _framework density 19.710616999999999
#
# number of rings (size 3 to 8) (size 9 to 14) (size 15 to 20)
#    0.000    2.286    0.000    1.714    2.000    4.571 
#    0.000    5.714    0.000    0.000    0.000    0.000 
#    0.000    0.000    0.000    0.000    0.000    0.000 
#
# Total GULP energy -347185.963604 kJ/mol
# GULP energy per Si atom -12399.498700 kJ/mol
# Density = 1.966576 g / cm^3
# Si number density = 19.710617 Si / 1000 Ang^3
#
#
#
# Elastic Constant Matrix: (Units=GPa)
#
#
# Indices 1 2 3 4 5 6 
#
# 1 90.2444 48.6310 42.8353 0.0000 7.3973 0.0000
# 2 48.6310 116.3756 62.4865 0.0000 4.3969 0.0000
# 3 42.8353 62.4865 129.6671 0.0000 9.0132 0.0000
# 4 0.0000 0.0000 0.0000 37.8607 0.0000 0.3143
# 5 7.3973 4.3969 9.0132 0.0000 21.5341 0.0000
# 6 0.0000 0.0000 0.0000 0.3143 0.0000 24.6267
#
#
#
# Elastic Compliance Matrix: (Units=1/GPa)
#
#
# Indices 1 2 3 4 5 6 
#
# 1 0.015132 -0.004908 -0.002412 0.000000 -0.003186 0.000000
# 2 -0.004908 0.013184 -0.004802 0.000000 0.001004 0.000000
# 3 -0.002412 -0.004802 0.011018 0.000000 -0.002802 0.000000
# 4 0.000000 0.000000 0.000000 0.026415 0.000000 -0.000337
# 5 -0.003186 0.001004 -0.002802 0.000000 0.048501 0.000000
# 6 0.000000 0.000000 0.000000 -0.000337 0.000000 0.040611
#
#
# Mechanical properties :
#
#
# Convention : Reuss Voigt Hill
#
# Bulk Modulus (GPa) = 66.26925 71.57696 68.92311
# Shear Modulus (GPa) = 27.15412 28.95992 28.05702
#
# Velocity S-wave (km/s) = 3.71568 3.83724 3.77695
# Velocity P-wave (km/s) = 7.21820 7.48501 7.35282
#
# Compressibility (1/GPa) = 0.01508995
#
# Stress axis : x y z
#
# Youngs Moduli (GPa) = 66.08574 75.84904 90.76207
#
# Poissons Ratio (x) = 0.37224 0.21895
# Poissons Ratio (y) = 0.32433 0.43583
# Poissons Ratio (z) = 0.15942 0.36422
#
# Static dielectric constant tensor:
#      x y z
#    x 3.692180 0.000000 -0.021500 
#    y 0.000000 3.862690 0.000000 
#    z -0.021500 0.000000 3.538530 
# 
# 
# High freq. dielectric constant tensor:
#      x y z
#    x 1.765980 0.000000 0.002510 
#    y 0.000000 1.775440 0.000000 
#    z 0.002510 0.000000 1.767050 
# 
# From -- ./inp_files/339049.got.cif
#   From: 2010.06.25/outbox.cif.g09.slc.cpg/sg12_170_cif.got.tgz:339049.got - 2010.06.28 00:19:55.
