data_PCOD8097424
_publ_section_title
;
Structure prediction by ZEFSAII (Michael W. Deem and Ramdas Pophale) SiO2 
 PCOD8097424
Probable space group: C 2/M
;
_chemical_formula_sum "Si O2"
_cell_formula_units_Z 56
_cell_length_a 30.957517
_cell_length_b 8.844968
_cell_length_c 17.767787
_cell_angle_alpha 90.000000
_cell_angle_beta 38.127858
_cell_angle_gamma 90.000000
_cell_volume 3003.829707
_symmetry_space_group_name_H-M "C 2/M"
_symmetry_group_IT_number 12
_symmetry_cell_setting 'monoclinic'
loop_
_space_group_symop_operation_xyz
x,y,z
-x,y,-z
-x,-y,-z
x,-y,z
1/2+x,1/2+y,z
1/2-x,1/2+y,-z
1/2-x,1/2-y,-z
1/2+x,1/2-y,z
loop_
_atom_site_type_symbol
_atom_site_label
_atom_site_fract_x
_atom_site_fract_y
_atom_site_fract_z
Si Si1 0.918368 0.821388 0.612806
Si Si2 0.713132 0.668377 0.836850
Si Si3 0.583771 0.177639 0.968146
Si Si4 0.429414 0.177828 0.181034
Si Si5 0.671913 0.675639 0.406814
Si Si6 0.816227 0.679094 0.449876
Si Si7 0.297539 0.829876 0.871761
O O1 0.886576 0.775889 0.574724
O O2 0.871383 0.749147 0.745117
O O3 0.000000 0.766794 0.500000
O O4 0.914151 0.000000 0.631155
O O5 0.715404 0.500000 0.798385
O O6 0.634371 0.728520 0.953279
O O7 0.752060 0.787416 0.730050
O O8 0.746135 0.666366 0.872719
O O9 0.603301 0.218518 0.855091
O O10 0.590459 0.000000 0.976180
O O11 0.506595 0.243962 0.088487
O O12 0.380812 0.240455 0.312880
O O13 0.438312 0.000000 0.172050
O O14 0.666924 0.500000 0.433135
O O15 0.664898 0.769869 0.492313
O O16 0.807936 0.500000 0.458986
O O17 0.750000 0.750000 0.500000
O O18 0.316217 0.000000 0.872912
O O19 0.250000 0.750000 0.000000
#
# Coordination Sequence:
#
# PCOD8097424 Si02
#       7
#     8   8   8   8   8   8   8
#     4   9  19  38  62  84 111 149 189 232 287 342
#     4  10  20  34  53  79 106 134 171 219 268 313
#     4   9  16  32  55  74  97 135 178 213 256 314
#     4   8  17  32  50  72 101 137 174 214 256 305
#     4  10  20  35  55  79 106 142 184 220 265 328
#     4  11  21  34  52  77 110 143 180 224 269 315
#     4  10  21  37  57  82 113 144 182 230 279 335
#
# _framework density 18.642868
#
# number of rings (size 3 to 8) (size 9 to 14) (size 15 to 20)
#    0.000    2.429    0.000    3.429    0.000    3.714 
#    2.571    3.571    0.000    0.000    0.000    0.000 
#    0.000    0.000    0.000    0.000    0.000    0.000 
#
# Total GULP energy -346986.154713 kJ/mol
# GULP energy per Si atom -12392.362668 kJ/mol
# Density = 1.860044 g / cm^3
# Si number density = 18.642868 Si / 1000 Ang^3
#
#
#
# Elastic Constant Matrix: (Units=GPa)
#
#
# Indices 1 2 3 4 5 6 
#
# 1 74.7488 36.4260 54.0257 0.0052 -16.8303 -0.0012
# 2 36.4260 72.3794 45.8402 0.0026 -1.9313 -0.0031
# 3 54.0257 45.8402 135.9996 -0.0052 -0.4203 -0.0005
# 4 0.0052 0.0026 -0.0052 28.0297 0.0012 2.3397
# 5 -16.8303 -1.9313 -0.4203 0.0012 32.4658 0.0005
# 6 -0.0012 -0.0031 -0.0005 2.3397 0.0005 29.0329
#
#
#
# Elastic Compliance Matrix: (Units=1/GPa)
#
#
# Indices 1 2 3 4 5 6 
#
# 1 0.025336 -0.007712 -0.007427 -0.000006 0.012579 0.000000
# 2 -0.007712 0.019944 -0.003668 -0.000001 -0.002859 0.000002
# 3 -0.007427 -0.003668 0.011527 0.000004 -0.003919 -0.000001
# 4 -0.000006 -0.000001 0.000004 0.035918 -0.000004 -0.002895
# 5 0.012579 -0.002859 -0.003919 -0.000004 0.037102 0.000000
# 6 0.000000 0.000002 -0.000001 -0.002895 0.000000 0.034677
#
#
# Mechanical properties :
#
#
# Convention : Reuss Voigt Hill
#
# Bulk Modulus (GPa) = 52.09598 61.74575 56.92086
# Shear Modulus (GPa) = 23.97918 27.69474 25.83696
#
# Velocity S-wave (km/s) = 3.59031 3.85845 3.72679
# Velocity P-wave (km/s) = 6.72249 7.28302 7.00836
#
# Compressibility (1/GPa) = 0.01919534
#
# Stress axis : x y z
#
# Youngs Moduli (GPa) = 39.46927 50.14135 86.75079
#
# Poissons Ratio (x) = 0.38667 0.64426
# Poissons Ratio (y) = 0.30437 0.31817
# Poissons Ratio (z) = 0.29312 0.18390
#
# Static dielectric constant tensor:
#      x y z
#    x 3.409010 -0.000020 0.036920 
#    y -0.000020 3.486570 0.000110 
#    z 0.036920 0.000110 3.533100 
# 
# 
# High freq. dielectric constant tensor:
#      x y z
#    x 1.721410 0.000000 -0.007910 
#    y 0.000000 1.716060 0.000000 
#    z -0.007910 0.000000 1.725790 
# 
# From -- ./inp_files/295099.got.cif
#   From: 2010.06.25/outbox.cif.g09.slc.cpg/sg12_148_cif.got.tgz:295099.got - 2010.06.28 00:19:55.
