data_PCOD8097158
_publ_section_title
;
Structure prediction by ZEFSAII (Michael W. Deem and Ramdas Pophale) SiO2 
 PCOD8097158
Probable space group: C 2/M
;
_chemical_formula_sum "Si O2"
_cell_formula_units_Z 56
_cell_length_a 28.799718
_cell_length_b 24.636781
_cell_length_c 12.545960
_cell_angle_alpha 90.000000
_cell_angle_beta 19.617343
_cell_angle_gamma 90.000000
_cell_volume 2988.649083
_symmetry_space_group_name_H-M "C 2/M"
_symmetry_group_IT_number 12
_symmetry_cell_setting 'monoclinic'
loop_
_space_group_symop_operation_xyz
x,y,z
-x,y,-z
-x,-y,-z
x,-y,z
1/2+x,1/2+y,z
1/2-x,1/2+y,-z
1/2-x,1/2-y,-z
1/2+x,1/2-y,z
loop_
_atom_site_type_symbol
_atom_site_label
_atom_site_fract_x
_atom_site_fract_y
_atom_site_fract_z
Si Si1 0.524576 0.162900 0.324705
Si Si2 0.472122 0.709481 0.685819
Si Si3 0.637988 0.560161 0.635986
Si Si4 0.735330 0.129600 0.250050
Si Si5 0.654142 0.937268 0.629290
Si Si6 0.831793 0.866761 0.626471
Si Si7 0.479595 0.556653 0.663402
O O1 0.500000 0.148535 0.500000
O O2 0.535374 0.226717 0.283293
O O3 0.403492 0.136815 0.517195
O O4 0.667364 0.135672 0.980992
O O5 0.500000 0.694042 0.500000
O O6 0.597294 0.690408 0.493349
O O7 0.327797 0.684662 0.042634
O O8 0.665965 0.500000 0.524330
O O9 0.759666 0.575679 0.452157
O O10 0.620197 0.608649 0.589816
O O11 0.500000 0.557539 0.000000
O O12 0.694874 0.108781 0.455065
O O13 0.830622 0.083404 0.995607
O O14 0.676815 0.000000 0.540233
O O15 0.500000 0.927510 0.000000
O O16 0.889568 0.907271 0.589859
O O17 0.500000 0.540756 0.500000
O O18 0.479487 0.500000 0.730425
#
# Coordination Sequence:
#
# PCOD8097158 Si02
#       7
#     8   8   8   8   8   8   8
#     4  11  22  36  56  83 112 143 184 228 269 321
#     4  10  21  37  57  81 110 146 185 223 270 330
#     4  10  20  35  57  82 105 135 180 228 269 316
#     4  11  20  35  59  80 107 144 184 224 273 324
#     4  10  21  37  56  79 108 143 182 222 270 329
#     4  11  20  34  57  81 109 140 182 231 272 312
#     4  10  20  34  52  78 112 145 175 212 270 339
#
# _framework density 18.737562
#
# number of rings (size 3 to 8) (size 9 to 14) (size 15 to 20)
#    0.000    1.571    0.000    7.714    0.000    3.429 
#    0.000    2.143    0.000   22.286    0.000    0.000 
#    0.000    0.000    0.000    0.000    0.000    0.000 
#
# Total GULP energy -346924.830897 kJ/mol
# GULP energy per Si atom -12390.172532 kJ/mol
# Density = 1.869491 g / cm^3
# Si number density = 18.737562 Si / 1000 Ang^3
#
#
#
# Elastic Constant Matrix: (Units=GPa)
#
#
# Indices 1 2 3 4 5 6 
#
# 1 97.3265 33.5909 32.7415 0.0099 -4.1897 -0.0172
# 2 33.5909 85.2206 30.4960 0.0067 4.1379 -0.0068
# 3 32.7415 30.4960 99.5467 0.0290 -17.3281 -0.0377
# 4 0.0099 0.0067 0.0290 9.4502 -0.0046 17.8023
# 5 -4.1897 4.1379 -17.3281 -0.0046 39.4559 0.0070
# 6 -0.0172 -0.0068 -0.0377 17.8023 0.0070 -29.6835
#
#
#
# Elastic Compliance Matrix: (Units=1/GPa)
#
#
# Indices 1 2 3 4 5 6 
#
# 1 0.012629 -0.003985 -0.002844 0.000002 0.000510 -0.000002
# 2 -0.003985 0.014876 -0.003889 -0.000001 -0.003691 0.000002
# 3 -0.002844 -0.003889 0.013200 -0.000004 0.005903 -0.000015
# 4 0.000002 -0.000001 -0.000004 0.049685 -0.000001 0.029798
# 5 0.000510 -0.003691 0.005903 -0.000001 0.028378 -0.000001
# 6 -0.000002 0.000002 -0.000015 0.029798 -0.000001 -0.015818
#
#
# Mechanical properties :
#
#
# Convention : Reuss Voigt Hill
#
# Bulk Modulus (GPa) = 51.89848 52.86118 52.37983
# Shear Modulus (GPa) = 38.22369 16.19554 27.20962
#
# Velocity S-wave (km/s) = 4.52148 2.94315 3.81483
# Velocity P-wave (km/s) = 7.41728 6.31047 6.88615
#
# Compressibility (1/GPa) = 0.01926839
#
# Stress axis : x y z
#
# Youngs Moduli (GPa) = 79.18453 67.22315 75.75779
#
# Poissons Ratio (x) = 0.26787 0.21547
# Poissons Ratio (y) = 0.31553 0.29463
# Poissons Ratio (z) = 0.22522 0.26144
#
# Static dielectric constant tensor:
#      x y z
#    x 3.413070 -0.000010 -0.374290 
#    y -0.000010 3.527270 0.000010 
#    z -0.374290 0.000010 3.469710 
# 
# 
# High freq. dielectric constant tensor:
#      x y z
#    x 1.727410 0.000000 -0.013540 
#    y 0.000000 1.729950 0.000000 
#    z -0.013540 0.000000 1.735590 
# 
# From -- ./inp_files/185122.got.cif
#   From: 2010.06.25/outbox.cif.g09.slc.cpg/sg12_93_cif.got.tgz:185122.got - 2010.06.28 00:19:55.
