data_PCOD8097883
_publ_section_title
;
Structure prediction by ZEFSAII (Michael W. Deem and Ramdas Pophale) SiO2 
 PCOD8097883
Probable space group: C 2/M
;
_chemical_formula_sum "Si O2"
_cell_formula_units_Z 56
_cell_length_a 23.044833
_cell_length_b 13.525019
_cell_length_c 9.117077
_cell_angle_alpha 90.000000
_cell_angle_beta 86.428275
_cell_angle_gamma 90.000000
_cell_volume 2836.107413
_symmetry_space_group_name_H-M "C 2/M"
_symmetry_group_IT_number 12
_symmetry_cell_setting 'monoclinic'
loop_
_space_group_symop_operation_xyz
x,y,z
-x,y,-z
-x,-y,-z
x,-y,z
1/2+x,1/2+y,z
1/2-x,1/2+y,-z
1/2-x,1/2-y,-z
1/2+x,1/2-y,z
loop_
_atom_site_type_symbol
_atom_site_label
_atom_site_fract_x
_atom_site_fract_y
_atom_site_fract_z
Si Si1 0.941426 0.393711 0.922950
Si Si2 0.671567 0.238253 0.376757
Si Si3 0.001434 0.883502 0.326397
Si Si4 0.606874 0.301391 0.124686
Si Si5 0.111759 0.112466 0.819803
Si Si6 0.284490 0.382468 0.388238
Si Si7 0.440881 0.111414 0.580867
O O1 0.912767 0.500000 0.971051
O O2 0.900303 0.301360 0.965425
O O3 0.954418 0.392330 0.749533
O O4 0.000000 0.377815 0.000000
O O5 0.663372 0.287364 0.217183
O O6 0.691200 0.330297 0.470776
O O7 0.720384 0.154041 0.358349
O O8 0.613206 0.184189 0.445117
O O9 0.054419 0.825509 0.243699
O O10 0.000000 0.860453 0.500000
O O11 0.944065 0.840103 0.253490
O O12 0.010404 0.000000 0.297398
O O13 0.612144 0.382136 0.996585
O O14 0.172753 0.153250 0.748920
O O15 0.108176 0.000000 0.772752
O O16 0.283172 0.500000 0.413760
O O17 0.500000 0.154209 0.500000
O O18 0.427392 0.000000 0.523906
#
# Coordination Sequence:
#
# PCOD8097883 Si02
#       7
#     8   8   8   8   8   8   8
#     4   9  18  31  46  69 104 144 178 209 256 316
#     4  10  22  37  58  83 107 143 188 230 277 335
#     4  10  20  34  54  84 119 150 180 218 272 336
#     4  11  21  33  55  82 112 143 180 230 280 328
#     4  10  21  36  56  82 112 147 183 222 273 330
#     4  10  22  41  60  78 107 146 188 233 279 331
#     4   9  18  33  55  83 113 142 175 221 273 324
#
# _framework density 19.745374000000002
#
# number of rings (size 3 to 8) (size 9 to 14) (size 15 to 20)
#    0.000    2.143    0.000    3.000    0.000   10.286 
#    0.000    0.000    0.000    3.857    0.000    0.000 
#    0.000    0.000    0.000    0.000    0.000    0.000 
#
# Total GULP energy -346997.381100 kJ/mol
# GULP energy per Si atom -12392.763611 kJ/mol
# Density = 1.970043 g / cm^3
# Si number density = 19.745374 Si / 1000 Ang^3
#
#
#
# Elastic Constant Matrix: (Units=GPa)
#
#
# Indices 1 2 3 4 5 6 
#
# 1 131.1079 45.3045 52.5010 0.0000 14.5990 0.0000
# 2 45.3045 73.8726 28.5911 0.0000 6.2094 0.0000
# 3 52.5010 28.5911 85.6918 0.0000 14.6336 0.0000
# 4 0.0000 0.0000 0.0000 21.7046 0.0000 0.0433
# 5 14.5990 6.2094 14.6336 0.0000 28.0057 0.0000
# 6 0.0000 0.0000 0.0000 0.0433 0.0000 16.9967
#
#
#
# Elastic Compliance Matrix: (Units=1/GPa)
#
#
# Indices 1 2 3 4 5 6 
#
# 1 0.011637 -0.004979 -0.005074 0.000000 -0.002311 0.000000
# 2 -0.004979 0.017691 -0.002883 0.000000 0.000179 0.000000
# 3 -0.005074 -0.002883 0.016667 0.000000 -0.005425 0.000000
# 4 0.000000 0.000000 0.000000 0.046074 0.000000 -0.000117
# 5 -0.002311 0.000179 -0.005425 0.000000 0.039706 0.000000
# 6 0.000000 0.000000 0.000000 -0.000117 0.000000 0.058835
#
#
# Mechanical properties :
#
#
# Convention : Reuss Voigt Hill
#
# Bulk Modulus (GPa) = 49.69301 60.38505 55.03903
# Shear Modulus (GPa) = 22.40268 24.29311 23.34790
#
# Velocity S-wave (km/s) = 3.37201 3.51140 3.44241
# Velocity P-wave (km/s) = 6.35469 6.86208 6.61325
#
# Compressibility (1/GPa) = 0.02012356
#
# Stress axis : x y z
#
# Youngs Moduli (GPa) = 85.93470 56.52653 60.00057
#
# Poissons Ratio (x) = 0.28142 0.30443
# Poissons Ratio (y) = 0.42784 0.17298
# Poissons Ratio (z) = 0.43601 0.16296
#
# Static dielectric constant tensor:
#      x y z
#    x 3.221110 0.000000 -0.080080 
#    y 0.000000 4.017340 0.000000 
#    z -0.080080 0.000000 3.385950 
# 
# 
# High freq. dielectric constant tensor:
#      x y z
#    x 1.754770 0.000000 0.015720 
#    y 0.000000 1.785620 0.000000 
#    z 0.015720 0.000000 1.763440 
# 
# From -- ./inp_files/86319.got.cif
#   From: 2010.06.25/outbox.cif.g09.slc.cpg/sg12_44_cif.got.tgz:86319.got - 2010.06.28 00:19:55.
