data_PCOD8097081
_publ_section_title
;
Structure prediction by ZEFSAII (Michael W. Deem and Ramdas Pophale) SiO2 
 PCOD8097081
Probable space group: C 2/M
;
_chemical_formula_sum "Si O2"
_cell_formula_units_Z 56
_cell_length_a 31.739259
_cell_length_b 9.348287
_cell_length_c 20.916471
_cell_angle_alpha 90.000000
_cell_angle_beta 151.931927
_cell_angle_gamma 90.000000
_cell_volume 2920.085455
_symmetry_space_group_name_H-M "C 2/M"
_symmetry_group_IT_number 12
_symmetry_cell_setting 'monoclinic'
loop_
_space_group_symop_operation_xyz
x,y,z
-x,y,-z
-x,-y,-z
x,-y,z
1/2+x,1/2+y,z
1/2-x,1/2+y,-z
1/2-x,1/2-y,-z
1/2+x,1/2-y,z
loop_
_atom_site_type_symbol
_atom_site_label
_atom_site_fract_x
_atom_site_fract_y
_atom_site_fract_z
Si Si1 0.432062 0.335241 0.588446
Si Si2 0.612050 0.167089 0.827442
Si Si3 0.670398 0.334813 0.425924
Si Si4 0.782924 0.165950 0.136917
Si Si5 0.543283 0.333532 0.147342
Si Si6 0.203112 0.164556 0.698183
Si Si7 0.362045 0.330962 0.850708
O O1 0.460695 0.500000 0.638138
O O2 0.516745 0.236027 0.715925
O O3 0.352004 0.293995 0.530931
O O4 0.393890 0.313523 0.465463
O O5 0.650168 0.239059 0.814766
O O6 0.598746 0.000000 0.796393
O O7 0.680218 0.193550 0.977814
O O8 0.696277 0.500000 0.453437
O O9 0.750000 0.250000 0.500000
O O10 0.579323 0.297444 0.265599
O O11 0.798440 0.215268 0.230504
O O12 0.808664 0.000000 0.161613
O O13 0.535993 0.500000 0.123094
O O14 0.612684 0.275941 0.186688
O O15 0.442448 0.274845 0.004587
O O16 0.271885 0.256799 0.750576
O O17 0.232791 0.000000 0.734271
O O18 0.345855 0.500000 0.833056
#
# Coordination Sequence:
#
# PCOD8097081 Si02
#       7
#     8   8   8   8   8   8   8
#     4  10  22  37  55  80 113 149 180 217 271 330
#     4  10  21  38  60  85 108 135 180 229 267 316
#     4  10  20  34  52  75 106 145 185 223 265 314
#     4   9  20  39  60  80 109 145 175 216 274 328
#     4   8  16  31  49  72 102 138 179 223 269 314
#     4  10  21  36  53  78 111 144 176 215 268 327
#     4   9  17  31  52  75 102 138 181 225 267 312
#
# _framework density 19.177520000000001
#
# number of rings (size 3 to 8) (size 9 to 14) (size 15 to 20)
#    0.000    2.571    0.000    2.143    2.000    2.857 
#    0.000    5.000    0.000    0.000    0.000    0.000 
#    0.000    0.000    0.000    0.000    0.000    0.000 
#
# Total GULP energy -347101.813260 kJ/mol
# GULP energy per Si atom -12396.493331 kJ/mol
# Density = 1.913387 g / cm^3
# Si number density = 19.177520 Si / 1000 Ang^3
#
#
#
# Elastic Constant Matrix: (Units=GPa)
#
#
# Indices 1 2 3 4 5 6 
#
# 1 90.0296 41.0778 52.7546 0.0000 -8.7742 0.0000
# 2 41.0778 64.3531 40.8765 0.0000 7.5123 0.0000
# 3 52.7546 40.8765 87.4739 0.0000 -3.9431 0.0000
# 4 0.0000 0.0000 0.0000 29.4791 0.0000 7.7616
# 5 -8.7742 7.5123 -3.9431 0.0000 37.0657 0.0000
# 6 0.0000 0.0000 0.0000 7.7616 0.0000 30.5808
#
#
#
# Elastic Compliance Matrix: (Units=1/GPa)
#
#
# Indices 1 2 3 4 5 6 
#
# 1 0.020199 -0.008502 -0.007954 0.000000 0.005658 0.000000
# 2 -0.008502 0.026900 -0.007817 0.000000 -0.008296 0.000000
# 3 -0.007954 -0.007817 0.019964 0.000000 0.001825 0.000000
# 4 0.000000 0.000000 0.000000 0.036352 0.000000 -0.009226
# 5 0.005658 -0.008296 0.001825 0.000000 0.030194 0.000000
# 6 0.000000 0.000000 0.000000 -0.009226 0.000000 0.035042
#
#
# Mechanical properties :
#
#
# Convention : Reuss Voigt Hill
#
# Bulk Modulus (GPa) = 54.00234 56.80826 55.40530
# Shear Modulus (GPa) = 22.38472 26.56830 24.47651
#
# Velocity S-wave (km/s) = 3.42019 3.72612 3.57643
# Velocity P-wave (km/s) = 6.61946 6.94252 6.78291
#
# Compressibility (1/GPa) = 0.01851771
#
# Stress axis : x y z
#
# Youngs Moduli (GPa) = 49.50860 37.17518 50.09037
#
# Poissons Ratio (x) = 0.31605 0.39840
# Poissons Ratio (y) = 0.42090 0.39156
# Poissons Ratio (z) = 0.39378 0.29060
#
# Static dielectric constant tensor:
#      x y z
#    x 3.447010 0.000000 -0.253260 
#    y 0.000000 3.303220 0.000000 
#    z -0.253260 0.000000 3.860420 
# 
# 
# High freq. dielectric constant tensor:
#      x y z
#    x 1.742250 0.000000 -0.010520 
#    y 0.000000 1.725400 0.000000 
#    z -0.010520 0.000000 1.754440 
# 
# From -- ./inp_files/320271.got.cif
#   From: 2010.06.25/outbox.cif.g09.slc.cpg/sg12_161_cif.got.tgz:320271.got - 2010.06.28 00:19:55.
