data_PCOD8097846
_publ_section_title
;
Structure prediction by ZEFSAII (Michael W. Deem and Ramdas Pophale) SiO2 
 PCOD8097846
Probable space group: C 2/M
;
_chemical_formula_sum "Si O2"
_cell_formula_units_Z 56
_cell_length_a 18.067763
_cell_length_b 18.354892
_cell_length_c 14.164912
_cell_angle_alpha 90.000000
_cell_angle_beta 141.469417
_cell_angle_gamma 90.000000
_cell_volume 2926.246710
_symmetry_space_group_name_H-M "C 2/M"
_symmetry_group_IT_number 12
_symmetry_cell_setting 'monoclinic'
loop_
_space_group_symop_operation_xyz
x,y,z
-x,y,-z
-x,-y,-z
x,-y,z
1/2+x,1/2+y,z
1/2-x,1/2+y,-z
1/2-x,1/2-y,-z
1/2+x,1/2-y,z
loop_
_atom_site_type_symbol
_atom_site_label
_atom_site_fract_x
_atom_site_fract_y
_atom_site_fract_z
Si Si1 0.809169 0.919478 0.964493
Si Si2 0.820532 0.287966 0.653330
Si Si3 0.224550 0.781078 0.764695
Si Si4 0.419863 0.147206 0.333578
Si Si5 0.029544 0.586050 0.253172
Si Si6 0.955443 0.207113 0.058753
Si Si7 0.287992 0.920027 0.923163
O O1 0.925750 0.869638 0.077826
O O2 0.756379 0.916208 0.015062
O O3 0.849065 0.000000 0.975375
O O4 0.707183 0.893637 0.789304
O O5 0.750000 0.250000 0.500000
O O6 0.744761 0.276938 0.672702
O O7 0.850040 0.373565 0.662951
O O8 0.947088 0.248079 0.782946
O O9 0.109571 0.733872 0.681548
O O10 0.212666 0.865426 0.782490
O O11 0.337451 0.755477 0.938040
O O12 0.500000 0.119412 0.500000
O O13 0.489486 0.128905 0.307496
O O14 0.053593 0.500000 0.297981
O O15 0.930309 0.594353 0.071664
O O16 0.000000 0.188870 0.000000
O O17 0.265227 0.000000 0.857108
#
# Coordination Sequence:
#
# PCOD8097846 Si02
#       7
#     8   8   8   8   8   8   8
#     4   9  19  33  53  80 110 141 181 230 276 327
#     4  11  22  37  54  80 114 147 182 230 278 336
#     4  10  20  35  56  80 109 145 185 228 273 332
#     4  10  20  34  54  83 112 144 184 231 283 332
#     4  10  21  35  56  84 112 143 183 233 286 329
#     4   9  19  34  53  76 105 143 188 222 268 325
#     4   9  18  33  55  84 107 136 182 231 276 321
#
# _framework density 19.137142999999998
#
# number of rings (size 3 to 8) (size 9 to 14) (size 15 to 20)
#    0.000    2.286    1.429    2.143    2.000    3.714 
#    0.000    2.143    0.000    0.429    0.000    0.000 
#    0.000    0.000    0.000    0.000    0.000    0.000 
#
# Total GULP energy -347084.883890 kJ/mol
# GULP energy per Si atom -12395.888710 kJ/mol
# Density = 1.909359 g / cm^3
# Si number density = 19.137143 Si / 1000 Ang^3
#
#
#
# Elastic Constant Matrix: (Units=GPa)
#
#
# Indices 1 2 3 4 5 6 
#
# 1 37.8360 42.4996 20.4976 0.0000 0.1664 0.0000
# 2 42.4996 145.3117 38.1610 0.0000 -6.7082 0.0000
# 3 20.4976 38.1610 76.1266 0.0000 -14.6924 0.0000
# 4 0.0000 0.0000 0.0000 21.7179 0.0000 0.7884
# 5 0.1664 -6.7082 -14.6924 0.0000 20.3608 0.0000
# 6 0.0000 0.0000 0.0000 0.7884 0.0000 27.5576
#
#
#
# Elastic Compliance Matrix: (Units=1/GPa)
#
#
# Indices 1 2 3 4 5 6 
#
# 1 0.043113 -0.010960 -0.007993 0.000000 -0.009731 0.000000
# 2 -0.010960 0.010713 -0.001999 0.000000 0.002176 0.000000
# 3 -0.007993 -0.001999 0.018793 0.000000 0.012968 0.000000
# 4 0.000000 0.000000 0.000000 0.046093 0.000000 -0.001319
# 5 -0.009731 0.002176 0.012968 0.000000 0.059268 0.000000
# 6 0.000000 0.000000 0.000000 -0.001319 0.000000 0.036325
#
#
# Mechanical properties :
#
#
# Convention : Reuss Voigt Hill
#
# Bulk Modulus (GPa) = 32.55625 51.28785 41.92205
# Shear Modulus (GPa) = 18.76554 24.46834 21.61694
#
# Velocity S-wave (km/s) = 3.13482 3.57960 3.36457
# Velocity P-wave (km/s) = 5.49107 6.62896 6.08666
#
# Compressibility (1/GPa) = 0.03071607
#
# Stress axis : x y z
#
# Youngs Moduli (GPa) = 23.19485 93.34817 53.21152
#
# Poissons Ratio (x) = 1.02306 0.42530
# Poissons Ratio (y) = 0.25421 0.10637
# Poissons Ratio (z) = 0.18539 0.18661
#
# Static dielectric constant tensor:
#      x y z
#    x 3.386520 0.000000 0.088560 
#    y 0.000000 3.744210 0.000000 
#    z 0.088560 0.000000 3.362130 
# 
# 
# High freq. dielectric constant tensor:
#      x y z
#    x 1.732630 0.000000 -0.006240 
#    y 0.000000 1.752320 0.000000 
#    z -0.006240 0.000000 1.719160 
# 
# From -- ./inp_files/158309.got.cif
#   From: 2010.06.25/outbox.cif.g09.slc.cpg/sg12_80_cif.got.tgz:158309.got - 2010.06.28 00:19:55.
