data_PCOD8097887
_publ_section_title
;
Structure prediction by ZEFSAII (Michael W. Deem and Ramdas Pophale) SiO2 
 PCOD8097887
Probable space group: C 2/M
;
_chemical_formula_sum "Si O2"
_cell_formula_units_Z 64
_cell_length_a 26.663600
_cell_length_b 8.823592
_cell_length_c 14.894455
_cell_angle_alpha 90.000000
_cell_angle_beta 66.000904
_cell_angle_gamma 90.000000
_cell_volume 3201.268002
_symmetry_space_group_name_H-M "C 2/M"
_symmetry_group_IT_number 12
_symmetry_cell_setting 'monoclinic'
loop_
_space_group_symop_operation_xyz
x,y,z
-x,y,-z
-x,-y,-z
x,-y,z
1/2+x,1/2+y,z
1/2-x,1/2+y,-z
1/2-x,1/2-y,-z
1/2+x,1/2-y,z
loop_
_atom_site_type_symbol
_atom_site_label
_atom_site_fract_x
_atom_site_fract_y
_atom_site_fract_z
Si Si1 0.098866 0.321852 0.070219
Si Si2 0.476675 0.822683 0.215143
Si Si3 0.562747 0.329135 0.924768
Si Si4 0.596979 0.335019 0.603374
Si Si5 0.798115 0.320752 0.522890
Si Si6 0.328410 0.319058 0.688911
Si Si7 0.299217 0.321261 0.907714
Si Si8 0.442680 0.335781 0.562401
O O1 0.110237 0.500000 0.060748
O O2 0.143447 0.238324 0.096871
O O3 0.039773 0.279812 0.154221
O O4 0.101047 0.260181 0.966902
O O5 0.434702 0.757496 0.171354
O O6 0.458167 0.745067 0.320593
O O7 0.468365 0.000000 0.225137
O O8 0.584896 0.500000 0.898872
O O9 0.500000 0.327040 0.000000
O O10 0.607252 0.500000 0.642486
O O11 0.648514 0.223020 0.574594
O O12 0.589040 0.364973 0.505667
O O13 0.791985 0.500000 0.532636
O O14 0.750000 0.250000 0.500000
O O15 0.798890 0.257907 0.624917
O O16 0.329406 0.500000 0.674172
O O17 0.295667 0.277138 0.804352
O O18 0.392807 0.259654 0.656101
O O19 0.296665 0.500000 0.922146
O O20 0.250000 0.250000 0.000000
O O21 0.500000 0.243086 0.500000
O O22 0.459668 0.500000 0.592821
#
# Coordination Sequence:
#
# PCOD8097887 Si02
#       8
#     8   8   8   8   8   8   8   8
#     4  10  21  37  58  83 117 157 197 243 304 364
#     4  10  20  34  54  84 122 157 191 239 300 359
#     4   9  17  32  54  80 110 147 194 241 287 345
#     4  10  20  34  55  85 121 154 195 240 283 348
#     4  11  22  40  65  89 120 156 196 245 301 362
#     4   9  20  39  62  89 120 156 199 246 300 356
#     4  11  24  42  64  88 120 158 206 258 304 360
#     4   8  15  29  53  84 116 149 186 230 279 338
#
# _framework density 19.992079
#
# number of rings (size 3 to 8) (size 9 to 14) (size 15 to 20)
#    0.000    2.250    0.000    3.750    1.750    4.000 
#    2.250    0.000    0.000    1.875    0.000    0.000 
#    0.000    0.000    0.000    0.000    0.000    0.000 
#
# Total GULP energy -396478.751013 kJ/mol
# GULP energy per Si atom -12389.960969 kJ/mol
# Density = 1.994658 g / cm^3
# Si number density = 19.992079 Si / 1000 Ang^3
#
#
#
# Elastic Constant Matrix: (Units=GPa)
#
#
# Indices 1 2 3 4 5 6 
#
# 1 102.1048 53.3187 49.1812 0.0000 0.1268 0.0000
# 2 53.3187 105.4963 52.3397 0.0000 -6.6644 0.0000
# 3 49.1812 52.3397 109.3437 0.0000 -12.8752 0.0000
# 4 0.0000 0.0000 0.0000 31.0280 0.0000 1.5768
# 5 0.1268 -6.6644 -12.8752 0.0000 23.8285 0.0000
# 6 0.0000 0.0000 0.0000 1.5768 0.0000 31.1101
#
#
#
# Elastic Compliance Matrix: (Units=1/GPa)
#
#
# Indices 1 2 3 4 5 6 
#
# 1 0.014861 -0.005526 -0.004518 0.000000 -0.004066 0.000000
# 2 -0.005526 0.014488 -0.004238 0.000000 0.001791 0.000000
# 3 -0.004518 -0.004238 0.013958 0.000000 0.006380 0.000000
# 4 0.000000 0.000000 0.000000 0.032312 0.000000 -0.001638
# 5 -0.004066 0.001791 0.006380 0.000000 0.045937 0.000000
# 6 0.000000 0.000000 0.000000 -0.001638 0.000000 0.032227
#
#
# Mechanical properties :
#
#
# Convention : Reuss Voigt Hill
#
# Bulk Modulus (GPa) = 67.83507 69.62490 68.72998
# Shear Modulus (GPa) = 26.70080 28.00034 27.35057
#
# Velocity S-wave (km/s) = 3.65851 3.74648 3.70276
# Velocity P-wave (km/s) = 7.20076 7.32234 7.26180
#
# Compressibility (1/GPa) = 0.01474164
#
# Stress axis : x y z
#
# Youngs Moduli (GPa) = 67.29162 69.02266 71.64592
#
# Poissons Ratio (x) = 0.38144 0.32367
# Poissons Ratio (y) = 0.37187 0.30367
# Poissons Ratio (z) = 0.30400 0.29255
#
# Static dielectric constant tensor:
#      x y z
#    x 3.591290 0.000000 -0.089600 
#    y 0.000000 3.675460 0.000000 
#    z -0.089600 0.000000 3.845500 
# 
# 
# High freq. dielectric constant tensor:
#      x y z
#    x 1.768250 0.000000 0.000460 
#    y 0.000000 1.774500 0.000000 
#    z 0.000460 0.000000 1.780540 
# 
# From -- ./inp_files/243823.got.cif
#   From: 2010.06.25/outbox.cif.g09.slc.cpg/sg12_122_cif.got.tgz:243823.got - 2010.06.28 00:19:55.
