data_PCOD8097791
_publ_section_title
;
Structure prediction by ZEFSAII (Michael W. Deem and Ramdas Pophale) SiO2 
 PCOD8097791
Probable space group: C 2/M
;
_chemical_formula_sum "Si O2"
_cell_formula_units_Z 56
_cell_length_a 22.497781
_cell_length_b 9.023609
_cell_length_c 16.172630
_cell_angle_alpha 90.000000
_cell_angle_beta 119.680382
_cell_angle_gamma 90.000000
_cell_volume 2852.469244
_symmetry_space_group_name_H-M "C 2/M"
_symmetry_group_IT_number 12
_symmetry_cell_setting 'monoclinic'
loop_
_space_group_symop_operation_xyz
x,y,z
-x,y,-z
-x,-y,-z
x,-y,z
1/2+x,1/2+y,z
1/2-x,1/2+y,-z
1/2-x,1/2-y,-z
1/2+x,1/2-y,z
loop_
_atom_site_type_symbol
_atom_site_label
_atom_site_fract_x
_atom_site_fract_y
_atom_site_fract_z
Si Si1 0.203128 0.829431 0.200826
Si Si2 0.583302 0.171173 0.406090
Si Si3 0.301960 0.824799 0.972676
Si Si4 0.843756 0.667812 0.379234
Si Si5 0.415741 0.673042 0.761328
Si Si6 0.055493 0.170680 0.669531
Si Si7 0.070979 0.830035 0.869481
O O1 0.217015 0.725194 0.132502
O O2 0.263692 0.806264 0.308396
O O3 0.132960 0.780003 0.196892
O O4 0.198782 0.000000 0.168234
O O5 0.642345 0.197936 0.514587
O O6 0.607538 0.245261 0.337900
O O7 0.513456 0.238835 0.393832
O O8 0.570021 0.000000 0.379358
O O9 0.294542 0.000000 0.975039
O O10 0.250000 0.750000 0.000000
O O11 0.379378 0.776374 0.045335
O O12 0.865239 0.500000 0.370491
O O13 0.886398 0.779625 0.352909
O O14 0.409904 0.500000 0.737512
O O15 0.493364 0.714201 0.839421
O O16 0.083608 0.196008 0.781207
O O17 0.037691 0.000000 0.642188
O O18 0.086201 0.000000 0.904558
#
# Coordination Sequence:
#
# PCOD8097791 Si02
#       7
#     8   8   8   8   8   8   8
#     4  10  22  41  61  81 111 149 187 228 273 325
#     4  10  20  34  54  81 114 149 185 229 279 329
#     4  12  25  40  60  87 115 144 181 224 276 333
#     4  10  21  35  53  80 113 150 188 228 279 331
#     4   9  20  39  61  84 110 145 189 229 269 324
#     4  10  20  34  55  83 112 145 188 233 277 330
#     4   9  19  37  59  83 112 146 184 227 276 327
#
# _framework density 19.632113
#
# number of rings (size 3 to 8) (size 9 to 14) (size 15 to 20)
#    0.000    2.000    0.000    4.286    0.000   10.286 
#    0.000    2.857    0.000    0.000    0.000    0.000 
#    0.000    0.000    0.000    0.000    0.000    0.000 
#
# Total GULP energy -347319.660192 kJ/mol
# GULP energy per Si atom -12404.273578 kJ/mol
# Density = 1.958743 g / cm^3
# Si number density = 19.632113 Si / 1000 Ang^3
#
#
#
# Elastic Constant Matrix: (Units=GPa)
#
#
# Indices 1 2 3 4 5 6 
#
# 1 115.9172 48.1429 43.9195 0.0000 -3.9106 0.0000
# 2 48.1429 99.8369 51.5015 0.0000 -1.0748 0.0000
# 3 43.9195 51.5015 110.9625 0.0000 9.6659 0.0000
# 4 0.0000 0.0000 0.0000 32.5709 0.0000 -4.1978
# 5 -3.9106 -1.0748 9.6659 0.0000 20.5045 0.0000
# 6 0.0000 0.0000 0.0000 -4.1978 0.0000 27.3668
#
#
#
# Elastic Compliance Matrix: (Units=1/GPa)
#
#
# Indices 1 2 3 4 5 6 
#
# 1 0.011534 -0.003966 -0.003022 0.000000 0.003417 0.000000
# 2 -0.003966 0.014812 -0.005534 0.000000 0.002629 0.000000
# 3 -0.003022 -0.005534 0.013402 0.000000 -0.007184 0.000000
# 4 0.000000 0.000000 0.000000 0.031321 0.000000 0.004804
# 5 0.003417 0.002629 -0.007184 0.000000 0.052946 0.000000
# 6 0.000000 0.000000 0.000000 0.004804 0.000000 0.037278
#
#
# Mechanical properties :
#
#
# Convention : Reuss Voigt Hill
#
# Bulk Modulus (GPa) = 68.00699 68.20493 68.10596
# Shear Modulus (GPa) = 26.14520 28.29862 27.22191
#
# Velocity S-wave (km/s) = 3.65328 3.80076 3.72775
# Velocity P-wave (km/s) = 7.24646 7.35377 7.30031
#
# Compressibility (1/GPa) = 0.01470437
#
# Stress axis : x y z
#
# Youngs Moduli (GPa) = 86.69685 67.51322 74.61323
#
# Poissons Ratio (x) = 0.26778 0.22549
# Poissons Ratio (y) = 0.34387 0.41289
# Poissons Ratio (z) = 0.26201 0.37360
#
# Static dielectric constant tensor:
#      x y z
#    x 3.572450 0.000000 0.088610 
#    y 0.000000 3.578370 0.000000 
#    z 0.088610 0.000000 3.615290 
# 
# 
# High freq. dielectric constant tensor:
#      x y z
#    x 1.760820 0.000000 0.003800 
#    y 0.000000 1.763390 0.000000 
#    z 0.003800 0.000000 1.770570 
# 
# From -- ./inp_files/288479.got.cif
#   From: 2010.06.25/outbox.cif.g09.slc.cpg/sg12_145_cif.got.tgz:288479.got - 2010.06.28 00:19:55.
