data_PCOD8097175
_publ_section_title
;
Structure prediction by ZEFSAII (Michael W. Deem and Ramdas Pophale) SiO2 
 PCOD8097175
Probable space group: C 2/M
;
_chemical_formula_sum "Si O2"
_cell_formula_units_Z 56
_cell_length_a 25.009116
_cell_length_b 9.369736
_cell_length_c 12.525427
_cell_angle_alpha 90.000000
_cell_angle_beta 103.893832
_cell_angle_gamma 90.000000
_cell_volume 2849.195216
_symmetry_space_group_name_H-M "C 2/M"
_symmetry_group_IT_number 12
_symmetry_cell_setting 'monoclinic'
loop_
_space_group_symop_operation_xyz
x,y,z
-x,y,-z
-x,-y,-z
x,-y,z
1/2+x,1/2+y,z
1/2-x,1/2+y,-z
1/2-x,1/2-y,-z
1/2+x,1/2-y,z
loop_
_atom_site_type_symbol
_atom_site_label
_atom_site_fract_x
_atom_site_fract_y
_atom_site_fract_z
Si Si1 0.106999 0.166655 0.795421
Si Si2 0.699853 0.841094 0.931177
Si Si3 0.732197 0.165973 0.341120
Si Si4 0.149332 0.345088 0.129940
Si Si5 0.671857 0.835769 0.526271
Si Si6 0.940387 0.163396 0.992759
Si Si7 0.941164 0.333525 0.421502
O O1 0.165792 0.250395 0.826575
O O2 0.075889 0.184615 0.892332
O O3 0.068455 0.236855 0.687133
O O4 0.118123 0.000000 0.775212
O O5 0.717293 0.000000 0.896004
O O6 0.750000 0.750000 0.000000
O O7 0.660071 0.865902 0.011044
O O8 0.702863 0.215250 0.217402
O O9 0.689303 0.207222 0.414748
O O10 0.789867 0.248007 0.374122
O O11 0.746838 0.000000 0.349166
O O12 0.134043 0.500000 0.173531
O O13 0.098778 0.237497 0.113581
O O14 0.607503 0.801262 0.516036
O O15 0.684460 0.000000 0.554563
O O16 0.939298 0.000000 0.958890
O O17 0.000000 0.230889 0.000000
O O18 0.940866 0.500000 0.387993
O O19 0.000000 0.290748 0.500000
#
# Coordination Sequence:
#
# PCOD8097175 Si02
#       7
#     8   8   8   8   8   8   8
#     4  10  21  37  56  79 108 143 183 226 272 323
#     4  10  20  34  52  79 112 144 177 215 267 327
#     4   9  18  34  54  78 108 138 175 226 274 322
#     4   9  19  33  51  78 107 135 173 217 263 319
#     4   9  19  35  54  77 105 141 181 221 275 332
#     4   9  19  36  55  77 107 141 176 219 268 321
#     4  10  22  39  57  80 111 147 187 232 280 335
#
# _framework density 19.654672000000001
#
# number of rings (size 3 to 8) (size 9 to 14) (size 15 to 20)
#    0.000    2.571    0.000    0.857    2.000    4.000 
#    0.000    1.429    0.000    0.000    0.000    0.000 
#    0.000    0.000    0.000    0.000    0.000    0.000 
#
# Total GULP energy -347072.471498 kJ/mol
# GULP energy per Si atom -12395.445411 kJ/mol
# Density = 1.960994 g / cm^3
# Si number density = 19.654672 Si / 1000 Ang^3
#
#
#
# Elastic Constant Matrix: (Units=GPa)
#
#
# Indices 1 2 3 4 5 6 
#
# 1 89.8506 43.1907 29.5861 0.0000 33.0561 0.0000
# 2 43.1907 106.6300 56.3776 0.0000 25.6702 0.0000
# 3 29.5861 56.3776 108.0636 0.0000 35.3630 0.0000
# 4 0.0000 0.0000 0.0000 32.1751 0.0000 11.3296
# 5 33.0561 25.6702 35.3630 0.0000 35.0019 0.0000
# 6 0.0000 0.0000 0.0000 11.3296 0.0000 24.0539
#
#
#
# Elastic Compliance Matrix: (Units=1/GPa)
#
#
# Indices 1 2 3 4 5 6 
#
# 1 0.018940 -0.005190 0.003182 0.000000 -0.017295 0.000000
# 2 -0.005190 0.014757 -0.006484 0.000000 0.000630 0.000000
# 3 0.003182 -0.006484 0.016721 0.000000 -0.015143 0.000000
# 4 0.000000 0.000000 0.000000 0.037260 0.000000 -0.017550
# 5 -0.017295 0.000630 -0.015143 0.000000 0.059742 0.000000
# 6 0.000000 0.000000 0.000000 -0.017550 0.000000 0.049839
#
#
# Mechanical properties :
#
#
# Convention : Reuss Voigt Hill
#
# Bulk Modulus (GPa) = 29.91016 62.53923 46.22469
# Shear Modulus (GPa) = 22.18406 29.93883 26.06145
#
# Velocity S-wave (km/s) = 3.36325 3.90711 3.64533
# Velocity P-wave (km/s) = 5.50752 7.22787 6.42553
#
# Compressibility (1/GPa) = 0.03343345
#
# Stress axis : x y z
#
# Youngs Moduli (GPa) = 52.79914 67.76355 59.80529
#
# Poissons Ratio (x) = 0.35172 -0.19032
# Poissons Ratio (y) = 0.27405 0.38778
# Poissons Ratio (z) = -0.16802 0.43938
#
# Static dielectric constant tensor:
#      x y z
#    x 3.599060 0.000000 0.062710 
#    y 0.000000 3.779150 0.000000 
#    z 0.062710 0.000000 3.545600 
# 
# 
# High freq. dielectric constant tensor:
#      x y z
#    x 1.757090 0.000000 0.006740 
#    y 0.000000 1.767760 0.000000 
#    z 0.006740 0.000000 1.760960 
# 
# From -- ./inp_files/239000.got.cif
#   From: 2010.06.25/outbox.cif.g09.slc.cpg/sg12_120_cif.got.tgz:239000.got - 2010.06.28 00:19:55.
