data_PCOD8097760
_publ_section_title
;
Structure prediction by ZEFSAII (Michael W. Deem and Ramdas Pophale) SiO2 
 PCOD8097760
Probable space group: C 2/M
;
_chemical_formula_sum "Si O2"
_cell_formula_units_Z 48
_cell_length_a 19.192480
_cell_length_b 8.833339
_cell_length_c 15.918309
_cell_angle_alpha 90.000000
_cell_angle_beta 104.841118
_cell_angle_gamma 90.000000
_cell_volume 2608.660770
_symmetry_space_group_name_H-M "C 2/M"
_symmetry_group_IT_number 12
_symmetry_cell_setting 'monoclinic'
loop_
_space_group_symop_operation_xyz
x,y,z
-x,y,-z
-x,-y,-z
x,-y,z
1/2+x,1/2+y,z
1/2-x,1/2+y,-z
1/2-x,1/2-y,-z
1/2+x,1/2-y,z
loop_
_atom_site_type_symbol
_atom_site_label
_atom_site_fract_x
_atom_site_fract_y
_atom_site_fract_z
Si Si1 0.764989 0.822779 0.593539
Si Si2 0.191146 0.177122 0.726897
Si Si3 0.440591 0.179024 0.222195
Si Si4 0.066460 0.323518 0.967658
Si Si5 0.411865 0.675388 0.727294
Si Si6 0.837106 0.325596 0.854941
O O1 0.750000 0.750000 0.500000
O O2 0.711973 0.747625 0.644312
O O3 0.847917 0.789426 0.642385
O O4 0.748667 0.000000 0.586272
O O5 0.117609 0.250210 0.734205
O O6 0.253227 0.213228 0.815114
O O7 0.179874 0.000000 0.711015
O O8 0.428323 0.246266 0.124094
O O9 0.519009 0.228127 0.279618
O O10 0.432686 0.000000 0.223129
O O11 0.050825 0.500000 0.950986
O O12 0.140971 0.293606 0.041450
O O13 0.000000 0.252022 0.000000
O O14 0.432712 0.500000 0.734484
O O15 0.387522 0.722584 0.812778
O O16 0.853013 0.500000 0.835751
#
# Coordination Sequence:
#
# PCOD8097760 Si02
#       6
#     8   8   8   8   8   8
#     4  10  21  39  63  87 109 137 174 217 267 328
#     4  10  21  36  55  80 113 145 179 225 274 322
#     4  11  21  34  54  78 110 150 187 225 271 319
#     4   9  16  29  51  77 105 142 191 233 264 309
#     4  10  20  34  54  81 111 140 176 222 270 319
#     4   9  17  33  54  75 103 147 191 224 266 319
#
# _framework density 18.400245999999999
#
# number of rings (size 3 to 8) (size 9 to 14) (size 15 to 20)
#    0.000    2.167    1.667    2.000    0.000    3.333 
#    0.000    3.333    0.000    5.000    0.000    0.000 
#    0.000    0.000    0.000    0.000    0.000    0.000 
#
# Total GULP energy -297606.620909 kJ/mol
# GULP energy per Si atom -12400.275871 kJ/mol
# Density = 1.835837 g / cm^3
# Si number density = 18.400246 Si / 1000 Ang^3
#
#
#
# Elastic Constant Matrix: (Units=GPa)
#
#
# Indices 1 2 3 4 5 6 
#
# 1 131.5997 57.0202 62.7920 0.0000 -10.8304 0.0000
# 2 57.0202 82.4913 51.9830 0.0000 -4.9075 0.0000
# 3 62.7920 51.9830 122.1864 0.0000 -0.2845 0.0000
# 4 0.0000 0.0000 0.0000 24.9476 0.0000 -2.3029
# 5 -10.8304 -4.9075 -0.2845 0.0000 21.7003 0.0000
# 6 0.0000 0.0000 0.0000 -2.3029 0.0000 30.7745
#
#
#
# Elastic Compliance Matrix: (Units=1/GPa)
#
#
# Indices 1 2 3 4 5 6 
#
# 1 0.012361 -0.005824 -0.003863 0.000000 0.004801 0.000000
# 2 -0.005824 0.019602 -0.005343 0.000000 0.001456 0.000000
# 3 -0.003863 -0.005343 0.012436 0.000000 -0.002973 0.000000
# 4 0.000000 0.000000 0.000000 0.040363 0.000000 0.003020
# 5 0.004801 0.001456 -0.002973 0.000000 0.048769 0.000000
# 6 0.000000 0.000000 0.000000 0.003020 0.000000 0.032721
#
#
# Mechanical properties :
#
#
# Convention : Reuss Voigt Hill
#
# Bulk Modulus (GPa) = 69.74600 75.54086 72.64343
# Shear Modulus (GPa) = 24.86445 26.44997 25.65721
#
# Velocity S-wave (km/s) = 3.68001 3.79552 3.73821
# Velocity P-wave (km/s) = 7.48624 7.76862 7.62874
#
# Compressibility (1/GPa) = 0.01433774
#
# Stress axis : x y z
#
# Youngs Moduli (GPa) = 80.90148 51.01586 80.41295
#
# Poissons Ratio (x) = 0.29711 0.31066
# Poissons Ratio (y) = 0.47116 0.42965
# Poissons Ratio (z) = 0.31255 0.27258
#
# Static dielectric constant tensor:
#      x y z
#    x 3.411850 0.000000 0.133890 
#    y 0.000000 3.345960 0.000000 
#    z 0.133890 0.000000 3.353380 
# 
# 
# High freq. dielectric constant tensor:
#      x y z
#    x 1.712640 0.000000 0.010550 
#    y 0.000000 1.708390 0.000000 
#    z 0.010550 0.000000 1.702230 
# 
# From -- ./inp_files/221634.got.cif
#   From: 2010.06.25/outbox.cif.g09.slc.cpg/sg12_111_cif.got.tgz:221634.got - 2010.06.28 00:19:55.
