data_PCOD8097256
_publ_section_title
;
Structure prediction by ZEFSAII (Michael W. Deem and Ramdas Pophale) SiO2 
 PCOD8097256
Probable space group: C 2/M
;
_chemical_formula_sum "Si O2"
_cell_formula_units_Z 56
_cell_length_a 12.255994
_cell_length_b 12.610311
_cell_length_c 20.115393
_cell_angle_alpha 90.000000
_cell_angle_beta 75.981769
_cell_angle_gamma 90.000000
_cell_volume 3016.285872
_symmetry_space_group_name_H-M "C 2/M"
_symmetry_group_IT_number 12
_symmetry_cell_setting 'monoclinic'
loop_
_space_group_symop_operation_xyz
x,y,z
-x,y,-z
-x,-y,-z
x,-y,z
1/2+x,1/2+y,z
1/2-x,1/2+y,-z
1/2-x,1/2-y,-z
1/2+x,1/2-y,z
loop_
_atom_site_type_symbol
_atom_site_label
_atom_site_fract_x
_atom_site_fract_y
_atom_site_fract_z
Si Si1 0.925281 0.699929 0.451678
Si Si2 0.964605 0.877343 0.786089
Si Si3 0.808751 0.880538 0.546110
Si Si4 0.202963 0.737102 0.111878
Si Si5 0.223391 0.124089 0.767210
Si Si6 0.886342 0.771984 0.666575
Si Si7 0.870856 0.623784 0.008225
O O1 0.878324 0.814390 0.481714
O O2 0.823799 0.621440 0.450311
O O3 0.000000 0.649558 0.500000
O O4 0.999400 0.716249 0.374992
O O5 0.903841 0.806489 0.850450
O O6 0.913717 0.853020 0.721449
O O7 0.095591 0.848729 0.767791
O O8 0.943912 0.000000 0.806298
O O9 0.827084 0.836828 0.617013
O O10 0.852563 0.000000 0.534649
O O11 0.250199 0.664403 0.163247
O O12 0.165899 0.658351 0.059453
O O13 0.301154 0.815586 0.074641
O O14 0.301922 0.180279 0.701715
O O15 0.248333 0.000000 0.759731
O O16 0.847390 0.500000 0.020388
O O17 0.000000 0.652886 0.000000
#
# Coordination Sequence:
#
# PCOD8097256 Si02
#       7
#     8   8   8   8   8   8   8
#     4   9  20  36  52  76 106 133 168 213 258 307
#     4  10  20  34  53  76 103 136 173 213 256 302
#     4  10  20  35  55  77 102 134 171 211 257 308
#     4  10  20  35  54  77 106 137 172 213 254 302
#     4  10  21  36  54  76 104 138 173 210 255 305
#     4  10  20  35  53  76 104 134 171 213 256 305
#     4  10  20  34  54  79 106 137 172 211 256 303
#
# _framework density 18.565878999999999
#
# number of rings (size 3 to 8) (size 9 to 14) (size 15 to 20)
#    0.000    2.143    0.000    3.000    0.000    4.000 
#    0.000    8.571    0.000   16.286    0.000    0.000 
#    0.000    0.000    0.000    0.000    0.000    0.000 
#
# Total GULP energy -347314.719846 kJ/mol
# GULP energy per Si atom -12404.097137 kJ/mol
# Density = 1.852362 g / cm^3
# Si number density = 18.565879 Si / 1000 Ang^3
#
#
#
# Elastic Constant Matrix: (Units=GPa)
#
#
# Indices 1 2 3 4 5 6 
#
# 1 113.8928 47.8090 34.1455 0.0000 -12.3974 0.0000
# 2 47.8090 96.3059 36.1238 0.0000 -10.4181 0.0000
# 3 34.1455 36.1238 82.0749 0.0000 -17.2576 0.0000
# 4 0.0000 0.0000 0.0000 5.2108 0.0000 17.7315
# 5 -12.3974 -10.4181 -17.2576 0.0000 25.8512 0.0000
# 6 0.0000 0.0000 0.0000 17.7315 0.0000 -1.8664
#
#
#
# Elastic Compliance Matrix: (Units=1/GPa)
#
#
# Indices 1 2 3 4 5 6 
#
# 1 0.011686 -0.004689 -0.002346 0.000000 0.002148 0.000000
# 2 -0.004689 0.014374 -0.004223 0.000000 0.000725 0.000000
# 3 -0.002346 -0.004223 0.016780 0.000000 0.008375 0.000000
# 4 0.000000 0.000000 0.000000 0.005758 0.000000 0.054705
# 5 0.002148 0.000725 0.008375 0.000000 0.045596 0.000000
# 6 0.000000 0.000000 0.000000 0.054705 0.000000 -0.016076
#
#
# Mechanical properties :
#
#
# Convention : Reuss Voigt Hill
#
# Bulk Modulus (GPa) = 49.20598 58.71447 53.96023
# Shear Modulus (GPa) = 46.55165 17.45213 32.00189
#
# Velocity S-wave (km/s) = 5.01280 3.06929 4.15624
# Velocity P-wave (km/s) = 7.75018 6.65239 7.22217
#
# Compressibility (1/GPa) = 0.02032273
#
# Stress axis : x y z
#
# Youngs Moduli (GPa) = 85.57548 69.57153 59.59544
#
# Poissons Ratio (x) = 0.32619 0.13983
# Poissons Ratio (y) = 0.40123 0.25169
# Poissons Ratio (z) = 0.20078 0.29382
#
# Static dielectric constant tensor:
#      x y z
#    x 3.591650 0.000000 -0.028990 
#    y 0.000000 3.283530 0.000000 
#    z -0.028990 0.000000 3.420790 
# 
# 
# High freq. dielectric constant tensor:
#      x y z
#    x 1.736680 0.000000 -0.001650 
#    y 0.000000 1.718380 0.000000 
#    z -0.001650 0.000000 1.726830 
# 
# From -- ./inp_files/304153.got.cif
#   From: 2010.06.25/outbox.cif.g09.slc.cpg/sg12_153_cif.got.tgz:304153.got - 2010.06.28 00:19:55.
