data_PCOD8097285
_publ_section_title
;
Structure prediction by ZEFSAII (Michael W. Deem and Ramdas Pophale) SiO2 
 PCOD8097285
Probable space group: C 2/M
;
_chemical_formula_sum "Si O2"
_cell_formula_units_Z 64
_cell_length_a 26.927752
_cell_length_b 13.974329
_cell_length_c 20.019468
_cell_angle_alpha 90.000000
_cell_angle_beta 29.349277
_cell_angle_gamma 90.000000
_cell_volume 3692.299402
_symmetry_space_group_name_H-M "C 2/M"
_symmetry_group_IT_number 12
_symmetry_cell_setting 'monoclinic'
loop_
_space_group_symop_operation_xyz
x,y,z
-x,y,-z
-x,-y,-z
x,-y,z
1/2+x,1/2+y,z
1/2-x,1/2+y,-z
1/2-x,1/2-y,-z
1/2+x,1/2-y,z
loop_
_atom_site_type_symbol
_atom_site_label
_atom_site_fract_x
_atom_site_fract_y
_atom_site_fract_z
Si Si1 0.674281 0.733628 0.730115
Si Si2 0.924885 0.611224 0.765805
Si Si3 0.389214 0.106266 0.285626
Si Si4 0.993454 0.105832 0.928265
Si Si5 0.145843 0.390982 0.522529
Si Si6 0.693847 0.272356 0.857487
Si Si7 0.111749 0.611676 0.341245
Si Si8 0.376699 0.112389 0.966006
O O1 0.678150 0.831467 0.685124
O O2 0.586536 0.671842 0.797121
O O3 0.776771 0.674739 0.607138
O O4 0.656739 0.761139 0.827856
O O5 0.945272 0.500000 0.754549
O O6 0.872701 0.631870 0.756224
O O7 0.037197 0.655569 0.632141
O O8 0.861063 0.644410 0.906079
O O9 0.336693 0.113864 0.419019
O O10 0.380497 0.000000 0.267447
O O11 0.507557 0.134327 0.149500
O O12 0.004640 0.000000 0.883700
O O13 0.888578 0.149021 0.022497
O O14 0.000000 0.098542 0.000000
O O15 0.157582 0.500000 0.482250
O O16 0.804411 0.321371 0.722862
O O17 0.695349 0.179801 0.904404
O O18 0.132160 0.500000 0.333420
O O19 0.000000 0.639469 0.500000
O O20 0.348875 0.000000 0.009528
#
# Coordination Sequence:
#
# PCOD8097285 Si02
#       8
#     8   8   8   8   8   8   8   8
#     4  11  19  29  46  71 100 135 165 197 242 293
#     4   8  16  32  52  73  97 126 162 205 247 285
#     4   9  18  32  49  70  98 130 169 211 240 276
#     4   9  18  30  42  63  98 133 160 190 235 291
#     4   9  17  30  50  74  98 129 165 201 245 293
#     4  11  21  31  48  73 100 130 166 198 241 295
#     4  10  20  34  53  77 101 123 155 203 251 296
#     4   9  18  34  52  71  97 129 168 207 241 284
#
# _framework density 17.333372000000001
#
# number of rings (size 3 to 8) (size 9 to 14) (size 15 to 20)
#    0.000    2.500    1.250    3.375    0.000    3.500 
#    0.000    1.250    0.000    0.375    0.000    0.875 
#    0.000    0.000    0.000    0.000    0.000    0.000 
#
# Total GULP energy -396608.173342 kJ/mol
# GULP energy per Si atom -12394.005417 kJ/mol
# Density = 1.729392 g / cm^3
# Si number density = 17.333372 Si / 1000 Ang^3
#
#
#
# Elastic Constant Matrix: (Units=GPa)
#
#
# Indices 1 2 3 4 5 6 
#
# 1 63.4058 28.8402 15.8192 0.0000 5.0937 0.0000
# 2 28.8402 69.9503 27.0735 0.0000 4.3831 0.0000
# 3 15.8192 27.0735 63.4776 0.0000 -2.2860 0.0000
# 4 0.0000 0.0000 0.0000 26.4907 0.0000 3.3166
# 5 5.0937 4.3831 -2.2860 0.0000 23.5593 0.0000
# 6 0.0000 0.0000 0.0000 3.3166 0.0000 18.2519
#
#
#
# Elastic Compliance Matrix: (Units=1/GPa)
#
#
# Indices 1 2 3 4 5 6 
#
# 1 0.019790 -0.007199 -0.001974 0.000000 -0.003131 0.000000
# 2 -0.007199 0.020107 -0.006884 0.000000 -0.002852 0.000000
# 3 -0.001974 -0.006884 0.019311 0.000000 0.003581 0.000000
# 4 0.000000 0.000000 0.000000 0.038628 0.000000 -0.007019
# 5 -0.003131 -0.002852 0.003581 0.000000 0.044001 0.000000
# 6 0.000000 0.000000 0.000000 -0.007019 0.000000 0.056064
#
#
# Mechanical properties :
#
#
# Convention : Reuss Voigt Hill
#
# Bulk Modulus (GPa) = 36.91039 37.81106 37.36072
# Shear Modulus (GPa) = 20.91632 22.00044 21.45838
#
# Velocity S-wave (km/s) = 3.47754 3.56652 3.52231
# Velocity P-wave (km/s) = 6.12087 6.23069 6.17602
#
# Compressibility (1/GPa) = 0.02709264
#
# Stress axis : x y z
#
# Youngs Moduli (GPa) = 50.53064 49.73322 51.78446
#
# Poissons Ratio (x) = 0.35803 0.10223
# Poissons Ratio (y) = 0.36377 0.35651
# Poissons Ratio (z) = 0.09976 0.34239
#
# Static dielectric constant tensor:
#      x y z
#    x 3.109690 0.000000 0.098750 
#    y 0.000000 3.081950 0.000000 
#    z 0.098750 0.000000 3.085170 
# 
# 
# High freq. dielectric constant tensor:
#      x y z
#    x 1.659780 0.000000 0.008060 
#    y 0.000000 1.649650 0.000000 
#    z 0.008060 0.000000 1.656970 
# 
# From -- ./inp_files/246368.got.cif
#   From: 2010.06.25/outbox.cif.g09.slc.cpg/sg12_124_cif.got.tgz:246368.got - 2010.06.28 00:19:55.
