data_PCOD8097255
_publ_section_title
;
Structure prediction by ZEFSAII (Michael W. Deem and Ramdas Pophale) SiO2 
 PCOD8097255
Probable space group: C 2/M
;
_chemical_formula_sum "Si O2"
_cell_formula_units_Z 48
_cell_length_a 14.157836
_cell_length_b 8.617544
_cell_length_c 22.567882
_cell_angle_alpha 90.000000
_cell_angle_beta 70.772255
_cell_angle_gamma 90.000000
_cell_volume 2599.818372
_symmetry_space_group_name_H-M "C 2/M"
_symmetry_group_IT_number 12
_symmetry_cell_setting 'monoclinic'
loop_
_space_group_symop_operation_xyz
x,y,z
-x,y,-z
-x,-y,-z
x,-y,z
1/2+x,1/2+y,z
1/2-x,1/2+y,-z
1/2-x,1/2-y,-z
1/2+x,1/2-y,z
loop_
_atom_site_type_symbol
_atom_site_label
_atom_site_fract_x
_atom_site_fract_y
_atom_site_fract_z
Si Si1 0.962845 0.683036 0.069328
Si Si2 0.241226 0.682117 0.831235
Si Si3 0.948187 0.682429 0.827385
Si Si4 0.696936 0.682918 0.596249
Si Si5 0.398273 0.816417 0.493606
Si Si6 0.642397 0.682758 0.738732
O O1 0.968715 0.500000 0.062390
O O2 0.848813 0.732468 0.106390
O O3 0.034541 0.737397 0.108235
O O4 0.000000 0.760712 0.000000
O O5 0.264060 0.500000 0.830291
O O6 0.336793 0.778645 0.831218
O O7 0.211424 0.725178 0.770646
O O8 0.968886 0.500000 0.816623
O O9 0.026065 0.772849 0.769591
O O10 0.687983 0.500000 0.592796
O O11 0.613006 0.756187 0.571060
O O12 0.806260 0.741994 0.553270
O O13 0.677764 0.738296 0.666903
O O14 0.500000 0.747060 0.500000
O O15 0.402848 0.000000 0.491080
O O16 0.656984 0.500000 0.745095
#
# Coordination Sequence:
#
# PCOD8097255 Si02
#       6
#     8   8   8   8   8   8
#     4   8  16  32  52  74 102 135 170 209 252 301
#     4  10  20  34  53  77 105 136 171 210 255 306
#     4  10  20  34  53  76 103 135 172 213 258 306
#     4   9  19  34  51  74 101 130 165 206 250 295
#     4   9  18  33  52  74 101 132 165 201 244 297
#     4  10  20  35  53  74 104 137 173 215 255 300
#
# _framework density 18.462827000000001
#
# number of rings (size 3 to 8) (size 9 to 14) (size 15 to 20)
#    0.000    2.667    0.000    2.500    0.000    3.667 
#    0.000    1.667    0.000   17.000    0.000    0.000 
#    0.000    0.000    0.000    0.000    0.000    0.000 
#
# Total GULP energy -297597.155502 kJ/mol
# GULP energy per Si atom -12399.881479 kJ/mol
# Density = 1.842080 g / cm^3
# Si number density = 18.462827 Si / 1000 Ang^3
#
#
#
# Elastic Constant Matrix: (Units=GPa)
#
#
# Indices 1 2 3 4 5 6 
#
# 1 126.1386 9.0232 54.5525 0.0000 3.4879 0.0000
# 2 9.0232 24.1276 19.4489 0.0000 1.5238 0.0000
# 3 54.5525 19.4489 150.9634 0.0000 2.7202 0.0000
# 4 0.0000 0.0000 0.0000 23.2088 0.0000 2.7332
# 5 3.4879 1.5238 2.7202 0.0000 14.3927 0.0000
# 6 0.0000 0.0000 0.0000 2.7332 0.0000 25.5290
#
#
#
# Elastic Compliance Matrix: (Units=1/GPa)
#
#
# Indices 1 2 3 4 5 6 
#
# 1 0.009448 -0.000786 -0.003284 0.000000 -0.001586 0.000000
# 2 -0.000786 0.046521 -0.005643 0.000000 -0.003668 0.000000
# 3 -0.003284 -0.005643 0.008542 0.000000 -0.000221 0.000000
# 4 0.000000 0.000000 0.000000 0.043637 0.000000 -0.004672
# 5 -0.001586 -0.003668 -0.000221 0.000000 0.070294 0.000000
# 6 0.000000 0.000000 0.000000 -0.004672 0.000000 0.039671
#
#
# Mechanical properties :
#
#
# Convention : Reuss Voigt Hill
#
# Bulk Modulus (GPa) = 22.18079 51.91988 37.05033
# Shear Modulus (GPa) = 19.79656 27.17309 23.48482
#
# Velocity S-wave (km/s) = 3.27806 3.84053 3.57039
# Velocity P-wave (km/s) = 5.13492 6.91727 6.09163
#
# Compressibility (1/GPa) = 0.04508406
#
# Stress axis : x y z
#
# Youngs Moduli (GPa) = 105.83907 21.49575 117.06831
#
# Poissons Ratio (x) = 0.01689 0.38451
# Poissons Ratio (y) = 0.08317 0.66065
# Poissons Ratio (z) = 0.34762 0.12131
#
# Static dielectric constant tensor:
#      x y z
#    x 3.456820 0.000000 -0.023560 
#    y 0.000000 3.211420 0.000000 
#    z -0.023560 0.000000 3.695380 
# 
# 
# High freq. dielectric constant tensor:
#      x y z
#    x 1.718410 0.000000 0.002320 
#    y 0.000000 1.703670 0.000000 
#    z 0.002320 0.000000 1.719500 
# 
# From -- ./inp_files/308308.got.cif
#   From: 2010.06.25/outbox.cif.g09.slc.cpg/sg12_155_cif.got.tgz:308308.got - 2010.06.28 00:19:55.
