data_PCOD8097679
_publ_section_title
;
Structure prediction by ZEFSAII (Michael W. Deem and Ramdas Pophale) SiO2 
 PCOD8097679
Probable space group: C 2/M
;
_chemical_formula_sum "Si O2"
_cell_formula_units_Z 40
_cell_length_a 19.399072
_cell_length_b 9.020138
_cell_length_c 15.797374
_cell_angle_alpha 90.000000
_cell_angle_beta 127.789020
_cell_angle_gamma 90.000000
_cell_volume 2184.519275
_symmetry_space_group_name_H-M "C 2/M"
_symmetry_group_IT_number 12
_symmetry_cell_setting 'monoclinic'
loop_
_space_group_symop_operation_xyz
x,y,z
-x,y,-z
-x,-y,-z
x,-y,z
1/2+x,1/2+y,z
1/2-x,1/2+y,-z
1/2-x,1/2-y,-z
1/2+x,1/2-y,z
loop_
_atom_site_type_symbol
_atom_site_label
_atom_site_fract_x
_atom_site_fract_y
_atom_site_fract_z
Si Si1 0.270216 0.172584 0.384088
Si Si2 0.053917 0.832161 0.781307
Si Si3 0.123304 0.671753 0.369437
Si Si4 0.686733 0.328762 0.016987
Si Si5 0.286400 0.327487 0.223807
O O1 0.175769 0.234297 0.339499
O O2 0.340162 0.205064 0.509856
O O3 0.305795 0.256832 0.329034
O O4 0.260647 0.000000 0.356778
O O5 0.129870 0.796655 0.771433
O O6 0.977202 0.716970 0.708087
O O7 0.020043 0.000000 0.742416
O O8 0.089507 0.813287 0.904664
O O9 0.132931 0.500000 0.353354
O O10 0.713216 0.500000 0.045405
O O11 0.699873 0.249168 0.117633
O O12 0.750000 0.250000 0.000000
O O13 0.266588 0.500000 0.218885
#
# Coordination Sequence:
#
# PCOD8097679 Si02
#       5
#     8   8   8   8   8
#     4  10  21  37  55  75 103 138 173 213 262 311
#     4   9  19  34  53  78 107 138 170 209 257 305
#     4  10  21  36  55  77 102 136 175 214 258 309
#     4   9  17  31  51  76 106 139 172 208 256 307
#     4  10  20  34  54  80 107 137 174 214 257 304
#
# _framework density 18.310665
#
# number of rings (size 3 to 8) (size 9 to 14) (size 15 to 20)
#    0.000    2.400    0.000    3.600    0.000    8.000 
#    0.000    5.000    0.000    6.000    0.000    0.000 
#    0.000    0.000    0.000    0.000    0.000    0.000 
#
# Total GULP energy -247983.734060 kJ/mol
# GULP energy per Si atom -12399.186703 kJ/mol
# Density = 1.826899 g / cm^3
# Si number density = 18.310665 Si / 1000 Ang^3
#
#
#
# Elastic Constant Matrix: (Units=GPa)
#
#
# Indices 1 2 3 4 5 6 
#
# 1 48.7874 32.4857 34.7187 0.0000 12.1902 0.0000
# 2 32.4857 112.0566 48.7533 0.0000 12.5714 0.0000
# 3 34.7187 48.7533 81.3613 0.0000 14.7908 0.0000
# 4 0.0000 0.0000 0.0000 37.7603 0.0000 -1.2443
# 5 12.1902 12.5714 14.7908 0.0000 12.6527 0.0000
# 6 0.0000 0.0000 0.0000 -1.2443 0.0000 32.9464
#
#
#
# Elastic Compliance Matrix: (Units=1/GPa)
#
#
# Indices 1 2 3 4 5 6 
#
# 1 0.034017 -0.003964 -0.008760 0.000000 -0.018594 0.000000
# 2 -0.003964 0.012738 -0.005504 0.000000 -0.002402 0.000000
# 3 -0.008760 -0.005504 0.021332 0.000000 -0.011028 0.000000
# 4 0.000000 0.000000 0.000000 0.026516 0.000000 0.001001
# 5 -0.018594 -0.002402 -0.011028 0.000000 0.112227 0.000000
# 6 0.000000 0.000000 0.000000 0.001001 0.000000 0.030390
#
#
# Mechanical properties :
#
#
# Convention : Reuss Voigt Hill
#
# Bulk Modulus (GPa) = 31.61636 52.68006 42.14821
# Shear Modulus (GPa) = 17.59204 25.08838 21.34021
#
# Velocity S-wave (km/s) = 3.10297 3.70557 3.41758
# Velocity P-wave (km/s) = 5.49017 6.86593 6.21623
#
# Compressibility (1/GPa) = 0.03162920
#
# Stress axis : x y z
#
# Youngs Moduli (GPa) = 29.39736 78.50782 46.87785
#
# Poissons Ratio (x) = 0.31123 0.41065
# Poissons Ratio (y) = 0.11654 0.25803
# Poissons Ratio (z) = 0.25752 0.43213
#
# Static dielectric constant tensor:
#      x y z
#    x 3.044220 0.000000 -0.045020 
#    y 0.000000 3.566080 0.000000 
#    z -0.045020 0.000000 3.651260 
# 
# 
# High freq. dielectric constant tensor:
#      x y z
#    x 1.677500 0.000000 -0.003020 
#    y 0.000000 1.727090 0.000000 
#    z -0.003020 0.000000 1.719260 
# 
# From -- ./inp_files/211457.got.cif
#   From: 2010.06.25/outbox.cif.g09.slc.cpg/sg12_106_cif.got.tgz:211457.got - 2010.06.28 00:19:55.
