data_PCOD8097706
_publ_section_title
;
Structure prediction by ZEFSAII (Michael W. Deem and Ramdas Pophale) SiO2 
 PCOD8097706
Probable space group: C 2/M
;
_chemical_formula_sum "Si O2"
_cell_formula_units_Z 56
_cell_length_a 23.680349
_cell_length_b 14.171597
_cell_length_c 9.150259
_cell_angle_alpha 90.000000
_cell_angle_beta 112.037465
_cell_angle_gamma 90.000000
_cell_volume 2846.369628
_symmetry_space_group_name_H-M "C 2/M"
_symmetry_group_IT_number 12
_symmetry_cell_setting 'monoclinic'
loop_
_space_group_symop_operation_xyz
x,y,z
-x,y,-z
-x,-y,-z
x,-y,z
1/2+x,1/2+y,z
1/2-x,1/2+y,-z
1/2-x,1/2-y,-z
1/2+x,1/2-y,z
loop_
_atom_site_type_symbol
_atom_site_label
_atom_site_fract_x
_atom_site_fract_y
_atom_site_fract_z
Si Si1 0.468359 0.388518 0.211146
Si Si2 0.359264 0.104015 0.118019
Si Si3 0.865129 0.894564 0.343260
Si Si4 0.772813 0.145833 0.009928
Si Si5 0.122058 0.215473 0.062566
Si Si6 0.907108 0.220298 0.636260
Si Si7 0.569896 0.894104 0.527357
O O1 0.473860 0.500000 0.184551
O O2 0.423902 0.366976 0.303694
O O3 0.533523 0.345362 0.310615
O O4 0.441341 0.334465 0.043603
O O5 0.390962 0.142127 0.296067
O O6 0.386211 0.000000 0.101543
O O7 0.287418 0.085514 0.080324
O O8 0.371582 0.180605 0.003609
O O9 0.803510 0.887830 0.189907
O O10 0.859685 0.825279 0.475974
O O11 0.872519 0.000000 0.410419
O O12 0.750000 0.250000 0.000000
O O13 0.823379 0.143899 0.930537
O O14 0.124327 0.226268 0.237649
O O15 0.920494 0.327286 0.602210
O O16 0.500000 0.891337 0.500000
O O17 0.590149 0.000000 0.503230
#
# Coordination Sequence:
#
# PCOD8097706 Si02
#       7
#     8   8   8   8   8   8   8
#     4  10  21  37  56  78 109 151 190 218 258 326
#     4  10  20  39  63  79 101 145 191 224 264 325
#     4  10  20  34  54  80 109 144 185 224 263 318
#     4   9  18  37  58  76 102 140 186 223 259 317
#     4  10  22  35  54  84 114 142 177 229 278 321
#     4  12  21  33  54  82 117 146 174 224 284 328
#     4  10  21  37  58  82 108 142 186 231 270 318
#
# _framework density 19.674185000000001
#
# number of rings (size 3 to 8) (size 9 to 14) (size 15 to 20)
#    0.000    1.857    0.000    6.000    0.000    4.000 
#    0.000    6.429    0.000    7.714    0.000    0.000 
#    0.000    0.000    0.000    0.000    0.000    0.000 
#
# Total GULP energy -347142.018643 kJ/mol
# GULP energy per Si atom -12397.929237 kJ/mol
# Density = 1.962941 g / cm^3
# Si number density = 19.674185 Si / 1000 Ang^3
#
#
#
# Elastic Constant Matrix: (Units=GPa)
#
#
# Indices 1 2 3 4 5 6 
#
# 1 64.3264 25.9670 59.3768 0.0000 10.0381 0.0000
# 2 25.9670 112.9608 46.7400 0.0000 -15.5065 0.0000
# 3 59.3768 46.7400 128.7323 0.0000 -9.9442 0.0000
# 4 0.0000 0.0000 0.0000 57.6568 0.0000 -5.3562
# 5 10.0381 -15.5065 -9.9442 0.0000 36.0288 0.0000
# 6 0.0000 0.0000 0.0000 -5.3562 0.0000 24.1460
#
#
#
# Elastic Compliance Matrix: (Units=1/GPa)
#
#
# Indices 1 2 3 4 5 6 
#
# 1 0.033417 -0.003394 -0.015340 0.000000 -0.015005 0.000000
# 2 -0.003394 0.011217 -0.002106 0.000000 0.005192 0.000000
# 3 -0.015340 -0.002106 0.016214 0.000000 0.007843 0.000000
# 4 0.000000 0.000000 0.000000 0.017709 0.000000 0.003928
# 5 -0.015005 0.005192 0.007843 0.000000 0.036336 0.000000
# 6 0.000000 0.000000 0.000000 0.003928 0.000000 0.042286
#
#
# Mechanical properties :
#
#
# Convention : Reuss Voigt Hill
#
# Bulk Modulus (GPa) = 52.17184 63.35411 57.76297
# Shear Modulus (GPa) = 24.36059 35.16202 29.76131
#
# Velocity S-wave (km/s) = 3.52263 4.23213 3.89357
# Velocity P-wave (km/s) = 6.56663 7.49352 7.04534
#
# Compressibility (1/GPa) = 0.01916743
#
# Stress axis : x y z
#
# Youngs Moduli (GPa) = 29.92455 89.15003 61.67477
#
# Poissons Ratio (x) = 0.30261 0.94610
# Poissons Ratio (y) = 0.10157 0.12989
# Poissons Ratio (z) = 0.45905 0.18775
#
# Static dielectric constant tensor:
#      x y z
#    x 3.748980 0.000000 0.382950 
#    y 0.000000 3.947020 0.000000 
#    z 0.382950 0.000000 3.644140 
# 
# 
# High freq. dielectric constant tensor:
#      x y z
#    x 1.743390 0.000000 0.021720 
#    y 0.000000 1.785690 0.000000 
#    z 0.021720 0.000000 1.763050 
# 
# From -- ./inp_files/96255.got.cif
#   From: 2010.06.25/outbox.cif.g09.slc.cpg/sg12_49_cif.got.tgz:96255.got - 2010.06.28 00:19:55.
