data_PCOD8097242
_publ_section_title
;
Structure prediction by ZEFSAII (Michael W. Deem and Ramdas Pophale) SiO2 
 PCOD8097242
Probable space group: C 2/M
;
_chemical_formula_sum "Si O2"
_cell_formula_units_Z 64
_cell_length_a 9.251262
_cell_length_b 19.913079
_cell_length_c 24.023059
_cell_angle_alpha 90.000000
_cell_angle_beta 54.714529
_cell_angle_gamma 90.000000
_cell_volume 3612.509854
_symmetry_space_group_name_H-M "C 2/M"
_symmetry_group_IT_number 12
_symmetry_cell_setting 'monoclinic'
loop_
_space_group_symop_operation_xyz
x,y,z
-x,y,-z
-x,-y,-z
x,-y,z
1/2+x,1/2+y,z
1/2-x,1/2+y,-z
1/2-x,1/2-y,-z
1/2+x,1/2-y,z
loop_
_atom_site_type_symbol
_atom_site_label
_atom_site_fract_x
_atom_site_fract_y
_atom_site_fract_z
Si Si1 0.419657 0.682735 0.333345
Si Si2 0.216889 0.422250 0.578889
Si Si3 0.816542 0.816008 0.176839
Si Si4 0.181877 0.576413 0.932637
Si Si5 0.520214 0.576413 0.932636
Si Si6 0.152939 0.183991 0.176840
Si Si7 0.080307 0.317264 0.333344
Si Si8 0.953551 0.922250 0.421112
O O1 0.575366 0.667234 0.254799
O O2 0.232188 0.692482 0.345208
O O3 0.462887 0.750000 0.358075
O O4 0.408984 0.620236 0.376816
O O5 0.162832 0.500000 0.593220
O O6 0.309236 0.405170 0.500001
O O7 0.351052 0.404911 0.599299
O O8 0.039432 0.379764 0.623186
O O9 0.834416 0.878802 0.131311
O O10 0.773529 0.749999 0.150981
O O11 0.660237 0.832765 0.254798
O O12 0.997754 0.801408 0.168164
O O13 0.163475 0.500000 0.915465
O O14 0.330063 0.583066 0.946625
O O15 0.228350 0.621197 0.868688
O O16 0.000000 0.602261 0.000000
O O17 0.590132 0.500000 0.915464
O O18 0.500000 0.602260 0.000000
O O19 0.942488 0.000000 0.406781
#
# Coordination Sequence:
#
# PCOD8097242 Si02
#       8
#     8   8   8   8   8   8   8   8
#     4  10  20  34  53  76 102 133 169 208 250 297
#     4   9  19  36  55  75 102 134 166 204 251 299
#     4   9  19  34  51  72  99 130 162 201 246 290
#     4   9  18  33  51  71  97 128 162 200 242 288
#     4   9  18  33  51  71  97 128 162 200 242 288
#     4   9  19  34  51  72  99 130 162 201 246 290
#     4  10  20  34  53  76 102 133 169 208 250 297
#     4   9  19  36  55  75 102 134 166 204 251 299
#
# _framework density 17.716214000000001
#
# number of rings (size 3 to 8) (size 9 to 14) (size 15 to 20)
#    0.000    2.750    0.000    1.500    0.000    5.000 
#    0.000    6.250    0.000    3.000    0.000    0.000 
#    0.000    0.000    0.000    0.000    0.000    0.000 
#
# Total GULP energy -396875.425087 kJ/mol
# GULP energy per Si atom -12402.357034 kJ/mol
# Density = 1.767589 g / cm^3
# Si number density = 17.716214 Si / 1000 Ang^3
#
#
#
# Elastic Constant Matrix: (Units=GPa)
#
#
# Indices 1 2 3 4 5 6 
#
# 1 69.2911 55.5655 48.4369 0.0002 2.1130 -0.0003
# 2 55.5655 110.8941 72.3978 0.0001 0.8688 -0.0001
# 3 48.4369 72.3978 89.3061 0.0004 -1.0788 -0.0003
# 4 0.0002 0.0001 0.0004 33.1247 -0.0002 -0.0838
# 5 2.1130 0.8688 -1.0788 -0.0002 30.7409 0.0002
# 6 -0.0003 -0.0001 -0.0003 -0.0838 0.0002 34.7563
#
#
#
# Elastic Compliance Matrix: (Units=1/GPa)
#
#
# Indices 1 2 3 4 5 6 
#
# 1 0.026469 -0.008202 -0.007729 0.000000 -0.001859 0.000000
# 2 -0.008202 0.021734 -0.013177 0.000000 -0.000513 0.000000
# 3 -0.007729 -0.013177 0.026093 0.000000 0.001819 0.000000
# 4 0.000000 0.000000 0.000000 0.030189 0.000000 0.000073
# 5 -0.001859 -0.000513 0.001819 0.000000 0.032736 0.000000
# 6 0.000000 0.000000 0.000000 0.000073 0.000000 0.028772
#
#
# Mechanical properties :
#
#
# Convention : Reuss Voigt Hill
#
# Bulk Modulus (GPa) = 62.18776 69.14353 65.66564
# Shear Modulus (GPa) = 21.77993 25.93046 23.85520
#
# Velocity S-wave (km/s) = 3.51005 3.82993 3.67347
# Velocity P-wave (km/s) = 7.18371 7.65969 7.42552
#
# Compressibility (1/GPa) = 0.01608034
#
# Stress axis : x y z
#
# Youngs Moduli (GPa) = 37.78012 46.01116 38.32396
#
# Poissons Ratio (x) = 0.37739 0.29621
# Poissons Ratio (y) = 0.30988 0.50498
# Poissons Ratio (z) = 0.29201 0.60627
#
# Static dielectric constant tensor:
#      x y z
#    x 3.236570 0.000000 0.003320 
#    y 0.000000 3.326480 0.000000 
#    z 0.003320 0.000000 3.300830 
# 
# 
# High freq. dielectric constant tensor:
#      x y z
#    x 1.685430 0.000000 -0.000120 
#    y 0.000000 1.687650 0.000000 
#    z -0.000120 0.000000 1.683030 
# 
# From -- ./inp_files/333714.got.cif
#   From: 2010.06.25/outbox.cif.g09.slc.cpg/sg12_167_cif.got.tgz:333714.got - 2010.06.28 00:19:55.
