data_PCOD8097371
_publ_section_title
;
Structure prediction by ZEFSAII (Michael W. Deem and Ramdas Pophale) SiO2 
 PCOD8097371
Probable space group: C 2/M
;
_chemical_formula_sum "Si O2"
_cell_formula_units_Z 64
_cell_length_a 28.796746
_cell_length_b 8.622049
_cell_length_c 13.965820
_cell_angle_alpha 90.000000
_cell_angle_beta 104.998815
_cell_angle_gamma 90.000000
_cell_volume 3349.396232
_symmetry_space_group_name_H-M "C 2/M"
_symmetry_group_IT_number 12
_symmetry_cell_setting 'monoclinic'
loop_
_space_group_symop_operation_xyz
x,y,z
-x,y,-z
-x,-y,-z
x,-y,z
1/2+x,1/2+y,z
1/2-x,1/2+y,-z
1/2-x,1/2-y,-z
1/2+x,1/2-y,z
loop_
_atom_site_type_symbol
_atom_site_label
_atom_site_fract_x
_atom_site_fract_y
_atom_site_fract_z
Si Si1 0.552702 0.683717 0.833293
Si Si2 0.817409 0.183819 0.417946
Si Si3 0.264009 0.684076 0.109430
Si Si4 0.645264 0.817554 0.365033
Si Si5 0.276114 0.316173 0.723903
Si Si6 0.056599 0.818237 0.228318
Si Si7 0.862771 0.817100 0.249614
Si Si8 0.556925 0.827026 0.032190
O O1 0.553700 0.500000 0.844787
O O2 0.498250 0.738641 0.783784
O O3 0.586842 0.746394 0.765701
O O4 0.574815 0.753112 0.942611
O O5 0.836894 0.242113 0.528034
O O6 0.766167 0.259815 0.368735
O O7 0.855543 0.234589 0.355911
O O8 0.810023 0.000000 0.415819
O O9 0.260056 0.500000 0.107250
O O10 0.228438 0.749508 0.171538
O O11 0.317856 0.742482 0.162555
O O12 0.250000 0.750000 0.000000
O O13 0.673981 0.745899 0.291425
O O14 0.589304 0.774641 0.321121
O O15 0.652672 0.000000 0.374076
O O16 0.276741 0.500000 0.727944
O O17 0.073821 0.778314 0.129843
O O18 0.062353 0.000000 0.249522
O O19 0.863857 0.000000 0.243824
O O20 0.578420 0.000000 0.055244
O O21 0.500000 0.832337 0.000000
#
# Coordination Sequence:
#
# PCOD8097371 Si02
#       8
#     8   8   8   8   8   8   8   8
#     4   9  17  33  56  79 104 140 185 225 264 315
#     4  10  20  38  60  82 108 138 177 222 270 325
#     4  10  20  36  56  82 117 152 186 225 269 317
#     4  12  24  38  56  79 108 141 178 223 276 328
#     4  11  22  38  59  83 110 142 181 222 270 327
#     4  10  20  34  53  78 107 139 179 227 273 318
#     4   8  17  34  57  80 104 139 181 222 262 314
#     4   9  17  30  48  72 104 140 175 215 264 314
#
# _framework density 19.107921000000001
#
# number of rings (size 3 to 8) (size 9 to 14) (size 15 to 20)
#    0.000    2.125    0.000    4.875    0.000    3.000 
#    0.000    8.125    0.000    3.750    0.000    0.000 
#    0.000    0.000    0.000    0.000    0.000    0.000 
#
# Total GULP energy -396791.436364 kJ/mol
# GULP energy per Si atom -12399.732386 kJ/mol
# Density = 1.906443 g / cm^3
# Si number density = 19.107921 Si / 1000 Ang^3
#
#
#
# Elastic Constant Matrix: (Units=GPa)
#
#
# Indices 1 2 3 4 5 6 
#
# 1 102.5161 33.7339 55.1828 0.0000 -14.6774 0.0000
# 2 33.7339 110.2680 52.4886 0.0000 -0.9742 0.0000
# 3 55.1828 52.4886 136.9892 0.0000 -1.9646 0.0000
# 4 0.0000 0.0000 0.0000 34.0039 0.0000 2.9022
# 5 -14.6774 -0.9742 -1.9646 0.0000 25.5609 0.0000
# 6 0.0000 0.0000 0.0000 2.9022 0.0000 22.5734
#
#
#
# Elastic Compliance Matrix: (Units=1/GPa)
#
#
# Indices 1 2 3 4 5 6 
#
# 1 0.014082 -0.001948 -0.004817 0.000000 0.007642 0.000000
# 2 -0.001948 0.011361 -0.003582 0.000000 -0.000961 0.000000
# 3 -0.004817 -0.003582 0.010583 0.000000 -0.002089 0.000000
# 4 0.000000 0.000000 0.000000 0.029735 0.000000 -0.003823
# 5 0.007642 -0.000961 -0.002089 0.000000 0.043313 0.000000
# 6 0.000000 0.000000 0.000000 -0.003823 0.000000 0.044792
#
#
# Mechanical properties :
#
#
# Convention : Reuss Voigt Hill
#
# Bulk Modulus (GPa) = 65.22030 70.28709 67.75369
# Shear Modulus (GPa) = 27.82864 30.31884 29.07374
#
# Velocity S-wave (km/s) = 3.82041 3.98768 3.90494
# Velocity P-wave (km/s) = 7.32581 7.62012 7.47441
#
# Compressibility (1/GPa) = 0.01533265
#
# Stress axis : x y z
#
# Youngs Moduli (GPa) = 71.01047 88.01678 94.49241
#
# Poissons Ratio (x) = 0.17144 0.45516
# Poissons Ratio (y) = 0.13831 0.33851
# Poissons Ratio (z) = 0.34205 0.31531
#
# Static dielectric constant tensor:
#      x y z
#    x 3.744680 0.000000 -0.168250 
#    y 0.000000 3.492290 0.000000 
#    z -0.168250 0.000000 3.531130 
# 
# 
# High freq. dielectric constant tensor:
#      x y z
#    x 1.736510 0.000000 -0.005060 
#    y 0.000000 1.743190 0.000000 
#    z -0.005060 0.000000 1.741720 
# 
# From -- ./inp_files/244019.got.cif
#   From: 2010.06.25/outbox.cif.g09.slc.cpg/sg12_123_cif.got.tgz:244019.got - 2010.06.28 00:19:55.
