data_PCOD8097061
_publ_section_title
;
Structure prediction by ZEFSAII (Michael W. Deem and Ramdas Pophale) SiO2 
 PCOD8097061
Probable space group: C 2/M
;
_chemical_formula_sum "Si O2"
_cell_formula_units_Z 48
_cell_length_a 19.597058
_cell_length_b 8.839426
_cell_length_c 21.207670
_cell_angle_alpha 90.000000
_cell_angle_beta 133.888392
_cell_angle_gamma 90.000000
_cell_volume 2647.630325
_symmetry_space_group_name_H-M "C 2/M"
_symmetry_group_IT_number 12
_symmetry_cell_setting 'monoclinic'
loop_
_space_group_symop_operation_xyz
x,y,z
-x,y,-z
-x,-y,-z
x,-y,z
1/2+x,1/2+y,z
1/2-x,1/2+y,-z
1/2-x,1/2-y,-z
1/2+x,1/2-y,z
loop_
_atom_site_type_symbol
_atom_site_label
_atom_site_fract_x
_atom_site_fract_y
_atom_site_fract_z
Si Si1 0.486194 0.676434 0.753164
Si Si2 0.648424 0.178216 0.426356
Si Si3 0.644069 0.323446 0.756079
Si Si4 0.990747 0.321257 0.423342
Si Si5 0.858816 0.320011 0.909565
Si Si6 0.998366 0.179410 0.092351
O O1 0.463119 0.500000 0.732294
O O2 0.396776 0.766697 0.668272
O O3 0.581243 0.720531 0.776431
O O4 0.501691 0.725367 0.834819
O O5 0.750000 0.250000 0.500000
O O6 0.581666 0.232272 0.441285
O O7 0.659338 0.000000 0.431767
O O8 0.640916 0.500000 0.740279
O O9 0.605176 0.242047 0.668762
O O10 0.750111 0.268618 0.837542
O O11 0.982641 0.500000 0.418790
O O12 0.000000 0.256608 0.500000
O O13 0.871096 0.500000 0.919535
O O14 0.909933 0.254007 0.880704
O O15 0.903542 0.247535 0.000946
O O16 0.000568 0.000000 0.083465
#
# Coordination Sequence:
#
# PCOD8097061 Si02
#       6
#     8   8   8   8   8   8
#     4   9  19  36  54  73 100 132 168 209 248 293
#     4  10  20  34  53  76 102 133 167 205 250 297
#     4   9  19  35  53  74 100 131 166 204 249 296
#     4   9  19  35  53  74 100 130 166 206 246 291
#     4  10  20  34  52  75 104 133 164 206 251 297
#     4  10  20  34  53  75 100 133 170 206 247 295
#
# _framework density 18.129418999999999
#
# number of rings (size 3 to 8) (size 9 to 14) (size 15 to 20)
#    0.000    2.500    0.000    2.500    0.000    5.667 
#    0.000    5.000    0.000    0.000    0.000    0.000 
#    0.000    0.000    0.000    0.000    0.000    0.000 
#
# Total GULP energy -297649.096386 kJ/mol
# GULP energy per Si atom -12402.045683 kJ/mol
# Density = 1.808816 g / cm^3
# Si number density = 18.129419 Si / 1000 Ang^3
#
#
#
# Elastic Constant Matrix: (Units=GPa)
#
#
# Indices 1 2 3 4 5 6 
#
# 1 99.0694 37.0069 103.4822 0.0000 1.2842 0.0000
# 2 37.0069 54.6807 52.1837 0.0000 2.5149 0.0000
# 3 103.4822 52.1837 172.3196 0.0000 1.6005 0.0000
# 4 0.0000 0.0000 0.0000 35.6191 0.0000 0.7192
# 5 1.2842 2.5149 1.6005 0.0000 44.5757 0.0000
# 6 0.0000 0.0000 0.0000 0.7192 0.0000 24.7734
#
#
#
# Elastic Compliance Matrix: (Units=1/GPa)
#
#
# Indices 1 2 3 4 5 6 
#
# 1 0.027701 -0.004039 -0.015412 0.000000 -0.000017 0.000000
# 2 -0.004039 0.026372 -0.005550 0.000000 -0.001172 0.000000
# 3 -0.015412 -0.005550 0.016738 0.000000 0.000156 0.000000
# 4 0.000000 0.000000 0.000000 0.028091 0.000000 -0.000816
# 5 -0.000017 -0.001172 0.000156 0.000000 0.022495 0.000000
# 6 0.000000 0.000000 0.000000 -0.000816 0.000000 0.040390
#
#
# Mechanical properties :
#
#
# Convention : Reuss Voigt Hill
#
# Bulk Modulus (GPa) = 48.05535 79.04613 63.55074
# Shear Modulus (GPa) = 22.85976 29.88676 26.37326
#
# Velocity S-wave (km/s) = 3.55480 4.06461 3.81822
# Velocity P-wave (km/s) = 6.58887 8.10702 7.38704
#
# Compressibility (1/GPa) = 0.02080934
#
# Stress axis : x y z
#
# Youngs Moduli (GPa) = 36.09913 37.91943 59.74474
#
# Poissons Ratio (x) = 0.15314 0.92080
# Poissons Ratio (y) = 0.14579 0.33158
# Poissons Ratio (z) = 0.55637 0.21045
#
# Static dielectric constant tensor:
#      x y z
#    x 3.443760 0.000000 -0.025250 
#    y 0.000000 3.336120 0.000000 
#    z -0.025250 0.000000 3.500980 
# 
# 
# High freq. dielectric constant tensor:
#      x y z
#    x 1.699910 0.000000 0.000150 
#    y 0.000000 1.705690 0.000000 
#    z 0.000150 0.000000 1.710050 
# 
# From -- ./inp_files/314501.got.cif
#   From: 2010.06.25/outbox.cif.g09.slc.cpg/sg12_158_cif.got.tgz:314501.got - 2010.06.28 00:19:55.
