data_PCOD8097885
_publ_section_title
;
Structure prediction by ZEFSAII (Michael W. Deem and Ramdas Pophale) SiO2 
 PCOD8097885
Probable space group: C 2/M
;
_chemical_formula_sum "Si O2"
_cell_formula_units_Z 64
_cell_length_a 24.837911
_cell_length_b 18.209655
_cell_length_c 14.878278
_cell_angle_alpha 90.000000
_cell_angle_beta 28.825607
_cell_angle_gamma 90.000000
_cell_volume 3244.496908
_symmetry_space_group_name_H-M "C 2/M"
_symmetry_group_IT_number 12
_symmetry_cell_setting 'monoclinic'
loop_
_space_group_symop_operation_xyz
x,y,z
-x,y,-z
-x,-y,-z
x,-y,z
1/2+x,1/2+y,z
1/2-x,1/2+y,-z
1/2-x,1/2-y,-z
1/2+x,1/2-y,z
loop_
_atom_site_type_symbol
_atom_site_label
_atom_site_fract_x
_atom_site_fract_y
_atom_site_fract_z
Si Si1 0.365235 0.081562 0.975023
Si Si2 0.704292 0.579525 0.368281
Si Si3 0.100281 0.711480 0.527196
Si Si4 0.746238 0.163082 0.021448
Si Si5 0.179342 0.282942 0.742137
Si Si6 0.497842 0.198691 0.146643
Si Si7 0.503608 0.350727 0.393290
Si Si8 0.621169 0.084624 0.363550
O O1 0.340783 0.129570 0.922629
O O2 0.466510 0.113190 0.889319
O O3 0.399813 0.000000 0.893676
O O4 0.251205 0.081273 0.198288
O O5 0.720028 0.500000 0.389913
O O6 0.771148 0.635608 0.331704
O O7 0.573423 0.598090 0.556088
O O8 0.222855 0.724478 0.389714
O O9 0.014252 0.727512 0.734560
O O10 0.105701 0.628734 0.480442
O O11 0.053816 0.768933 0.521491
O O12 0.703585 0.134567 0.181133
O O13 0.750000 0.250000 0.000000
O O14 0.873075 0.137451 0.825181
O O15 0.115112 0.282822 0.741608
O O16 0.099051 0.264614 0.943989
O O17 0.500000 0.378687 0.500000
O O18 0.500000 0.078814 0.500000
O O19 0.666134 0.000000 0.312170
#
# Coordination Sequence:
#
# PCOD8097885 Si02
#       8
#     8   8   8   8   8   8   8   8
#     4  10  20  34  54  84 120 152 187 234 293 358
#     4   9  19  34  52  79 116 148 178 228 291 353
#     4  11  22  37  61  83 116 154 198 246 294 353
#     4  12  23  35  60  86 119 157 203 241 285 339
#     4   9  21  37  58  87 118 139 198 250 302 352
#     4  10  20  37  59  86 111 152 192 244 308 349
#     4  11  21  35  55  87 117 149 193 239 287 344
#     4  11  25  42  57  84 126 166 202 243 291 353
#
# _framework density 19.725708999999998
#
# number of rings (size 3 to 8) (size 9 to 14) (size 15 to 20)
#    0.000    1.625    1.250    4.125    5.250    3.250 
#    0.000    2.500    0.000    0.000    0.000    1.750 
#    0.000    0.000    0.000    0.000    0.000    0.000 
#
# Total GULP energy -396442.360443 kJ/mol
# GULP energy per Si atom -12388.823764 kJ/mol
# Density = 1.968081 g / cm^3
# Si number density = 19.725709 Si / 1000 Ang^3
#
#
#
# Elastic Constant Matrix: (Units=GPa)
#
#
# Indices 1 2 3 4 5 6 
#
# 1 67.1553 16.4107 22.2801 0.0000 -7.9893 0.0000
# 2 16.4107 94.0884 -0.0481 0.0000 0.9266 0.0000
# 3 22.2801 -0.0481 76.4533 -0.0001 -0.4450 0.0000
# 4 0.0000 0.0000 -0.0001 20.1969 0.0000 1.8708
# 5 -7.9893 0.9266 -0.4450 0.0000 35.6104 0.0000
# 6 0.0000 0.0000 0.0000 1.8708 0.0000 19.1264
#
#
#
# Elastic Compliance Matrix: (Units=1/GPa)
#
#
# Indices 1 2 3 4 5 6 
#
# 1 0.017861 -0.003158 -0.005184 0.000000 0.004025 0.000000
# 2 -0.003158 0.011189 0.000921 0.000000 -0.000988 0.000000
# 3 -0.005184 0.000921 0.014585 0.000000 -0.001005 0.000000
# 4 0.000000 0.000000 0.000000 0.049965 0.000000 -0.004887
# 5 0.004025 -0.000988 -0.001005 0.000000 0.028998 0.000000
# 6 0.000000 0.000000 0.000000 -0.004887 0.000000 0.052762
#
#
# Mechanical properties :
#
#
# Convention : Reuss Voigt Hill
#
# Bulk Modulus (GPa) = 34.72702 34.99805 34.86253
# Shear Modulus (GPa) = 25.02522 28.25703 26.64112
#
# Velocity S-wave (km/s) = 3.56569 3.78894 3.67901
# Velocity P-wave (km/s) = 5.88178 6.07637 5.97987
#
# Compressibility (1/GPa) = 0.02879602
#
# Stress axis : x y z
#
# Youngs Moduli (GPa) = 55.98779 89.37159 68.56245
#
# Poissons Ratio (x) = 0.28220 0.35540
# Poissons Ratio (y) = 0.17679 -0.06318
# Poissons Ratio (z) = 0.29022 -0.08235
#
# Static dielectric constant tensor:
#      x y z
#    x 3.423820 0.000000 -0.039590 
#    y 0.000000 3.641150 0.000000 
#    z -0.039590 0.000000 3.823120 
# 
# 
# High freq. dielectric constant tensor:
#      x y z
#    x 1.753210 0.000000 -0.006310 
#    y 0.000000 1.754100 0.000000 
#    z -0.006310 0.000000 1.780200 
# 
# From -- ./inp_files/241456.got.cif
#   From: 2010.06.25/outbox.cif.g09.slc.cpg/sg12_121_cif.got.tgz:241456.got - 2010.06.28 00:19:55.
