data_PCOD8097725
_publ_section_title
;
Structure prediction by ZEFSAII (Michael W. Deem and Ramdas Pophale) SiO2 
 PCOD8097725
Probable space group: C 2/M
;
_chemical_formula_sum "Si O2"
_cell_formula_units_Z 36
_cell_length_a 14.751722
_cell_length_b 10.197680
_cell_length_c 12.369218
_cell_angle_alpha 90.000000
_cell_angle_beta 73.782853
_cell_angle_gamma 90.000000
_cell_volume 1786.704103
_symmetry_space_group_name_H-M "C 2/M"
_symmetry_group_IT_number 12
_symmetry_cell_setting 'monoclinic'
loop_
_space_group_symop_operation_xyz
x,y,z
-x,y,-z
-x,-y,-z
x,-y,z
1/2+x,1/2+y,z
1/2-x,1/2+y,-z
1/2-x,1/2-y,-z
1/2+x,1/2-y,z
loop_
_atom_site_type_symbol
_atom_site_label
_atom_site_fract_x
_atom_site_fract_y
_atom_site_fract_z
Si Si1 0.674578 0.141770 0.046147
Si Si2 0.738992 0.849232 0.405960
Si Si3 0.938978 0.147331 0.248470
Si Si4 0.000000 0.753737 0.000000
Si Si5 0.425686 0.147217 0.697704
O O1 0.644799 0.150596 0.179162
O O2 0.720164 0.000000 0.006573
O O3 0.750000 0.250000 0.000000
O O4 0.586354 0.158705 0.996678
O O5 0.750000 0.750000 0.500000
O O6 0.826509 0.828459 0.293957
O O7 0.638891 0.815670 0.383287
O O8 0.738440 0.000000 0.447292
O O9 0.973165 0.159396 0.113110
O O10 0.990410 0.248889 0.312742
O O11 0.964501 0.000000 0.277997
O O12 0.468803 0.000000 0.670235
#
# Coordination Sequence:
#
# PCOD8097725 Si02
#       5
#     8   8   8   4   8
#     4  10  20  34  54  80 112 149 186 226 272 327
#     4  10  22  40  59  81 111 147 187 231 278 329
#     4  10  21  37  59  86 114 145 185 231 275 325
#     4  10  20  36  58  84 116 150 182 222 278 336
#     4   9  20  38  56  78 111 147 183 226 279 333
#
# _framework density 20.148831000000001
#
# number of rings (size 3 to 8) (size 9 to 14) (size 15 to 20)
#    0.000    2.222    0.000    2.000    0.000    9.778 
#    0.000    6.667    0.000    0.000    0.000    0.000 
#    0.000    0.000    0.000    0.000    0.000    0.000 
#
# Total GULP energy -223146.665679 kJ/mol
# GULP energy per Si atom -12397.036982 kJ/mol
# Density = 2.010297 g / cm^3
# Si number density = 20.148831 Si / 1000 Ang^3
#
#
#
# Elastic Constant Matrix: (Units=GPa)
#
#
# Indices 1 2 3 4 5 6 
#
# 1 72.4914 46.1129 33.4029 0.0000 16.6024 0.0000
# 2 46.1129 131.6221 35.1297 0.0000 9.6376 0.0000
# 3 33.4029 35.1297 51.8021 0.0000 13.0098 0.0000
# 4 0.0000 0.0000 0.0000 24.0818 0.0000 -4.1355
# 5 16.6024 9.6376 13.0098 0.0000 34.1616 0.0000
# 6 0.0000 0.0000 0.0000 -4.1355 0.0000 36.1353
#
#
#
# Elastic Compliance Matrix: (Units=1/GPa)
#
#
# Indices 1 2 3 4 5 6 
#
# 1 0.022854 -0.004929 -0.009901 0.000000 -0.005946 0.000000
# 2 -0.004929 0.010341 -0.004095 0.000000 0.001038 0.000000
# 3 -0.009901 -0.004095 0.029819 0.000000 -0.005389 0.000000
# 4 0.000000 0.000000 0.000000 0.042358 0.000000 0.004848
# 5 -0.005946 0.001038 -0.005389 0.000000 0.033922 0.000000
# 6 0.000000 0.000000 0.000000 0.004848 0.000000 0.028229
#
#
# Mechanical properties :
#
#
# Convention : Reuss Voigt Hill
#
# Bulk Modulus (GPa) = 39.73883 53.91185 46.82534
# Shear Modulus (GPa) = 23.39062 28.29374 25.84218
#
# Velocity S-wave (km/s) = 3.41088 3.75138 3.58518
# Velocity P-wave (km/s) = 5.93950 6.75120 6.35831
#
# Compressibility (1/GPa) = 0.02516431
#
# Stress axis : x y z
#
# Youngs Moduli (GPa) = 43.75607 96.69886 33.53545
#
# Poissons Ratio (x) = 0.47661 0.33203
# Poissons Ratio (y) = 0.21567 0.13734
# Poissons Ratio (z) = 0.43322 0.39602
#
# Static dielectric constant tensor:
#      x y z
#    x 3.704000 0.000000 -0.009780 
#    y 0.000000 3.919580 0.000000 
#    z -0.009780 0.000000 3.666480 
# 
# 
# High freq. dielectric constant tensor:
#      x y z
#    x 1.791760 0.000000 0.001660 
#    y 0.000000 1.794240 0.000000 
#    z 0.001660 0.000000 1.774750 
# 
# From -- ./inp_files/140133.got.cif
#   From: 2010.06.25/outbox.cif.g09.slc.cpg/sg12_71_cif.got.tgz:140133.got - 2010.06.28 00:19:55.
