data_PCOD8097461
_publ_section_title
;
Structure prediction by ZEFSAII (Michael W. Deem and Ramdas Pophale) SiO2 
 PCOD8097461
Probable space group: C 2/M
;
_chemical_formula_sum "Si O2"
_cell_formula_units_Z 48
_cell_length_a 20.620378
_cell_length_b 8.815942
_cell_length_c 14.943117
_cell_angle_alpha 90.000000
_cell_angle_beta 71.557892
_cell_angle_gamma 90.000000
_cell_volume 2576.972036
_symmetry_space_group_name_H-M "C 2/M"
_symmetry_group_IT_number 12
_symmetry_cell_setting 'monoclinic'
loop_
_space_group_symop_operation_xyz
x,y,z
-x,y,-z
-x,-y,-z
x,-y,z
1/2+x,1/2+y,z
1/2-x,1/2+y,-z
1/2-x,1/2-y,-z
1/2+x,1/2-y,z
loop_
_atom_site_type_symbol
_atom_site_label
_atom_site_fract_x
_atom_site_fract_y
_atom_site_fract_z
Si Si1 0.944827 0.319695 0.260250
Si Si2 0.293489 0.320839 0.560588
Si Si3 0.457296 0.819591 0.934690
Si Si4 0.693979 0.180182 0.960933
Si Si5 0.695573 0.179224 0.759263
Si Si6 0.562566 0.820820 0.535076
O O1 0.942233 0.500000 0.259171
O O2 0.874188 0.252354 0.251808
O O3 0.954501 0.263051 0.357492
O O4 0.008001 0.260645 0.172363
O O5 0.293184 0.500000 0.547550
O O6 0.250000 0.250000 0.500000
O O7 0.259149 0.272916 0.669644
O O8 0.369972 0.259727 0.530411
O O9 0.458294 0.000000 0.938401
O O10 0.500000 0.754779 0.000000
O O11 0.379805 0.760520 0.973485
O O12 0.706924 0.241074 0.854552
O O13 0.698493 0.000000 0.963230
O O14 0.750000 0.250000 0.000000
O O15 0.687193 0.000000 0.766764
O O16 0.500000 0.771401 0.500000
O O17 0.575287 0.000000 0.527026
#
# Coordination Sequence:
#
# PCOD8097461 Si02
#       6
#     8   8   8   8   8   8
#     4   9  15  28  51  77 103 133 174 219 261 305
#     4  11  21  35  57  82 108 143 186 227 269 323
#     4   9  15  26  50  78  96 124 176 220 244 294
#     4  10  20  34  53  80 109 137 171 215 267 317
#     4   9  17  31  53  77 104 141 178 213 262 322
#     4  10  21  36  54  79 112 144 177 224 277 320
#
# _framework density 18.626511000000001
#
# number of rings (size 3 to 8) (size 9 to 14) (size 15 to 20)
#    0.000    2.333    3.333    0.500    0.000    1.667 
#    0.000    3.333    0.000    1.500    0.000    0.000 
#    0.000    0.000    0.000    0.000    0.000    0.000 
#
# Total GULP energy -297559.928441 kJ/mol
# GULP energy per Si atom -12398.330352 kJ/mol
# Density = 1.858412 g / cm^3
# Si number density = 18.626511 Si / 1000 Ang^3
#
#
#
# Elastic Constant Matrix: (Units=GPa)
#
#
# Indices 1 2 3 4 5 6 
#
# 1 183.8513 32.6062 114.9985 0.0000 -2.0038 0.0000
# 2 32.6062 25.3656 28.2863 0.0000 -3.6675 0.0000
# 3 114.9985 28.2863 206.5138 0.0000 -7.0108 0.0000
# 4 0.0000 0.0000 0.0000 18.8015 0.0000 -1.1941
# 5 -2.0038 -3.6675 -7.0108 0.0000 40.9072 0.0000
# 6 0.0000 0.0000 0.0000 -1.1941 0.0000 27.4934
#
#
#
# Elastic Compliance Matrix: (Units=1/GPa)
#
#
# Indices 1 2 3 4 5 6 
#
# 1 0.009417 -0.007504 -0.004248 0.000000 -0.000939 0.000000
# 2 -0.007504 0.052903 -0.002936 0.000000 0.003872 0.000000
# 3 -0.004248 -0.002936 0.007638 0.000000 0.000838 0.000000
# 4 0.000000 0.000000 0.000000 0.053334 0.000000 0.002316
# 5 -0.000939 0.003872 0.000838 0.000000 0.024890 0.000000
# 6 0.000000 0.000000 0.000000 0.002316 0.000000 0.036473
#
#
# Mechanical properties :
#
#
# Convention : Reuss Voigt Hill
#
# Bulk Modulus (GPa) = 24.64097 85.27920 54.96008
# Shear Modulus (GPa) = 21.97231 33.42973 27.70102
#
# Velocity S-wave (km/s) = 3.43829 4.24103 3.86058
# Velocity P-wave (km/s) = 5.38704 8.35853 7.03154
#
# Compressibility (1/GPa) = 0.04058282
#
# Stress axis : x y z
#
# Youngs Moduli (GPa) = 106.19366 18.90241 130.91752
#
# Poissons Ratio (x) = 0.14184 0.55613
# Poissons Ratio (y) = 0.79683 0.38442
# Poissons Ratio (z) = 0.45110 0.05550
#
# Static dielectric constant tensor:
#      x y z
#    x 3.525720 0.000000 -0.116760 
#    y 0.000000 2.911410 0.000000 
#    z -0.116760 0.000000 3.891980 
# 
# 
# High freq. dielectric constant tensor:
#      x y z
#    x 1.726400 0.000000 -0.005960 
#    y 0.000000 1.667410 0.000000 
#    z -0.005960 0.000000 1.743210 
# 
# From -- ./inp_files/229923.got.cif
#   From: 2010.06.25/outbox.cif.g09.slc.cpg/sg12_115_cif.got.tgz:229923.got - 2010.06.28 00:19:55.
