data_PCOD8097058
_publ_section_title
;
Structure prediction by ZEFSAII (Michael W. Deem and Ramdas Pophale) SiO2 
 PCOD8097058
Probable space group: C 2/M
;
_chemical_formula_sum "Si O2"
_cell_formula_units_Z 48
_cell_length_a 13.983138
_cell_length_b 13.142277
_cell_length_c 22.634898
_cell_angle_alpha 90.000000
_cell_angle_beta 139.337121
_cell_angle_gamma 90.000000
_cell_volume 2710.438761
_symmetry_space_group_name_H-M "C 2/M"
_symmetry_group_IT_number 12
_symmetry_cell_setting 'monoclinic'
loop_
_space_group_symop_operation_xyz
x,y,z
-x,y,-z
-x,-y,-z
x,-y,z
1/2+x,1/2+y,z
1/2-x,1/2+y,-z
1/2-x,1/2-y,-z
1/2+x,1/2-y,z
loop_
_atom_site_type_symbol
_atom_site_label
_atom_site_fract_x
_atom_site_fract_y
_atom_site_fract_z
Si Si1 0.041910 0.379720 0.113013
Si Si2 0.721284 0.879899 0.085674
Si Si3 0.716035 0.208486 0.297950
Si Si4 0.283231 0.117666 0.577298
Si Si5 0.462214 0.616729 0.737825
Si Si6 0.026765 0.793545 0.381896
O O1 0.058800 0.500000 0.128611
O O2 0.146524 0.336414 0.110113
O O3 0.084929 0.327181 0.194118
O O4 0.873756 0.349587 0.016768
O O5 0.889497 0.842990 0.160087
O O6 0.718896 0.000000 0.091981
O O7 0.726498 0.129237 0.356659
O O8 0.676022 0.319661 0.304065
O O9 0.867391 0.218618 0.334738
O O10 0.130890 0.157849 0.479803
O O11 0.417170 0.182621 0.612695
O O12 0.309310 0.000000 0.573357
O O13 0.429714 0.500000 0.737477
O O14 0.481498 0.629292 0.676718
#
# Coordination Sequence:
#
# PCOD8097058 Si02
#       6
#     8   8   8   8   8   8
#     4   9  16  28  50  77 102 130 165 209 253 292
#     4   8  15  29  49  73 101 133 167 203 248 297
#     4  11  21  32  53  81 102 129 170 211 252 296
#     4  10  22  37  54  76 102 133 167 207 254 300
#     4  10  20  34  52  75 103 137 172 204 245 299
#     4  10  21  37  53  74 104 134 167 206 251 302
#
# _framework density 17.709311
#
# number of rings (size 3 to 8) (size 9 to 14) (size 15 to 20)
#    0.000    2.333    1.667    2.500    0.000    4.000 
#    0.000    0.000    0.000    6.000    0.000    2.333 
#    0.000    0.000    0.000    0.000    0.000    0.000 
#
# Total GULP energy -297546.480476 kJ/mol
# GULP energy per Si atom -12397.770020 kJ/mol
# Density = 1.766900 g / cm^3
# Si number density = 17.709311 Si / 1000 Ang^3
#
#
#
# Elastic Constant Matrix: (Units=GPa)
#
#
# Indices 1 2 3 4 5 6 
#
# 1 61.6602 24.2128 28.2655 0.0000 -9.8765 0.0000
# 2 24.2128 75.1872 22.0015 0.0000 -2.3599 0.0000
# 3 28.2655 22.0015 120.8998 0.0000 -15.3817 0.0000
# 4 0.0000 0.0000 0.0000 25.1014 0.0000 0.8787
# 5 -9.8765 -2.3599 -15.3817 0.0000 21.5429 0.0000
# 6 0.0000 0.0000 0.0000 0.8787 0.0000 6.6392
#
#
#
# Elastic Compliance Matrix: (Units=1/GPa)
#
#
# Indices 1 2 3 4 5 6 
#
# 1 0.020897 -0.005640 -0.002991 0.000000 0.006827 0.000000
# 2 -0.005640 0.015572 -0.001790 0.000000 -0.002158 0.000000
# 3 -0.002991 -0.001790 0.010006 0.000000 0.005577 0.000000
# 4 0.000000 0.000000 0.000000 0.040024 0.000000 -0.005297
# 5 0.006827 -0.002158 0.005577 0.000000 0.053295 0.000000
# 6 0.000000 0.000000 0.000000 -0.005297 0.000000 0.151321
#
#
# Mechanical properties :
#
#
# Convention : Reuss Voigt Hill
#
# Bulk Modulus (GPa) = 39.01029 45.18966 42.09998
# Shear Modulus (GPa) = 15.60058 22.87453 19.23756
#
# Velocity S-wave (km/s) = 2.97126 3.59788 3.29948
# Velocity P-wave (km/s) = 5.81783 6.54465 6.19191
#
# Compressibility (1/GPa) = 0.02563426
#
# Stress axis : x y z
#
# Youngs Moduli (GPa) = 47.85330 64.21582 99.94258
#
# Poissons Ratio (x) = 0.36219 0.29889
# Poissons Ratio (y) = 0.26990 0.17888
# Poissons Ratio (z) = 0.14311 0.11493
#
# Static dielectric constant tensor:
#      x y z
#    x 3.140090 0.000000 0.080850 
#    y 0.000000 3.009890 0.000000 
#    z 0.080850 0.000000 3.685380 
# 
# 
# High freq. dielectric constant tensor:
#      x y z
#    x 1.668630 0.000000 0.001540 
#    y 0.000000 1.661330 0.000000 
#    z 0.001540 0.000000 1.708150 
# 
# From -- ./inp_files/204355.got.cif
#   From: 2010.06.25/outbox.cif.g09.slc.cpg/sg12_103_cif.got.tgz:204355.got - 2010.06.28 00:19:55.
