data_PCOD8097889
_publ_section_title
;
Structure prediction by ZEFSAII (Michael W. Deem and Ramdas Pophale) SiO2 
 PCOD8097889
Probable space group: C 2/M
;
_chemical_formula_sum "Si O2"
_cell_formula_units_Z 64
_cell_length_a 31.189282
_cell_length_b 17.422483
_cell_length_c 9.736149
_cell_angle_alpha 90.000000
_cell_angle_beta 139.677432
_cell_angle_gamma 90.000000
_cell_volume 3423.477014
_symmetry_space_group_name_H-M "C 2/M"
_symmetry_group_IT_number 12
_symmetry_cell_setting 'monoclinic'
loop_
_space_group_symop_operation_xyz
x,y,z
-x,y,-z
-x,-y,-z
x,-y,z
1/2+x,1/2+y,z
1/2-x,1/2+y,-z
1/2-x,1/2-y,-z
1/2+x,1/2-y,z
loop_
_atom_site_type_symbol
_atom_site_label
_atom_site_fract_x
_atom_site_fract_y
_atom_site_fract_z
Si Si1 0.706024 0.322784 0.689306
Si Si2 0.570954 0.242109 0.007534
Si Si3 0.266590 0.586794 0.491890
Si Si4 0.694497 0.688787 0.161289
Si Si5 0.424100 0.756840 0.659372
Si Si6 0.620844 0.082346 0.150008
Si Si7 0.374783 0.083287 0.519892
Si Si8 0.735533 0.588412 0.031635
O O1 0.689155 0.381672 0.525022
O O2 0.756903 0.258005 0.761291
O O3 0.635339 0.286764 0.563427
O O4 0.737468 0.368674 0.891629
O O5 0.622167 0.282842 0.031353
O O6 0.589196 0.255131 0.210981
O O7 0.572036 0.150037 0.984866
O O8 0.496993 0.273780 0.795566
O O9 0.288322 0.500000 0.583864
O O10 0.272032 0.642097 0.634742
O O11 0.191778 0.589999 0.248763
O O12 0.684114 0.632003 0.006719
O O13 0.424387 0.846355 0.613727
O O14 0.641827 0.083763 0.360318
O O15 0.587083 0.000000 0.031010
O O16 0.307846 0.096325 0.272812
O O17 0.406118 0.000000 0.555540
O O18 0.713679 0.500000 0.960221
#
# Coordination Sequence:
#
# PCOD8097889 Si02
#       8
#     8   8   8   8   8   8   8   8
#     4  12  22  36  59  86 116 147 190 239 286 330
#     4  10  20  34  54  85 116 152 186 233 282 337
#     4  11  20  33  57  86 115 144 183 238 288 329
#     4  12  20  36  61  85 111 149 195 237 278 334
#     4  10  20  34  55  83 119 149 186 234 287 333
#     4   9  16  29  51  84 117 146 180 222 278 341
#     4   9  17  31  53  80 113 150 184 220 275 345
#     4  11  23  38  58  86 117 148 188 238 293 339
#
# _framework density 18.694443
#
# number of rings (size 3 to 8) (size 9 to 14) (size 15 to 20)
#    0.000    1.500    5.000    2.250    0.000    0.500 
#    0.000    3.125    0.000    4.500    0.000    1.750 
#    0.000    0.000    0.000    0.000    0.000    0.000 
#
# Total GULP energy -396587.271522 kJ/mol
# GULP energy per Si atom -12393.352235 kJ/mol
# Density = 1.865189 g / cm^3
# Si number density = 18.694443 Si / 1000 Ang^3
#
#
#
# Elastic Constant Matrix: (Units=GPa)
#
#
# Indices 1 2 3 4 5 6 
#
# 1 85.4336 54.4756 39.6206 0.0000 4.7056 0.0000
# 2 54.4756 110.5010 41.3759 0.0000 -3.7535 0.0000
# 3 39.6206 41.3759 49.2417 0.0000 4.7156 0.0000
# 4 0.0000 0.0000 0.0000 23.9739 0.0000 -5.3248
# 5 4.7056 -3.7535 4.7156 0.0000 33.2972 0.0000
# 6 0.0000 0.0000 0.0000 -5.3248 0.0000 23.4802
#
#
#
# Elastic Compliance Matrix: (Units=1/GPa)
#
#
# Indices 1 2 3 4 5 6 
#
# 1 0.021126 -0.006115 -0.011666 0.000000 -0.002023 0.000000
# 2 -0.006115 0.015298 -0.008294 0.000000 0.003763 0.000000
# 3 -0.011666 -0.008294 0.037099 0.000000 -0.004540 0.000000
# 4 0.000000 0.000000 0.000000 0.043924 0.000000 0.009961
# 5 -0.002023 0.003763 -0.004540 0.000000 0.031386 0.000000
# 6 0.000000 0.000000 0.000000 0.009961 0.000000 0.044848
#
#
# Mechanical properties :
#
#
# Convention : Reuss Voigt Hill
#
# Bulk Modulus (GPa) = 46.79131 57.34672 52.06901
# Shear Modulus (GPa) = 19.76628 23.46389 21.61509
#
# Velocity S-wave (km/s) = 3.25520 3.54662 3.40403
# Velocity P-wave (km/s) = 6.26197 6.89302 6.58506
#
# Compressibility (1/GPa) = 0.02137149
#
# Stress axis : x y z
#
# Youngs Moduli (GPa) = 47.33491 65.36810 26.95507
#
# Poissons Ratio (x) = 0.39975 0.31446
# Poissons Ratio (y) = 0.28947 0.22357
# Poissons Ratio (z) = 0.55221 0.54218
#
# Static dielectric constant tensor:
#      x y z
#    x 3.293830 0.000000 -0.036930 
#    y 0.000000 3.795820 0.000000 
#    z -0.036930 0.000000 3.109650 
# 
# 
# High freq. dielectric constant tensor:
#      x y z
#    x 1.703000 0.000000 0.000300 
#    y 0.000000 1.738290 0.000000 
#    z 0.000300 0.000000 1.693840 
# 
# From -- ./inp_files/112878.got.cif
#   From: 2010.06.25/outbox.cif.g09.slc.cpg/sg12_57_cif.got.tgz:112878.got - 2010.06.28 00:19:55.
