data_PCOD8097533
_publ_section_title
;
Structure prediction by ZEFSAII (Michael W. Deem and Ramdas Pophale) SiO2 
 PCOD8097533
Probable space group: C 2/M
;
_chemical_formula_sum "Si O2"
_cell_formula_units_Z 64
_cell_length_a 22.295760
_cell_length_b 9.342876
_cell_length_c 19.982866
_cell_angle_alpha 90.000000
_cell_angle_beta 55.036973
_cell_angle_gamma 90.000000
_cell_volume 3411.310571
_symmetry_space_group_name_H-M "C 2/M"
_symmetry_group_IT_number 12
_symmetry_cell_setting 'monoclinic'
loop_
_space_group_symop_operation_xyz
x,y,z
-x,y,-z
-x,-y,-z
x,-y,z
1/2+x,1/2+y,z
1/2-x,1/2+y,-z
1/2-x,1/2-y,-z
1/2+x,1/2-y,z
loop_
_atom_site_type_symbol
_atom_site_label
_atom_site_fract_x
_atom_site_fract_y
_atom_site_fract_z
Si Si1 0.076234 0.829803 0.724835
Si Si2 0.287340 0.663126 0.879026
Si Si3 0.643275 0.332780 0.956028
Si Si4 0.919678 0.166121 0.534642
Si Si5 0.339079 0.331195 0.202439
Si Si6 0.828328 0.828320 0.462400
Si Si7 0.302618 0.660154 0.717184
Si Si8 0.424331 0.668675 0.868773
O O1 0.114508 0.767719 0.766646
O O2 0.117899 0.778569 0.631959
O O3 0.993969 0.766518 0.784732
O O4 0.074960 0.000000 0.727416
O O5 0.268228 0.500000 0.910211
O O6 0.215518 0.755421 0.935960
O O7 0.320441 0.672877 0.783615
O O8 0.349797 0.731174 0.885912
O O9 0.661163 0.500000 0.945116
O O10 0.625215 0.282500 0.891648
O O11 0.576677 0.297889 0.050143
O O12 0.871544 0.224920 0.501951
O O13 0.875519 0.197301 0.630279
O O14 0.000000 0.235473 0.500000
O O15 0.932017 0.000000 0.511249
O O16 0.334399 0.500000 0.209696
O O17 0.258341 0.272444 0.264393
O O18 0.750000 0.750000 0.500000
O O19 0.814759 0.000000 0.471850
O O20 0.275333 0.500000 0.716396
O O21 0.425299 0.500000 0.856175
#
# Coordination Sequence:
#
# PCOD8097533 Si02
#       8
#     8   8   8   8   8   8   8   8
#     4   9  18  30  47  71  94 119 154 194 233 272
#     4   9  17  28  46  68  91 120 152 188 227 273
#     4   9  17  29  46  67  91 121 153 188 228 271
#     4   9  18  30  48  75 100 122 157 205 248 284
#     4   9  17  30  47  67  91 120 154 188 225 273
#     4  10  20  34  54  75  98 130 164 202 244 292
#     4   9  17  29  47  69  91 118 150 188 232 275
#     4   9  17  28  44  68  94 118 151 193 231 268
#
# _framework density 18.761119000000001
#
# number of rings (size 3 to 8) (size 9 to 14) (size 15 to 20)
#    0.000    2.875    0.000    1.125    1.750    0.500 
#    0.000    2.500    0.000    4.500    0.000    3.500 
#    0.000    0.000    0.000    0.000    0.000    0.000 
#
# Total GULP energy -396440.278791 kJ/mol
# GULP energy per Si atom -12388.758712 kJ/mol
# Density = 1.871842 g / cm^3
# Si number density = 18.761119 Si / 1000 Ang^3
#
#
#
# Elastic Constant Matrix: (Units=GPa)
#
#
# Indices 1 2 3 4 5 6 
#
# 1 92.4152 11.5551 39.5118 -0.0001 4.0289 0.0002
# 2 11.5551 10.1490 15.0635 -0.0006 0.0189 0.0003
# 3 39.5118 15.0635 129.1979 -0.0001 -6.3610 0.0001
# 4 -0.0001 -0.0006 -0.0001 15.0909 0.0000 0.2080
# 5 4.0289 0.0189 -6.3610 0.0000 22.1861 -0.0001
# 6 0.0002 0.0003 0.0001 0.2080 -0.0001 16.3854
#
#
#
# Elastic Compliance Matrix: (Units=1/GPa)
#
#
# Indices 1 2 3 4 5 6 
#
# 1 0.013648 -0.010996 -0.003057 0.000000 -0.003345 0.000000
# 2 -0.010996 0.128387 -0.011678 0.000005 -0.001461 -0.000002
# 3 -0.003057 -0.011678 0.010208 0.000000 0.003492 0.000000
# 4 0.000000 0.000005 0.000000 0.066277 0.000000 -0.000841
# 5 -0.003345 -0.001461 0.003492 0.000000 0.046683 0.000000
# 6 0.000000 -0.000002 0.000000 -0.000841 0.000000 0.061041
#
#
# Mechanical properties :
#
#
# Convention : Reuss Voigt Hill
#
# Bulk Modulus (GPa) = 9.92242 40.44699 25.18470
# Shear Modulus (GPa) = 12.15659 21.77458 16.96558
#
# Velocity S-wave (km/s) = 2.54828 3.41049 3.01041
# Velocity P-wave (km/s) = 3.73612 6.09215 5.05336
#
# Compressibility (1/GPa) = 0.10078188
#
# Stress axis : x y z
#
# Youngs Moduli (GPa) = 73.26903 7.78896 97.95916
#
# Poissons Ratio (x) = 0.08565 0.29942
# Poissons Ratio (y) = 0.80568 1.14396
# Poissons Ratio (z) = 0.22396 0.09096
#
# Static dielectric constant tensor:
#      x y z
#    x 3.655160 0.000000 0.120050 
#    y 0.000000 3.034430 0.000000 
#    z 0.120050 0.000000 3.732590 
# 
# 
# High freq. dielectric constant tensor:
#      x y z
#    x 1.729200 0.000000 0.009600 
#    y 0.000000 1.673310 0.000000 
#    z 0.009600 0.000000 1.747030 
# 
# From -- ./inp_files/324158.got.cif
#   From: 2010.06.25/outbox.cif.g09.slc.cpg/sg12_163_cif.got.tgz:324158.got - 2010.06.28 00:19:55.
