data_PCOD8097802
_publ_section_title
;
Structure prediction by ZEFSAII (Michael W. Deem and Ramdas Pophale) SiO2 
 PCOD8097802
Probable space group: C 2/M
;
_chemical_formula_sum "Si O2"
_cell_formula_units_Z 64
_cell_length_a 27.886739
_cell_length_b 14.045864
_cell_length_c 9.902777
_cell_angle_alpha 90.000000
_cell_angle_beta 63.989493
_cell_angle_gamma 90.000000
_cell_volume 3485.977056
_symmetry_space_group_name_H-M "C 2/M"
_symmetry_group_IT_number 12
_symmetry_cell_setting 'monoclinic'
loop_
_space_group_symop_operation_xyz
x,y,z
-x,y,-z
-x,-y,-z
x,-y,z
1/2+x,1/2+y,z
1/2-x,1/2+y,-z
1/2-x,1/2-y,-z
1/2+x,1/2-y,z
loop_
_atom_site_type_symbol
_atom_site_label
_atom_site_fract_x
_atom_site_fract_y
_atom_site_fract_z
Si Si1 0.806078 0.109277 0.344812
Si Si2 0.529603 0.391475 0.095821
Si Si3 0.813704 0.604921 0.126858
Si Si4 0.786254 0.177980 0.874274
Si Si5 0.042249 0.108199 0.558746
Si Si6 0.851914 0.782681 0.536398
Si Si7 0.641905 0.302424 0.980563
Si Si8 0.685833 0.106999 0.557017
O O1 0.827478 0.141502 0.463198
O O2 0.833253 0.167634 0.192109
O O3 0.742881 0.125583 0.416806
O O4 0.821902 0.000000 0.307151
O O5 0.550171 0.500000 0.052718
O O6 0.485176 0.384028 0.263713
O O7 0.500000 0.353785 0.000000
O O8 0.579444 0.323898 0.065219
O O9 0.839576 0.500000 0.071127
O O10 0.753970 0.599347 0.136727
O O11 0.849573 0.687849 0.014367
O O12 0.808591 0.626943 0.291602
O O13 0.816253 0.228292 0.713547
O O14 0.750000 0.250000 0.000000
O O15 0.829606 0.140459 0.930587
O O16 0.090220 0.182209 0.490145
O O17 0.000000 0.140299 0.500000
O O18 0.062344 0.000000 0.506500
O O19 0.855926 0.679577 0.459266
O O20 0.665735 0.000000 0.553790
#
# Coordination Sequence:
#
# PCOD8097802 Si02
#       8
#     8   8   8   8   8   8   8   8
#     4  11  21  33  55  86 114 147 191 232 274 329
#     4  10  21  37  55  78 110 142 181 235 288 330
#     4  10  20  35  54  81 115 149 184 224 272 332
#     4  10  22  35  54  83 116 151 183 219 278 335
#     4  10  22  38  57  83 110 142 186 233 283 336
#     4  12  20  36  60  80 110 149 191 232 271 335
#     4  11  21  37  56  82 114 152 187 230 284 340
#     4  10  20  34  54  82 112 143 184 231 272 321
#
# _framework density 18.359271
#
# number of rings (size 3 to 8) (size 9 to 14) (size 15 to 20)
#    0.000    1.500    2.500    4.125    0.000    2.500 
#    0.000    3.750    0.000    1.500    0.000    0.000 
#    0.000    0.000    0.000    0.000    0.000    0.000 
#
# Total GULP energy -396741.292725 kJ/mol
# GULP energy per Si atom -12398.165398 kJ/mol
# Density = 1.831748 g / cm^3
# Si number density = 18.359271 Si / 1000 Ang^3
#
#
#
# Elastic Constant Matrix: (Units=GPa)
#
#
# Indices 1 2 3 4 5 6 
#
# 1 113.8225 52.9250 30.3745 0.0000 10.8620 0.0000
# 2 52.9250 102.6885 19.2766 0.0000 -3.0965 0.0000
# 3 30.3745 19.2766 72.9984 0.0000 16.5002 0.0000
# 4 0.0000 0.0000 0.0000 15.6981 0.0000 -4.3520
# 5 10.8620 -3.0965 16.5002 0.0000 27.1548 0.0000
# 6 0.0000 0.0000 0.0000 -4.3520 0.0000 26.5397
#
#
#
# Elastic Compliance Matrix: (Units=1/GPa)
#
#
# Indices 1 2 3 4 5 6 
#
# 1 0.012802 -0.006208 -0.002748 0.000000 -0.004159 0.000000
# 2 -0.006208 0.013511 -0.002196 0.000000 0.005358 0.000000
# 3 -0.002748 -0.002196 0.017655 0.000000 -0.009879 0.000000
# 4 0.000000 0.000000 0.000000 0.066736 0.000000 0.010943
# 5 -0.004159 0.005358 -0.009879 0.000000 0.045104 0.000000
# 6 0.000000 0.000000 0.000000 0.010943 0.000000 0.039474
#
#
# Mechanical properties :
#
#
# Convention : Reuss Voigt Hill
#
# Bulk Modulus (GPa) = 46.15525 54.96240 50.55882
# Shear Modulus (GPa) = 22.24127 26.34073 24.29100
#
# Velocity S-wave (km/s) = 3.48436 3.79190 3.64138
# Velocity P-wave (km/s) = 6.43291 7.01238 6.72888
#
# Compressibility (1/GPa) = 0.02166601
#
# Stress axis : x y z
#
# Youngs Moduli (GPa) = 78.11122 74.01106 56.64073
#
# Poissons Ratio (x) = 0.45945 0.15562
# Poissons Ratio (y) = 0.48490 0.12439
# Poissons Ratio (z) = 0.21461 0.16253
#
# Static dielectric constant tensor:
#      x y z
#    x 3.486130 0.000000 0.298220 
#    y 0.000000 3.388040 0.000000 
#    z 0.298220 0.000000 3.493660 
# 
# 
# High freq. dielectric constant tensor:
#      x y z
#    x 1.700960 0.000000 0.017930 
#    y 0.000000 1.698010 0.000000 
#    z 0.017930 0.000000 1.720750 
# 
# From -- ./inp_files/104499.got.cif
#   From: 2010.06.25/outbox.cif.g09.slc.cpg/sg12_53_cif.got.tgz:104499.got - 2010.06.28 00:19:55.
