data_PCOD8097127
_publ_section_title
;
Structure prediction by ZEFSAII (Michael W. Deem and Ramdas Pophale) SiO2 
 PCOD8097127
Probable space group: C 2/M
;
_chemical_formula_sum "Si O2"
_cell_formula_units_Z 64
_cell_length_a 16.621255
_cell_length_b 13.755311
_cell_length_c 16.752589
_cell_angle_alpha 90.000000
_cell_angle_beta 56.043408
_cell_angle_gamma 90.000000
_cell_volume 3176.962759
_symmetry_space_group_name_H-M "C 2/M"
_symmetry_group_IT_number 12
_symmetry_cell_setting 'monoclinic'
loop_
_space_group_symop_operation_xyz
x,y,z
-x,y,-z
-x,-y,-z
x,-y,z
1/2+x,1/2+y,z
1/2-x,1/2+y,-z
1/2-x,1/2-y,-z
1/2+x,1/2-y,z
loop_
_atom_site_type_symbol
_atom_site_label
_atom_site_fract_x
_atom_site_fract_y
_atom_site_fract_z
Si Si1 0.659687 0.217122 0.998861
Si Si2 0.693397 0.707184 0.723833
Si Si3 0.090384 0.613911 0.183354
Si Si4 0.688636 0.390812 0.886029
Si Si5 0.212768 0.607321 0.813664
Si Si6 0.894873 0.276020 0.540083
Si Si7 0.577845 0.392782 0.361277
Si Si8 0.440993 0.746984 0.346117
O O1 0.582365 0.167393 0.101212
O O2 0.750000 0.250000 0.000000
O O3 0.623460 0.316454 0.975241
O O4 0.685535 0.137441 0.918289
O O5 0.665586 0.627941 0.805841
O O6 0.677224 0.815477 0.767708
O O7 0.803593 0.679161 0.637361
O O8 0.623315 0.701102 0.687612
O O9 0.066807 0.500000 0.186942
O O10 0.196938 0.629253 0.162497
O O11 0.009808 0.663531 0.283203
O O12 0.659120 0.500000 0.925751
O O13 0.168111 0.500000 0.820206
O O14 0.327786 0.602746 0.746109
O O15 0.904459 0.164209 0.565317
O O16 0.873617 0.283314 0.457110
O O17 0.000000 0.327976 0.500000
O O18 0.542146 0.500000 0.404124
O O19 0.501761 0.341505 0.346449
#
# Coordination Sequence:
#
# PCOD8097127 Si02
#       8
#     8   8   8   8   8   8   8   8
#     4   9  16  30  54  81 105 131 176 225 265 304
#     4  10  20  34  52  77 108 140 173 213 266 321
#     4  10  20  35  55  78 105 139 179 221 262 307
#     4   9  18  34  55  77 105 140 176 216 262 313
#     4   9  17  32  54  77 101 133 177 224 265 308
#     4   9  18  34  56  77 101 135 177 221 262 305
#     4   9  18  33  55  80 104 133 173 221 268 312
#     4  11  21  33  51  76 110 141 173 215 265 318
#
# _framework density 20.145026999999999
#
# number of rings (size 3 to 8) (size 9 to 14) (size 15 to 20)
#    0.000    2.500    0.000    4.500    0.000    3.750 
#    0.000    3.750    0.000   14.250    0.000    0.000 
#    0.000    0.000    0.000    0.000    0.000    0.000 
#
# Total GULP energy -396510.916169 kJ/mol
# GULP energy per Si atom -12390.966130 kJ/mol
# Density = 2.009918 g / cm^3
# Si number density = 20.145027 Si / 1000 Ang^3
#
#
#
# Elastic Constant Matrix: (Units=GPa)
#
#
# Indices 1 2 3 4 5 6 
#
# 1 59.2824 21.0337 27.8325 0.0000 21.3288 0.0000
# 2 21.0337 102.4116 48.3301 0.0000 3.6756 0.0000
# 3 27.8325 48.3301 123.2932 0.0000 26.0324 0.0000
# 4 0.0000 0.0000 0.0000 19.1114 0.0000 -2.0532
# 5 21.3288 3.6756 26.0324 0.0000 27.3619 0.0000
# 6 0.0000 0.0000 0.0000 -2.0532 0.0000 14.7445
#
#
#
# Elastic Compliance Matrix: (Units=1/GPa)
#
#
# Indices 1 2 3 4 5 6 
#
# 1 0.025371 -0.004587 0.000146 0.000000 -0.019299 0.000000
# 2 -0.004587 0.013097 -0.005608 0.000000 0.007152 0.000000
# 3 0.000146 -0.005608 0.012691 0.000000 -0.011434 0.000000
# 4 0.000000 0.000000 0.000000 0.053119 0.000000 0.007397
# 5 -0.019299 0.007152 -0.011434 0.000000 0.061509 0.000000
# 6 0.000000 0.000000 0.000000 0.007397 0.000000 0.068852
#
#
# Mechanical properties :
#
#
# Convention : Reuss Voigt Hill
#
# Bulk Modulus (GPa) = 32.19707 53.26443 42.73075
# Shear Modulus (GPa) = 18.86147 24.76296 21.81222
#
# Velocity S-wave (km/s) = 3.06320 3.50985 3.29410
# Velocity P-wave (km/s) = 5.34118 6.55158 5.97710
#
# Compressibility (1/GPa) = 0.03105873
#
# Stress axis : x y z
#
# Youngs Moduli (GPa) = 39.41505 76.35556 78.79885
#
# Poissons Ratio (x) = 0.35023 -0.01147
# Poissons Ratio (y) = 0.18079 0.44194
# Poissons Ratio (z) = -0.00574 0.42824
#
# Static dielectric constant tensor:
#      x y z
#    x 3.430730 0.000000 0.112140 
#    y 0.000000 3.716220 0.000000 
#    z 0.112140 0.000000 4.052980 
# 
# 
# High freq. dielectric constant tensor:
#      x y z
#    x 1.757420 0.000000 0.010130 
#    y 0.000000 1.773110 0.000000 
#    z 0.010130 0.000000 1.802880 
# 
# From -- ./inp_files/225246.got.cif
#   From: 2010.06.25/outbox.cif.g09.slc.cpg/sg12_113_cif.got.tgz:225246.got - 2010.06.28 00:19:55.
