data_PCOD8097351
_publ_section_title
;
Structure prediction by ZEFSAII (Michael W. Deem and Ramdas Pophale) SiO2 
 PCOD8097351
Probable space group: C 2/M
;
_chemical_formula_sum "Si O2"
_cell_formula_units_Z 64
_cell_length_a 14.515294
_cell_length_b 9.406595
_cell_length_c 29.318006
_cell_angle_alpha 90.000000
_cell_angle_beta 118.935210
_cell_angle_gamma 90.000000
_cell_volume 3503.352432
_symmetry_space_group_name_H-M "C 2/M"
_symmetry_group_IT_number 12
_symmetry_cell_setting 'monoclinic'
loop_
_space_group_symop_operation_xyz
x,y,z
-x,y,-z
-x,-y,-z
x,-y,z
1/2+x,1/2+y,z
1/2-x,1/2+y,-z
1/2-x,1/2-y,-z
1/2+x,1/2-y,z
loop_
_atom_site_type_symbol
_atom_site_label
_atom_site_fract_x
_atom_site_fract_y
_atom_site_fract_z
Si Si1 0.070907 0.335429 0.239472
Si Si2 0.806785 0.161326 0.314144
Si Si3 0.783074 0.838879 0.116550
Si Si4 0.154075 0.667175 0.500315
Si Si5 0.385565 0.665498 0.233990
Si Si6 0.485737 0.336255 0.859904
Si Si7 0.915830 0.167265 0.943194
Si Si8 0.420580 0.833337 0.418693
O O1 0.040667 0.500000 0.225210
O O2 0.182619 0.319752 0.291147
O O3 0.989429 0.259817 0.253561
O O4 0.074257 0.261297 0.190897
O O5 0.833593 0.206176 0.269130
O O6 0.869319 0.259021 0.363495
O O7 0.841735 0.000000 0.331737
O O8 0.802933 0.797388 0.174213
O O9 0.889370 0.815622 0.113733
O O10 0.696059 0.738371 0.073342
O O11 0.743034 0.000000 0.103211
O O12 0.176447 0.500000 0.501054
O O13 0.250000 0.750000 0.500000
O O14 0.141796 0.711725 0.550384
O O15 0.043862 0.708328 0.449871
O O16 0.417951 0.500000 0.238160
O O17 0.454857 0.500000 0.843109
O O18 0.453375 0.286046 0.902208
O O19 0.901112 0.000000 0.944114
O O20 0.000000 0.223428 0.000000
O O21 0.409715 0.000000 0.409373
#
# Coordination Sequence:
#
# PCOD8097351 Si02
#       8
#     8   8   8   8   8   8   8   8
#     4  10  20  34  53  78 104 132 171 213 249 295
#     4  10  21  35  52  77 110 141 169 208 255 301
#     4   9  18  34  54  73  97 132 170 206 248 300
#     4   9  19  37  58  78 102 136 176 217 259 302
#     4   9  19  36  54  74 104 139 170 204 252 306
#     4   9  19  36  54  72 100 136 168 203 253 307
#     4  10  21  35  51  74 102 130 164 208 256 304
#     4   9  20  37  54  76 107 139 173 212 256 305
#
# _framework density 18.268215999999999
#
# number of rings (size 3 to 8) (size 9 to 14) (size 15 to 20)
#    0.000    2.625    0.000    2.625    0.000    7.750 
#    0.000    6.250    0.000    0.000    0.000    0.000 
#    0.000    0.000    0.000    0.000    0.000    0.000 
#
# Total GULP energy -396823.895552 kJ/mol
# GULP energy per Si atom -12400.746736 kJ/mol
# Density = 1.822664 g / cm^3
# Si number density = 18.268216 Si / 1000 Ang^3
#
#
#
# Elastic Constant Matrix: (Units=GPa)
#
#
# Indices 1 2 3 4 5 6 
#
# 1 83.6415 36.9265 25.2799 0.0000 9.8124 0.0000
# 2 36.9265 58.5835 32.5302 0.0000 10.4374 0.0000
# 3 25.2799 32.5302 66.3284 0.0000 17.1167 0.0000
# 4 0.0000 0.0000 0.0000 34.6572 0.0000 5.0052
# 5 9.8124 10.4374 17.1167 0.0000 19.7339 0.0000
# 6 0.0000 0.0000 0.0000 5.0052 0.0000 32.1060
#
#
#
# Elastic Compliance Matrix: (Units=1/GPa)
#
#
# Indices 1 2 3 4 5 6 
#
# 1 0.016779 -0.009542 -0.001114 0.000000 -0.002330 0.000000
# 2 -0.009542 0.029036 -0.010133 0.000000 -0.001823 0.000000
# 3 -0.001114 -0.010133 0.024408 0.000000 -0.015258 0.000000
# 4 0.000000 0.000000 0.000000 0.029519 0.000000 -0.004602
# 5 -0.002330 -0.001823 -0.015258 0.000000 0.066031 0.000000
# 6 0.000000 0.000000 0.000000 -0.004602 0.000000 0.031864
#
#
# Mechanical properties :
#
#
# Convention : Reuss Voigt Hill
#
# Bulk Modulus (GPa) = 34.91068 44.22517 39.56792
# Shear Modulus (GPa) = 20.09946 24.88722 22.49334
#
# Velocity S-wave (km/s) = 3.32059 3.69497 3.51277
# Velocity P-wave (km/s) = 5.81836 6.51653 6.17731
#
# Compressibility (1/GPa) = 0.02864453
#
# Stress axis : x y z
#
# Youngs Moduli (GPa) = 59.59994 34.44010 40.97017
#
# Poissons Ratio (x) = 0.32864 0.04562
# Poissons Ratio (y) = 0.56873 0.41515
# Poissons Ratio (z) = 0.06637 0.34898
#
# Static dielectric constant tensor:
#      x y z
#    x 3.357120 0.000000 -0.047570 
#    y 0.000000 3.289930 0.000000 
#    z -0.047570 0.000000 3.313720 
# 
# 
# High freq. dielectric constant tensor:
#      x y z
#    x 1.714030 0.000000 0.000180 
#    y 0.000000 1.704680 0.000000 
#    z 0.000180 0.000000 1.702800 
# 
# From -- ./inp_files/375118.got.cif
#   From: 2010.06.25/outbox.cif.g09.slc.cpg/sg12_188_cif.got.tgz:375118.got - 2010.06.28 00:19:55.
