data_PCOD8097973
_publ_section_title
;
Structure prediction by ZEFSAII (Michael W. Deem and Ramdas Pophale) SiO2 
 PCOD8097973
Probable space group: C 2/M
;
_chemical_formula_sum "Si O2"
_cell_formula_units_Z 56
_cell_length_a 20.428455
_cell_length_b 9.051239
_cell_length_c 14.642255
_cell_angle_alpha 90.000000
_cell_angle_beta 85.852593
_cell_angle_gamma 90.000000
_cell_volume 2700.304470
_symmetry_space_group_name_H-M "C 2/M"
_symmetry_group_IT_number 12
_symmetry_cell_setting 'monoclinic'
loop_
_space_group_symop_operation_xyz
x,y,z
-x,y,-z
-x,-y,-z
x,-y,z
1/2+x,1/2+y,z
1/2-x,1/2+y,-z
1/2-x,1/2-y,-z
1/2+x,1/2-y,z
loop_
_atom_site_type_symbol
_atom_site_label
_atom_site_fract_x
_atom_site_fract_y
_atom_site_fract_z
Si Si1 0.380085 0.325693 0.923637
Si Si2 0.238688 0.173454 0.186398
Si Si3 0.874012 0.175132 0.129300
Si Si4 0.834081 0.665613 0.441157
Si Si5 0.016791 0.669156 0.597784
Si Si6 0.219073 0.668611 0.364388
Si Si7 0.994301 0.825062 0.781613
O O1 0.388852 0.500000 0.923502
O O2 0.308146 0.281927 0.893143
O O3 0.438058 0.260651 0.854427
O O4 0.386536 0.263978 0.025547
O O5 0.308364 0.253243 0.175107
O O6 0.201111 0.226681 0.281474
O O7 0.250803 0.000000 0.189487
O O8 0.935295 0.223654 0.185124
O O9 0.864615 0.000000 0.129676
O O10 0.806601 0.500000 0.424190
O O11 0.905936 0.682718 0.393605
O O12 0.835218 0.690660 0.550931
O O13 0.790008 0.787851 0.397389
O O14 0.992274 0.500000 0.604050
O O15 0.981895 0.757507 0.682736
O O16 0.000000 0.737263 0.500000
O O17 0.222678 0.500000 0.330300
O O18 0.989504 0.000000 0.773448
#
# Coordination Sequence:
#
# PCOD8097973 Si02
#       7
#     8   8   8   8   8   8   8
#     4   9  20  38  59  85 116 150 188 233 285 335
#     4  11  22  35  55  83 118 151 184 229 283 337
#     4  10  20  38  63  86 112 148 191 236 281 336
#     4   9  19  36  55  77 108 145 187 231 277 329
#     4  10  22  38  56  79 112 150 184 224 279 336
#     4  10  20  34  55  81 108 144 188 231 276 330
#     4  10  21  38  61  87 112 146 192 236 280 332
#
# _framework density 20.738401
#
# number of rings (size 3 to 8) (size 9 to 14) (size 15 to 20)
#    0.000    2.143    0.000    2.571    2.000    6.000 
#    0.000    2.143    0.000    1.714    0.000    0.000 
#    0.000    0.000    0.000    0.000    0.000    0.000 
#
# Total GULP energy -347223.898411 kJ/mol
# GULP energy per Si atom -12400.853515 kJ/mol
# Density = 2.069120 g / cm^3
# Si number density = 20.738401 Si / 1000 Ang^3
#
#
#
# Elastic Constant Matrix: (Units=GPa)
#
#
# Indices 1 2 3 4 5 6 
#
# 1 58.7780 22.2461 13.0719 0.0000 -5.6776 0.0000
# 2 22.2461 40.6217 25.4700 0.0000 1.0274 0.0000
# 3 13.0719 25.4700 122.8209 0.0000 1.9949 0.0000
# 4 0.0000 0.0000 0.0000 30.3404 0.0000 2.2962
# 5 -5.6776 1.0274 1.9949 0.0000 31.9034 0.0000
# 6 0.0000 0.0000 0.0000 2.2962 0.0000 21.5739
#
#
#
# Elastic Compliance Matrix: (Units=1/GPa)
#
#
# Indices 1 2 3 4 5 6 
#
# 1 0.022041 -0.012259 0.000126 0.000000 0.004309 0.000000
# 2 -0.012259 0.035124 -0.005931 0.000000 -0.002942 0.000000
# 3 0.000126 -0.005931 0.009365 0.000000 -0.000372 0.000000
# 4 0.000000 0.000000 0.000000 0.033227 0.000000 -0.003537
# 5 0.004309 -0.002942 -0.000372 0.000000 0.032229 0.000000
# 6 0.000000 0.000000 0.000000 -0.003537 0.000000 0.046729
#
#
# Mechanical properties :
#
#
# Convention : Reuss Voigt Hill
#
# Bulk Modulus (GPa) = 32.89246 38.19962 35.54604
# Shear Modulus (GPa) = 22.22454 27.52571 24.87512
#
# Velocity S-wave (km/s) = 3.27717 3.64714 3.46710
# Velocity P-wave (km/s) = 5.49681 6.01625 5.76239
#
# Compressibility (1/GPa) = 0.03040210
#
# Stress axis : x y z
#
# Youngs Moduli (GPa) = 45.37002 28.47043 106.78564
#
# Poissons Ratio (x) = 0.34901 -0.01349
# Poissons Ratio (y) = 0.55618 0.63339
# Poissons Ratio (z) = -0.00573 0.16887
#
# Static dielectric constant tensor:
#      x y z
#    x 3.645230 0.000000 -0.066630 
#    y 0.000000 3.476350 0.000000 
#    z -0.066630 0.000000 4.025580 
# 
# 
# High freq. dielectric constant tensor:
#      x y z
#    x 1.809770 0.000000 -0.004030 
#    y 0.000000 1.784380 0.000000 
#    z -0.004030 0.000000 1.827850 
# 
# From -- ./inp_files/230839.got.cif
#   From: 2010.06.25/outbox.cif.g09.slc.cpg/sg12_116_cif.got.tgz:230839.got - 2010.06.28 00:19:55.
