data_PCOD8097969
_publ_section_title
;
Structure prediction by ZEFSAII (Michael W. Deem and Ramdas Pophale) SiO2 
 PCOD8097969
Probable space group: C 2/M
;
_chemical_formula_sum "Si O2"
_cell_formula_units_Z 56
_cell_length_a 19.937951
_cell_length_b 8.928469
_cell_length_c 18.442009
_cell_angle_alpha 90.000000
_cell_angle_beta 83.244637
_cell_angle_gamma 90.000000
_cell_volume 3260.169073
_symmetry_space_group_name_H-M "C 2/M"
_symmetry_group_IT_number 12
_symmetry_cell_setting 'monoclinic'
loop_
_space_group_symop_operation_xyz
x,y,z
-x,y,-z
-x,-y,-z
x,-y,z
1/2+x,1/2+y,z
1/2-x,1/2+y,-z
1/2-x,1/2-y,-z
1/2+x,1/2-y,z
loop_
_atom_site_type_symbol
_atom_site_label
_atom_site_fract_x
_atom_site_fract_y
_atom_site_fract_z
Si Si1 0.481981 0.671654 0.704911
Si Si2 0.748742 0.669671 0.076367
Si Si3 0.321476 0.823863 0.477921
Si Si4 0.122805 0.324102 0.685451
Si Si5 0.348493 0.330853 0.792320
Si Si6 0.218543 0.176711 0.789391
Si Si7 0.565780 0.328148 0.449982
O O1 0.506238 0.500000 0.712525
O O2 0.544639 0.781848 0.704333
O O3 0.425887 0.720959 0.771848
O O4 0.444699 0.692059 0.633543
O O5 0.774346 0.500000 0.063230
O O6 0.672164 0.673755 0.119460
O O7 0.797297 0.753637 0.128562
O O8 0.750000 0.750000 0.000000
O O9 0.250000 0.750000 0.500000
O O10 0.351632 0.773207 0.396744
O O11 0.370881 0.771183 0.535230
O O12 0.312694 0.000000 0.483114
O O13 0.131821 0.500000 0.696468
O O14 0.164445 0.236021 0.739934
O O15 0.341282 0.500000 0.762379
O O16 0.294351 0.227936 0.755322
O O17 0.213952 0.000000 0.794396
O O18 0.500000 0.267741 0.500000
O O19 0.579899 0.500000 0.469957
#
# Coordination Sequence:
#
# PCOD8097969 Si02
#       7
#     8   8   8   8   8   8   8
#     4  10  20  36  57  78 106 144 181 221 272 327
#     4   9  17  32  55  84 115 144 177 219 265 314
#     4  11  25  39  54  75 104 139 181 230 279 327
#     4  11  23  38  53  75 108 143 178 225 277 322
#     4   8  18  34  53  80 111 141 175 219 265 315
#     4  10  20  34  55  81 108 141 181 219 262 318
#     4  10  20  36  57  79 104 137 180 225 272 326
#
# _framework density 17.177023999999999
#
# number of rings (size 3 to 8) (size 9 to 14) (size 15 to 20)
#    0.857    1.286    1.429    2.143    2.000    3.143 
#    0.000    0.000    0.000    0.857    0.000    6.000 
#    0.000    0.000    0.000    0.000    0.000    0.000 
#
# Total GULP energy -347065.044049 kJ/mol
# GULP energy per Si atom -12395.180145 kJ/mol
# Density = 1.713793 g / cm^3
# Si number density = 17.177024 Si / 1000 Ang^3
#
#
#
# Elastic Constant Matrix: (Units=GPa)
#
#
# Indices 1 2 3 4 5 6 
#
# 1 111.1779 51.4516 41.4640 0.0000 -8.0118 0.0000
# 2 51.4516 104.9083 43.2333 0.0000 3.1693 0.0000
# 3 41.4640 43.2333 74.7858 0.0000 -8.9053 0.0000
# 4 0.0000 0.0000 0.0000 29.0446 0.0000 3.4494
# 5 -8.0118 3.1693 -8.9053 0.0000 21.1482 0.0000
# 6 0.0000 0.0000 0.0000 3.4494 0.0000 32.7206
#
#
#
# Elastic Compliance Matrix: (Units=1/GPa)
#
#
# Indices 1 2 3 4 5 6 
#
# 1 0.013003 -0.004889 -0.003905 0.000000 0.004014 0.000000
# 2 -0.004889 0.014915 -0.006736 0.000000 -0.006924 0.000000
# 3 -0.003905 -0.006736 0.020397 0.000000 0.008119 0.000000
# 4 0.000000 0.000000 0.000000 0.034866 0.000000 -0.003676
# 5 0.004014 -0.006924 0.008119 0.000000 0.053263 0.000000
# 6 0.000000 0.000000 0.000000 -0.003676 0.000000 0.030949
#
#
# Mechanical properties :
#
#
# Convention : Reuss Voigt Hill
#
# Bulk Modulus (GPa) = 57.95358 62.57443 60.26400
# Shear Modulus (GPa) = 24.48508 26.89756 25.69132
#
# Velocity S-wave (km/s) = 3.77962 3.96144 3.87160
# Velocity P-wave (km/s) = 7.27046 7.57841 7.42603
#
# Compressibility (1/GPa) = 0.01725519
#
# Stress axis : x y z
#
# Youngs Moduli (GPa) = 76.90611 67.04559 49.02582
#
# Poissons Ratio (x) = 0.32780 0.19143
# Poissons Ratio (y) = 0.37602 0.33024
# Poissons Ratio (z) = 0.30030 0.45163
#
# Static dielectric constant tensor:
#      x y z
#    x 3.137270 0.000000 -0.085390 
#    y 0.000000 3.267500 0.000000 
#    z -0.085390 0.000000 3.163790 
# 
# 
# High freq. dielectric constant tensor:
#      x y z
#    x 1.651780 0.000000 -0.006170 
#    y 0.000000 1.670130 0.000000 
#    z -0.006170 0.000000 1.651290 
# 
# From -- ./inp_files/313291.got.cif
#   From: 2010.06.25/outbox.cif.g09.slc.cpg/sg12_157_cif.got.tgz:313291.got - 2010.06.28 00:19:55.
