data_PCOD8097560
_publ_section_title
;
Structure prediction by ZEFSAII (Michael W. Deem and Ramdas Pophale) SiO2 
 PCOD8097560
Probable space group: C 2/M
;
_chemical_formula_sum "Si O2"
_cell_formula_units_Z 56
_cell_length_a 18.040664
_cell_length_b 9.078226
_cell_length_c 18.755328
_cell_angle_alpha 90.000000
_cell_angle_beta 105.095554
_cell_angle_gamma 90.000000
_cell_volume 2965.700090
_symmetry_space_group_name_H-M "C 2/M"
_symmetry_group_IT_number 12
_symmetry_cell_setting 'monoclinic'
loop_
_space_group_symop_operation_xyz
x,y,z
-x,y,-z
-x,-y,-z
x,-y,z
1/2+x,1/2+y,z
1/2-x,1/2+y,-z
1/2-x,1/2-y,-z
1/2+x,1/2-y,z
loop_
_atom_site_type_symbol
_atom_site_label
_atom_site_fract_x
_atom_site_fract_y
_atom_site_fract_z
Si Si1 0.696740 0.827255 0.145215
Si Si2 0.826205 0.169942 0.995250
Si Si3 0.872546 0.167635 0.158305
Si Si4 0.513537 0.825792 0.711222
Si Si5 0.777146 0.175165 0.434910
Si Si6 0.653011 0.825090 0.289831
Si Si7 0.569599 0.829686 0.571292
O O1 0.786299 0.787990 0.158771
O O2 0.669047 0.765763 0.214372
O O3 0.682257 0.000000 0.133174
O O4 0.645919 0.745619 0.071393
O O5 0.885750 0.186456 0.076099
O O6 0.808017 0.000000 0.975977
O O7 0.750000 0.250000 0.000000
O O8 0.931219 0.272863 0.212490
O O9 0.888453 0.000000 0.185711
O O10 0.428186 0.761838 0.702855
O O11 0.543443 0.771919 0.642147
O O12 0.510619 0.000000 0.712721
O O13 0.750000 0.250000 0.500000
O O14 0.720195 0.230261 0.358534
O O15 0.862040 0.226936 0.437324
O O16 0.775524 0.000000 0.443549
O O17 0.652234 0.000000 0.288619
O O18 0.500000 0.808885 0.500000
O O19 0.596225 0.000000 0.580035
#
# Coordination Sequence:
#
# PCOD8097560 Si02
#       7
#     8   8   8   8   8   8   8
#     4   9  17  32  54  76 100 133 174 216 259 310
#     4   9  17  30  49  74 103 134 170 212 261 312
#     4   9  18  32  50  74 104 136 169 214 270 314
#     4  10  20  34  54  77 102 138 180 216 256 312
#     4  11  22  38  60  83 110 142 178 220 266 318
#     4   9  19  36  55  76 105 141 176 215 266 314
#     4  10  21  38  58  81 112 145 177 218 267 315
#
# _framework density 18.882556000000001
#
# number of rings (size 3 to 8) (size 9 to 14) (size 15 to 20)
#    0.000    2.429    0.000    3.429    0.000    7.143 
#    0.000    5.714    0.000    4.286    0.000    0.000 
#    0.000    0.000    0.000    0.000    0.000    0.000 
#
# Total GULP energy -347156.983190 kJ/mol
# GULP energy per Si atom -12398.463685 kJ/mol
# Density = 1.883958 g / cm^3
# Si number density = 18.882556 Si / 1000 Ang^3
#
#
#
# Elastic Constant Matrix: (Units=GPa)
#
#
# Indices 1 2 3 4 5 6 
#
# 1 106.7583 35.7863 63.7136 0.0000 -13.7509 0.0000
# 2 35.7863 55.9234 48.1543 0.0000 -6.0490 0.0000
# 3 63.7136 48.1543 160.8763 0.0000 -20.2794 0.0000
# 4 0.0000 0.0000 0.0000 33.5045 0.0000 0.6065
# 5 -13.7509 -6.0490 -20.2794 0.0000 29.6887 0.0000
# 6 0.0000 0.0000 0.0000 0.6065 0.0000 24.3160
#
#
#
# Elastic Compliance Matrix: (Units=1/GPa)
#
#
# Indices 1 2 3 4 5 6 
#
# 1 0.013590 -0.005474 -0.003382 0.000000 0.002869 0.000000
# 2 -0.005474 0.026296 -0.005851 0.000000 -0.001174 0.000000
# 3 -0.003382 -0.005851 0.009803 0.000000 0.003938 0.000000
# 4 0.000000 0.000000 0.000000 0.029860 0.000000 -0.000745
# 5 0.002869 -0.001174 0.003938 0.000000 0.037462 0.000000
# 6 0.000000 0.000000 0.000000 -0.000745 0.000000 0.041144
#
#
# Mechanical properties :
#
#
# Convention : Reuss Voigt Hill
#
# Bulk Modulus (GPa) = 49.32276 68.76292 59.04284
# Shear Modulus (GPa) = 25.72989 29.22877 27.47933
#
# Velocity S-wave (km/s) = 3.69538 3.93864 3.81895
# Velocity P-wave (km/s) = 6.66223 7.56168 7.12616
#
# Compressibility (1/GPa) = 0.02027461
#
# Stress axis : x y z
#
# Youngs Moduli (GPa) = 73.58500 38.02917 102.00855
#
# Poissons Ratio (x) = 0.20816 0.34499
# Poissons Ratio (y) = 0.40279 0.59686
# Poissons Ratio (z) = 0.24886 0.22251
#
# Static dielectric constant tensor:
#      x y z
#    x 3.387160 0.000000 -0.075280 
#    y 0.000000 3.381370 0.000000 
#    z -0.075280 0.000000 3.756140 
# 
# 
# High freq. dielectric constant tensor:
#      x y z
#    x 1.717230 0.000000 -0.008120 
#    y 0.000000 1.716880 0.000000 
#    z -0.008120 0.000000 1.755160 
# 
# From -- ./inp_files/275295.got.cif
#   From: 2010.06.25/outbox.cif.g09.slc.cpg/sg12_138_cif.got.tgz:275295.got - 2010.06.28 00:19:55.
