data_PCOD8097473
_publ_section_title
;
Structure prediction by ZEFSAII (Michael W. Deem and Ramdas Pophale) SiO2 
 PCOD8097473
Probable space group: C 2/M
;
_chemical_formula_sum "Si O2"
_cell_formula_units_Z 48
_cell_length_a 19.411893
_cell_length_b 17.854359
_cell_length_c 11.412097
_cell_angle_alpha 90.000000
_cell_angle_beta 42.925029
_cell_angle_gamma 90.000000
_cell_volume 2693.709395
_symmetry_space_group_name_H-M "C 2/M"
_symmetry_group_IT_number 12
_symmetry_cell_setting 'monoclinic'
loop_
_space_group_symop_operation_xyz
x,y,z
-x,y,-z
-x,-y,-z
x,-y,z
1/2+x,1/2+y,z
1/2-x,1/2+y,-z
1/2-x,1/2-y,-z
1/2+x,1/2-y,z
loop_
_atom_site_type_symbol
_atom_site_label
_atom_site_fract_x
_atom_site_fract_y
_atom_site_fract_z
Si Si1 0.439137 0.677768 0.343585
Si Si2 0.387320 0.285195 0.159985
Si Si3 0.927549 0.294469 0.695795
Si Si4 0.714842 0.687473 0.264292
Si Si5 0.292870 0.914670 0.972748
Si Si6 0.891807 0.084674 0.972468
O O1 0.369343 0.699634 0.319947
O O2 0.511925 0.747235 0.283286
O O3 0.369272 0.657326 0.540765
O O4 0.508914 0.606911 0.225501
O O5 0.306420 0.225246 0.219089
O O6 0.376872 0.363352 0.104012
O O7 0.500000 0.252376 0.000000
O O8 0.832734 0.246640 0.767052
O O9 0.889396 0.368797 0.807221
O O10 0.000000 0.319346 0.500000
O O11 0.755497 0.616114 0.144021
O O12 0.204883 0.907312 0.988327
O O13 0.327181 0.000000 0.947943
O O14 0.905318 0.000000 0.000368
#
# Coordination Sequence:
#
# PCOD8097473 Si02
#       6
#     8   8   8   8   8   8
#     4  10  21  34  55  85 107 140 177 219 269 310
#     4  10  20  34  56  81 106 142 179 221 265 310
#     4  10  20  36  58  80 104 137 183 227 261 307
#     4  11  20  36  57  79 110 140 178 222 262 317
#     4  11  21  34  55  80 109 143 177 217 266 316
#     4  10  20  34  53  80 112 143 176 214 264 322
#
# _framework density 17.819295
#
# number of rings (size 3 to 8) (size 9 to 14) (size 15 to 20)
#    0.000    1.667    3.333    3.000    0.000    4.000 
#    0.000    1.667    0.000    4.500    0.000    0.000 
#    0.000    0.000    0.000    0.000    0.000    0.000 
#
# Total GULP energy -297667.776693 kJ/mol
# GULP energy per Si atom -12402.824029 kJ/mol
# Density = 1.777874 g / cm^3
# Si number density = 17.819295 Si / 1000 Ang^3
#
#
#
# Elastic Constant Matrix: (Units=GPa)
#
#
# Indices 1 2 3 4 5 6 
#
# 1 92.2809 49.7719 31.3536 0.0000 5.2011 0.0000
# 2 49.7719 81.3534 29.4022 0.0000 3.7179 0.0000
# 3 31.3536 29.4022 64.2514 0.0000 10.4437 0.0000
# 4 0.0000 0.0000 0.0000 32.7534 0.0000 9.8704
# 5 5.2011 3.7179 10.4437 0.0000 27.3160 0.0000
# 6 0.0000 0.0000 0.0000 9.8704 0.0000 33.3905
#
#
#
# Elastic Compliance Matrix: (Units=1/GPa)
#
#
# Indices 1 2 3 4 5 6 
#
# 1 0.017099 -0.008928 -0.004187 0.000000 -0.000440 0.000000
# 2 -0.008928 0.019399 -0.004657 0.000000 0.000840 0.000000
# 3 -0.004187 -0.004657 0.020798 0.000000 -0.006521 0.000000
# 4 0.000000 0.000000 0.000000 0.033517 0.000000 -0.009908
# 5 -0.000440 0.000840 -0.006521 0.000000 0.039071 0.000000
# 6 0.000000 0.000000 0.000000 -0.009908 0.000000 0.032877
#
#
# Mechanical properties :
#
#
# Convention : Reuss Voigt Hill
#
# Bulk Modulus (GPa) = 45.97271 50.99348 48.48310
# Shear Modulus (GPa) = 24.32424 27.18250 25.75337
#
# Velocity S-wave (km/s) = 3.69867 3.90994 3.80577
# Velocity P-wave (km/s) = 6.64045 7.00447 6.82489
#
# Compressibility (1/GPa) = 0.02175203
#
# Stress axis : x y z
#
# Youngs Moduli (GPa) = 58.48245 51.54948 48.08123
#
# Poissons Ratio (x) = 0.46023 0.20132
# Poissons Ratio (y) = 0.52212 0.22392
# Poissons Ratio (z) = 0.24487 0.24007
#
# Static dielectric constant tensor:
#      x y z
#    x 3.464020 0.000000 0.030080 
#    y 0.000000 3.165320 0.000000 
#    z 0.030080 0.000000 3.373450 
# 
# 
# High freq. dielectric constant tensor:
#      x y z
#    x 1.699460 0.000000 0.005220 
#    y 0.000000 1.668910 0.000000 
#    z 0.005220 0.000000 1.695320 
# 
# From -- ./inp_files/157424.got.cif
#   From: 2010.06.25/outbox.cif.g09.slc.cpg/sg12_79_cif.got.tgz:157424.got - 2010.06.28 00:19:55.
