data_PCOD8097207
_publ_section_title
;
Structure prediction by ZEFSAII (Michael W. Deem and Ramdas Pophale) SiO2 
 PCOD8097207
Probable space group: C 2/M
;
_chemical_formula_sum "Si O2"
_cell_formula_units_Z 64
_cell_length_a 18.508446
_cell_length_b 9.217048
_cell_length_c 22.527049
_cell_angle_alpha 90.000000
_cell_angle_beta 115.133437
_cell_angle_gamma 90.000000
_cell_volume 3479.114692
_symmetry_space_group_name_H-M "C 2/M"
_symmetry_group_IT_number 12
_symmetry_cell_setting 'monoclinic'
loop_
_space_group_symop_operation_xyz
x,y,z
-x,y,-z
-x,-y,-z
x,-y,z
1/2+x,1/2+y,z
1/2-x,1/2+y,-z
1/2-x,1/2-y,-z
1/2+x,1/2-y,z
loop_
_atom_site_type_symbol
_atom_site_label
_atom_site_fract_x
_atom_site_fract_y
_atom_site_fract_z
Si Si1 0.576059 0.168629 0.485816
Si Si2 0.779095 0.667301 0.740096
Si Si3 0.088447 0.836284 0.867771
Si Si4 0.257084 0.831960 0.865218
Si Si5 0.182180 0.167492 0.011440
Si Si6 0.730414 0.169377 0.611978
Si Si7 0.903638 0.828873 0.627209
Si Si8 0.454597 0.831965 0.757239
O O1 0.500000 0.198615 0.500000
O O2 0.655403 0.221550 0.547328
O O3 0.566382 0.263568 0.423856
O O4 0.582712 0.000000 0.470451
O O5 0.756313 0.500000 0.725046
O O6 0.757791 0.724876 0.798042
O O7 0.726144 0.753172 0.674065
O O8 0.872124 0.695660 0.762085
O O9 0.169707 0.804008 0.860813
O O10 0.101969 0.818320 0.943686
O O11 0.023255 0.721101 0.825149
O O12 0.059371 0.000000 0.843744
O O13 0.281760 0.000000 0.876961
O O14 0.323817 0.742000 0.925831
O O15 0.206298 0.000000 0.027319
O O16 0.250000 0.250000 0.000000
O O17 0.810834 0.212215 0.604832
O O18 0.726496 0.000000 0.623526
O O19 0.957537 0.759061 0.697536
O O20 0.917597 0.000000 0.632056
O O21 0.467603 0.000000 0.746369
#
# Coordination Sequence:
#
# PCOD8097207 Si02
#       8
#     8   8   8   8   8   8   8   8
#     4  10  21  36  53  77 108 133 159 203 251 293
#     4   9  19  35  53  74 100 131 168 209 250 292
#     4   9  18  32  50  73 101 131 165 208 253 297
#     4   9  18  33  52  74 101 132 168 210 251 294
#     4   9  17  30  49  73 100 132 169 207 249 297
#     4   9  19  35  54  75  99 132 170 204 243 293
#     4  10  20  35  55  75  98 132 171 206 242 292
#     4  10  20  34  53  75 100 132 168 206 250 298
#
# _framework density 18.395485999999998
#
# number of rings (size 3 to 8) (size 9 to 14) (size 15 to 20)
#    0.000    2.625    0.000    2.250    0.000    5.750 
#    0.000    3.125    0.000    3.750    0.000    0.000 
#    0.000    0.000    0.000    0.000    0.000    0.000 
#
# Total GULP energy -396806.553904 kJ/mol
# GULP energy per Si atom -12400.204810 kJ/mol
# Density = 1.835362 g / cm^3
# Si number density = 18.395486 Si / 1000 Ang^3
#
#
#
# Elastic Constant Matrix: (Units=GPa)
#
#
# Indices 1 2 3 4 5 6 
#
# 1 26.3912 13.1424 6.9837 0.0000 1.2272 0.0000
# 2 13.1424 65.8400 27.4674 0.0000 2.1156 0.0000
# 3 6.9837 27.4674 65.4643 0.0000 -0.5964 0.0000
# 4 0.0000 0.0000 0.0000 41.5445 0.0000 -1.2525
# 5 1.2272 2.1156 -0.5964 0.0000 30.3584 0.0000
# 6 0.0000 0.0000 0.0000 -1.2525 0.0000 22.4572
#
#
#
# Elastic Compliance Matrix: (Units=1/GPa)
#
#
# Indices 1 2 3 4 5 6 
#
# 1 0.042190 -0.007881 -0.001205 0.000000 -0.001180 0.000000
# 2 -0.007881 0.019946 -0.007539 0.000000 -0.001220 0.000000
# 3 -0.001205 -0.007539 0.018576 0.000000 0.000939 0.000000
# 4 0.000000 0.000000 0.000000 0.024111 0.000000 0.001345
# 5 -0.001180 -0.001220 0.000939 0.000000 0.033091 0.000000
# 6 0.000000 0.000000 0.000000 0.001345 0.000000 0.044604
#
#
# Mechanical properties :
#
#
# Convention : Reuss Voigt Hill
#
# Bulk Modulus (GPa) = 21.06976 28.09804 24.58390
# Shear Modulus (GPa) = 21.59004 26.21214 23.90109
#
# Velocity S-wave (km/s) = 3.42959 3.77891 3.60848
# Velocity P-wave (km/s) = 5.21166 5.86070 5.54568
#
# Compressibility (1/GPa) = 0.04746139
#
# Stress axis : x y z
#
# Youngs Moduli (GPa) = 23.70245 50.13566 53.83324
#
# Poissons Ratio (x) = 0.39512 0.06486
# Poissons Ratio (y) = 0.18680 0.40586
# Poissons Ratio (z) = 0.02856 0.37798
#
# Static dielectric constant tensor:
#      x y z
#    x 3.170980 0.000000 -0.030300 
#    y 0.000000 3.440530 0.000000 
#    z -0.030300 0.000000 3.722660 
# 
# 
# High freq. dielectric constant tensor:
#      x y z
#    x 1.686460 0.000000 -0.002170 
#    y 0.000000 1.716260 0.000000 
#    z -0.002170 0.000000 1.726920 
# 
# From -- ./inp_files/320072.got.cif
#   From: 2010.06.25/outbox.cif.g09.slc.cpg/sg12_161_cif.got.tgz:320072.got - 2010.06.28 00:19:55.
