data_PCOD8097390
_publ_section_title
;
Structure prediction by ZEFSAII (Michael W. Deem and Ramdas Pophale) SiO2 
 PCOD8097390
Probable space group: C 2/M
;
_chemical_formula_sum "Si O2"
_cell_formula_units_Z 40
_cell_length_a 19.646829
_cell_length_b 7.781489
_cell_length_c 24.389121
_cell_angle_alpha 90.000000
_cell_angle_beta 35.628349
_cell_angle_gamma 90.000000
_cell_volume 2172.031127
_symmetry_space_group_name_H-M "C 2/M"
_symmetry_group_IT_number 12
_symmetry_cell_setting 'monoclinic'
loop_
_space_group_symop_operation_xyz
x,y,z
-x,y,-z
-x,-y,-z
x,-y,z
1/2+x,1/2+y,z
1/2-x,1/2+y,-z
1/2-x,1/2-y,-z
1/2+x,1/2-y,z
loop_
_atom_site_type_symbol
_atom_site_label
_atom_site_fract_x
_atom_site_fract_y
_atom_site_fract_z
Si Si1 0.353236 0.191504 0.229573
Si Si2 0.982591 0.000000 0.100333
Si Si3 0.789254 0.199427 0.388520
Si Si4 0.812953 0.807086 0.760544
Si Si5 0.687872 0.500000 0.890723
Si Si6 0.929998 0.702777 0.397283
O O1 0.456849 0.329302 0.152875
O O2 0.304691 0.196364 0.322731
O O3 0.246002 0.234143 0.259277
O O4 0.402701 0.000000 0.185630
O O5 0.904053 0.000000 0.097977
O O6 0.118690 0.000000 0.993734
O O7 0.898629 0.236333 0.356569
O O8 0.670911 0.265060 0.495102
O O9 0.781980 0.000000 0.378736
O O10 0.767629 0.671092 0.835496
O O11 0.951135 0.791907 0.661752
O O12 0.781306 0.000000 0.801052
O O13 0.945030 0.500000 0.388935
#
# Coordination Sequence:
#
# PCOD8097390 Si02
#       6
#     8   4   8   8   4   8
#     4  10  20  34  54  81 109 140 178 218 265 314
#     4   9  18  34  55  79 107 137 175 222 268 316
#     4  10  20  34  53  78 108 143 181 217 260 317
#     4  10  20  34  54  81 109 140 178 218 265 314
#     4   9  18  34  55  79 107 137 175 222 268 316
#     4  10  20  34  53  78 108 143 181 217 260 317
#
# _framework density 18.415942000000001
#
# number of rings (size 3 to 8) (size 9 to 14) (size 15 to 20)
#    0.000    2.200    2.000    1.200    0.000    4.000 
#    0.000    8.000    0.000    1.200    0.000    0.000 
#    0.000    0.000    0.000    0.000    0.000    0.000 
#
# Total GULP energy -248024.792448 kJ/mol
# GULP energy per Si atom -12401.239622 kJ/mol
# Density = 1.837403 g / cm^3
# Si number density = 18.415942 Si / 1000 Ang^3
#
#
#
# Elastic Constant Matrix: (Units=GPa)
#
#
# Indices 1 2 3 4 5 6 
#
# 1 52.1780 23.6100 46.7683 0.0010 13.3627 -0.0350
# 2 23.6100 118.4588 51.7017 0.0040 9.4991 -0.0204
# 3 46.7683 51.7017 111.7861 -0.0017 10.4881 -0.0080
# 4 0.0010 0.0040 -0.0017 18.9006 0.0018 -0.0915
# 5 13.3627 9.4991 10.4881 0.0018 6.3677 0.0229
# 6 -0.0350 -0.0204 -0.0080 -0.0915 0.0229 24.8671
#
#
#
# Elastic Compliance Matrix: (Units=1/GPa)
#
#
# Indices 1 2 3 4 5 6 
#
# 1 0.057863 0.003688 -0.016565 0.000005 -0.099645 0.000171
# 2 0.003688 0.011281 -0.005270 -0.000001 -0.015887 0.000027
# 3 -0.016565 -0.005270 0.016931 0.000002 0.014737 -0.000036
# 4 0.000005 -0.000001 0.000002 0.052909 -0.000026 0.000195
# 5 -0.099645 -0.015887 0.014737 -0.000026 0.365576 -0.000484
# 6 0.000171 0.000027 -0.000036 0.000195 -0.000484 0.040215
#
#
# Mechanical properties :
#
#
# Convention : Reuss Voigt Hill
#
# Bulk Modulus (GPa) = 20.08822 58.50922 39.29872
# Shear Modulus (GPa) = 8.36592 20.71660 14.54126
#
# Velocity S-wave (km/s) = 2.13369 3.35763 2.81303
# Velocity P-wave (km/s) = 4.12334 6.84628 5.65126
#
# Compressibility (1/GPa) = 0.04978042
#
# Stress axis : x y z
#
# Youngs Moduli (GPa) = 17.28211 88.64709 59.06485
#
# Poissons Ratio (x) = -0.32689 0.97841
# Poissons Ratio (y) = -0.06373 0.31125
# Poissons Ratio (z) = 0.28628 0.46713
#
# Static dielectric constant tensor:
#      x y z
#    x 3.170070 0.000000 -0.012270 
#    y 0.000000 3.583350 0.000000 
#    z -0.012270 0.000000 3.420930 
# 
# 
# High freq. dielectric constant tensor:
#      x y z
#    x 1.688080 0.000000 0.000330 
#    y 0.000000 1.734010 0.000000 
#    z 0.000330 0.000000 1.698730 
# 
# From -- ./inp_files/151909.got.cif
#   From: 2010.06.25/outbox.cif.g09.slc.cpg/sg12_76_cif.got.tgz:151909.got - 2010.06.28 00:19:55.
