data_PCOD8097746
_publ_section_title
;
Structure prediction by ZEFSAII (Michael W. Deem and Ramdas Pophale) SiO2 
 PCOD8097746
Probable space group: C 2/M
;
_chemical_formula_sum "Si O2"
_cell_formula_units_Z 40
_cell_length_a 27.169830
_cell_length_b 9.168451
_cell_length_c 25.644541
_cell_angle_alpha 90.000000
_cell_angle_beta 160.380299
_cell_angle_gamma 90.000000
_cell_volume 2144.997499
_symmetry_space_group_name_H-M "C 2/M"
_symmetry_group_IT_number 12
_symmetry_cell_setting 'monoclinic'
loop_
_space_group_symop_operation_xyz
x,y,z
-x,y,-z
-x,-y,-z
x,-y,z
1/2+x,1/2+y,z
1/2-x,1/2+y,-z
1/2-x,1/2-y,-z
1/2+x,1/2-y,z
loop_
_atom_site_type_symbol
_atom_site_label
_atom_site_fract_x
_atom_site_fract_y
_atom_site_fract_z
Si Si1 0.424070 0.828360 0.778498
Si Si2 0.418829 0.668280 0.972673
Si Si3 0.916303 0.834183 0.556434
Si Si4 0.419537 0.170804 0.368750
Si Si5 0.401723 0.331277 0.657163
O O1 0.253797 0.786198 0.616305
O O2 0.488320 0.747767 0.790781
O O3 0.445558 0.000000 0.792660
O O4 0.515016 0.773838 0.918246
O O5 0.438095 0.500000 0.008949
O O6 0.250332 0.710806 0.796747
O O7 0.500000 0.700307 0.000000
O O8 0.980616 0.817396 0.679556
O O9 0.013675 0.735002 0.616991
O O10 0.930778 0.000000 0.551844
O O11 0.500000 0.236493 0.500000
O O12 0.446637 0.000000 0.393061
O O13 0.375625 0.500000 0.645385
O O14 0.250000 0.250000 0.500000
#
# Coordination Sequence:
#
# PCOD8097746 Si02
#       5
#     8   8   8   8   8
#     4  10  20  34  54  81 109 140 179 218 261 311
#     4  10  21  37  56  78 105 138 176 219 268 318
#     4   9  19  34  53  79 108 138 173 214 259 308
#     4  10  21  36  55  79 104 135 176 217 262 317
#     4   9  17  31  52  79 109 140 177 217 259 309
#
# _framework density 18.648040000000002
#
# number of rings (size 3 to 8) (size 9 to 14) (size 15 to 20)
#    0.000    2.400    0.000    3.600    0.000    8.000 
#    0.000    1.000    0.000    0.000    0.000    0.000 
#    0.000    0.000    0.000    0.000    0.000    0.000 
#
# Total GULP energy -247963.850338 kJ/mol
# GULP energy per Si atom -12398.192517 kJ/mol
# Density = 1.860560 g / cm^3
# Si number density = 18.648040 Si / 1000 Ang^3
#
#
#
# Elastic Constant Matrix: (Units=GPa)
#
#
# Indices 1 2 3 4 5 6 
#
# 1 137.4558 66.8464 68.2319 -0.0008 -7.5764 0.0000
# 2 66.8464 91.0885 52.7500 0.0055 -7.6105 0.0014
# 3 68.2319 52.7500 94.8003 0.0043 -4.4939 0.0010
# 4 -0.0008 0.0055 0.0043 28.1359 0.0010 -4.5178
# 5 -7.5764 -7.6105 -4.4939 0.0010 27.5458 -0.0001
# 6 0.0000 0.0014 0.0010 -4.5178 -0.0001 37.5989
#
#
#
# Elastic Compliance Matrix: (Units=1/GPa)
#
#
# Indices 1 2 3 4 5 6 
#
# 1 0.013388 -0.006182 -0.006150 0.000003 0.000971 0.000001
# 2 -0.006182 0.019307 -0.006169 -0.000003 0.002627 -0.000001
# 3 -0.006150 -0.006169 0.018389 -0.000002 -0.000396 0.000000
# 4 0.000003 -0.000003 -0.000002 0.036241 -0.000002 0.004355
# 5 0.000971 0.002627 -0.000396 -0.000002 0.037232 0.000000
# 6 0.000001 -0.000001 0.000000 0.004355 0.000000 0.027120
#
#
# Mechanical properties :
#
#
# Convention : Reuss Voigt Hill
#
# Bulk Modulus (GPa) = 71.01444 77.66679 74.34061
# Shear Modulus (GPa) = 25.85691 27.69055 26.77373
#
# Velocity S-wave (km/s) = 3.72771 3.85763 3.79323
# Velocity P-wave (km/s) = 7.52940 7.84735 7.69002
#
# Compressibility (1/GPa) = 0.01408164
#
# Stress axis : x y z
#
# Youngs Moduli (GPa) = 74.69506 51.79383 54.38170
#
# Poissons Ratio (x) = 0.32021 0.33443
# Poissons Ratio (y) = 0.46179 0.33548
# Poissons Ratio (z) = 0.45935 0.31952
#
# Static dielectric constant tensor:
#      x y z
#    x 4.389940 0.000000 -0.589470 
#    y 0.000000 3.468270 0.000000 
#    z -0.589470 0.000000 3.506140 
# 
# 
# High freq. dielectric constant tensor:
#      x y z
#    x 1.737350 0.000000 -0.015240 
#    y 0.000000 1.727290 0.000000 
#    z -0.015240 0.000000 1.699780 
# 
# From -- ./inp_files/93012.got.cif
#   From: 2010.06.25/outbox.cif.g09.slc.cpg/sg12_47_cif.got.tgz:93012.got - 2010.06.28 00:19:55.
