data_PCOD8097614
_publ_section_title
;
Structure prediction by ZEFSAII (Michael W. Deem and Ramdas Pophale) SiO2 
 PCOD8097614
Probable space group: C 2/M
;
_chemical_formula_sum "Si O2"
_cell_formula_units_Z 40
_cell_length_a 26.478464
_cell_length_b 17.451216
_cell_length_c 9.375494
_cell_angle_alpha 90.000000
_cell_angle_beta 28.981310
_cell_angle_gamma 90.000000
_cell_volume 2099.076168
_symmetry_space_group_name_H-M "C 2/M"
_symmetry_group_IT_number 12
_symmetry_cell_setting 'monoclinic'
loop_
_space_group_symop_operation_xyz
x,y,z
-x,y,-z
-x,-y,-z
x,-y,z
1/2+x,1/2+y,z
1/2-x,1/2+y,-z
1/2-x,1/2-y,-z
1/2+x,1/2-y,z
loop_
_atom_site_type_symbol
_atom_site_label
_atom_site_fract_x
_atom_site_fract_y
_atom_site_fract_z
Si Si1 0.902906 0.591194 0.149399
Si Si2 0.399903 0.909168 0.834268
Si Si3 0.724180 0.338119 0.081591
Si Si4 0.288395 0.590728 0.193705
Si Si5 0.015972 0.915224 0.627143
O O1 0.906114 0.500000 0.142152
O O2 0.795477 0.621088 0.484930
O O3 0.910156 0.621870 0.970231
O O4 0.000000 0.624020 0.000000
O O5 0.500000 0.880234 0.500000
O O6 0.390050 0.000000 0.854118
O O7 0.298266 0.873666 0.016541
O O8 0.607172 0.353720 0.431092
O O9 0.750000 0.250000 0.000000
O O10 0.741361 0.377070 0.887008
O O11 0.283679 0.500000 0.189268
O O12 0.404159 0.615247 0.963102
O O13 0.000000 0.925340 0.500000
O O14 0.044077 0.000000 0.621370
#
# Coordination Sequence:
#
# PCOD8097614 Si02
#       5
#     8   8   8   8   8
#     4   9  17  31  53  80 106 134 174 223 271 315
#     4  10  20  34  54  79 105 134 173 222 269 314
#     4  11  21  32  50  77 107 140 171 211 261 316
#     4   9  17  33  56  76  98 135 180 221 260 307
#     4   8  15  30  52  73  95 129 173 214 251 298
#
# _framework density 19.056001999999999
#
# number of rings (size 3 to 8) (size 9 to 14) (size 15 to 20)
#    0.000    2.600    0.000    4.200    0.000    5.600 
#    0.000    2.000    0.000    7.200    0.000    0.000 
#    0.000    0.000    0.000    0.000    0.000    0.200 
#
# Total GULP energy -247904.783617 kJ/mol
# GULP energy per Si atom -12395.239181 kJ/mol
# Density = 1.901263 g / cm^3
# Si number density = 19.056002 Si / 1000 Ang^3
#
#
#
# Elastic Constant Matrix: (Units=GPa)
#
#
# Indices 1 2 3 4 5 6 
#
# 1 138.9682 34.6423 87.9794 0.0000 -9.0100 0.0000
# 2 34.6423 42.7128 38.5193 0.0000 -13.6121 0.0000
# 3 87.9794 38.5193 190.0033 0.0000 -15.3115 0.0000
# 4 0.0000 0.0000 0.0000 8.7525 0.0000 1.2971
# 5 -9.0100 -13.6121 -15.3115 0.0000 36.9174 0.0000
# 6 0.0000 0.0000 0.0000 1.2971 0.0000 1.1900
#
#
#
# Elastic Compliance Matrix: (Units=1/GPa)
#
#
# Indices 1 2 3 4 5 6 
#
# 1 0.011132 -0.005683 -0.004089 0.000000 -0.001075 0.000000
# 2 -0.005683 0.034339 -0.003540 0.000000 0.009806 0.000000
# 3 -0.004089 -0.003540 0.007954 0.000000 0.000996 0.000000
# 4 0.000000 0.000000 0.000000 0.136266 0.000000 -0.148530
# 5 -0.001075 0.009806 0.000996 0.000000 0.030854 0.000000
# 6 0.000000 0.000000 0.000000 -0.148530 0.000000 1.002216
#
#
# Mechanical properties :
#
#
# Convention : Reuss Voigt Hill
#
# Bulk Modulus (GPa) = 37.31190 77.10735 57.20963
# Shear Modulus (GPa) = 3.97356 23.40821 13.69088
#
# Velocity S-wave (km/s) = 1.44559 3.50864 2.68331
# Velocity P-wave (km/s) = 4.73381 7.54755 6.29978
#
# Compressibility (1/GPa) = 0.02680110
#
# Stress axis : x y z
#
# Youngs Moduli (GPa) = 89.83475 29.12141 125.71989
#
# Poissons Ratio (x) = 0.16551 0.51404
# Poissons Ratio (y) = 0.51057 0.44500
# Poissons Ratio (z) = 0.36731 0.10308
#
# Static dielectric constant tensor:
#      x y z
#    x 6.410040 0.000000 -4.409060 
#    y 0.000000 3.078120 0.000000 
#    z -4.409060 0.000000 10.067780 
# 
# 
# High freq. dielectric constant tensor:
#      x y z
#    x 1.729690 0.000000 -0.017510 
#    y 0.000000 1.699720 0.000000 
#    z -0.017510 0.000000 1.754110 
# 
# From -- ./inp_files/105710.got.cif
#   From: 2010.06.25/outbox.cif.g09.slc.cpg/sg12_53_cif.got.tgz:105710.got - 2010.06.28 00:19:55.
