data_PCOD8097915
_publ_section_title
;
Structure prediction by ZEFSAII (Michael W. Deem and Ramdas Pophale) SiO2 
 PCOD8097915
Probable space group: C 2/M
;
_chemical_formula_sum "Si O2"
_cell_formula_units_Z 56
_cell_length_a 29.586309
_cell_length_b 9.281443
_cell_length_c 11.785267
_cell_angle_alpha 90.000000
_cell_angle_beta 107.634190
_cell_angle_gamma 90.000000
_cell_volume 3084.204768
_symmetry_space_group_name_H-M "C 2/M"
_symmetry_group_IT_number 12
_symmetry_cell_setting 'monoclinic'
loop_
_space_group_symop_operation_xyz
x,y,z
-x,y,-z
-x,-y,-z
x,-y,z
1/2+x,1/2+y,z
1/2-x,1/2+y,-z
1/2-x,1/2-y,-z
1/2+x,1/2-y,z
loop_
_atom_site_type_symbol
_atom_site_label
_atom_site_fract_x
_atom_site_fract_y
_atom_site_fract_z
Si Si1 0.060085 0.329836 0.151009
Si Si2 0.879214 0.834050 0.186480
Si Si3 0.709764 0.332010 0.037586
Si Si4 0.165768 0.830582 0.611476
Si Si5 0.045452 0.330006 0.888256
Si Si6 0.773538 0.666190 0.727718
Si Si7 0.857242 0.666694 0.625719
O O1 0.064508 0.500000 0.146176
O O2 0.102744 0.267689 0.259781
O O3 0.009747 0.287541 0.168339
O O4 0.063493 0.271319 0.024517
O O5 0.859616 0.780780 0.292482
O O6 0.925863 0.744590 0.190977
O O7 0.893679 0.000000 0.204056
O O8 0.839761 0.806711 0.061824
O O9 0.723010 0.500000 0.054113
O O10 0.704829 0.265921 0.158359
O O11 0.750000 0.250000 0.000000
O O12 0.220596 0.782973 0.658384
O O13 0.139684 0.751669 0.489084
O O14 0.161690 0.000000 0.588976
O O15 0.052734 0.500000 0.883972
O O16 0.773979 0.500000 0.769574
O O17 0.805507 0.687618 0.641008
O O18 0.867686 0.500000 0.608317
#
# Coordination Sequence:
#
# PCOD8097915 Si02
#       7
#     8   8   8   8   8   8   8
#     4   8  16  33  55  82 109 128 162 221 270 302
#     4  10  21  36  51  74 110 142 168 212 263 303
#     4  11  21  34  53  77 107 139 172 213 259 309
#     4  10  21  37  51  69 108 147 174 214 262 308
#     4   9  17  33  59  82 102 134 170 208 263 322
#     4  10  20  36  55  77 106 139 175 220 267 306
#     4  10  20  34  55  79 103 135 179 223 260 307
#
# _framework density 18.157029999999999
#
# number of rings (size 3 to 8) (size 9 to 14) (size 15 to 20)
#    0.000    2.286    1.429    2.571    0.000    4.000 
#    0.000    3.571    0.000    4.286    0.000    0.000 
#    0.000    0.000    0.000    0.000    0.000    0.000 
#
# Total GULP energy -347239.164578 kJ/mol
# GULP energy per Si atom -12401.398735 kJ/mol
# Density = 1.811570 g / cm^3
# Si number density = 18.157030 Si / 1000 Ang^3
#
#
#
# Elastic Constant Matrix: (Units=GPa)
#
#
# Indices 1 2 3 4 5 6 
#
# 1 125.0488 35.3869 53.3903 0.0000 0.0716 0.0000
# 2 35.3869 46.4034 33.0009 0.0000 -6.4613 0.0000
# 3 53.3903 33.0009 115.0217 0.0000 -3.3037 0.0000
# 4 0.0000 0.0000 0.0000 32.3929 0.0000 -4.0215
# 5 0.0716 -6.4613 -3.3037 0.0000 19.8545 0.0000
# 6 0.0000 0.0000 0.0000 -4.0215 0.0000 29.4094
#
#
#
# Elastic Compliance Matrix: (Units=1/GPa)
#
#
# Indices 1 2 3 4 5 6 
#
# 1 0.011332 -0.006568 -0.003455 0.000000 -0.002753 0.000000
# 2 -0.006568 0.032058 -0.005877 0.000000 0.009479 0.000000
# 3 -0.003455 -0.005877 0.011986 0.000000 0.000094 0.000000
# 4 0.000000 0.000000 0.000000 0.031404 0.000000 0.004294
# 5 -0.002753 0.009479 0.000094 0.000000 0.053477 0.000000
# 6 0.000000 0.000000 0.000000 0.004294 0.000000 0.034590
#
#
# Mechanical properties :
#
#
# Convention : Reuss Voigt Hill
#
# Bulk Modulus (GPa) = 42.41348 58.89223 50.65285
# Shear Modulus (GPa) = 23.30930 27.31106 25.31018
#
# Velocity S-wave (km/s) = 3.58685 3.88256 3.73763
# Velocity P-wave (km/s) = 6.36898 7.25289 6.82526
#
# Compressibility (1/GPa) = 0.02357741
#
# Stress axis : x y z
#
# Youngs Moduli (GPa) = 88.24410 31.19308 83.42784
#
# Poissons Ratio (x) = 0.20489 0.28822
# Poissons Ratio (y) = 0.57962 0.49028
# Poissons Ratio (z) = 0.30486 0.18331
#
# Static dielectric constant tensor:
#      x y z
#    x 3.385120 0.000000 0.085200 
#    y 0.000000 3.176150 0.000000 
#    z 0.085200 0.000000 3.499650 
# 
# 
# High freq. dielectric constant tensor:
#      x y z
#    x 1.707970 0.000000 -0.002290 
#    y 0.000000 1.683870 0.000000 
#    z -0.002290 0.000000 1.699140 
# 
# From -- ./inp_files/186445.got.cif
#   From: 2010.06.25/outbox.cif.g09.slc.cpg/sg12_94_cif.got.tgz:186445.got - 2010.06.28 00:19:55.
