data_PCOD8097417
_publ_section_title
;
Structure prediction by ZEFSAII (Michael W. Deem and Ramdas Pophale) SiO2 
 PCOD8097417
Probable space group: C 2/M
;
_chemical_formula_sum "Si O2"
_cell_formula_units_Z 56
_cell_length_a 26.191597
_cell_length_b 18.512159
_cell_length_c 8.491734
_cell_angle_alpha 90.000000
_cell_angle_beta 40.599127
_cell_angle_gamma 90.000000
_cell_volume 2679.403073
_symmetry_space_group_name_H-M "C 2/M"
_symmetry_group_IT_number 12
_symmetry_cell_setting 'monoclinic'
loop_
_space_group_symop_operation_xyz
x,y,z
-x,y,-z
-x,-y,-z
x,-y,z
1/2+x,1/2+y,z
1/2-x,1/2+y,-z
1/2-x,1/2-y,-z
1/2+x,1/2-y,z
loop_
_atom_site_type_symbol
_atom_site_label
_atom_site_fract_x
_atom_site_fract_y
_atom_site_fract_z
Si Si1 0.048946 0.916980 0.226550
Si Si2 0.693869 0.079520 0.664639
Si Si3 0.625863 0.202542 0.026168
Si Si4 0.292002 0.342828 0.199484
Si Si5 0.014374 0.781764 0.784954
Si Si6 0.361076 0.809511 0.636758
Si Si7 0.560412 0.078675 0.735262
O O1 0.006148 0.865487 0.199645
O O2 0.000000 0.909390 0.500000
O O3 0.048976 0.000000 0.166897
O O4 0.138245 0.889623 0.044536
O O5 0.647608 0.124490 0.905352
O O6 0.770265 0.120101 0.417559
O O7 0.642221 0.069472 0.631119
O O8 0.715277 0.000000 0.683896
O O9 0.678874 0.263490 0.819126
O O10 0.536599 0.226061 0.202691
O O11 0.645784 0.202133 0.163018
O O12 0.222760 0.333000 0.235006
O O13 0.104966 0.763343 0.526942
O O14 0.000000 0.765005 0.000000
O O15 0.425469 0.872188 0.450105
O O16 0.527494 0.000000 0.758980
O O17 0.500000 0.115571 0.000000
#
# Coordination Sequence:
#
# PCOD8097417 Si02
#       7
#     8   8   8   8   8   8   8
#     4  10  22  42  66  91 122 159 201 252 309 366
#     4  10  20  34  53  78 111 149 190 235 288 353
#     4  11  22  36  57  85 119 155 198 251 303 357
#     4  10  21  39  60  84 115 155 198 245 306 366
#     4  11  22  38  61  89 123 163 207 249 296 360
#     4  11  21  36  60  88 118 153 200 253 303 357
#     4   9  18  33  53  78 112 153 189 226 283 353
#
# _framework density 20.900175999999998
#
# number of rings (size 3 to 8) (size 9 to 14) (size 15 to 20)
#    0.000    1.714    0.000    6.429    0.000    2.571 
#    0.000    0.000    0.000    8.571    0.000    0.000 
#    0.000    0.000    0.000    0.000    0.000    0.000 
#
# Total GULP energy -347044.524080 kJ/mol
# GULP energy per Si atom -12394.447289 kJ/mol
# Density = 2.085261 g / cm^3
# Si number density = 20.900176 Si / 1000 Ang^3
#
#
#
# Elastic Constant Matrix: (Units=GPa)
#
#
# Indices 1 2 3 4 5 6 
#
# 1 52.0281 28.1893 14.0630 0.0000 -2.8514 0.0000
# 2 28.1893 154.9824 47.5194 0.0000 -2.0942 0.0000
# 3 14.0630 47.5194 91.9611 0.0000 -10.1206 0.0000
# 4 0.0000 0.0000 0.0000 27.9179 0.0000 -0.0858
# 5 -2.8514 -2.0942 -10.1206 0.0000 28.1758 0.0000
# 6 0.0000 0.0000 0.0000 -0.0858 0.0000 23.9202
#
#
#
# Elastic Compliance Matrix: (Units=1/GPa)
#
#
# Indices 1 2 3 4 5 6 
#
# 1 0.021552 -0.003492 -0.001333 0.000000 0.001443 0.000000
# 2 -0.003492 0.008254 -0.003855 0.000000 -0.001125 0.000000
# 3 -0.001333 -0.003855 0.013560 0.000000 0.004449 0.000000
# 4 0.000000 0.000000 0.000000 0.035820 0.000000 0.000129
# 5 0.001443 -0.001125 0.004449 0.000000 0.037152 0.000000
# 6 0.000000 0.000000 0.000000 0.000129 0.000000 0.041806
#
#
# Mechanical properties :
#
#
# Convention : Reuss Voigt Hill
#
# Bulk Modulus (GPa) = 38.45194 53.16833 45.81014
# Shear Modulus (GPa) = 27.14864 29.94942 28.54903
#
# Velocity S-wave (km/s) = 3.60803 3.78957 3.69991
# Velocity P-wave (km/s) = 5.98289 6.68148 6.34181
#
# Compressibility (1/GPa) = 0.02600649
#
# Stress axis : x y z
#
# Youngs Moduli (GPa) = 46.40029 121.14934 73.74831
#
# Poissons Ratio (x) = 0.42304 0.09828
# Poissons Ratio (y) = 0.16202 0.28430
# Poissons Ratio (z) = 0.06183 0.46704
#
# Static dielectric constant tensor:
#      x y z
#    x 3.489620 0.000000 -0.253020 
#    y 0.000000 4.271280 0.000000 
#    z -0.253020 0.000000 3.873320 
# 
# 
# High freq. dielectric constant tensor:
#      x y z
#    x 1.784000 0.000000 -0.012210 
#    y 0.000000 1.830360 0.000000 
#    z -0.012210 0.000000 1.829380 
# 
# From -- ./inp_files/98070.got.cif
#   From: 2010.06.25/outbox.cif.g09.slc.cpg/sg12_50_cif.got.tgz:98070.got - 2010.06.28 00:19:55.
