data_PCOD8097149
_publ_section_title
;
Structure prediction by ZEFSAII (Michael W. Deem and Ramdas Pophale) SiO2 
 PCOD8097149
Probable space group: C 2/M
;
_chemical_formula_sum "Si O2"
_cell_formula_units_Z 64
_cell_length_a 23.769780
_cell_length_b 16.768306
_cell_length_c 14.335201
_cell_angle_alpha 90.000000
_cell_angle_beta 35.262587
_cell_angle_gamma 90.000000
_cell_volume 3298.664811
_symmetry_space_group_name_H-M "C 2/M"
_symmetry_group_IT_number 12
_symmetry_cell_setting 'monoclinic'
loop_
_space_group_symop_operation_xyz
x,y,z
-x,y,-z
-x,-y,-z
x,-y,z
1/2+x,1/2+y,z
1/2-x,1/2+y,-z
1/2-x,1/2-y,-z
1/2+x,1/2-y,z
loop_
_atom_site_type_symbol
_atom_site_label
_atom_site_fract_x
_atom_site_fract_y
_atom_site_fract_z
Si Si1 0.950091 0.836850 0.788039
Si Si2 0.773928 0.818547 0.395407
Si Si3 0.898315 0.591567 0.305903
Si Si4 0.672979 0.824476 0.777342
Si Si5 0.295060 0.406782 0.865897
Si Si6 0.591851 0.837621 0.089624
Si Si7 0.967571 0.093686 0.145199
Si Si8 0.866839 0.906749 0.563783
O O1 0.851028 0.865589 0.874571
O O2 0.943493 0.742814 0.813145
O O3 0.955480 0.881281 0.880217
O O4 0.042387 0.856572 0.597630
O O5 0.750000 0.750000 0.500000
O O6 0.683291 0.878944 0.509207
O O7 0.797503 0.769596 0.269228
O O8 0.865145 0.867596 0.310566
O O9 0.881049 0.500000 0.302836
O O10 0.893605 0.645297 0.218424
O O11 0.002134 0.600862 0.216433
O O12 0.768162 0.880560 0.646187
O O13 0.612470 0.828563 0.952784
O O14 0.287897 0.500000 0.894084
O O15 0.354023 0.389367 0.690940
O O16 0.186212 0.371893 0.013429
O O17 0.954494 0.000000 0.161755
O O18 0.000000 0.125343 0.000000
O O19 0.886226 0.000000 0.517887
#
# Coordination Sequence:
#
# PCOD8097149 Si02
#       8
#     8   8   8   8   8   8   8   8
#     4  12  21  36  58  81 111 144 180 224 281 331
#     4  10  20  34  52  78 109 141 181 223 266 321
#     4  11  21  34  55  80 110 150 187 223 273 326
#     4  10  20  35  54  78 111 147 181 223 274 327
#     4  10  22  39  58  82 110 142 183 229 276 326
#     4  11  23  36  53  80 112 145 183 224 267 325
#     4  11  23  37  55  81 111 143 182 227 272 323
#     4  10  20  35  58  87 113 138 178 230 278 328
#
# _framework density 19.401788
#
# number of rings (size 3 to 8) (size 9 to 14) (size 15 to 20)
#    0.000    1.375    0.000    7.875    0.000    3.000 
#    0.000    0.000    0.000    0.000    0.000    0.000 
#    0.000   18.000    0.000    0.000    0.000    0.000 
#
# Total GULP energy -396813.082368 kJ/mol
# GULP energy per Si atom -12400.408824 kJ/mol
# Density = 1.935763 g / cm^3
# Si number density = 19.401788 Si / 1000 Ang^3
#
#
#
# Elastic Constant Matrix: (Units=GPa)
#
#
# Indices 1 2 3 4 5 6 
#
# 1 108.2669 38.0602 48.0632 0.0000 -17.7120 0.0000
# 2 38.0602 76.5232 26.2739 0.0000 -5.8145 0.0000
# 3 48.0632 26.2739 70.0509 0.0000 -24.4046 0.0000
# 4 0.0000 0.0000 0.0000 34.1989 0.0000 -5.2940
# 5 -17.7120 -5.8145 -24.4046 0.0000 22.9830 0.0000
# 6 0.0000 0.0000 0.0000 -5.2940 0.0000 28.8414
#
#
#
# Elastic Compliance Matrix: (Units=1/GPa)
#
#
# Indices 1 2 3 4 5 6 
#
# 1 0.014493 -0.004455 -0.007578 0.000000 0.001996 0.000000
# 2 -0.004455 0.016544 -0.004581 0.000000 -0.004112 0.000000
# 3 -0.007578 -0.004581 0.029766 0.000000 0.024608 0.000000
# 4 0.000000 0.000000 0.000000 0.030096 0.000000 0.005524
# 5 0.001996 -0.004112 0.024608 0.000000 0.070138 0.000000
# 6 0.000000 0.000000 0.000000 0.005524 0.000000 0.035686
#
#
# Mechanical properties :
#
#
# Convention : Reuss Voigt Hill
#
# Bulk Modulus (GPa) = 36.26443 53.29284 44.77864
# Shear Modulus (GPa) = 20.90795 26.70092 23.80444
#
# Velocity S-wave (km/s) = 3.28629 3.71375 3.50654
# Velocity P-wave (km/s) = 5.75599 6.77620 6.28683
#
# Compressibility (1/GPa) = 0.02757523
#
# Stress axis : x y z
#
# Youngs Moduli (GPa) = 68.99880 60.44433 33.59537
#
# Poissons Ratio (x) = 0.26928 0.25458
# Poissons Ratio (y) = 0.30739 0.15391
# Poissons Ratio (z) = 0.52286 0.27691
#
# Static dielectric constant tensor:
#      x y z
#    x 4.065780 0.000000 -0.020950 
#    y 0.000000 3.793200 0.000000 
#    z -0.020950 0.000000 3.851900 
# 
# 
# High freq. dielectric constant tensor:
#      x y z
#    x 1.742930 0.000000 -0.012450 
#    y 0.000000 1.763500 0.000000 
#    z -0.012450 0.000000 1.761310 
# 
# From -- ./inp_files/241466.got.cif
#   From: 2010.06.25/outbox.cif.g09.slc.cpg/sg12_121_cif.got.tgz:241466.got - 2010.06.28 00:19:55.
