data_PCOD8097170
_publ_section_title
;
Structure prediction by ZEFSAII (Michael W. Deem and Ramdas Pophale) SiO2 
 PCOD8097170
Probable space group: C 2/M
;
_chemical_formula_sum "Si O2"
_cell_formula_units_Z 56
_cell_length_a 14.344372
_cell_length_b 8.445750
_cell_length_c 28.237892
_cell_angle_alpha 90.000000
_cell_angle_beta 122.893271
_cell_angle_gamma 90.000000
_cell_volume 2872.550891
_symmetry_space_group_name_H-M "C 2/M"
_symmetry_group_IT_number 12
_symmetry_cell_setting 'monoclinic'
loop_
_space_group_symop_operation_xyz
x,y,z
-x,y,-z
-x,-y,-z
x,-y,z
1/2+x,1/2+y,z
1/2-x,1/2+y,-z
1/2-x,1/2-y,-z
1/2+x,1/2-y,z
loop_
_atom_site_type_symbol
_atom_site_label
_atom_site_fract_x
_atom_site_fract_y
_atom_site_fract_z
Si Si1 0.983192 0.684511 0.063478
Si Si2 0.953546 0.312846 0.346514
Si Si3 0.255407 0.187645 0.356640
Si Si4 0.697687 0.813225 0.437941
Si Si5 0.510019 0.686842 0.265107
Si Si6 0.910116 0.185863 0.138685
Si Si7 0.672826 0.314515 0.053364
O O1 0.006076 0.500000 0.060275
O O2 0.977273 0.718878 0.117347
O O3 0.080395 0.789644 0.067991
O O4 0.867344 0.737390 0.007220
O O5 0.949982 0.500000 0.347513
O O6 0.853849 0.242591 0.350982
O O7 0.937801 0.258961 0.287967
O O8 0.071434 0.248529 0.398656
O O9 0.270750 0.252709 0.413960
O O10 0.137562 0.245843 0.303024
O O11 0.261476 0.000000 0.360067
O O12 0.750000 0.750000 0.500000
O O13 0.698897 0.000000 0.438763
O O14 0.503166 0.500000 0.267311
O O15 0.457663 0.746800 0.201709
O O16 0.781033 0.225023 0.101003
O O17 0.929846 0.000000 0.137101
O O18 0.696761 0.500000 0.052514
#
# Coordination Sequence:
#
# PCOD8097170 Si02
#       7
#     8   8   8   8   8   8   8
#     4  11  22  38  58  82 110 142 178 224 278 332
#     4   9  19  35  56  78 105 140 179 218 264 315
#     4   9  18  36  57  77 103 140 177 215 262 313
#     4  10  20  34  52  79 110 141 175 218 262 310
#     4   9  20  36  55  78 106 137 175 220 265 311
#     4  11  22  37  55  81 113 145 181 223 270 327
#     4  11  22  38  58  81 108 143 182 224 273 328
#
# _framework density 19.494868
#
# number of rings (size 3 to 8) (size 9 to 14) (size 15 to 20)
#    0.000    2.000    0.000    4.714    0.000    4.000 
#    0.000    4.286    0.000    0.000    0.000    0.000 
#    0.000    0.000    0.000    0.000    0.000    0.000 
#
# Total GULP energy -347281.946915 kJ/mol
# GULP energy per Si atom -12402.926676 kJ/mol
# Density = 1.945050 g / cm^3
# Si number density = 19.494868 Si / 1000 Ang^3
#
#
#
# Elastic Constant Matrix: (Units=GPa)
#
#
# Indices 1 2 3 4 5 6 
#
# 1 115.4385 12.0780 54.7247 0.0000 -25.6966 0.0000
# 2 12.0780 41.8362 17.3282 0.0000 -5.1650 0.0000
# 3 54.7247 17.3282 142.4877 0.0000 -27.2897 0.0000
# 4 0.0000 0.0000 0.0000 30.1357 0.0000 -4.8350
# 5 -25.6966 -5.1650 -27.2897 0.0000 24.8933 0.0000
# 6 0.0000 0.0000 0.0000 -4.8350 0.0000 28.8434
#
#
#
# Elastic Compliance Matrix: (Units=1/GPa)
#
#
# Indices 1 2 3 4 5 6 
#
# 1 0.012159 -0.001228 -0.002741 0.000000 0.009292 0.000000
# 2 -0.001228 0.025405 -0.002343 0.000000 0.001435 0.000000
# 3 -0.002741 -0.002343 0.009773 0.000000 0.007398 0.000000
# 4 0.000000 0.000000 0.000000 0.034100 0.000000 0.005716
# 5 0.009292 0.001435 0.007398 0.000000 0.058171 0.000000
# 6 0.000000 0.000000 0.000000 0.005716 0.000000 0.035628
#
#
# Mechanical properties :
#
#
# Convention : Reuss Voigt Hill
#
# Bulk Modulus (GPa) = 28.80797 52.00271 40.40534
# Shear Modulus (GPa) = 25.07145 31.14992 28.11069
#
# Velocity S-wave (km/s) = 3.59005 4.00165 3.80143
# Velocity P-wave (km/s) = 5.65632 6.93426 6.32763
#
# Compressibility (1/GPa) = 0.03471261
#
# Stress axis : x y z
#
# Youngs Moduli (GPa) = 82.24547 39.36248 102.32620
#
# Poissons Ratio (x) = 0.04833 0.28046
# Poissons Ratio (y) = 0.10098 0.23976
# Poissons Ratio (z) = 0.22543 0.09223
#
# Static dielectric constant tensor:
#      x y z
#    x 3.722850 0.000000 0.016290 
#    y 0.000000 3.459420 0.000000 
#    z 0.016290 0.000000 3.662330 
# 
# 
# High freq. dielectric constant tensor:
#      x y z
#    x 1.763960 0.000000 -0.007570 
#    y 0.000000 1.757540 0.000000 
#    z -0.007570 0.000000 1.758800 
# 
# From -- ./inp_files/360012.got.cif
#   From: 2010.06.25/outbox.cif.g09.slc.cpg/sg12_181_cif.got.tgz:360012.got - 2010.06.28 00:19:55.
