data_PCOD8097133
_publ_section_title
;
Structure prediction by ZEFSAII (Michael W. Deem and Ramdas Pophale) SiO2 
 PCOD8097133
Probable space group: C 2/M
;
_chemical_formula_sum "Si O2"
_cell_formula_units_Z 64
_cell_length_a 14.572950
_cell_length_b 9.069740
_cell_length_c 25.862164
_cell_angle_alpha 90.000000
_cell_angle_beta 89.124936
_cell_angle_gamma 90.000000
_cell_volume 3417.877716
_symmetry_space_group_name_H-M "C 2/M"
_symmetry_group_IT_number 12
_symmetry_cell_setting 'monoclinic'
loop_
_space_group_symop_operation_xyz
x,y,z
-x,y,-z
-x,-y,-z
x,-y,z
1/2+x,1/2+y,z
1/2-x,1/2+y,-z
1/2-x,1/2-y,-z
1/2+x,1/2-y,z
loop_
_atom_site_type_symbol
_atom_site_label
_atom_site_fract_x
_atom_site_fract_y
_atom_site_fract_z
Si Si1 0.595440 0.326610 0.404064
Si Si2 0.264423 0.172662 0.945759
Si Si3 0.242117 0.173002 0.210331
Si Si4 0.594522 0.673037 0.127175
Si Si5 0.116573 0.171554 0.861309
Si Si6 0.076089 0.331880 0.615742
Si Si7 0.253269 0.672624 0.674735
Si Si8 0.345753 0.170282 0.498374
O O1 0.603507 0.500000 0.413978
O O2 0.504429 0.284416 0.373341
O O3 0.678528 0.261865 0.368962
O O4 0.589690 0.243858 0.459057
O O5 0.355863 0.239264 0.919155
O O6 0.172837 0.204206 0.913221
O O7 0.280481 0.000000 0.953560
O O8 0.250000 0.250000 0.000000
O O9 0.149231 0.209635 0.179604
O O10 0.333140 0.245004 0.185589
O O11 0.229067 0.238063 0.268246
O O12 0.261402 0.000000 0.211389
O O13 0.598866 0.500000 0.114036
O O14 0.488841 0.726795 0.132452
O O15 0.117516 0.000000 0.847543
O O16 0.042288 0.500000 0.623013
O O17 0.150665 0.291073 0.658137
O O18 0.113285 0.307964 0.558150
O O19 0.272701 0.500000 0.676028
O O20 0.250000 0.250000 0.500000
O O21 0.332893 0.000000 0.512259
#
# Coordination Sequence:
#
# PCOD8097133 Si02
#       8
#     8   8   8   8   8   8   8   8
#     4  11  22  37  56  81 108 138 176 221 265 319
#     4  10  20  34  52  77 110 145 178 219 265 311
#     4   9  18  34  57  78 100 137 179 218 260 314
#     4   9  18  34  55  78 104 139 180 218 262 315
#     4   9  19  35  54  77 108 141 175 221 271 312
#     4  10  21  38  55  75 106 142 173 212 266 321
#     4   9  19  37  55  75 108 141 170 212 271 318
#     4  11  21  36  58  79 105 142 177 214 265 321
#
# _framework density 18.725069999999999
#
# number of rings (size 3 to 8) (size 9 to 14) (size 15 to 20)
#    0.000    2.250    1.250    1.500    0.000    5.000 
#    0.000    5.625    0.000    0.000    0.000    0.000 
#    0.000    0.000    0.000    0.000    0.000    0.000 
#
# Total GULP energy -396779.784468 kJ/mol
# GULP energy per Si atom -12399.368265 kJ/mol
# Density = 1.868245 g / cm^3
# Si number density = 18.725070 Si / 1000 Ang^3
#
#
#
# Elastic Constant Matrix: (Units=GPa)
#
#
# Indices 1 2 3 4 5 6 
#
# 1 110.0159 32.6441 30.2991 0.0000 4.0790 0.0000
# 2 32.6441 56.7428 36.2110 0.0000 -1.9293 0.0000
# 3 30.2991 36.2110 109.1519 0.0000 7.0012 0.0000
# 4 0.0000 0.0000 0.0000 24.6419 0.0000 -0.5985
# 5 4.0790 -1.9293 7.0012 0.0000 16.1853 0.0000
# 6 0.0000 0.0000 0.0000 -0.5985 0.0000 33.6882
#
#
#
# Elastic Compliance Matrix: (Units=1/GPa)
#
#
# Indices 1 2 3 4 5 6 
#
# 1 0.011236 -0.005974 -0.000936 0.000000 -0.003139 0.000000
# 2 -0.005974 0.026122 -0.007512 0.000000 0.007869 0.000000
# 3 -0.000936 -0.007512 0.012297 0.000000 -0.005979 0.000000
# 4 0.000000 0.000000 0.000000 0.040599 0.000000 0.000721
# 5 -0.003139 0.007869 -0.005979 0.000000 0.066100 0.000000
# 6 0.000000 0.000000 0.000000 0.000721 0.000000 0.029697
#
#
# Mechanical properties :
#
#
# Convention : Reuss Voigt Hill
#
# Bulk Modulus (GPa) = 48.05131 52.69099 50.37115
# Shear Modulus (GPa) = 22.53968 26.68684 24.61326
#
# Velocity S-wave (km/s) = 3.47323 3.77927 3.62947
# Velocity P-wave (km/s) = 6.46542 6.87344 6.67255
#
# Compressibility (1/GPa) = 0.02081109
#
# Stress axis : x y z
#
# Youngs Moduli (GPa) = 88.99762 38.28250 81.32038
#
# Poissons Ratio (x) = 0.22869 0.07611
# Poissons Ratio (y) = 0.53164 0.61090
# Poissons Ratio (z) = 0.08330 0.28759
#
# Static dielectric constant tensor:
#      x y z
#    x 3.599660 0.000000 0.239340 
#    y 0.000000 3.101510 0.000000 
#    z 0.239340 0.000000 4.311660 
# 
# 
# High freq. dielectric constant tensor:
#      x y z
#    x 1.734420 0.000000 0.004820 
#    y 0.000000 1.714910 0.000000 
#    z 0.004820 0.000000 1.726570 
# 
# From -- ./inp_files/338693.got.cif
#   From: 2010.06.25/outbox.cif.g09.slc.cpg/sg12_170_cif.got.tgz:338693.got - 2010.06.28 00:19:55.
