data_PCOD8097757
_publ_section_title
;
Structure prediction by ZEFSAII (Michael W. Deem and Ramdas Pophale) SiO2 
 PCOD8097757
Probable space group: C 2/M
;
_chemical_formula_sum "Si O2"
_cell_formula_units_Z 48
_cell_length_a 24.881848
_cell_length_b 13.339294
_cell_length_c 18.787419
_cell_angle_alpha 90.000000
_cell_angle_beta 154.825229
_cell_angle_gamma 90.000000
_cell_volume 2652.531264
_symmetry_space_group_name_H-M "C 2/M"
_symmetry_group_IT_number 12
_symmetry_cell_setting 'monoclinic'
loop_
_space_group_symop_operation_xyz
x,y,z
-x,y,-z
-x,-y,-z
x,-y,z
1/2+x,1/2+y,z
1/2-x,1/2+y,-z
1/2-x,1/2-y,-z
1/2+x,1/2-y,z
loop_
_atom_site_type_symbol
_atom_site_label
_atom_site_fract_x
_atom_site_fract_y
_atom_site_fract_z
Si Si1 0.604356 0.747553 0.675959
Si Si2 0.995870 0.753683 0.910812
Si Si3 0.347590 0.885176 0.994980
Si Si4 0.219453 0.891556 0.185878
Si Si5 0.486543 0.115139 0.306312
Si Si6 0.730025 0.389469 0.365957
O O1 0.500000 0.693699 0.500000
O O2 0.655279 0.835417 0.687034
O O3 0.546515 0.799556 0.676347
O O4 0.713201 0.668942 0.825166
O O5 0.861981 0.797629 0.721477
O O6 0.039566 0.655233 0.920530
O O7 0.000000 0.729128 0.000000
O O8 0.094497 0.839021 0.007407
O O9 0.386667 0.873211 0.123495
O O10 0.327850 0.000000 0.949895
O O11 0.215392 0.899753 0.264750
O O12 0.222018 0.000000 0.152676
O O13 0.626091 0.138308 0.442223
O O14 0.483633 0.000000 0.333063
O O15 0.694746 0.500000 0.356601
#
# Coordination Sequence:
#
# PCOD8097757 Si02
#       6
#     8   8   8   8   8   8
#     4  11  20  33  56  79 102 134 174 214 253 305
#     4   9  18  32  52  75 100 136 176 213 250 296
#     4  10  23  39  52  71 102 142 180 215 255 294
#     4   9  16  27  47  80 111 130 157 203 258 311
#     4  10  20  34  54  81 111 135 159 203 265 322
#     4   9  16  28  50  79 109 133 157 198 257 317
#
# _framework density 18.095922000000002
#
# number of rings (size 3 to 8) (size 9 to 14) (size 15 to 20)
#    0.000    2.333    1.667    1.500    0.000    4.000 
#    0.000    0.000    0.000    1.000    0.000    0.000 
#    0.000    0.000    0.000    0.000    0.000    0.000 
#
# Total GULP energy -297409.346672 kJ/mol
# GULP energy per Si atom -12392.056111 kJ/mol
# Density = 1.805474 g / cm^3
# Si number density = 18.095922 Si / 1000 Ang^3
#
#
#
# Elastic Constant Matrix: (Units=GPa)
#
#
# Indices 1 2 3 4 5 6 
#
# 1 48.9840 37.8365 34.6337 0.0000 7.0387 0.0000
# 2 37.8365 107.3719 56.5261 0.0000 0.1641 0.0000
# 3 34.6337 56.5261 121.1798 0.0000 7.3138 0.0000
# 4 0.0000 0.0000 0.0000 24.4193 0.0000 1.9430
# 5 7.0387 0.1641 7.3138 0.0000 16.5999 0.0000
# 6 0.0000 0.0000 0.0000 1.9430 0.0000 19.9296
#
#
#
# Elastic Compliance Matrix: (Units=1/GPa)
#
#
# Indices 1 2 3 4 5 6 
#
# 1 0.032081 -0.009053 -0.004243 0.000000 -0.011644 0.000000
# 2 -0.009053 0.015000 -0.004759 0.000000 0.005787 0.000000
# 3 -0.004243 -0.004759 0.011889 0.000000 -0.003392 0.000000
# 4 0.000000 0.000000 0.000000 0.041271 0.000000 -0.004024
# 5 -0.011644 0.005787 -0.003392 0.000000 0.066616 0.000000
# 6 0.000000 0.000000 0.000000 -0.004024 0.000000 0.050569
#
#
# Mechanical properties :
#
#
# Convention : Reuss Voigt Hill
#
# Bulk Modulus (GPa) = 43.74428 59.50313 51.62370
# Shear Modulus (GPa) = 19.14555 22.09240 20.61898
#
# Velocity S-wave (km/s) = 3.25623 3.49786 3.37920
# Velocity P-wave (km/s) = 6.19382 7.01903 6.61930
#
# Compressibility (1/GPa) = 0.02286013
#
# Stress axis : x y z
#
# Youngs Moduli (GPa) = 31.17101 66.66590 84.10829
#
# Poissons Ratio (x) = 0.60355 0.35687
# Poissons Ratio (y) = 0.28220 0.40026
# Poissons Ratio (z) = 0.13226 0.31725
#
# Static dielectric constant tensor:
#      x y z
#    x 3.173120 0.000000 0.151830 
#    y 0.000000 3.007030 0.000000 
#    z 0.151830 0.000000 3.511910 
# 
# 
# High freq. dielectric constant tensor:
#      x y z
#    x 1.677510 0.000000 0.010280 
#    y 0.000000 1.690390 0.000000 
#    z 0.010280 0.000000 1.712510 
# 
# From -- ./inp_files/153718.got.cif
#   From: 2010.06.25/outbox.cif.g09.slc.cpg/sg12_77_cif.got.tgz:153718.got - 2010.06.28 00:19:55.
