data_PCOD8097316
_publ_section_title
;
Structure prediction by ZEFSAII (Michael W. Deem and Ramdas Pophale) SiO2 
 PCOD8097316
Probable space group: C 2/M
;
_chemical_formula_sum "Si O2"
_cell_formula_units_Z 64
_cell_length_a 21.510803
_cell_length_b 9.399132
_cell_length_c 18.805443
_cell_angle_alpha 90.000000
_cell_angle_beta 113.964857
_cell_angle_gamma 90.000000
_cell_volume 3474.374306
_symmetry_space_group_name_H-M "C 2/M"
_symmetry_group_IT_number 12
_symmetry_cell_setting 'monoclinic'
loop_
_space_group_symop_operation_xyz
x,y,z
-x,y,-z
-x,-y,-z
x,-y,z
1/2+x,1/2+y,z
1/2-x,1/2+y,-z
1/2-x,1/2-y,-z
1/2+x,1/2-y,z
loop_
_atom_site_type_symbol
_atom_site_label
_atom_site_fract_x
_atom_site_fract_y
_atom_site_fract_z
Si Si1 0.418813 0.340167 0.129247
Si Si2 0.688339 0.837945 0.000621
Si Si3 0.959500 0.168715 0.550363
Si Si4 0.959971 0.158542 0.913621
Si Si5 0.170921 0.338660 0.157417
Si Si6 0.793234 0.832117 0.308124
Si Si7 0.696292 0.668606 0.524649
Si Si8 0.573717 0.669175 0.707413
O O1 0.386400 0.500000 0.113822
O O2 0.379910 0.235351 0.058417
O O3 0.495043 0.347620 0.136057
O O4 0.420195 0.274805 0.209114
O O5 0.690493 0.000000 0.974442
O O6 0.750000 0.750000 0.000000
O O7 0.694641 0.830559 0.087692
O O8 0.881652 0.223643 0.522768
O O9 0.000000 0.228817 0.500000
O O10 0.002460 0.219046 0.639267
O O11 0.955788 0.000000 0.540863
O O12 0.896776 0.251660 0.861740
O O13 0.935378 0.000000 0.924147
O O14 0.000000 0.225084 0.000000
O O15 0.155681 0.500000 0.173288
O O16 0.229867 0.270722 0.233893
O O17 0.783829 0.791179 0.385656
O O18 0.863556 0.768435 0.309488
O O19 0.796456 0.000000 0.299286
O O20 0.702187 0.500000 0.512998
O O21 0.750000 0.750000 0.500000
O O22 0.575256 0.500000 0.708321
#
# Coordination Sequence:
#
# PCOD8097316 Si02
#       8
#     8   8   8   8   8   8   8   8
#     4  10  20  34  53  77 105 139 177 222 270 319
#     4  11  22  35  53  77 105 138 176 220 267 318
#     4   9  15  28  53  84 107 135 182 233 272 312
#     4  10  20  35  53  74 106 144 176 215 275 327
#     4  10  21  35  54  77 102 141 187 221 261 321
#     4   9  17  32  52  78 109 139 175 227 278 316
#     4  10  20  34  56  84 115 146 180 223 277 332
#     4   9  16  29  53  81 108 135 179 236 276 309
#
# _framework density 18.420582
#
# number of rings (size 3 to 8) (size 9 to 14) (size 15 to 20)
#    0.000    2.250    2.500    1.125    0.000    4.250 
#    0.000    1.875    0.000    1.875    0.000    0.000 
#    0.000    0.000    0.000    0.000    0.000    0.000 
#
# Total GULP energy -396705.500452 kJ/mol
# GULP energy per Si atom -12397.046889 kJ/mol
# Density = 1.837866 g / cm^3
# Si number density = 18.420582 Si / 1000 Ang^3
#
#
#
# Elastic Constant Matrix: (Units=GPa)
#
#
# Indices 1 2 3 4 5 6 
#
# 1 133.0772 38.6551 63.9135 0.0000 8.6696 0.0000
# 2 38.6551 55.4075 32.8427 0.0000 7.5767 0.0000
# 3 63.9135 32.8427 146.1099 0.0000 14.0793 0.0000
# 4 0.0000 0.0000 0.0000 12.6910 0.0000 -0.3152
# 5 8.6696 7.5767 14.0793 0.0000 38.5599 0.0000
# 6 0.0000 0.0000 0.0000 -0.3152 0.0000 28.9662
#
#
#
# Elastic Compliance Matrix: (Units=1/GPa)
#
#
# Indices 1 2 3 4 5 6 
#
# 1 0.010772 -0.005440 -0.003481 0.000000 -0.000082 0.000000
# 2 -0.005440 0.023799 -0.002733 0.000000 -0.002455 0.000000
# 3 -0.003481 -0.002733 0.009177 0.000000 -0.002031 0.000000
# 4 0.000000 0.000000 0.000000 0.078817 0.000000 0.000858
# 5 -0.000082 -0.002455 -0.002031 0.000000 0.027176 0.000000
# 6 0.000000 0.000000 0.000000 0.000858 0.000000 0.034532
#
#
# Mechanical properties :
#
#
# Convention : Reuss Voigt Hill
#
# Bulk Modulus (GPa) = 48.92675 67.26858 58.09767
# Shear Modulus (GPa) = 23.32122 29.32232 26.32177
#
# Velocity S-wave (km/s) = 3.56201 3.99409 3.78422
# Velocity P-wave (km/s) = 6.59816 7.60709 7.12052
#
# Compressibility (1/GPa) = 0.02043872
#
# Stress axis : x y z
#
# Youngs Moduli (GPa) = 92.83322 42.01775 108.96711
#
# Poissons Ratio (x) = 0.22859 0.37934
# Poissons Ratio (y) = 0.50505 0.29783
# Poissons Ratio (z) = 0.32318 0.11485
#
# Static dielectric constant tensor:
#      x y z
#    x 3.409000 0.000000 -0.066660 
#    y 0.000000 3.025860 0.000000 
#    z -0.066660 0.000000 2.781070 
# 
# 
# High freq. dielectric constant tensor:
#      x y z
#    x 1.721360 0.000000 0.002470 
#    y 0.000000 1.665190 0.000000 
#    z 0.002470 0.000000 1.724850 
# 
# From -- ./inp_files/320011.got.cif
#   From: 2010.06.25/outbox.cif.g09.slc.cpg/sg12_161_cif.got.tgz:320011.got - 2010.06.28 00:19:55.
