data_PCOD8097558
_publ_section_title
;
Structure prediction by ZEFSAII (Michael W. Deem and Ramdas Pophale) SiO2 
 PCOD8097558
Probable space group: C 2/M
;
_chemical_formula_sum "Si O2"
_cell_formula_units_Z 52
_cell_length_a 22.876970
_cell_length_b 12.456320
_cell_length_c 22.342864
_cell_angle_alpha 90.000000
_cell_angle_beta 26.606063
_cell_angle_gamma 90.000000
_cell_volume 2851.433659
_symmetry_space_group_name_H-M "C 2/M"
_symmetry_group_IT_number 12
_symmetry_cell_setting 'monoclinic'
loop_
_space_group_symop_operation_xyz
x,y,z
-x,y,-z
-x,-y,-z
x,-y,z
1/2+x,1/2+y,z
1/2-x,1/2+y,-z
1/2-x,1/2-y,-z
1/2+x,1/2-y,z
loop_
_atom_site_type_symbol
_atom_site_label
_atom_site_fract_x
_atom_site_fract_y
_atom_site_fract_z
Si Si1 0.000000 0.263974 0.000000
Si Si2 0.706696 0.745377 0.446144
Si Si3 0.498988 0.119550 0.571328
Si Si4 0.869318 0.215599 0.931624
Si Si5 0.603199 0.377098 0.651349
Si Si6 0.212622 0.875078 0.868645
Si Si7 0.942436 0.373662 0.175980
O O1 0.879097 0.189339 0.092794
O O2 0.958403 0.339268 0.092764
O O3 0.610523 0.797507 0.486688
O O4 0.618649 0.690127 0.576901
O O5 0.792232 0.840957 0.395203
O O6 0.798342 0.658574 0.329889
O O7 0.500000 0.113763 0.500000
O O8 0.360596 0.162408 0.722127
O O9 0.525901 0.000000 0.573036
O O10 0.959004 0.139540 0.809009
O O11 0.948563 0.319877 0.881435
O O12 0.750000 0.250000 0.000000
O O13 0.821723 0.146365 0.031225
O O14 0.627606 0.500000 0.613570
O O15 0.194828 0.000000 0.869934
O O16 0.960547 0.500000 0.165422
#
# Coordination Sequence:
#
# PCOD8097558 Si02
#       7
#     4   8   8   8   8   8   8
#     4  10  20  36  56  78 108 138 176 220 256 310
#     4  10  20  35  54  77 106 135 173 218 256 308
#     4  10  20  34  54  79 107 138 171 213 265 314
#     4  10  21  36  53  78 109 137 172 216 260 311
#     4  10  20  34  54  77 102 136 172 210 258 306
#     4  10  20  34  55  81 107 138 173 214 265 314
#     4  10  21  36  56  78 103 141 179 215 261 309
#
# _framework density 18.236439000000001
#
# number of rings (size 3 to 8) (size 9 to 14) (size 15 to 20)
#    0.000    2.000    0.000    3.692    0.000    1.231 
#    0.000    8.462    0.000   11.077    0.000    0.000 
#    0.000    0.000    0.000    0.000    0.000    0.000 
#
# Total GULP energy -322494.985527 kJ/mol
# GULP energy per Si atom -12403.653290 kJ/mol
# Density = 1.819493 g / cm^3
# Si number density = 18.236439 Si / 1000 Ang^3
#
#
#
# Elastic Constant Matrix: (Units=GPa)
#
#
# Indices 1 2 3 4 5 6 
#
# 1 89.8560 32.9261 38.8470 0.0002 -11.4654 0.0001
# 2 32.9261 87.4270 33.1582 0.0003 -17.4204 0.0000
# 3 38.8470 33.1582 125.1830 -0.0004 1.1396 0.0003
# 4 0.0002 0.0003 -0.0004 28.8908 0.0003 -1.4402
# 5 -11.4654 -17.4204 1.1396 0.0003 25.3175 0.0000
# 6 0.0001 0.0000 0.0003 -1.4402 0.0000 17.8253
#
#
#
# Elastic Compliance Matrix: (Units=1/GPa)
#
#
# Indices 1 2 3 4 5 6 
#
# 1 0.014458 -0.003134 -0.003698 0.000000 0.004557 0.000000
# 2 -0.003134 0.015778 -0.003294 0.000000 0.009585 0.000000
# 3 -0.003698 -0.003294 0.010048 0.000000 -0.004393 0.000000
# 4 0.000000 0.000000 0.000000 0.034753 -0.000001 0.002808
# 5 0.004557 0.009585 -0.004393 -0.000001 0.048355 0.000000
# 6 0.000000 0.000000 0.000000 0.002808 0.000000 0.056327
#
#
# Mechanical properties :
#
#
# Convention : Reuss Voigt Hill
#
# Bulk Modulus (GPa) = 49.92101 56.92538 53.42319
# Shear Modulus (GPa) = 24.19578 27.57570 25.88574
#
# Velocity S-wave (km/s) = 3.64645 3.89282 3.77165
# Velocity P-wave (km/s) = 6.72031 7.17554 6.95165
#
# Compressibility (1/GPa) = 0.02003165
#
# Stress axis : x y z
#
# Youngs Moduli (GPa) = 69.16788 63.38070 99.52021
#
# Poissons Ratio (x) = 0.19866 0.36800
# Poissons Ratio (y) = 0.21680 0.32779
# Poissons Ratio (z) = 0.25576 0.20876
#
# Static dielectric constant tensor:
#      x y z
#    x 3.328430 0.000000 0.178290 
#    y 0.000000 3.272930 0.000000 
#    z 0.178290 0.000000 3.857310 
# 
# 
# High freq. dielectric constant tensor:
#      x y z
#    x 1.706450 0.000000 0.006830 
#    y 0.000000 1.703360 0.000000 
#    z 0.006830 0.000000 1.726090 
# 
# From -- ./inp_files/321554.got.cif
#   From: 2010.06.25/outbox.cif.g09.slc.cpg/sg12_161_cif.got.tgz:321554.got - 2010.06.28 00:19:55.
