data_PCOD8097045
_publ_section_title
;
Structure prediction by ZEFSAII (Michael W. Deem and Ramdas Pophale) SiO2 
 PCOD8097045
Probable space group: C 2/M
;
_chemical_formula_sum "Si O2"
_cell_formula_units_Z 64
_cell_length_a 18.367244
_cell_length_b 8.955758
_cell_length_c 20.371355
_cell_angle_alpha 90.000000
_cell_angle_beta 89.938276
_cell_angle_gamma 90.000000
_cell_volume 3350.935050
_symmetry_space_group_name_H-M "C 2/M"
_symmetry_group_IT_number 12
_symmetry_cell_setting 'monoclinic'
loop_
_space_group_symop_operation_xyz
x,y,z
-x,y,-z
-x,-y,-z
x,-y,z
1/2+x,1/2+y,z
1/2-x,1/2+y,-z
1/2-x,1/2-y,-z
1/2+x,1/2-y,z
loop_
_atom_site_type_symbol
_atom_site_label
_atom_site_fract_x
_atom_site_fract_y
_atom_site_fract_z
Si Si1 0.079715 0.822794 0.178619
Si Si2 0.825331 0.826053 0.072903
Si Si3 0.157760 0.326671 0.062082
Si Si4 0.915321 0.177093 0.197624
Si Si5 0.592108 0.176684 0.564442
Si Si6 0.838088 0.323359 0.703290
Si Si7 0.570757 0.176941 0.419395
Si Si8 0.327156 0.675861 0.321756
O O1 0.102886 0.765566 0.107344
O O2 0.133444 0.754994 0.231890
O O3 0.997932 0.765711 0.192881
O O4 0.084278 0.000000 0.180390
O O5 0.740093 0.798651 0.086226
O O6 0.869037 0.764960 0.135666
O O7 0.840759 0.000000 0.058673
O O8 0.853120 0.730604 0.011613
O O9 0.137175 0.500000 0.065507
O O10 0.879731 0.239754 0.264597
O O11 0.911214 0.000000 0.198318
O O12 0.603669 0.230460 0.489183
O O13 0.512391 0.231340 0.588452
O O14 0.653125 0.252171 0.608784
O O15 0.599306 0.000000 0.570361
O O16 0.848348 0.500000 0.711048
O O17 0.881627 0.258963 0.640356
O O18 0.754569 0.278173 0.695568
O O19 0.572343 0.000000 0.418814
O O20 0.335121 0.500000 0.328979
#
# Coordination Sequence:
#
# PCOD8097045 Si02
#       8
#     8   8   8   8   8   8   8   8
#     4  11  22  35  53  76 102 133 171 213 253 301
#     4   9  18  36  59  78 101 137 175 207 245 298
#     4  10  20  35  56  81 108 136 167 207 253 300
#     4   9  19  35  53  73 100 135 171 208 255 305
#     4   9  17  32  53  75 102 136 172 209 251 306
#     4  10  20  35  54  74 100 135 172 212 259 307
#     4   8  16  32  53  75 101 136 173 208 254 308
#     4  10  20  34  52  75 103 134 169 211 258 305
#
# _framework density 19.099146999999999
#
# number of rings (size 3 to 8) (size 9 to 14) (size 15 to 20)
#    0.000    2.500    0.000    3.000    0.000    4.000 
#    0.000    6.875    0.000    0.000    0.000    0.000 
#    0.000    0.000    0.000    0.000    0.000    0.000 
#
# Total GULP energy -396843.724703 kJ/mol
# GULP energy per Si atom -12401.366397 kJ/mol
# Density = 1.905568 g / cm^3
# Si number density = 19.099147 Si / 1000 Ang^3
#
#
#
# Elastic Constant Matrix: (Units=GPa)
#
#
# Indices 1 2 3 4 5 6 
#
# 1 66.2444 22.3935 23.6602 0.0000 -2.2642 0.0000
# 2 22.3935 26.7854 15.0792 0.0000 3.7378 0.0000
# 3 23.6602 15.0792 82.3896 0.0000 3.2022 0.0000
# 4 0.0000 0.0000 0.0000 30.4836 0.0000 0.3803
# 5 -2.2642 3.7378 3.2022 0.0000 41.5621 0.0000
# 6 0.0000 0.0000 0.0000 0.3803 0.0000 17.1390
#
#
#
# Elastic Compliance Matrix: (Units=1/GPa)
#
#
# Indices 1 2 3 4 5 6 
#
# 1 0.022164 -0.017057 -0.003360 0.000000 0.003000 0.000000
# 2 -0.017057 0.055169 -0.004985 0.000000 -0.005507 0.000000
# 3 -0.003360 -0.004985 0.014046 0.000000 -0.000817 0.000000
# 4 0.000000 0.000000 0.000000 0.032814 0.000000 -0.000728
# 5 0.003000 -0.005507 -0.000817 0.000000 0.024782 0.000000
# 6 0.000000 0.000000 0.000000 -0.000728 0.000000 0.058363
#
#
# Mechanical properties :
#
#
# Convention : Reuss Voigt Hill
#
# Bulk Modulus (GPa) = 24.64518 33.07614 28.86066
# Shear Modulus (GPa) = 18.40493 25.45604 21.93048
#
# Velocity S-wave (km/s) = 3.10764 3.65476 3.39225
# Velocity P-wave (km/s) = 5.08020 5.93005 5.52150
#
# Compressibility (1/GPa) = 0.04057588
#
# Stress axis : x y z
#
# Youngs Moduli (GPa) = 45.11774 18.12620 71.19283
#
# Poissons Ratio (x) = 0.30918 0.23919
# Poissons Ratio (y) = 0.76959 0.35488
# Poissons Ratio (z) = 0.15158 0.09035
#
# Static dielectric constant tensor:
#      x y z
#    x 3.611490 0.000000 -0.127760 
#    y 0.000000 3.156930 0.000000 
#    z -0.127760 0.000000 3.704430 
# 
# 
# High freq. dielectric constant tensor:
#      x y z
#    x 1.744810 0.000000 -0.001200 
#    y 0.000000 1.712470 0.000000 
#    z -0.001200 0.000000 1.757730 
# 
# From -- ./inp_files/314177.got.cif
#   From: 2010.06.25/outbox.cif.g09.slc.cpg/sg12_158_cif.got.tgz:314177.got - 2010.06.28 00:19:55.
