data_PCOD8097595
_publ_section_title
;
Structure prediction by ZEFSAII (Michael W. Deem and Ramdas Pophale) SiO2 
 PCOD8097595
Probable space group: C 2/M
;
_chemical_formula_sum "Si O2"
_cell_formula_units_Z 36
_cell_length_a 9.176484
_cell_length_b 10.480850
_cell_length_c 20.751251
_cell_angle_alpha 90.000000
_cell_angle_beta 110.179010
_cell_angle_gamma 90.000000
_cell_volume 1873.297070
_symmetry_space_group_name_H-M "C 2/M"
_symmetry_group_IT_number 12
_symmetry_cell_setting 'monoclinic'
loop_
_space_group_symop_operation_xyz
x,y,z
-x,y,-z
-x,-y,-z
x,-y,z
1/2+x,1/2+y,z
1/2-x,1/2+y,-z
1/2-x,1/2-y,-z
1/2+x,1/2-y,z
loop_
_atom_site_type_symbol
_atom_site_label
_atom_site_fract_x
_atom_site_fract_y
_atom_site_fract_z
Si Si1 0.829528 0.639770 0.086426
Si Si2 0.500000 0.289030 0.000000
Si Si3 0.512644 0.853741 0.760046
Si Si4 0.236367 0.855298 0.306487
Si Si5 0.182191 0.642304 0.534849
O O1 0.896799 0.500000 0.088655
O O2 0.641827 0.632849 0.052675
O O3 0.873980 0.689360 0.164305
O O4 0.918219 0.712814 0.044293
O O5 0.602248 0.843447 0.706516
O O6 0.375175 0.751985 0.739247
O O7 0.451154 0.000000 0.759438
O O8 0.269087 0.824509 0.385421
O O9 0.169113 0.000000 0.287482
O O10 0.243035 0.500000 0.525154
O O11 0.250000 0.750000 0.500000
O O12 0.000000 0.645850 0.500000
#
# Coordination Sequence:
#
# PCOD8097595 Si02
#       5
#     8   4   8   8   8
#     4  10  20  35  54  78 106 138 177 219 265 316
#     4  10  20  34  54  78 106 138 174 218 268 316
#     4  10  21  37  57  80 109 144 181 222 268 319
#     4  10  21  37  56  81 110 141 180 223 267 318
#     4  10  21  37  57  81 110 142 178 222 269 318
#
# _framework density 19.217452999999999
#
# number of rings (size 3 to 8) (size 9 to 14) (size 15 to 20)
#    0.000    2.000    0.000    3.333    0.000    4.000 
#    0.000    5.556    0.000    0.000    0.000    0.000 
#    0.000    0.000    0.000    0.000    0.000    0.000 
#
# Total GULP energy -223062.219485 kJ/mol
# GULP energy per Si atom -12392.345527 kJ/mol
# Density = 1.917371 g / cm^3
# Si number density = 19.217453 Si / 1000 Ang^3
#
#
#
# Elastic Constant Matrix: (Units=GPa)
#
#
# Indices 1 2 3 4 5 6 
#
# 1 65.8200 37.2769 19.2313 0.0000 -3.0165 0.0000
# 2 37.2769 95.8722 40.3032 0.0000 5.0723 0.0000
# 3 19.2313 40.3032 90.0118 0.0000 3.6210 0.0000
# 4 0.0000 0.0000 0.0000 29.5644 0.0000 -1.4259
# 5 -3.0165 5.0723 3.6210 0.0000 35.0482 0.0000
# 6 0.0000 0.0000 0.0000 -1.4259 0.0000 10.8684
#
#
#
# Elastic Compliance Matrix: (Units=1/GPa)
#
#
# Indices 1 2 3 4 5 6 
#
# 1 0.019835 -0.007434 -0.001025 0.000000 0.002889 0.000000
# 2 -0.007434 0.015692 -0.005343 0.000000 -0.002359 0.000000
# 3 -0.001025 -0.005343 0.013751 0.000000 -0.000736 0.000000
# 4 0.000000 0.000000 0.000000 0.034040 0.000000 0.004466
# 5 0.002889 -0.002359 -0.000736 0.000000 0.029198 0.000000
# 6 0.000000 0.000000 0.000000 0.004466 0.000000 0.092596
#
#
# Mechanical properties :
#
#
# Convention : Reuss Voigt Hill
#
# Bulk Modulus (GPa) = 46.14048 49.48074 47.81061
# Shear Modulus (GPa) = 20.83849 25.42238 23.13044
#
# Velocity S-wave (km/s) = 3.29652 3.64109 3.47308
# Velocity P-wave (km/s) = 6.20896 6.59397 6.40436
#
# Compressibility (1/GPa) = 0.02167294
#
# Stress axis : x y z
#
# Youngs Moduli (GPa) = 50.41532 63.72697 72.72375
#
# Poissons Ratio (x) = 0.47375 0.07457
# Poissons Ratio (y) = 0.37479 0.38856
# Poissons Ratio (z) = 0.05170 0.34049
#
# Static dielectric constant tensor:
#      x y z
#    x 3.380090 0.000000 0.066290 
#    y 0.000000 3.713560 0.000000 
#    z 0.066290 0.000000 3.772940 
# 
# 
# High freq. dielectric constant tensor:
#      x y z
#    x 1.736460 0.000000 -0.004700 
#    y 0.000000 1.753000 0.000000 
#    z -0.004700 0.000000 1.767520 
# 
# From -- ./inp_files/254423.got.cif
#   From: 2010.06.25/outbox.cif.g09.slc.cpg/sg12_128_cif.got.tgz:254423.got - 2010.06.28 00:19:55.
