data_PCOD8097483
_publ_section_title
;
Structure prediction by ZEFSAII (Michael W. Deem and Ramdas Pophale) SiO2 
 PCOD8097483
Probable space group: C 2/M
;
_chemical_formula_sum "Si O2"
_cell_formula_units_Z 64
_cell_length_a 15.066974
_cell_length_b 9.064930
_cell_length_c 28.534478
_cell_angle_alpha 90.000000
_cell_angle_beta 58.474075
_cell_angle_gamma 90.000000
_cell_volume 3322.046682
_symmetry_space_group_name_H-M "C 2/M"
_symmetry_group_IT_number 12
_symmetry_cell_setting 'monoclinic'
loop_
_space_group_symop_operation_xyz
x,y,z
-x,y,-z
-x,-y,-z
x,-y,z
1/2+x,1/2+y,z
1/2-x,1/2+y,-z
1/2-x,1/2-y,-z
1/2+x,1/2-y,z
loop_
_atom_site_type_symbol
_atom_site_label
_atom_site_fract_x
_atom_site_fract_y
_atom_site_fract_z
Si Si1 0.417813 0.663053 0.558138
Si Si2 0.608942 0.828517 0.259790
Si Si3 0.263375 0.173269 0.867613
Si Si4 0.329608 0.675026 0.942539
Si Si5 0.396378 0.325465 0.335599
Si Si6 0.530519 0.326122 0.941318
Si Si7 0.712645 0.835664 0.555731
Si Si8 0.192720 0.670998 0.336169
O O1 0.500000 0.740741 0.500000
O O2 0.460485 0.500000 0.559418
O O3 0.307519 0.651473 0.564477
O O4 0.403473 0.754190 0.609635
O O5 0.677870 0.787595 0.196174
O O6 0.504811 0.732707 0.285538
O O7 0.679572 0.787813 0.285360
O O8 0.577365 0.000000 0.269343
O O9 0.317004 0.263993 0.894060
O O10 0.144563 0.228732 0.894432
O O11 0.268745 0.000000 0.878064
O O12 0.312096 0.500000 0.948644
O O13 0.446215 0.720069 0.925809
O O14 0.250000 0.750000 0.000000
O O15 0.401189 0.500000 0.340689
O O16 0.377423 0.253509 0.392106
O O17 0.306266 0.278381 0.323382
O O18 0.532381 0.500000 0.946428
O O19 0.500000 0.255190 0.000000
O O20 0.750000 0.750000 0.500000
O O21 0.672550 0.000000 0.553291
O O22 0.179411 0.500000 0.349357
#
# Coordination Sequence:
#
# PCOD8097483 Si02
#       8
#     8   8   8   8   8   8   8   8
#     4   9  19  34  52  78 109 140 175 223 285 342
#     4  10  22  39  60  84 112 151 193 235 284 338
#     4  10  21  39  59  83 117 153 193 235 280 339
#     4  11  21  35  59  88 119 153 192 235 283 335
#     4  10  21  38  59  82 112 148 190 239 287 338
#     4   9  17  33  58  84 113 154 193 225 277 341
#     4  10  20  34  53  80 114 146 182 229 286 347
#     4   9  20  38  57  80 108 145 191 234 278 334
#
# _framework density 19.265232999999998
#
# number of rings (size 3 to 8) (size 9 to 14) (size 15 to 20)
#    0.000    2.250    1.250    1.125    1.750    3.250 
#    0.000    4.375    0.000    0.000    0.000    0.000 
#    0.000    0.000    0.000    0.000    0.000    0.000 
#
# Total GULP energy -396768.506431 kJ/mol
# GULP energy per Si atom -12399.015826 kJ/mol
# Density = 1.922138 g / cm^3
# Si number density = 19.265233 Si / 1000 Ang^3
#
#
#
# Elastic Constant Matrix: (Units=GPa)
#
#
# Indices 1 2 3 4 5 6 
#
# 1 120.7777 50.7874 78.5290 0.0000 -1.5725 0.0000
# 2 50.7874 79.0212 62.3882 0.0000 2.7978 0.0000
# 3 78.5290 62.3882 171.6281 0.0000 -0.6591 0.0000
# 4 0.0000 0.0000 0.0000 31.1549 0.0000 0.7218
# 5 -1.5725 2.7978 -0.6591 0.0000 36.2321 0.0000
# 6 0.0000 0.0000 0.0000 0.7218 0.0000 26.7641
#
#
#
# Elastic Compliance Matrix: (Units=1/GPa)
#
#
# Indices 1 2 3 4 5 6 
#
# 1 0.013176 -0.005250 -0.004117 0.000000 0.000902 0.000000
# 2 -0.005250 0.019921 -0.004846 0.000000 -0.001854 0.000000
# 3 -0.004117 -0.004846 0.009473 0.000000 0.000368 0.000000
# 4 0.000000 0.000000 0.000000 0.032118 0.000000 -0.000866
# 5 0.000902 -0.001854 0.000368 0.000000 0.027789 0.000000
# 6 0.000000 0.000000 0.000000 -0.000866 0.000000 0.037387
#
#
# Mechanical properties :
#
#
# Convention : Reuss Voigt Hill
#
# Bulk Modulus (GPa) = 70.70206 83.87069 77.28637
# Shear Modulus (GPa) = 28.90105 30.81171 29.85638
#
# Velocity S-wave (km/s) = 3.87740 4.00352 3.94096
# Velocity P-wave (km/s) = 7.53821 8.06226 7.80464
#
# Compressibility (1/GPa) = 0.01414386
#
# Stress axis : x y z
#
# Youngs Moduli (GPa) = 75.89740 50.19850 105.55931
#
# Poissons Ratio (x) = 0.26353 0.43456
# Poissons Ratio (y) = 0.39845 0.51159
# Poissons Ratio (z) = 0.31245 0.24329
#
# Static dielectric constant tensor:
#      x y z
#    x 3.844080 0.000000 0.071150 
#    y 0.000000 3.571050 0.000000 
#    z 0.071150 0.000000 3.629910 
# 
# 
# High freq. dielectric constant tensor:
#      x y z
#    x 1.753930 0.000000 -0.001720 
#    y 0.000000 1.736570 0.000000 
#    z -0.001720 0.000000 1.750340 
# 
# From -- ./inp_files/375023.got.cif
#   From: 2010.06.25/outbox.cif.g09.slc.cpg/sg12_188_cif.got.tgz:375023.got - 2010.06.28 00:19:55.
