data_PCOD8097895
_publ_section_title
;
Structure prediction by ZEFSAII (Michael W. Deem and Ramdas Pophale) SiO2 
 PCOD8097895
Probable space group: C 2/M
;
_chemical_formula_sum "Si O2"
_cell_formula_units_Z 64
_cell_length_a 15.401795
_cell_length_b 8.886497
_cell_length_c 30.643767
_cell_angle_alpha 90.000000
_cell_angle_beta 128.795814
_cell_angle_gamma 90.000000
_cell_volume 3268.853302
_symmetry_space_group_name_H-M "C 2/M"
_symmetry_group_IT_number 12
_symmetry_cell_setting 'monoclinic'
loop_
_space_group_symop_operation_xyz
x,y,z
-x,y,-z
-x,-y,-z
x,-y,z
1/2+x,1/2+y,z
1/2-x,1/2+y,-z
1/2-x,1/2-y,-z
1/2+x,1/2-y,z
loop_
_atom_site_type_symbol
_atom_site_label
_atom_site_fract_x
_atom_site_fract_y
_atom_site_fract_z
Si Si1 0.550987 0.172271 0.561542
Si Si2 0.751338 0.177613 0.329978
Si Si3 0.655924 0.173043 0.441967
Si Si4 0.660121 0.178045 0.134097
Si Si5 0.671406 0.321327 0.739793
Si Si6 0.920914 0.178639 0.668366
Si Si7 0.715776 0.176003 0.054023
Si Si8 0.075358 0.823907 0.936959
O O1 0.500000 0.229948 0.500000
O O2 0.654681 0.277249 0.605555
O O3 0.461562 0.188877 0.571355
O O4 0.592135 0.000000 0.569675
O O5 0.783805 0.237726 0.292383
O O6 0.635796 0.258992 0.305603
O O7 0.734584 0.000000 0.325635
O O8 0.750000 0.250000 0.500000
O O9 0.649012 0.258115 0.394121
O O10 0.687918 0.000000 0.444004
O O11 0.749777 0.240265 0.196955
O O12 0.703305 0.228025 0.100043
O O13 0.541755 0.246853 0.109691
O O14 0.648572 0.000000 0.133197
O O15 0.669231 0.500000 0.739485
O O16 0.546915 0.259329 0.707672
O O17 0.916968 0.000000 0.665950
O O18 0.839636 0.215626 0.075742
O O19 0.690931 0.000000 0.040418
O O20 0.623417 0.264633 0.997688
O O21 0.056229 0.000000 0.935167
#
# Coordination Sequence:
#
# PCOD8097895 Si02
#       8
#     8   8   8   8   8   8   8   8
#     4  10  21  37  57  84 116 148 184 230 283 344
#     4  11  22  39  61  86 113 147 191 238 291 347
#     4  11  22  36  58  88 121 152 188 234 287 347
#     4  10  20  37  59  81 110 153 200 236 282 347
#     4   9  21  40  60  82 113 153 194 240 289 346
#     4  11  22  40  62  84 114 154 194 236 290 347
#     4   9  19  35  56  81 114 156 195 232 283 350
#     4  10  20  34  54  85 120 150 188 242 293 335
#
# _framework density 19.578731000000001
#
# number of rings (size 3 to 8) (size 9 to 14) (size 15 to 20)
#    0.000    1.875    1.250    2.625    0.000    5.250 
#    0.000    3.750    0.000    0.000    0.000    0.000 
#    0.000    0.000    0.000    0.000    0.000    0.000 
#
# Total GULP energy -396930.190196 kJ/mol
# GULP energy per Si atom -12404.068444 kJ/mol
# Density = 1.953417 g / cm^3
# Si number density = 19.578731 Si / 1000 Ang^3
#
#
#
# Elastic Constant Matrix: (Units=GPa)
#
#
# Indices 1 2 3 4 5 6 
#
# 1 139.6300 42.3913 73.1380 0.0000 6.8256 0.0000
# 2 42.3913 65.8595 36.2485 0.0000 6.1050 0.0000
# 3 73.1380 36.2485 140.4096 0.0000 8.9498 0.0000
# 4 0.0000 0.0000 0.0000 22.0225 0.0000 4.6361
# 5 6.8256 6.1050 8.9498 0.0000 29.0717 0.0000
# 6 0.0000 0.0000 0.0000 4.6361 0.0000 32.1175
#
#
#
# Elastic Compliance Matrix: (Units=1/GPa)
#
#
# Indices 1 2 3 4 5 6 
#
# 1 0.010901 -0.004520 -0.004497 0.000000 -0.000226 0.000000
# 2 -0.004520 0.019733 -0.002594 0.000000 -0.002284 0.000000
# 3 -0.004497 -0.002594 0.010233 0.000000 -0.001550 0.000000
# 4 0.000000 0.000000 0.000000 0.046831 0.000000 -0.006760
# 5 -0.000226 -0.002284 -0.001550 0.000000 0.035407 0.000000
# 6 0.000000 0.000000 0.000000 -0.006760 0.000000 0.032111
#
#
# Mechanical properties :
#
#
# Convention : Reuss Voigt Hill
#
# Bulk Modulus (GPa) = 56.67650 72.16162 64.41906
# Shear Modulus (GPa) = 27.12677 29.58376 28.35526
#
# Velocity S-wave (km/s) = 3.72630 3.89140 3.80974
# Velocity P-wave (km/s) = 6.89381 7.55829 7.23368
#
# Compressibility (1/GPa) = 0.01764400
#
# Stress axis : x y z
#
# Youngs Moduli (GPa) = 91.73874 50.67661 97.72575
#
# Poissons Ratio (x) = 0.22908 0.43943
# Poissons Ratio (y) = 0.41470 0.25351
# Poissons Ratio (z) = 0.41251 0.13146
#
# Static dielectric constant tensor:
#      x y z
#    x 3.869120 0.000000 -0.019410 
#    y 0.000000 3.440790 0.000000 
#    z -0.019410 0.000000 3.594700 
# 
# 
# High freq. dielectric constant tensor:
#      x y z
#    x 1.780320 0.000000 0.000070 
#    y 0.000000 1.751360 0.000000 
#    z 0.000070 0.000000 1.757650 
# 
# From -- ./inp_files/375631.got.cif
#   From: 2010.06.25/outbox.cif.g09.slc.cpg/sg12_188_cif.got.tgz:375631.got - 2010.06.28 00:19:55.
