data_PCOD8097317
_publ_section_title
;
Structure prediction by ZEFSAII (Michael W. Deem and Ramdas Pophale) SiO2 
 PCOD8097317
Probable space group: C 2/M
;
_chemical_formula_sum "Si O2"
_cell_formula_units_Z 48
_cell_length_a 15.358456
_cell_length_b 17.594417
_cell_length_c 9.304961
_cell_angle_alpha 90.000000
_cell_angle_beta 89.612072
_cell_angle_gamma 90.000000
_cell_volume 2514.357583
_symmetry_space_group_name_H-M "C 2/M"
_symmetry_group_IT_number 12
_symmetry_cell_setting 'monoclinic'
loop_
_space_group_symop_operation_xyz
x,y,z
-x,y,-z
-x,-y,-z
x,-y,z
1/2+x,1/2+y,z
1/2-x,1/2+y,-z
1/2-x,1/2-y,-z
1/2+x,1/2-y,z
loop_
_atom_site_type_symbol
_atom_site_label
_atom_site_fract_x
_atom_site_fract_y
_atom_site_fract_z
Si Si1 0.917061 0.412228 0.600984
Si Si2 0.582583 0.665313 0.090063
Si Si3 0.259684 0.910180 0.079636
Si Si4 0.573167 0.587706 0.387039
Si Si5 0.917188 0.343493 0.908708
Si Si6 0.231904 0.412304 0.598871
O O1 0.901742 0.500000 0.643878
O O2 0.932805 0.364245 0.743559
O O3 0.834150 0.376089 0.516430
O O4 0.000000 0.402516 0.500000
O O5 0.668178 0.624178 0.027506
O O6 0.562360 0.642544 0.252940
O O7 0.598540 0.754537 0.076434
O O8 0.500000 0.638376 0.000000
O O9 0.280589 0.878169 0.240100
O O10 0.248490 0.000000 0.084536
O O11 0.333299 0.887456 0.967220
O O12 0.500000 0.612349 0.500000
O O13 0.562110 0.500000 0.338745
O O14 0.668876 0.599553 0.455520
O O15 0.000000 0.370463 0.000000
O O16 0.205733 0.500000 0.608245
#
# Coordination Sequence:
#
# PCOD8097317 Si02
#       6
#     8   8   8   8   8   8
#     4  10  20  34  53  77 105 139 182 227 268 317
#     4  10  22  38  55  80 116 150 179 219 273 328
#     4  10  20  37  60  81 106 142 184 229 273 319
#     4   9  18  34  56  80 107 140 180 223 265 316
#     4  11  23  37  54  80 114 148 182 222 271 328
#     4   8  16  32  52  76 104 133 171 223 274 312
#
# _framework density 19.090363
#
# number of rings (size 3 to 8) (size 9 to 14) (size 15 to 20)
#    0.000    2.333    0.000    3.500    0.000    6.000 
#    0.000    5.000    0.000    0.000    0.000    0.000 
#    0.000    0.000    0.000    0.000    0.000    0.000 
#
# Total GULP energy -297615.895059 kJ/mol
# GULP energy per Si atom -12400.662294 kJ/mol
# Density = 1.904691 g / cm^3
# Si number density = 19.090363 Si / 1000 Ang^3
#
#
#
# Elastic Constant Matrix: (Units=GPa)
#
#
# Indices 1 2 3 4 5 6 
#
# 1 139.9700 35.7870 62.9496 0.0000 10.5633 0.0000
# 2 35.7870 46.5309 21.3939 0.0000 7.1496 0.0000
# 3 62.9496 21.3939 90.5559 0.0000 10.4128 0.0000
# 4 0.0000 0.0000 0.0000 18.6914 0.0000 -8.3048
# 5 10.5633 7.1496 10.4128 0.0000 43.2315 0.0000
# 6 0.0000 0.0000 0.0000 -8.3048 0.0000 13.5069
#
#
#
# Elastic Compliance Matrix: (Units=1/GPa)
#
#
# Indices 1 2 3 4 5 6 
#
# 1 0.011677 -0.005857 -0.006702 0.000000 -0.000270 0.000000
# 2 -0.005857 0.027356 -0.002093 0.000000 -0.002589 0.000000
# 3 -0.006702 -0.002093 0.016423 0.000000 -0.001972 0.000000
# 4 0.000000 0.000000 0.000000 0.073609 0.000000 0.045259
# 5 -0.000270 -0.002589 -0.001972 0.000000 0.024100 0.000000
# 6 0.000000 0.000000 0.000000 0.045259 0.000000 0.101864
#
#
# Mechanical properties :
#
#
# Convention : Reuss Voigt Hill
#
# Bulk Modulus (GPa) = 38.24083 57.47976 47.86030
# Shear Modulus (GPa) = 17.06183 25.54772 21.30478
#
# Velocity S-wave (km/s) = 2.99279 3.66218 3.34428
# Velocity P-wave (km/s) = 5.65839 6.93230 6.32749
#
# Compressibility (1/GPa) = 0.02615006
#
# Stress axis : x y z
#
# Youngs Moduli (GPa) = 85.64186 36.55455 60.88984
#
# Poissons Ratio (x) = 0.21412 0.40808
# Poissons Ratio (y) = 0.50165 0.12747
# Poissons Ratio (z) = 0.57397 0.07653
#
# Static dielectric constant tensor:
#      x y z
#    x 3.705190 0.000000 0.139070 
#    y 0.000000 3.280970 0.000000 
#    z 0.139070 0.000000 3.502190 
# 
# 
# High freq. dielectric constant tensor:
#      x y z
#    x 1.759070 0.000000 0.001800 
#    y 0.000000 1.722560 0.000000 
#    z 0.001800 0.000000 1.738550 
# 
# From -- ./inp_files/61734.got.cif
#   From: 2010.06.25/outbox.cif.g09.slc.cpg/sg12_31_cif.got.tgz:61734.got - 2010.06.28 00:19:55.
