data_PCOD8097677
_publ_section_title
;
Structure prediction by ZEFSAII (Michael W. Deem and Ramdas Pophale) SiO2 
 PCOD8097677
Probable space group: C 2/M
;
_chemical_formula_sum "Si O2"
_cell_formula_units_Z 64
_cell_length_a 14.562042
_cell_length_b 9.265649
_cell_length_c 26.605645
_cell_angle_alpha 90.000000
_cell_angle_beta 74.761832
_cell_angle_gamma 90.000000
_cell_volume 3463.601709
_symmetry_space_group_name_H-M "C 2/M"
_symmetry_group_IT_number 12
_symmetry_cell_setting 'monoclinic'
loop_
_space_group_symop_operation_xyz
x,y,z
-x,y,-z
-x,-y,-z
x,-y,z
1/2+x,1/2+y,z
1/2-x,1/2+y,-z
1/2-x,1/2-y,-z
1/2+x,1/2-y,z
loop_
_atom_site_type_symbol
_atom_site_label
_atom_site_fract_x
_atom_site_fract_y
_atom_site_fract_z
Si Si1 0.028808 0.835553 0.614999
Si Si2 0.189965 0.165738 0.362667
Si Si3 0.200930 0.666747 0.261984
Si Si4 0.898811 0.835276 0.187360
Si Si5 0.461155 0.169706 0.080944
Si Si6 0.152883 0.670114 0.999717
Si Si7 0.483814 0.332234 0.732786
Si Si8 0.700722 0.829755 0.552719
O O1 0.093345 0.727273 0.573661
O O2 0.921672 0.810179 0.611958
O O3 0.037312 0.797617 0.672911
O O4 0.061223 0.000000 0.600173
O O5 0.227376 0.261923 0.311407
O O6 0.243188 0.213709 0.405148
O O7 0.210992 0.000000 0.345767
O O8 0.178948 0.500000 0.275560
O O9 0.286606 0.686300 0.210462
O O10 0.111683 0.740556 0.248347
O O11 0.936712 0.740072 0.136983
O O12 0.948491 0.786073 0.231723
O O13 0.924168 0.000000 0.171359
O O14 0.383472 0.217457 0.050389
O O15 0.456150 0.000000 0.088057
O O16 0.568480 0.214477 0.050145
O O17 0.172295 0.500000 0.999078
O O18 0.250000 0.750000 0.000000
O O19 0.455063 0.500000 0.738177
O O20 0.750000 0.750000 0.500000
O O21 0.700360 0.000000 0.542944
#
# Coordination Sequence:
#
# PCOD8097677 Si02
#       8
#     8   8   8   8   8   8   8   8
#     4   9  18  36  58  76 100 136 174 212 255 305
#     4   9  20  38  57  76 103 140 175 208 256 316
#     4  10  20  34  54  80 107 136 174 217 256 300
#     4  10  21  35  52  78 112 144 174 213 259 307
#     4   9  20  37  54  76 107 140 175 216 263 313
#     4   9  19  37  58  78 102 136 178 221 265 312
#     4   9  19  36  55  76 106 143 176 207 254 314
#     4  11  23  37  54  78 105 134 171 214 261 312
#
# _framework density 18.477875000000001
#
# number of rings (size 3 to 8) (size 9 to 14) (size 15 to 20)
#    0.000    2.500    0.000    3.000    0.000    8.000 
#    0.000    8.750    0.000    0.000    0.000    0.000 
#    0.000    0.000    0.000    0.000    0.000    0.000 
#
# Total GULP energy -396835.003605 kJ/mol
# GULP energy per Si atom -12401.093863 kJ/mol
# Density = 1.843582 g / cm^3
# Si number density = 18.477875 Si / 1000 Ang^3
#
#
#
# Elastic Constant Matrix: (Units=GPa)
#
#
# Indices 1 2 3 4 5 6 
#
# 1 83.3087 34.7412 25.0579 0.0000 -10.3424 0.0000
# 2 34.7412 66.0008 35.9057 0.0000 -10.9198 0.0000
# 3 25.0579 35.9057 70.8543 0.0000 -17.3291 0.0000
# 4 0.0000 0.0000 0.0000 38.4367 0.0000 -2.1991
# 5 -10.3424 -10.9198 -17.3291 0.0000 18.6786 0.0000
# 6 0.0000 0.0000 0.0000 -2.1991 0.0000 34.0254
#
#
#
# Elastic Compliance Matrix: (Units=1/GPa)
#
#
# Indices 1 2 3 4 5 6 
#
# 1 0.015734 -0.007097 -0.001102 0.000000 0.003541 0.000000
# 2 -0.007097 0.024258 -0.009411 0.000000 0.001521 0.000000
# 3 -0.001102 -0.009411 0.022995 0.000000 0.015222 0.000000
# 4 0.000000 0.000000 0.000000 0.026113 0.000000 0.001688
# 5 0.003541 0.001521 0.015222 0.000000 0.070509 0.000000
# 6 0.000000 0.000000 0.000000 0.001688 0.000000 0.029499
#
#
# Mechanical properties :
#
#
# Convention : Reuss Voigt Hill
#
# Bulk Modulus (GPa) = 36.01328 45.73037 40.87182
# Shear Modulus (GPa) = 21.40549 26.52541 23.96545
#
# Velocity S-wave (km/s) = 3.40728 3.79294 3.60527
# Velocity P-wave (km/s) = 5.91706 6.63207 6.28474
#
# Compressibility (1/GPa) = 0.02776754
#
# Stress axis : x y z
#
# Youngs Moduli (GPa) = 63.55654 41.22289 43.48715
#
# Poissons Ratio (x) = 0.29254 0.04793
# Poissons Ratio (y) = 0.45103 0.40927
# Poissons Ratio (z) = 0.07005 0.38796
#
# Static dielectric constant tensor:
#      x y z
#    x 3.444300 0.000000 0.058110 
#    y 0.000000 3.346930 0.000000 
#    z 0.058110 0.000000 3.351740 
# 
# 
# High freq. dielectric constant tensor:
#      x y z
#    x 1.723910 0.000000 -0.001070 
#    y 0.000000 1.715610 0.000000 
#    z -0.001070 0.000000 1.712840 
# 
# From -- ./inp_files/359761.got.cif
#   From: 2010.06.25/outbox.cif.g09.slc.cpg/sg12_180_cif.got.tgz:359761.got - 2010.06.28 00:19:55.
