data_PCOD8097816
_publ_section_title
;
Structure prediction by ZEFSAII (Michael W. Deem and Ramdas Pophale) SiO2 
 PCOD8097816
Probable space group: C 2/M
;
_chemical_formula_sum "Si O2"
_cell_formula_units_Z 64
_cell_length_a 34.178250
_cell_length_b 8.712843
_cell_length_c 18.044417
_cell_angle_alpha 90.000000
_cell_angle_beta 142.856123
_cell_angle_gamma 90.000000
_cell_volume 3244.584220
_symmetry_space_group_name_H-M "C 2/M"
_symmetry_group_IT_number 12
_symmetry_cell_setting 'monoclinic'
loop_
_space_group_symop_operation_xyz
x,y,z
-x,y,-z
-x,-y,-z
x,-y,z
1/2+x,1/2+y,z
1/2-x,1/2+y,-z
1/2-x,1/2-y,-z
1/2+x,1/2-y,z
loop_
_atom_site_type_symbol
_atom_site_label
_atom_site_fract_x
_atom_site_fract_y
_atom_site_fract_z
Si Si1 0.762433 0.322631 0.635666
Si Si2 0.539562 0.178103 0.265937
Si Si3 0.729661 0.678144 0.195348
Si Si4 0.045570 0.820582 0.432496
Si Si5 0.587948 0.178590 0.747224
Si Si6 0.108645 0.323829 0.946484
Si Si7 0.844783 0.179229 0.285049
Si Si8 0.651535 0.322597 0.351470
O O1 0.768301 0.500000 0.667031
O O2 0.755469 0.221672 0.698042
O O3 0.698631 0.289182 0.491478
O O4 0.826027 0.274240 0.685794
O O5 0.558831 0.229352 0.377355
O O6 0.464239 0.211241 0.137008
O O7 0.579583 0.271585 0.265155
O O8 0.556404 0.000000 0.283824
O O9 0.743940 0.500000 0.205444
O O10 0.774227 0.775326 0.207240
O O11 0.655274 0.715012 0.063948
O O12 0.102076 0.774379 0.573993
O O13 0.977435 0.774331 0.366511
O O14 0.046189 0.000000 0.415202
O O15 0.615832 0.214936 0.870535
O O16 0.641982 0.228125 0.770183
O O17 0.570555 0.000000 0.713764
O O18 0.126899 0.500000 0.989786
O O19 0.846621 0.000000 0.269782
O O20 0.652213 0.500000 0.330136
#
# Coordination Sequence:
#
# PCOD8097816 Si02
#       8
#     8   8   8   8   8   8   8   8
#     4  10  21  38  59  84 118 153 180 218 273 327
#     4  10  20  35  58  85 112 147 187 227 274 327
#     4  12  25  39  58  82 108 143 188 234 277 323
#     4  10  20  34  54  82 115 149 183 223 275 331
#     4  10  21  37  58  83 110 143 184 231 280 328
#     4   9  21  41  59  77 107 146 186 228 277 330
#     4  11  23  37  55  80 112 149 185 225 277 335
#     4  10  20  35  59  90 119 147 181 221 268 325
#
# _framework density 19.725178
#
# number of rings (size 3 to 8) (size 9 to 14) (size 15 to 20)
#    0.000    1.750    0.000    5.250    0.000   11.500 
#    0.000    0.625    0.000    3.750    0.000    0.000 
#    0.000    0.000    0.000    0.000    0.000    0.000 
#
# Total GULP energy -397016.335126 kJ/mol
# GULP energy per Si atom -12406.760473 kJ/mol
# Density = 1.968028 g / cm^3
# Si number density = 19.725178 Si / 1000 Ang^3
#
#
#
# Elastic Constant Matrix: (Units=GPa)
#
#
# Indices 1 2 3 4 5 6 
#
# 1 96.3734 8.9681 20.0983 0.0000 17.4968 0.0000
# 2 8.9681 57.7178 29.7373 0.0000 -2.0222 0.0000
# 3 20.0983 29.7373 52.4215 0.0000 9.2602 0.0000
# 4 0.0000 0.0000 0.0000 29.5179 0.0000 0.5242
# 5 17.4968 -2.0222 9.2602 0.0000 16.3427 0.0000
# 6 0.0000 0.0000 0.0000 0.5242 0.0000 39.6873
#
#
#
# Elastic Compliance Matrix: (Units=1/GPa)
#
#
# Indices 1 2 3 4 5 6 
#
# 1 0.013350 -0.001601 -0.001834 0.000000 -0.013451 0.000000
# 2 -0.001601 0.027038 -0.017355 0.000000 0.014893 0.000000
# 3 -0.001834 -0.017355 0.032955 0.000000 -0.018857 0.000000
# 4 0.000000 0.000000 0.000000 0.033886 0.000000 -0.000448
# 5 -0.013451 0.014893 -0.018857 0.000000 0.088118 0.000000
# 6 0.000000 0.000000 0.000000 -0.000448 0.000000 0.025203
#
#
# Mechanical properties :
#
#
# Convention : Reuss Voigt Hill
#
# Bulk Modulus (GPa) = 31.48249 36.01335 33.74792
# Shear Modulus (GPa) = 18.33403 26.95686 22.64545
#
# Velocity S-wave (km/s) = 3.05203 3.70080 3.39196
# Velocity P-wave (km/s) = 5.33058 6.04635 5.69971
#
# Compressibility (1/GPa) = 0.03176369
#
# Stress axis : x y z
#
# Youngs Moduli (GPa) = 74.90689 36.98542 30.34408
#
# Poissons Ratio (x) = 0.05920 0.05566
# Poissons Ratio (y) = 0.11989 0.52662
# Poissons Ratio (z) = 0.13740 0.64188
#
# Static dielectric constant tensor:
#      x y z
#    x 3.628530 0.000000 0.082950 
#    y 0.000000 3.592830 0.000000 
#    z 0.082950 0.000000 3.416270 
# 
# 
# High freq. dielectric constant tensor:
#      x y z
#    x 1.775410 0.000000 0.007400 
#    y 0.000000 1.778870 0.000000 
#    z 0.007400 0.000000 1.753830 
# 
# From -- ./inp_files/295718.got.cif
#   From: 2010.06.25/outbox.cif.g09.slc.cpg/sg12_148_cif.got.tgz:295718.got - 2010.06.28 00:19:55.
