data_PCOD8097817
_publ_section_title
;
Structure prediction by ZEFSAII (Michael W. Deem and Ramdas Pophale) SiO2 
 PCOD8097817
Probable space group: C 2/M
;
_chemical_formula_sum "Si O2"
_cell_formula_units_Z 56
_cell_length_a 14.344772
_cell_length_b 9.151245
_cell_length_c 29.921945
_cell_angle_alpha 90.000000
_cell_angle_beta 128.928024
_cell_angle_gamma 90.000000
_cell_volume 3055.677195
_symmetry_space_group_name_H-M "C 2/M"
_symmetry_group_IT_number 12
_symmetry_cell_setting 'monoclinic'
loop_
_space_group_symop_operation_xyz
x,y,z
-x,y,-z
-x,-y,-z
x,-y,z
1/2+x,1/2+y,z
1/2-x,1/2+y,-z
1/2-x,1/2-y,-z
1/2+x,1/2-y,z
loop_
_atom_site_type_symbol
_atom_site_label
_atom_site_fract_x
_atom_site_fract_y
_atom_site_fract_z
Si Si1 0.448190 0.330196 0.265303
Si Si2 0.538757 0.334406 0.060980
Si Si3 0.777223 0.170390 0.639140
Si Si4 0.853820 0.671573 0.058273
Si Si5 0.811069 0.329067 0.559450
Si Si6 0.319382 0.165594 0.148714
Si Si7 0.913453 0.330442 0.344140
O O1 0.421881 0.500000 0.262108
O O2 0.589431 0.297812 0.302830
O O3 0.385049 0.272083 0.202255
O O4 0.390541 0.254785 0.291348
O O5 0.492737 0.500000 0.055031
O O6 0.481236 0.222897 0.078432
O O7 0.678215 0.322285 0.111705
O O8 0.500000 0.284029 0.000000
O O9 0.755238 0.262931 0.587817
O O10 0.681572 0.223233 0.647355
O O11 0.758927 0.000000 0.622194
O O12 0.835566 0.500000 0.047253
O O13 0.851789 0.718517 0.109054
O O14 0.750000 0.750000 0.000000
O O15 0.781660 0.500000 0.549334
O O16 0.750000 0.250000 0.500000
O O17 0.952791 0.298834 0.598216
O O18 0.362916 0.000000 0.170443
O O19 0.893763 0.500000 0.327632
#
# Coordination Sequence:
#
# PCOD8097817 Si02
#       7
#     8   8   8   8   8   8   8
#     4  10  21  36  56  82 109 136 179 233 275 318
#     4  10  20  38  58  78 106 141 179 218 269 328
#     4   9  19  37  58  79 107 145 186 228 271 319
#     4  11  22  37  57  82 109 141 179 221 271 329
#     4  10  20  34  54  82 115 149 185 227 271 322
#     4  10  22  39  57  77 110 147 177 218 276 337
#     4   9  19  37  59  79 106 148 189 222 272 330
#
# _framework density 18.326543000000001
#
# number of rings (size 3 to 8) (size 9 to 14) (size 15 to 20)
#    0.000    2.143    1.429    1.286    0.000    5.429 
#    0.000    7.143    0.000    0.000    0.000    0.000 
#    0.000    0.000    0.000    0.000    0.000    0.000 
#
# Total GULP energy -347291.023084 kJ/mol
# GULP energy per Si atom -12403.250824 kJ/mol
# Density = 1.828483 g / cm^3
# Si number density = 18.326543 Si / 1000 Ang^3
#
#
#
# Elastic Constant Matrix: (Units=GPa)
#
#
# Indices 1 2 3 4 5 6 
#
# 1 147.7730 60.0936 63.5238 0.0000 -23.5667 0.0000
# 2 60.0936 84.9596 70.1988 0.0000 -18.6853 0.0000
# 3 63.5238 70.1988 132.7203 0.0000 -23.2094 0.0000
# 4 0.0000 0.0000 0.0000 37.2816 0.0000 -1.9133
# 5 -23.5667 -18.6853 -23.2094 0.0000 22.7789 0.0000
# 6 0.0000 0.0000 0.0000 -1.9133 0.0000 30.1300
#
#
#
# Elastic Compliance Matrix: (Units=1/GPa)
#
#
# Indices 1 2 3 4 5 6 
#
# 1 0.010178 -0.004958 -0.001362 0.000000 0.005076 0.000000
# 2 -0.004958 0.024328 -0.009615 0.000000 0.005030 0.000000
# 3 -0.001362 -0.009615 0.014171 0.000000 0.005143 0.000000
# 4 0.000000 0.000000 0.000000 0.026911 0.000000 0.001709
# 5 0.005076 0.005030 0.005143 0.000000 0.058519 0.000000
# 6 0.000000 0.000000 0.000000 0.001709 0.000000 0.033298
#
#
# Mechanical properties :
#
#
# Convention : Reuss Voigt Hill
#
# Bulk Modulus (GPa) = 59.49349 83.67614 71.58481
# Shear Modulus (GPa) = 24.40503 29.48055 26.94279
#
# Velocity S-wave (km/s) = 3.65317 4.01512 3.83841
# Velocity P-wave (km/s) = 7.09420 8.20076 7.66747
#
# Compressibility (1/GPa) = 0.01680856
#
# Stress axis : x y z
#
# Youngs Moduli (GPa) = 98.25020 41.10531 70.56472
#
# Poissons Ratio (x) = 0.20379 0.09608
# Poissons Ratio (y) = 0.48710 0.67848
# Poissons Ratio (z) = 0.13378 0.39523
#
# Static dielectric constant tensor:
#      x y z
#    x 3.557000 0.000000 -0.040520 
#    y 0.000000 3.519230 0.000000 
#    z -0.040520 0.000000 3.304880 
# 
# 
# High freq. dielectric constant tensor:
#      x y z
#    x 1.717410 0.000000 -0.003140 
#    y 0.000000 1.714050 0.000000 
#    z -0.003140 0.000000 1.709980 
# 
# From -- ./inp_files/339012.got.cif
#   From: 2010.06.25/outbox.cif.g09.slc.cpg/sg12_170_cif.got.tgz:339012.got - 2010.06.28 00:19:55.
