data_PCOD8097655
_publ_section_title
;
Structure prediction by ZEFSAII (Michael W. Deem and Ramdas Pophale) SiO2 
 PCOD8097655
Probable space group: C 2/M
;
_chemical_formula_sum "Si O2"
_cell_formula_units_Z 64
_cell_length_a 23.729362
_cell_length_b 9.215365
_cell_length_c 27.413829
_cell_angle_alpha 90.000000
_cell_angle_beta 33.502657
_cell_angle_gamma 90.000000
_cell_volume 3308.934922
_symmetry_space_group_name_H-M "C 2/M"
_symmetry_group_IT_number 12
_symmetry_cell_setting 'monoclinic'
loop_
_space_group_symop_operation_xyz
x,y,z
-x,y,-z
-x,-y,-z
x,-y,z
1/2+x,1/2+y,z
1/2-x,1/2+y,-z
1/2-x,1/2-y,-z
1/2+x,1/2-y,z
loop_
_atom_site_type_symbol
_atom_site_label
_atom_site_fract_x
_atom_site_fract_y
_atom_site_fract_z
Si Si1 0.286950 0.665843 0.862643
Si Si2 0.884576 0.832623 0.959424
Si Si3 0.556214 0.669970 0.910522
Si Si4 0.527467 0.665286 0.206478
Si Si5 0.238344 0.170425 0.228480
Si Si6 0.977076 0.169885 0.572303
Si Si7 0.638356 0.829605 0.523488
Si Si8 0.344192 0.831118 0.376237
O O1 0.252104 0.500000 0.889113
O O2 0.403395 0.683938 0.795559
O O3 0.281152 0.727997 0.812250
O O4 0.213994 0.748623 0.951952
O O5 0.904189 0.793315 0.889279
O O6 0.984600 0.788413 0.917299
O O7 0.859481 0.000000 0.985481
O O8 0.578980 0.500000 0.898345
O O9 0.662392 0.749356 0.822914
O O10 0.500000 0.726690 0.000000
O O11 0.486630 0.500000 0.231606
O O12 0.433655 0.775219 0.276780
O O13 0.140752 0.209657 0.332070
O O14 0.259268 0.000000 0.214190
O O15 0.047031 0.260438 0.558617
O O16 0.000000 0.213327 0.500000
O O17 0.998009 0.000000 0.566606
O O18 0.622373 0.799005 0.592370
O O19 0.743975 0.754985 0.431947
O O20 0.644177 0.000000 0.508011
O O21 0.324103 0.000000 0.381657
#
# Coordination Sequence:
#
# PCOD8097655 Si02
#       8
#     8   8   8   8   8   8   8   8
#     4  10  20  34  54  79 108 143 183 228 280 333
#     4  10  21  36  54  78 109 146 185 228 279 332
#     4  10  20  36  56  78 107 144 186 232 278 328
#     4  10  21  36  54  80 114 146 181 229 283 338
#     4  10  21  36  57  83 109 144 188 232 280 333
#     4  10  22  40  60  85 119 155 192 237 289 344
#     4  10  21  38  61  86 113 148 190 235 285 339
#     4  10  21  37  59  86 113 147 189 234 285 343
#
# _framework density 19.341570000000001
#
# number of rings (size 3 to 8) (size 9 to 14) (size 15 to 20)
#    0.000    2.000    1.250    1.875    0.000    6.000 
#    0.000    2.500    0.000    0.000    0.000    0.000 
#    0.000    0.000    0.000    0.000    0.000    0.000 
#
# Total GULP energy -396908.670851 kJ/mol
# GULP energy per Si atom -12403.395964 kJ/mol
# Density = 1.929755 g / cm^3
# Si number density = 19.341570 Si / 1000 Ang^3
#
#
#
# Elastic Constant Matrix: (Units=GPa)
#
#
# Indices 1 2 3 4 5 6 
#
# 1 54.3758 24.0164 19.3769 0.0155 -7.2684 -0.0216
# 2 24.0164 66.1647 46.2188 0.0126 -10.7894 -0.0001
# 3 19.3769 46.2188 116.5945 0.0053 -10.0631 -0.0077
# 4 0.0155 0.0126 0.0053 35.6034 -0.0086 -4.9459
# 5 -7.2684 -10.7894 -10.0631 -0.0086 24.1644 0.0133
# 6 -0.0216 -0.0001 -0.0077 -4.9459 0.0133 26.8258
#
#
#
# Elastic Compliance Matrix: (Units=1/GPa)
#
#
# Indices 1 2 3 4 5 6 
#
# 1 0.022174 -0.007109 -0.000587 -0.000004 0.003251 0.000015
# 2 -0.007109 0.024085 -0.007907 -0.000005 0.005323 -0.000011
# 3 -0.000587 -0.007907 0.011917 0.000002 0.001256 0.000003
# 4 -0.000004 -0.000005 0.000002 0.028826 0.000005 0.005315
# 5 0.003251 0.005323 0.001256 0.000005 0.045261 -0.000019
# 6 0.000015 -0.000011 0.000003 0.005315 -0.000019 0.038257
#
#
# Mechanical properties :
#
#
# Convention : Reuss Voigt Hill
#
# Bulk Modulus (GPa) = 37.07528 46.26212 41.66870
# Shear Modulus (GPa) = 23.72873 27.15357 25.44115
#
# Velocity S-wave (km/s) = 3.50641 3.75093 3.63073
# Velocity P-wave (km/s) = 5.96687 6.53679 6.25832
#
# Compressibility (1/GPa) = 0.02697215
#
# Stress axis : x y z
#
# Youngs Moduli (GPa) = 45.09806 41.51900 83.91448
#
# Poissons Ratio (x) = 0.29515 0.04922
# Poissons Ratio (y) = 0.32059 0.66349
# Poissons Ratio (z) = 0.02645 0.32828
#
# Static dielectric constant tensor:
#      x y z
#    x 3.554990 0.000000 0.049920 
#    y 0.000000 3.444440 0.000010 
#    z 0.049920 0.000010 3.480380 
# 
# 
# High freq. dielectric constant tensor:
#      x y z
#    x 1.754770 0.000000 -0.003060 
#    y 0.000000 1.746610 0.000000 
#    z -0.003060 0.000000 1.757390 
# 
# From -- ./inp_files/238694.got.cif
#   From: 2010.06.25/outbox.cif.g09.slc.cpg/sg12_120_cif.got.tgz:238694.got - 2010.06.28 00:19:55.
