data_PCOD8097365
_publ_section_title
;
Structure prediction by ZEFSAII (Michael W. Deem and Ramdas Pophale) SiO2 
 PCOD8097365
Probable space group: C 2/M
;
_chemical_formula_sum "Si O2"
_cell_formula_units_Z 64
_cell_length_a 18.149544
_cell_length_b 9.006170
_cell_length_c 20.534227
_cell_angle_alpha 90.000000
_cell_angle_beta 85.127411
_cell_angle_gamma 90.000000
_cell_volume 3344.351020
_symmetry_space_group_name_H-M "C 2/M"
_symmetry_group_IT_number 12
_symmetry_cell_setting 'monoclinic'
loop_
_space_group_symop_operation_xyz
x,y,z
-x,y,-z
-x,-y,-z
x,-y,z
1/2+x,1/2+y,z
1/2-x,1/2+y,-z
1/2-x,1/2-y,-z
1/2+x,1/2-y,z
loop_
_atom_site_type_symbol
_atom_site_label
_atom_site_fract_x
_atom_site_fract_y
_atom_site_fract_z
Si Si1 0.163740 0.327208 0.946460
Si Si2 0.084521 0.673026 0.820610
Si Si3 0.831181 0.174939 0.923619
Si Si4 0.189332 0.830814 0.574196
Si Si5 0.860044 0.328825 0.684816
Si Si6 0.339531 0.330881 0.561154
Si Si7 0.186775 0.832392 0.716477
Si Si8 0.567160 0.324118 0.200958
O O1 0.164794 0.500000 0.962711
O O2 0.108351 0.289582 0.892328
O O3 0.246306 0.273768 0.920835
O O4 0.135294 0.243119 0.012748
O O5 0.066298 0.500000 0.813444
O O6 0.151755 0.714555 0.767977
O O7 0.014675 0.771974 0.809345
O O8 0.877240 0.235950 0.858820
O O9 0.838921 0.000000 0.928128
O O10 0.252919 0.707970 0.565444
O O11 0.133300 0.808672 0.516576
O O12 0.149485 0.812066 0.647428
O O13 0.222631 0.000000 0.569058
O O14 0.881043 0.500000 0.688561
O O15 0.881201 0.272478 0.610409
O O16 0.773911 0.298643 0.704950
O O17 0.909386 0.239985 0.731766
O O18 0.350023 0.500000 0.583139
O O19 0.173282 0.000000 0.743087
O O20 0.568489 0.500000 0.204988
#
# Coordination Sequence:
#
# PCOD8097365 Si02
#       8
#     8   8   8   8   8   8   8   8
#     4   9  19  36  57  80 106 135 168 209 257 308
#     4  11  23  37  53  76 107 141 178 218 260 308
#     4   9  19  36  58  82 105 132 170 213 255 305
#     4   8  15  27  44  71 105 136 170 214 262 311
#     4  10  20  34  53  78 107 138 175 218 263 314
#     4   9  15  25  45  73 104 136 170 212 262 311
#     4   9  18  33  53  77 105 138 175 215 260 310
#     4  11  23  38  55  76 105 140 178 218 261 310
#
# _framework density 19.136747
#
# number of rings (size 3 to 8) (size 9 to 14) (size 15 to 20)
#    0.000    2.500    0.000    3.000    0.000    6.500 
#    0.000    5.000    0.000    0.750    0.000    5.250 
#    0.000    0.000    0.000    0.000    0.000    0.000 
#
# Total GULP energy -396682.601576 kJ/mol
# GULP energy per Si atom -12396.331299 kJ/mol
# Density = 1.909319 g / cm^3
# Si number density = 19.136747 Si / 1000 Ang^3
#
#
#
# Elastic Constant Matrix: (Units=GPa)
#
#
# Indices 1 2 3 4 5 6 
#
# 1 45.7418 21.8392 23.8070 0.0000 19.6577 0.0000
# 2 21.8392 65.3657 38.0801 0.0000 11.9315 0.0000
# 3 23.8070 38.0801 102.2184 0.0000 32.8192 0.0000
# 4 0.0000 0.0000 0.0000 34.0057 0.0000 3.5994
# 5 19.6577 11.9315 32.8192 0.0000 19.1957 0.0000
# 6 0.0000 0.0000 0.0000 3.5994 0.0000 24.5736
#
#
#
# Elastic Compliance Matrix: (Units=1/GPa)
#
#
# Indices 1 2 3 4 5 6 
#
# 1 0.049929 -0.013055 0.015621 0.000000 -0.069723 0.000000
# 2 -0.013055 0.022956 -0.011579 0.000000 0.018896 0.000000
# 3 0.015621 -0.011579 0.029450 0.000000 -0.059151 0.000000
# 4 0.000000 0.000000 0.000000 0.029870 0.000000 -0.004375
# 5 -0.069723 0.018896 -0.059151 0.000000 0.212883 0.000000
# 6 0.000000 0.000000 0.000000 -0.004375 0.000000 0.041335
#
#
# Mechanical properties :
#
#
# Convention : Reuss Voigt Hill
#
# Bulk Modulus (GPa) = 11.86105 42.30871 27.08488
# Shear Modulus (GPa) = 11.55933 24.19496 17.87714
#
# Velocity S-wave (km/s) = 2.46039 3.55958 3.05975
# Velocity P-wave (km/s) = 3.77926 6.24906 5.16399
#
# Compressibility (1/GPa) = 0.08430960
#
# Stress axis : x y z
#
# Youngs Moduli (GPa) = 20.02860 43.56081 33.95607
#
# Poissons Ratio (x) = 0.56868 -0.53042
# Poissons Ratio (y) = 0.26147 0.39316
# Poissons Ratio (z) = -0.31286 0.50437
#
# Static dielectric constant tensor:
#      x y z
#    x 3.114870 0.000000 0.098720 
#    y 0.000000 3.469480 0.000000 
#    z 0.098720 0.000000 3.911510 
# 
# 
# High freq. dielectric constant tensor:
#      x y z
#    x 1.696720 0.000000 0.014090 
#    y 0.000000 1.747880 0.000000 
#    z 0.014090 0.000000 1.765520 
# 
# From -- ./inp_files/314206.got.cif
#   From: 2010.06.25/outbox.cif.g09.slc.cpg/sg12_158_cif.got.tgz:314206.got - 2010.06.28 00:19:55.
