data_PCOD8097803
_publ_section_title
;
Structure prediction by ZEFSAII (Michael W. Deem and Ramdas Pophale) SiO2 
 PCOD8097803
Probable space group: C 2/M
;
_chemical_formula_sum "Si O2"
_cell_formula_units_Z 56
_cell_length_a 21.123794
_cell_length_b 9.294828
_cell_length_c 14.989083
_cell_angle_alpha 90.000000
_cell_angle_beta 88.779221
_cell_angle_gamma 90.000000
_cell_volume 2942.319022
_symmetry_space_group_name_H-M "C 2/M"
_symmetry_group_IT_number 12
_symmetry_cell_setting 'monoclinic'
loop_
_space_group_symop_operation_xyz
x,y,z
-x,y,-z
-x,-y,-z
x,-y,z
1/2+x,1/2+y,z
1/2-x,1/2+y,-z
1/2-x,1/2-y,-z
1/2+x,1/2-y,z
loop_
_atom_site_type_symbol
_atom_site_label
_atom_site_fract_x
_atom_site_fract_y
_atom_site_fract_z
Si Si1 0.166858 0.167334 0.929213
Si Si2 0.688043 0.663428 0.476464
Si Si3 0.868225 0.836088 0.708999
Si Si4 0.714978 0.666131 0.122762
Si Si5 0.056096 0.830045 0.566442
Si Si6 0.959812 0.666030 0.087055
Si Si7 0.006910 0.332867 0.281230
O O1 0.222366 0.238560 0.869594
O O2 0.101492 0.236699 0.902623
O O3 0.164936 0.000000 0.906773
O O4 0.178492 0.198880 0.032608
O O5 0.699818 0.500000 0.505157
O O6 0.750000 0.750000 0.500000
O O7 0.680298 0.677205 0.370757
O O8 0.623971 0.720112 0.525853
O O9 0.832120 0.786521 0.798348
O O10 0.926331 0.731033 0.690635
O O11 0.893679 0.000000 0.716381
O O12 0.735084 0.500000 0.129620
O O13 0.000000 0.786021 0.500000
O O14 0.047359 0.747916 0.660616
O O15 0.054349 0.000000 0.583657
O O16 0.939522 0.500000 0.077154
O O17 0.999429 0.692103 0.175728
O O18 0.000000 0.716239 0.000000
O O19 0.004470 0.500000 0.305764
#
# Coordination Sequence:
#
# PCOD8097803 Si02
#       7
#     8   8   8   8   8   8   8
#     4  10  20  34  54  82 112 146 188 234 285 340
#     4  10  22  39  60  85 114 150 187 234 291 345
#     4  10  20  38  60  81 109 148 192 232 283 349
#     4   9  19  35  57  81 109 147 188 233 285 342
#     4  10  20  40  64  84 115 156 195 235 289 355
#     4  10  22  39  56  78 115 155 189 233 289 343
#     4  11  23  36  58  90 115 146 194 244 291 338
#
# _framework density 19.032606999999999
#
# number of rings (size 3 to 8) (size 9 to 14) (size 15 to 20)
#    0.000    2.000    1.429    1.714    0.000    5.143 
#    0.000    4.286    0.000    0.000    0.000    0.000 
#    0.000    0.000    0.000    0.000    0.000    0.000 
#
# Total GULP energy -347298.683641 kJ/mol
# GULP energy per Si atom -12403.524416 kJ/mol
# Density = 1.898929 g / cm^3
# Si number density = 19.032607 Si / 1000 Ang^3
#
#
#
# Elastic Constant Matrix: (Units=GPa)
#
#
# Indices 1 2 3 4 5 6 
#
# 1 127.1059 54.6241 34.5967 0.0000 -5.1409 0.0000
# 2 54.6241 71.2192 33.4047 0.0000 -3.1986 0.0000
# 3 34.5967 33.4047 87.7262 0.0000 -17.2174 0.0000
# 4 0.0000 0.0000 0.0000 28.6573 0.0000 4.0943
# 5 -5.1409 -3.1986 -17.2174 0.0000 28.0217 0.0000
# 6 0.0000 0.0000 0.0000 4.0943 0.0000 31.4228
#
#
#
# Elastic Compliance Matrix: (Units=1/GPa)
#
#
# Indices 1 2 3 4 5 6 
#
# 1 0.011895 -0.008449 -0.001404 0.000000 0.000355 0.000000
# 2 -0.008449 0.023230 -0.006024 0.000000 -0.002600 0.000000
# 3 -0.001404 -0.006024 0.015989 0.000000 0.008879 0.000000
# 4 0.000000 0.000000 0.000000 0.035557 0.000000 -0.004633
# 5 0.000355 -0.002600 0.008879 0.000000 0.040911 0.000000
# 6 0.000000 0.000000 0.000000 -0.004633 0.000000 0.032428
#
#
# Mechanical properties :
#
#
# Convention : Reuss Voigt Hill
#
# Bulk Modulus (GPa) = 51.65122 59.03359 55.34241
# Shear Modulus (GPa) = 25.22501 28.51543 26.87022
#
# Velocity S-wave (km/s) = 3.64450 3.87491 3.76147
# Velocity P-wave (km/s) = 6.70127 7.14873 6.92861
#
# Compressibility (1/GPa) = 0.01936063
#
# Stress axis : x y z
#
# Youngs Moduli (GPa) = 84.07023 43.04823 62.54176
#
# Poissons Ratio (x) = 0.36370 0.08782
# Poissons Ratio (y) = 0.71027 0.37674
# Poissons Ratio (z) = 0.11805 0.25932
#
# Static dielectric constant tensor:
#      x y z
#    x 3.424120 0.000000 -0.168960 
#    y 0.000000 3.468330 0.000000 
#    z -0.168960 0.000000 3.598750 
# 
# 
# High freq. dielectric constant tensor:
#      x y z
#    x 1.739030 0.000000 -0.009510 
#    y 0.000000 1.737380 0.000000 
#    z -0.009510 0.000000 1.745210 
# 
# From -- ./inp_files/230862.got.cif
#   From: 2010.06.25/outbox.cif.g09.slc.cpg/sg12_116_cif.got.tgz:230862.got - 2010.06.28 00:19:55.
