data_PCOD8097641
_publ_section_title
;
Structure prediction by ZEFSAII (Michael W. Deem and Ramdas Pophale) SiO2 
 PCOD8097641
Probable space group: C 2/M
;
_chemical_formula_sum "Si O2"
_cell_formula_units_Z 64
_cell_length_a 31.765052
_cell_length_b 8.754278
_cell_length_c 25.442380
_cell_angle_alpha 90.000000
_cell_angle_beta 29.401646
_cell_angle_gamma 90.000000
_cell_volume 3473.330689
_symmetry_space_group_name_H-M "C 2/M"
_symmetry_group_IT_number 12
_symmetry_cell_setting 'monoclinic'
loop_
_space_group_symop_operation_xyz
x,y,z
-x,y,-z
-x,-y,-z
x,-y,z
1/2+x,1/2+y,z
1/2-x,1/2+y,-z
1/2-x,1/2-y,-z
1/2+x,1/2-y,z
loop_
_atom_site_type_symbol
_atom_site_label
_atom_site_fract_x
_atom_site_fract_y
_atom_site_fract_z
Si Si1 0.178786 0.677325 0.041256
Si Si2 0.514056 0.174771 0.722289
Si Si3 0.082124 0.321976 0.445866
Si Si4 0.795491 0.677600 0.304833
Si Si5 0.457625 0.179803 0.189818
Si Si6 0.136908 0.820818 0.978815
Si Si7 0.240768 0.322177 0.773292
Si Si8 0.893688 0.820243 0.473209
O O1 0.197605 0.500000 0.013666
O O2 0.183038 0.751159 0.979381
O O3 0.087211 0.706031 0.167863
O O4 0.250000 0.750000 0.000000
O O5 0.552548 0.215138 0.737410
O O6 0.557107 0.286817 0.633920
O O7 0.534111 0.000000 0.685337
O O8 0.106097 0.500000 0.419899
O O9 0.160239 0.225899 0.336950
O O10 0.060671 0.266886 0.528292
O O11 0.000000 0.287440 0.500000
O O12 0.798205 0.500000 0.314304
O O13 0.875077 0.751416 0.249868
O O14 0.805046 0.710403 0.232601
O O15 0.704308 0.741210 0.424821
O O16 0.541305 0.258385 0.074855
O O17 0.469128 0.000000 0.167761
O O18 0.133082 0.000000 0.990287
O O19 0.192622 0.779617 0.867843
O O20 0.235237 0.500000 0.794436
O O21 0.894912 0.000000 0.484031
#
# Coordination Sequence:
#
# PCOD8097641 Si02
#       8
#     8   8   8   8   8   8   8   8
#     4  10  21  38  58  80 107 140 178 220 269 319
#     4   9  19  34  53  77 106 139 173 214 263 312
#     4  10  21  37  56  78 106 138 173 217 267 314
#     4   8  17  34  55  78 104 137 177 219 264 317
#     4   9  18  36  57  76 104 141 179 219 267 318
#     4  11  22  36  54  79 110 141 178 221 264 313
#     4  10  20  36  57  80 107 140 178 218 265 319
#     4  10  20  34  54  79 107 140 177 215 258 314
#
# _framework density 18.426117999999999
#
# number of rings (size 3 to 8) (size 9 to 14) (size 15 to 20)
#    0.000    2.375    0.000    4.125    0.000    5.500 
#    0.000    7.500    0.000    0.000    0.000    0.000 
#    0.000    0.000    0.000    0.000    0.000    0.000 
#
# Total GULP energy -396855.299740 kJ/mol
# GULP energy per Si atom -12401.728117 kJ/mol
# Density = 1.838418 g / cm^3
# Si number density = 18.426118 Si / 1000 Ang^3
#
#
#
# Elastic Constant Matrix: (Units=GPa)
#
#
# Indices 1 2 3 4 5 6 
#
# 1 139.8154 47.1845 64.3765 0.0077 -20.5478 -0.0027
# 2 47.1845 74.7666 35.0375 0.0597 -4.1076 -0.0090
# 3 64.3765 35.0375 88.0504 0.0284 6.9718 -0.0062
# 4 0.0077 0.0597 0.0284 33.1961 -0.0085 4.7925
# 5 -20.5478 -4.1076 6.9718 -0.0085 29.1241 -0.0031
# 6 -0.0027 -0.0090 -0.0062 4.7925 -0.0031 25.2884
#
#
#
# Elastic Compliance Matrix: (Units=1/GPa)
#
#
# Indices 1 2 3 4 5 6 
#
# 1 0.015215 -0.003958 -0.010555 0.000016 0.012703 -0.000004
# 2 -0.003958 0.017931 -0.004302 -0.000029 0.000767 0.000010
# 3 -0.010555 -0.004302 0.021838 -0.000012 -0.013281 0.000003
# 4 0.000016 -0.000029 -0.000012 0.030971 0.000019 -0.005870
# 5 0.012703 0.000767 -0.013281 0.000019 0.046585 0.000000
# 6 -0.000004 0.000010 0.000003 -0.005870 0.000000 0.040656
#
#
# Mechanical properties :
#
#
# Convention : Reuss Voigt Hill
#
# Bulk Modulus (GPa) = 57.62478 66.20327 61.91403
# Shear Modulus (GPa) = 23.08289 27.92397 25.50343
#
# Velocity S-wave (km/s) = 3.54323 3.89711 3.72437
# Velocity P-wave (km/s) = 6.93402 7.50047 7.22280
#
# Compressibility (1/GPa) = 0.01735365
#
# Stress axis : x y z
#
# Youngs Moduli (GPa) = 65.72601 55.76964 45.79227
#
# Poissons Ratio (x) = 0.22072 0.48333
# Poissons Ratio (y) = 0.26012 0.19701
# Poissons Ratio (z) = 0.69373 0.23993
#
# Static dielectric constant tensor:
#      x y z
#    x 3.570050 -0.000020 -0.127010 
#    y -0.000020 3.332830 0.000040 
#    z -0.127010 0.000040 3.371810 
# 
# 
# High freq. dielectric constant tensor:
#      x y z
#    x 1.720470 0.000000 -0.001160 
#    y 0.000000 1.711500 0.000010 
#    z -0.001160 0.000010 1.714210 
# 
# From -- ./inp_files/353264.got.cif
#   From: 2010.06.25/outbox.cif.g09.slc.cpg/sg12_177_cif.got.tgz:353264.got - 2010.06.28 00:19:55.
