data_PCOD8097358
_publ_section_title
;
Structure prediction by ZEFSAII (Michael W. Deem and Ramdas Pophale) SiO2 
 PCOD8097358
Probable space group: C 2/M
;
_chemical_formula_sum "Si O2"
_cell_formula_units_Z 56
_cell_length_a 17.902511
_cell_length_b 9.469978
_cell_length_c 25.150737
_cell_angle_alpha 90.000000
_cell_angle_beta 45.180037
_cell_angle_gamma 90.000000
_cell_volume 3024.537789
_symmetry_space_group_name_H-M "C 2/M"
_symmetry_group_IT_number 12
_symmetry_cell_setting 'monoclinic'
loop_
_space_group_symop_operation_xyz
x,y,z
-x,y,-z
-x,-y,-z
x,-y,z
1/2+x,1/2+y,z
1/2-x,1/2+y,-z
1/2-x,1/2-y,-z
1/2+x,1/2-y,z
loop_
_atom_site_type_symbol
_atom_site_label
_atom_site_fract_x
_atom_site_fract_y
_atom_site_fract_z
Si Si1 0.398991 0.664313 0.515068
Si Si2 0.859655 0.838185 0.209847
Si Si3 0.094773 0.835892 0.065195
Si Si4 0.038574 0.832437 0.632685
Si Si5 0.805520 0.832681 0.773894
Si Si6 0.302387 0.662733 0.358020
Si Si7 0.746586 0.164238 0.922025
O O1 0.500000 0.693825 0.500000
O O2 0.369028 0.500000 0.529626
O O3 0.421723 0.721113 0.444414
O O4 0.304137 0.749129 0.588549
O O5 0.773544 0.737977 0.227445
O O6 0.859621 0.819500 0.273137
O O7 0.973928 0.791013 0.131890
O O8 0.835760 0.000000 0.206231
O O9 0.154996 0.798794 0.089583
O O10 0.106205 0.000000 0.045892
O O11 0.143254 0.749057 0.991951
O O12 0.118903 0.775532 0.636852
O O13 0.921925 0.773854 0.702763
O O14 0.033589 0.000000 0.637210
O O15 0.776527 0.787263 0.848037
O O16 0.798880 0.000000 0.769417
O O17 0.274606 0.500000 0.383604
O O18 0.718387 0.000000 0.938456
#
# Coordination Sequence:
#
# PCOD8097358 Si02
#       7
#     8   8   8   8   8   8   8
#     4  10  20  34  53  78 107 135 165 204 252 304
#     4  10  21  35  51  74 103 134 169 208 252 302
#     4   9  18  34  54  74 101 136 169 205 252 302
#     4   9  18  34  55  76 100 134 172 207 248 299
#     4  10  20  35  55  76 101 134 170 209 253 300
#     4  10  20  35  55  76 100 133 173 212 248 293
#     4   9  18  33  54  78 100 128 171 214 249 294
#
# _framework density 18.515225000000001
#
# number of rings (size 3 to 8) (size 9 to 14) (size 15 to 20)
#    0.000    2.429    0.000    2.143    0.000    7.143 
#    0.000    4.286    0.000    3.429    0.000    0.000 
#    0.000    0.000    0.000    0.000    0.000    0.000 
#
# Total GULP energy -347292.598058 kJ/mol
# GULP energy per Si atom -12403.307073 kJ/mol
# Density = 1.847308 g / cm^3
# Si number density = 18.515225 Si / 1000 Ang^3
#
#
#
# Elastic Constant Matrix: (Units=GPa)
#
#
# Indices 1 2 3 4 5 6 
#
# 1 80.0774 29.5660 25.7886 0.0000 -8.1374 0.0001
# 2 29.5660 37.3388 34.3860 0.0000 -9.2093 0.0002
# 3 25.7886 34.3860 103.1139 0.0000 -16.1762 0.0000
# 4 0.0000 0.0000 0.0000 27.6650 0.0000 0.0519
# 5 -8.1374 -9.2093 -16.1762 0.0000 33.6958 0.0000
# 6 0.0001 0.0002 0.0000 0.0519 0.0000 27.6125
#
#
#
# Elastic Compliance Matrix: (Units=1/GPa)
#
#
# Indices 1 2 3 4 5 6 
#
# 1 0.017666 -0.014231 0.000418 0.000000 0.000578 0.000000
# 2 -0.014231 0.050827 -0.012707 0.000000 0.004354 0.000000
# 3 0.000418 -0.012707 0.014385 0.000000 0.003534 0.000000
# 4 0.000000 0.000000 0.000000 0.036147 0.000000 -0.000068
# 5 0.000578 0.004354 0.003534 0.000000 0.032703 0.000000
# 6 0.000000 0.000000 0.000000 -0.000068 0.000000 0.036216
#
#
# Mechanical properties :
#
#
# Convention : Reuss Voigt Hill
#
# Bulk Modulus (GPa) = 33.51465 44.44569 38.98017
# Shear Modulus (GPa) = 19.92572 26.51395 23.21983
#
# Velocity S-wave (km/s) = 3.28408 3.78829 3.54516
# Velocity P-wave (km/s) = 5.70269 6.57206 6.15275
#
# Compressibility (1/GPa) = 0.02983770
#
# Stress axis : x y z
#
# Youngs Moduli (GPa) = 56.60443 19.67455 69.51487
#
# Poissons Ratio (x) = 0.28000 -0.02906
# Poissons Ratio (y) = 0.80556 0.88335
# Poissons Ratio (z) = -0.02367 0.25001
#
# Static dielectric constant tensor:
#      x y z
#    x 3.450090 0.000000 0.036720 
#    y 0.000000 3.184120 0.000000 
#    z 0.036720 0.000000 3.544080 
# 
# 
# High freq. dielectric constant tensor:
#      x y z
#    x 1.725370 0.000000 0.002040 
#    y 0.000000 1.694180 0.000000 
#    z 0.002040 0.000000 1.732220 
# 
# From -- ./inp_files/342349.got.cif
#   From: 2010.06.25/outbox.cif.g09.slc.cpg/sg12_172_cif.got.tgz:342349.got - 2010.06.28 00:19:55.
