data_PCOD8097206
_publ_section_title
;
Structure prediction by ZEFSAII (Michael W. Deem and Ramdas Pophale) SiO2 
 PCOD8097206
Probable space group: C 2/M
;
_chemical_formula_sum "Si O2"
_cell_formula_units_Z 64
_cell_length_a 15.237159
_cell_length_b 8.926247
_cell_length_c 28.841476
_cell_angle_alpha 90.000000
_cell_angle_beta 57.329941
_cell_angle_gamma 90.000000
_cell_volume 3302.141516
_symmetry_space_group_name_H-M "C 2/M"
_symmetry_group_IT_number 12
_symmetry_cell_setting 'monoclinic'
loop_
_space_group_symop_operation_xyz
x,y,z
-x,y,-z
-x,-y,-z
x,-y,z
1/2+x,1/2+y,z
1/2-x,1/2+y,-z
1/2-x,1/2-y,-z
1/2+x,1/2-y,z
loop_
_atom_site_type_symbol
_atom_site_label
_atom_site_fract_x
_atom_site_fract_y
_atom_site_fract_z
Si Si1 0.232980 0.678027 0.887877
Si Si2 0.544695 0.177648 0.874930
Si Si3 0.301206 0.177175 0.607358
Si Si4 0.963499 0.826424 0.619753
Si Si5 0.066435 0.177768 0.684272
Si Si6 0.091504 0.322739 0.005827
Si Si7 0.034237 0.178376 0.192252
Si Si8 0.342175 0.673742 0.501369
O O1 0.236839 0.500000 0.885846
O O2 0.198221 0.733433 0.950175
O O3 0.347765 0.743042 0.845016
O O4 0.149100 0.729975 0.872768
O O5 0.539715 0.259216 0.827168
O O6 0.546912 0.000000 0.866726
O O7 0.438559 0.228286 0.933378
O O8 0.363754 0.227285 0.635082
O O9 0.183929 0.238291 0.646608
O O10 0.355329 0.252656 0.547708
O O11 0.304293 0.000000 0.600212
O O12 0.001580 0.765384 0.658558
O O13 0.051967 0.801184 0.556441
O O14 0.931076 0.000000 0.631812
O O15 0.012685 0.238833 0.746178
O O16 0.069199 0.000000 0.683680
O O17 0.090303 0.500000 0.005086
O O18 0.000000 0.259396 0.000000
O O19 0.033049 0.000000 0.190174
O O20 0.315935 0.500000 0.514636
O O21 0.250000 0.750000 0.500000
#
# Coordination Sequence:
#
# PCOD8097206 Si02
#       8
#     8   8   8   8   8   8   8   8
#     4   8  15  29  50  74  98 133 176 209 250 319
#     4   9  17  31  51  75 102 131 167 217 265 308
#     4  11  22  38  58  83 111 143 179 219 267 321
#     4  10  21  39  59  81 109 143 178 217 264 317
#     4   9  20  39  55  71 105 145 177 215 267 312
#     4   7  11  23  45  71  99 129 163 206 258 312
#     4  10  20  34  53  74  99 137 179 216 258 313
#     4  11  21  36  60  87 116 146 175 214 265 317
#
# _framework density 19.381360999999998
#
# number of rings (size 3 to 8) (size 9 to 14) (size 15 to 20)
#    0.000    2.625    1.250    2.625    0.000    4.000 
#    0.000    3.750    0.000    3.375    0.000    0.000 
#    0.000    0.000    0.000    0.000    0.000    0.000 
#
# Total GULP energy -396561.609907 kJ/mol
# GULP energy per Si atom -12392.550310 kJ/mol
# Density = 1.933725 g / cm^3
# Si number density = 19.381361 Si / 1000 Ang^3
#
#
#
# Elastic Constant Matrix: (Units=GPa)
#
#
# Indices 1 2 3 4 5 6 
#
# 1 93.9816 20.4081 32.7724 0.0000 16.0966 0.0000
# 2 20.4081 34.8845 23.9822 0.0000 3.8159 0.0000
# 3 32.7724 23.9822 115.3847 0.0000 17.7246 0.0000
# 4 0.0000 0.0000 0.0000 17.6468 0.0000 5.7983
# 5 16.0966 3.8159 17.7246 0.0000 23.9548 0.0000
# 6 0.0000 0.0000 0.0000 5.7983 0.0000 29.6576
#
#
#
# Elastic Compliance Matrix: (Units=1/GPa)
#
#
# Indices 1 2 3 4 5 6 
#
# 1 0.013738 -0.006216 -0.001516 0.000000 -0.007119 0.000000
# 2 -0.006216 0.036258 -0.006234 0.000000 0.003013 0.000000
# 3 -0.001516 -0.006234 0.011377 0.000000 -0.006406 0.000000
# 4 0.000000 0.000000 0.000000 0.060558 0.000000 -0.011840
# 5 -0.007119 0.003013 -0.006406 0.000000 0.050789 0.000000
# 6 0.000000 0.000000 0.000000 -0.011840 0.000000 0.036033
#
#
# Mechanical properties :
#
#
# Convention : Reuss Voigt Hill
#
# Bulk Modulus (GPa) = 29.90267 44.28625 37.09446
# Shear Modulus (GPa) = 20.17491 25.39104 22.78298
#
# Velocity S-wave (km/s) = 3.22987 3.62342 3.43229
# Velocity P-wave (km/s) = 5.41954 6.35650 5.90663
#
# Compressibility (1/GPa) = 0.03344183
#
# Stress axis : x y z
#
# Youngs Moduli (GPa) = 72.78899 27.57994 87.89619
#
# Poissons Ratio (x) = 0.17143 0.13329
# Poissons Ratio (y) = 0.45245 0.54790
# Poissons Ratio (z) = 0.11038 0.17192
#
# Static dielectric constant tensor:
#      x y z
#    x 3.512810 0.000000 -0.012860 
#    y 0.000000 3.106450 0.000000 
#    z -0.012860 0.000000 4.478780 
# 
# 
# High freq. dielectric constant tensor:
#      x y z
#    x 1.756150 0.000000 0.001430 
#    y 0.000000 1.710890 0.000000 
#    z 0.001430 0.000000 1.762740 
# 
# From -- ./inp_files/375056.got.cif
#   From: 2010.06.25/outbox.cif.g09.slc.cpg/sg12_188_cif.got.tgz:375056.got - 2010.06.28 00:19:55.
