data_PCOD8097607
_publ_section_title
;
Structure prediction by ZEFSAII (Michael W. Deem and Ramdas Pophale) SiO2 
 PCOD8097607
Probable space group: C 2/M
;
_chemical_formula_sum "Si O2"
_cell_formula_units_Z 48
_cell_length_a 30.538872
_cell_length_b 9.312128
_cell_length_c 17.674645
_cell_angle_alpha 90.000000
_cell_angle_beta 31.260689
_cell_angle_gamma 90.000000
_cell_volume 2608.336987
_symmetry_space_group_name_H-M "C 2/M"
_symmetry_group_IT_number 12
_symmetry_cell_setting 'monoclinic'
loop_
_space_group_symop_operation_xyz
x,y,z
-x,y,-z
-x,-y,-z
x,-y,z
1/2+x,1/2+y,z
1/2-x,1/2+y,-z
1/2-x,1/2-y,-z
1/2+x,1/2-y,z
loop_
_atom_site_type_symbol
_atom_site_label
_atom_site_fract_x
_atom_site_fract_y
_atom_site_fract_z
Si Si1 0.757911 0.331288 0.316008
Si Si2 0.170751 0.331300 0.149752
Si Si3 0.907199 0.834376 0.168994
Si Si4 0.498867 0.166526 0.326825
Si Si5 0.402941 0.667144 0.348004
Si Si6 0.338772 0.166173 0.662192
O O1 0.769671 0.500000 0.287292
O O2 0.845850 0.263369 0.210543
O O3 0.687980 0.294610 0.482619
O O4 0.731320 0.262487 0.275530
O O5 0.185042 0.500000 0.119846
O O6 0.088735 0.280323 0.224714
O O7 0.158246 0.288472 0.255216
O O8 0.250000 0.250000 0.000000
O O9 0.903609 0.780928 0.260709
O O10 0.878423 0.000000 0.205516
O O11 0.000000 0.812006 0.000000
O O12 0.477150 0.251517 0.282587
O O13 0.430734 0.198628 0.492525
O O14 0.500634 0.000000 0.303126
O O15 0.423430 0.500000 0.324335
O O16 0.313969 0.000000 0.688050
#
# Coordination Sequence:
#
# PCOD8097607 Si02
#       6
#     8   8   8   8   8   8
#     4  10  20  34  54  79 104 130 167 216 261 300
#     4  10  21  35  52  77 107 138 171 208 253 304
#     4  10  21  36  53  74 103 139 174 206 248 307
#     4   9  18  34  56  78  99 130 175 218 252 294
#     4   9  19  35  54  77 103 132 169 212 257 304
#     4   9  18  35  57  76  99 135 175 212 251 299
#
# _framework density 18.402529999999999
#
# number of rings (size 3 to 8) (size 9 to 14) (size 15 to 20)
#    0.000    2.500    0.000    1.500    0.000    6.333 
#    0.000    5.000    0.000    5.000    0.000    0.000 
#    0.000    0.000    0.000    0.000    0.000    0.000 
#
# Total GULP energy -297694.476460 kJ/mol
# GULP energy per Si atom -12403.936519 kJ/mol
# Density = 1.836064 g / cm^3
# Si number density = 18.402530 Si / 1000 Ang^3
#
#
#
# Elastic Constant Matrix: (Units=GPa)
#
#
# Indices 1 2 3 4 5 6 
#
# 1 120.0731 56.5381 46.9617 0.0002 -33.2248 0.0014
# 2 56.5381 63.3656 36.9242 -0.0048 -18.2162 0.0029
# 3 46.9617 36.9242 68.3006 -0.0052 -21.5645 0.0025
# 4 0.0002 -0.0048 -0.0052 29.3871 0.0035 -2.8144
# 5 -33.2248 -18.2162 -21.5645 0.0035 22.8038 -0.0005
# 6 0.0014 0.0029 0.0025 -2.8144 -0.0005 36.0497
#
#
#
# Elastic Compliance Matrix: (Units=1/GPa)
#
#
# Indices 1 2 3 4 5 6 
#
# 1 0.018891 -0.010953 -0.001625 -0.000004 0.017237 0.000000
# 2 -0.010953 0.030912 -0.009156 0.000003 0.000076 -0.000001
# 3 -0.001625 -0.009156 0.025165 0.000001 0.014116 -0.000001
# 4 -0.000004 0.000003 0.000001 0.034285 -0.000007 0.002677
# 5 0.017237 0.000076 0.014116 -0.000007 0.082376 -0.000001
# 6 0.000000 -0.000001 -0.000001 0.002677 -0.000001 0.027948
#
#
# Mechanical properties :
#
#
# Convention : Reuss Voigt Hill
#
# Bulk Modulus (GPa) = 31.74728 59.17637 45.46182
# Shear Modulus (GPa) = 18.27848 25.06916 21.67382
#
# Velocity S-wave (km/s) = 3.15502 3.69489 3.43558
# Velocity P-wave (km/s) = 5.52822 7.10137 6.36360
#
# Compressibility (1/GPa) = 0.03149877
#
# Stress axis : x y z
#
# Youngs Moduli (GPa) = 52.93524 32.35027 39.73733
#
# Poissons Ratio (x) = 0.35434 0.06458
# Poissons Ratio (y) = 0.57981 0.36384
# Poissons Ratio (z) = 0.08603 0.29621
#
# Static dielectric constant tensor:
#      x y z
#    x 3.521330 -0.000010 0.012340 
#    y -0.000010 3.338170 0.000010 
#    z 0.012340 0.000010 3.324070 
# 
# 
# High freq. dielectric constant tensor:
#      x y z
#    x 1.724650 0.000000 -0.001210 
#    y 0.000000 1.708290 0.000000 
#    z -0.001210 0.000000 1.708970 
# 
# From -- ./inp_files/274025.got.cif
#   From: 2010.06.25/outbox.cif.g09.slc.cpg/sg12_138_cif.got.tgz:274025.got - 2010.06.28 00:19:55.
