data_PCOD8097344
_publ_section_title
;
Structure prediction by ZEFSAII (Michael W. Deem and Ramdas Pophale) SiO2 
 PCOD8097344
Probable space group: C 2/M
;
_chemical_formula_sum "Si O2"
_cell_formula_units_Z 56
_cell_length_a 21.218263
_cell_length_b 9.154842
_cell_length_c 14.325700
_cell_angle_alpha 90.000000
_cell_angle_beta 99.837785
_cell_angle_gamma 90.000000
_cell_volume 2741.845662
_symmetry_space_group_name_H-M "C 2/M"
_symmetry_group_IT_number 12
_symmetry_cell_setting 'monoclinic'
loop_
_space_group_symop_operation_xyz
x,y,z
-x,y,-z
-x,-y,-z
x,-y,z
1/2+x,1/2+y,z
1/2-x,1/2+y,-z
1/2-x,1/2-y,-z
1/2+x,1/2-y,z
loop_
_atom_site_type_symbol
_atom_site_label
_atom_site_fract_x
_atom_site_fract_y
_atom_site_fract_z
Si Si1 0.130526 0.839208 0.095821
Si Si2 0.730435 0.836847 0.904312
Si Si3 0.053407 0.671776 0.941261
Si Si4 0.332451 0.332364 0.269052
Si Si5 0.468622 0.333365 0.254414
Si Si6 0.391985 0.669519 0.704183
Si Si7 0.767972 0.326075 0.600037
O O1 0.205279 0.843895 0.140990
O O2 0.097245 0.790513 0.183887
O O3 0.106567 0.000000 0.059025
O O4 0.119007 0.730066 0.005376
O O5 0.677498 0.756171 0.829213
O O6 0.705366 0.000000 0.922229
O O7 0.750000 0.750000 0.000000
O O8 0.055796 0.500000 0.935463
O O9 0.041943 0.731063 0.836350
O O10 0.000000 0.728722 0.000000
O O11 0.315284 0.500000 0.244079
O O12 0.408580 0.312639 0.311206
O O13 0.287084 0.275975 0.340826
O O14 0.470290 0.500000 0.218738
O O15 0.537134 0.298837 0.322000
O O16 0.371601 0.500000 0.685403
O O17 0.338652 0.773436 0.646553
O O18 0.768900 0.500000 0.588453
O O19 0.750000 0.250000 0.500000
#
# Coordination Sequence:
#
# PCOD8097344 Si02
#       7
#     8   8   8   8   8   8   8
#     4  10  20  34  53  77 108 153 204 246 287 340
#     4  11  22  35  53  80 117 159 202 246 293 348
#     4  11  22  32  47  78 120 162 205 249 291 342
#     4  10  22  40  61  89 120 154 198 249 300 352
#     4  10  21  38  60  84 117 160 202 244 294 350
#     4  10  20  38  63  88 114 150 197 243 291 351
#     4  11  24  43  69  95 121 151 192 247 306 368
#
# _framework density 20.424199000000002
#
# number of rings (size 3 to 8) (size 9 to 14) (size 15 to 20)
#    0.000    1.571    2.857    2.143    0.000    7.429 
#    0.000    0.714    0.000    4.286    0.000    0.000 
#    0.000    0.000    0.000    0.000    0.000    0.000 
#
# Total GULP energy -347066.939777 kJ/mol
# GULP energy per Si atom -12395.247849 kJ/mol
# Density = 2.037771 g / cm^3
# Si number density = 20.424199 Si / 1000 Ang^3
#
#
#
# Elastic Constant Matrix: (Units=GPa)
#
#
# Indices 1 2 3 4 5 6 
#
# 1 141.9351 36.0860 42.7840 0.0000 10.3550 0.0000
# 2 36.0860 90.6043 47.0899 0.0000 1.8392 0.0000
# 3 42.7840 47.0899 86.9732 0.0000 3.3752 0.0000
# 4 0.0000 0.0000 0.0000 31.8876 0.0000 4.8348
# 5 10.3550 1.8392 3.3752 0.0000 20.2475 0.0000
# 6 0.0000 0.0000 0.0000 4.8348 0.0000 27.5641
#
#
#
# Elastic Compliance Matrix: (Units=1/GPa)
#
#
# Indices 1 2 3 4 5 6 
#
# 1 0.008728 -0.001732 -0.003210 0.000000 -0.003772 0.000000
# 2 -0.001732 0.015703 -0.007679 0.000000 0.000739 0.000000
# 3 -0.003210 -0.007679 0.017255 0.000000 -0.000537 0.000000
# 4 0.000000 0.000000 0.000000 0.032217 0.000000 -0.005651
# 5 -0.003772 0.000739 -0.000537 0.000000 0.051340 0.000000
# 6 0.000000 0.000000 0.000000 -0.005651 0.000000 0.037270
#
#
# Mechanical properties :
#
#
# Convention : Reuss Voigt Hill
#
# Bulk Modulus (GPa) = 60.80554 63.49249 62.14901
# Shear Modulus (GPa) = 25.87517 28.84335 27.35926
#
# Velocity S-wave (km/s) = 3.56320 3.76202 3.66396
# Velocity P-wave (km/s) = 6.83845 7.07282 6.95662
#
# Compressibility (1/GPa) = 0.01644587
#
# Stress axis : x y z
#
# Youngs Moduli (GPa) = 114.56833 63.68406 57.95382
#
# Poissons Ratio (x) = 0.11027 0.18602
# Poissons Ratio (y) = 0.19838 0.44501
# Poissons Ratio (z) = 0.36774 0.48901
#
# Static dielectric constant tensor:
#      x y z
#    x 4.473150 0.000000 0.058310 
#    y 0.000000 3.667140 0.000000 
#    z 0.058310 0.000000 3.272790 
# 
# 
# High freq. dielectric constant tensor:
#      x y z
#    x 1.828220 0.000000 0.002990 
#    y 0.000000 1.796070 0.000000 
#    z 0.002990 0.000000 1.754060 
# 
# From -- ./inp_files/237813.got.cif
#   From: 2010.06.25/outbox.cif.g09.slc.cpg/sg12_119_cif.got.tgz:237813.got - 2010.06.28 00:19:55.
