data_PCOD8097541
_publ_section_title
;
Structure prediction by ZEFSAII (Michael W. Deem and Ramdas Pophale) SiO2 
 PCOD8097541
Probable space group: C 2/M
;
_chemical_formula_sum "Si O2"
_cell_formula_units_Z 48
_cell_length_a 16.095044
_cell_length_b 9.320524
_cell_length_c 29.411143
_cell_angle_alpha 90.000000
_cell_angle_beta 35.185386
_cell_angle_gamma 90.000000
_cell_volume 2542.351813
_symmetry_space_group_name_H-M "C 2/M"
_symmetry_group_IT_number 12
_symmetry_cell_setting 'monoclinic'
loop_
_space_group_symop_operation_xyz
x,y,z
-x,y,-z
-x,-y,-z
x,-y,z
1/2+x,1/2+y,z
1/2-x,1/2+y,-z
1/2-x,1/2-y,-z
1/2+x,1/2-y,z
loop_
_atom_site_type_symbol
_atom_site_label
_atom_site_fract_x
_atom_site_fract_y
_atom_site_fract_z
Si Si1 0.296013 0.343530 0.849271
Si Si2 0.883087 0.332272 0.683262
Si Si3 0.125582 0.163632 0.862055
Si Si4 0.339932 0.160080 0.993482
Si Si5 0.139655 0.670301 0.410144
Si Si6 0.570307 0.336554 0.672868
O O1 0.241859 0.500000 0.853923
O O2 0.226897 0.202151 0.858797
O O3 0.466237 0.332192 0.763482
O O4 0.258950 0.339339 0.918173
O O5 0.924421 0.500000 0.666741
O O6 0.720100 0.307860 0.774660
O O7 0.877601 0.272623 0.634020
O O8 0.003165 0.250106 0.659992
O O9 0.994798 0.269968 0.928053
O O10 0.072328 0.000000 0.888698
O O11 0.363344 0.000000 0.964968
O O12 0.250000 0.250000 0.000000
O O13 0.153050 0.500000 0.402024
O O14 0.279383 0.729943 0.375276
O O15 0.000000 0.722463 0.500000
O O16 0.593187 0.500000 0.645645
#
# Coordination Sequence:
#
# PCOD8097541 Si02
#       6
#     8   8   8   8   8   8
#     4   9  19  35  54  73 100 138 178 217 264 317
#     4   9  19  35  56  80 110 143 179 223 271 321
#     4  10  20  34  54  76 103 138 177 220 267 316
#     4  11  23  35  50  75 106 140 178 221 264 311
#     4   9  18  33  56  83 108 141 182 220 265 327
#     4   9  18  34  57  80 106 141 181 221 266 324
#
# _framework density 18.880155999999999
#
# number of rings (size 3 to 8) (size 9 to 14) (size 15 to 20)
#    0.000    2.500    0.000    1.500    2.333    4.667 
#    0.000    0.833    0.000    1.000    0.000    0.000 
#    0.000    0.000    0.000    0.000    0.000    0.000 
#
# Total GULP energy -297350.107473 kJ/mol
# GULP energy per Si atom -12389.587811 kJ/mol
# Density = 1.883718 g / cm^3
# Si number density = 18.880156 Si / 1000 Ang^3
#
#
#
# Elastic Constant Matrix: (Units=GPa)
#
#
# Indices 1 2 3 4 5 6 
#
# 1 99.3039 27.7674 48.5296 0.0000 -0.2221 0.0003
# 2 27.7674 67.8739 31.9677 0.0000 3.6151 0.0008
# 3 48.5296 31.9677 97.8365 0.0000 -0.9786 -0.0001
# 4 0.0000 0.0000 0.0000 17.7113 0.0000 -1.4896
# 5 -0.2221 3.6151 -0.9786 0.0000 31.2252 0.0000
# 6 0.0003 0.0008 -0.0001 -1.4896 0.0000 32.8273
#
#
#
# Elastic Compliance Matrix: (Units=1/GPa)
#
#
# Indices 1 2 3 4 5 6 
#
# 1 0.013745 -0.002868 -0.005879 0.000000 0.000246 0.000000
# 2 -0.002868 0.018163 -0.004535 0.000000 -0.002265 0.000000
# 3 -0.005879 -0.004535 0.014628 0.000000 0.000942 0.000000
# 4 0.000000 0.000000 0.000000 0.056677 0.000000 0.002572
# 5 0.000246 -0.002265 0.000942 0.000000 0.032319 0.000000
# 6 0.000000 0.000000 0.000000 0.002572 0.000000 0.030579
#
#
# Mechanical properties :
#
#
# Convention : Reuss Voigt Hill
#
# Bulk Modulus (GPa) = 50.06443 53.50483 51.78463
# Shear Modulus (GPa) = 25.08373 26.80274 25.94323
#
# Velocity S-wave (km/s) = 3.64892 3.77188 3.71091
# Velocity P-wave (km/s) = 6.65788 6.88260 6.77117
#
# Compressibility (1/GPa) = 0.01997426
#
# Stress axis : x y z
#
# Youngs Moduli (GPa) = 72.75188 55.05734 68.36076
#
# Poissons Ratio (x) = 0.15788 0.40187
# Poissons Ratio (y) = 0.20862 0.31001
# Poissons Ratio (z) = 0.42768 0.24968
#
# Static dielectric constant tensor:
#      x y z
#    x 3.277490 0.000000 0.084040 
#    y 0.000000 3.552220 0.000000 
#    z 0.084040 0.000000 3.427980 
# 
# 
# High freq. dielectric constant tensor:
#      x y z
#    x 1.725440 0.000000 -0.003480 
#    y 0.000000 1.718920 0.000000 
#    z -0.003480 0.000000 1.741530 
# 
# From -- ./inp_files/314492.got.cif
#   From: 2010.06.25/outbox.cif.g09.slc.cpg/sg12_158_cif.got.tgz:314492.got - 2010.06.28 00:19:55.
