data_PCOD8097230
_publ_section_title
;
Structure prediction by ZEFSAII (Michael W. Deem and Ramdas Pophale) SiO2 
 PCOD8097230
Probable space group: C 2/M
;
_chemical_formula_sum "Si O2"
_cell_formula_units_Z 64
_cell_length_a 14.619019
_cell_length_b 8.950762
_cell_length_c 26.663002
_cell_angle_alpha 90.000000
_cell_angle_beta 103.895731
_cell_angle_gamma 90.000000
_cell_volume 3386.785528
_symmetry_space_group_name_H-M "C 2/M"
_symmetry_group_IT_number 12
_symmetry_cell_setting 'monoclinic'
loop_
_space_group_symop_operation_xyz
x,y,z
-x,y,-z
-x,-y,-z
x,-y,z
1/2+x,1/2+y,z
1/2-x,1/2+y,-z
1/2-x,1/2-y,-z
1/2+x,1/2-y,z
loop_
_atom_site_type_symbol
_atom_site_label
_atom_site_fract_x
_atom_site_fract_y
_atom_site_fract_z
Si Si1 0.570274 0.173716 0.366287
Si Si2 0.855631 0.327630 0.183765
Si Si3 0.721179 0.675102 0.923325
Si Si4 0.445733 0.171941 0.747101
Si Si5 0.606954 0.323889 0.005734
Si Si6 0.752429 0.824781 0.730151
Si Si7 0.048798 0.322878 0.557888
Si Si8 0.778768 0.177368 0.375928
O O1 0.522850 0.207618 0.306093
O O2 0.511286 0.246267 0.403737
O O3 0.676558 0.235205 0.380110
O O4 0.573171 0.000000 0.378263
O O5 0.835506 0.500000 0.167800
O O6 0.819894 0.223199 0.135024
O O7 0.966892 0.298863 0.204904
O O8 0.803076 0.280144 0.227307
O O9 0.738421 0.500000 0.926238
O O10 0.822818 0.751492 0.944526
O O11 0.644927 0.722007 0.955668
O O12 0.360553 0.277038 0.752717
O O13 0.411206 0.000000 0.745060
O O14 0.609635 0.500000 0.014450
O O15 0.500000 0.264056 0.000000
O O16 0.702705 0.740537 0.677411
O O17 0.746417 0.000000 0.718618
O O18 0.062273 0.500000 0.562788
O O19 0.149999 0.244772 0.574118
O O20 0.000000 0.274214 0.500000
O O21 0.786068 0.000000 0.375120
#
# Coordination Sequence:
#
# PCOD8097230 Si02
#       8
#     8   8   8   8   8   8   8   8
#     4   8  16  33  53  72 100 135 167 204 256 309
#     4  10  21  36  54  76 110 148 171 204 262 315
#     4  10  21  35  54  82 110 137 176 221 257 300
#     4   9  18  34  54  75 102 138 174 208 253 307
#     4   9  19  38  60  78 103 141 179 216 262 310
#     4  10  20  35  55  78 103 135 175 213 253 306
#     4  10  20  34  53  76 101 132 171 212 255 308
#     4  10  20  35  54  74 101 136 170 210 259 308
#
# _framework density 18.896972999999999
#
# number of rings (size 3 to 8) (size 9 to 14) (size 15 to 20)
#    0.000    2.500    0.000    2.625    0.000    6.000 
#    0.000    9.375    0.000    0.000    0.000    0.000 
#    0.000    0.000    0.000    0.000    0.000    0.000 
#
# Total GULP energy -396803.928232 kJ/mol
# GULP energy per Si atom -12400.122757 kJ/mol
# Density = 1.885396 g / cm^3
# Si number density = 18.896973 Si / 1000 Ang^3
#
#
#
# Elastic Constant Matrix: (Units=GPa)
#
#
# Indices 1 2 3 4 5 6 
#
# 1 81.2899 22.1376 38.1344 0.0000 14.5183 0.0000
# 2 22.1376 40.4524 29.8434 0.0000 5.5931 0.0000
# 3 38.1344 29.8434 95.9035 0.0000 22.7989 0.0000
# 4 0.0000 0.0000 0.0000 30.3904 0.0000 4.3961
# 5 14.5183 5.5931 22.7989 0.0000 26.4098 0.0000
# 6 0.0000 0.0000 0.0000 4.3961 0.0000 26.9512
#
#
#
# Elastic Compliance Matrix: (Units=1/GPa)
#
#
# Indices 1 2 3 4 5 6 
#
# 1 0.016380 -0.005622 -0.003656 0.000000 -0.004657 0.000000
# 2 -0.005622 0.034127 -0.009312 0.000000 0.003902 0.000000
# 3 -0.003656 -0.009312 0.017404 0.000000 -0.011042 0.000000
# 4 0.000000 0.000000 0.000000 0.033700 0.000000 -0.005497
# 5 -0.004657 0.003902 -0.011042 0.000000 0.049131 0.000000
# 6 0.000000 0.000000 0.000000 -0.005497 0.000000 0.038001
#
#
# Mechanical properties :
#
#
# Convention : Reuss Voigt Hill
#
# Bulk Modulus (GPa) = 32.54169 44.20852 38.37511
# Shear Modulus (GPa) = 21.17142 25.25231 23.21187
#
# Velocity S-wave (km/s) = 3.35081 3.65953 3.50857
# Velocity P-wave (km/s) = 5.67702 6.42662 6.06342
#
# Compressibility (1/GPa) = 0.03072981
#
# Stress axis : x y z
#
# Youngs Moduli (GPa) = 61.05051 29.30190 57.45913
#
# Poissons Ratio (x) = 0.16475 0.21009
# Poissons Ratio (y) = 0.34326 0.53504
# Poissons Ratio (z) = 0.22322 0.27285
#
# Static dielectric constant tensor:
#      x y z
#    x 3.639560 0.000000 -0.013490 
#    y 0.000000 3.263710 0.000000 
#    z -0.013490 0.000000 3.473840 
# 
# 
# High freq. dielectric constant tensor:
#      x y z
#    x 1.740650 0.000000 0.006190 
#    y 0.000000 1.719000 0.000000 
#    z 0.006190 0.000000 1.732490 
# 
# From -- ./inp_files/359929.got.cif
#   From: 2010.06.25/outbox.cif.g09.slc.cpg/sg12_180_cif.got.tgz:359929.got - 2010.06.28 00:19:55.
