data_PCOD8097463
_publ_section_title
;
Structure prediction by ZEFSAII (Michael W. Deem and Ramdas Pophale) SiO2 
 PCOD8097463
Probable space group: C 2/M
;
_chemical_formula_sum "Si O2"
_cell_formula_units_Z 56
_cell_length_a 33.214042
_cell_length_b 8.935657
_cell_length_c 12.485431
_cell_angle_alpha 90.000000
_cell_angle_beta 59.315124
_cell_angle_gamma 90.000000
_cell_volume 3186.718112
_symmetry_space_group_name_H-M "C 2/M"
_symmetry_group_IT_number 12
_symmetry_cell_setting 'monoclinic'
loop_
_space_group_symop_operation_xyz
x,y,z
-x,y,-z
-x,-y,-z
x,-y,z
1/2+x,1/2+y,z
1/2-x,1/2+y,-z
1/2-x,1/2-y,-z
1/2+x,1/2-y,z
loop_
_atom_site_type_symbol
_atom_site_label
_atom_site_fract_x
_atom_site_fract_y
_atom_site_fract_z
Si Si1 0.109541 0.326284 0.377737
Si Si2 0.550380 0.826188 0.889261
Si Si3 0.885761 0.824443 0.031786
Si Si4 0.056147 0.824652 0.256432
Si Si5 0.039156 0.328292 0.658992
Si Si6 0.696074 0.325372 0.183724
Si Si7 0.802306 0.324984 0.044531
O O1 0.117622 0.500000 0.345169
O O2 0.079028 0.261744 0.323060
O O3 0.083884 0.296721 0.524535
O O4 0.160022 0.245783 0.317183
O O5 0.590373 0.730192 0.891812
O O6 0.554542 0.791594 0.758383
O O7 0.558197 0.000000 0.905691
O O8 0.500000 0.772402 0.000000
O O9 0.835645 0.742782 0.090325
O O10 0.877116 0.000000 0.049450
O O11 0.918369 0.778260 0.887868
O O12 0.002165 0.779522 0.322148
O O13 0.060127 0.000000 0.273128
O O14 0.021961 0.500000 0.672111
O O15 0.686212 0.500000 0.185941
O O16 0.748755 0.291713 0.150972
O O17 0.685437 0.254034 0.083293
O O18 0.811436 0.500000 0.018474
#
# Coordination Sequence:
#
# PCOD8097463 Si02
#       7
#     8   8   8   8   8   8   8
#     4  11  22  35  54  78 109 146 180 218 266 321
#     4  10  20  36  58  77 101 140 183 225 266 312
#     4  11  22  34  53  81 113 140 173 222 267 313
#     4  11  22  34  51  78 111 145 178 218 266 317
#     4  10  22  38  54  77 106 142 187 225 262 316
#     4  10  20  34  53  80 110 138 175 219 264 319
#     4  10  20  34  55  80 107 141 176 215 267 319
#
# _framework density 17.572937
#
# number of rings (size 3 to 8) (size 9 to 14) (size 15 to 20)
#    0.000    1.571    2.857    2.571    0.000    6.571 
#    0.000    0.000    0.000    0.857    0.000    0.000 
#    0.000    0.000    0.000    0.000    0.000    0.000 
#
# Total GULP energy -347347.666738 kJ/mol
# GULP energy per Si atom -12405.273812 kJ/mol
# Density = 1.753294 g / cm^3
# Si number density = 17.572937 Si / 1000 Ang^3
#
#
#
# Elastic Constant Matrix: (Units=GPa)
#
#
# Indices 1 2 3 4 5 6 
#
# 1 124.6236 58.2806 57.0917 0.0000 -10.5694 0.0000
# 2 58.2806 85.6171 45.5635 0.0000 -5.7955 0.0000
# 3 57.0917 45.5635 101.4515 0.0000 -4.2895 0.0000
# 4 0.0000 0.0000 0.0000 24.3801 0.0000 -3.1261
# 5 -10.5694 -5.7955 -4.2895 0.0000 20.9572 0.0000
# 6 0.0000 0.0000 0.0000 -3.1261 0.0000 34.0002
#
#
#
# Elastic Compliance Matrix: (Units=1/GPa)
#
#
# Indices 1 2 3 4 5 6 
#
# 1 0.013466 -0.006504 -0.004485 0.000000 0.004075 0.000000
# 2 -0.006504 0.018661 -0.004682 0.000000 0.000922 0.000000
# 3 -0.004485 -0.004682 0.014458 0.000000 -0.000597 0.000000
# 4 0.000000 0.000000 0.000000 0.041506 0.000000 0.003816
# 5 0.004075 0.000922 -0.000597 0.000000 0.049904 0.000000
# 6 0.000000 0.000000 0.000000 0.003816 0.000000 0.029763
#
#
# Mechanical properties :
#
#
# Convention : Reuss Voigt Hill
#
# Bulk Modulus (GPa) = 65.59870 70.39599 67.99734
# Shear Modulus (GPa) = 24.48815 25.91792 25.20303
#
# Velocity S-wave (km/s) = 3.73703 3.84458 3.79119
# Velocity P-wave (km/s) = 7.48538 7.73654 7.61200
#
# Compressibility (1/GPa) = 0.01524420
#
# Stress axis : x y z
#
# Youngs Moduli (GPa) = 74.26251 53.58682 69.16531
#
# Poissons Ratio (x) = 0.34852 0.31017
# Poissons Ratio (y) = 0.48300 0.32383
# Poissons Ratio (z) = 0.33303 0.25090
#
# Static dielectric constant tensor:
#      x y z
#    x 3.309760 0.000000 -0.138080 
#    y 0.000000 3.341270 0.000000 
#    z -0.138080 0.000000 3.230220 
# 
# 
# High freq. dielectric constant tensor:
#      x y z
#    x 1.680090 0.000000 -0.009390 
#    y 0.000000 1.692060 0.000000 
#    z -0.009390 0.000000 1.660700 
# 
# From -- ./inp_files/186397.got.cif
#   From: 2010.06.25/outbox.cif.g09.slc.cpg/sg12_94_cif.got.tgz:186397.got - 2010.06.28 00:19:55.
