data_PCOD8097657
_publ_section_title
;
Structure prediction by ZEFSAII (Michael W. Deem and Ramdas Pophale) SiO2 
 PCOD8097657
Probable space group: C 2/M
;
_chemical_formula_sum "Si O2"
_cell_formula_units_Z 64
_cell_length_a 30.616452
_cell_length_b 13.845337
_cell_length_c 8.520286
_cell_angle_alpha 90.000000
_cell_angle_beta 114.363070
_cell_angle_gamma 90.000000
_cell_volume 3290.083955
_symmetry_space_group_name_H-M "C 2/M"
_symmetry_group_IT_number 12
_symmetry_cell_setting 'monoclinic'
loop_
_space_group_symop_operation_xyz
x,y,z
-x,y,-z
-x,-y,-z
x,-y,z
1/2+x,1/2+y,z
1/2-x,1/2+y,-z
1/2-x,1/2-y,-z
1/2+x,1/2-y,z
loop_
_atom_site_type_symbol
_atom_site_label
_atom_site_fract_x
_atom_site_fract_y
_atom_site_fract_z
Si Si1 0.312976 0.756613 0.433756
Si Si2 0.956370 0.611934 0.544326
Si Si3 0.855722 0.608857 0.930482
Si Si4 0.448425 0.603671 0.848283
Si Si5 0.737006 0.110558 0.408204
Si Si6 0.446999 0.609970 0.473382
Si Si7 0.590668 0.793439 0.245448
Si Si8 0.122025 0.279319 0.735023
O O1 0.279250 0.841009 0.452015
O O2 0.286723 0.654694 0.420439
O O3 0.364546 0.754787 0.590331
O O4 0.325451 0.771396 0.268834
O O5 0.963207 0.500000 0.592918
O O6 0.952365 0.669592 0.704005
O O7 0.907082 0.629686 0.378553
O O8 0.000000 0.650274 0.500000
O O9 0.860781 0.500000 0.005710
O O10 0.802606 0.626021 0.784884
O O11 0.894139 0.619811 0.846544
O O12 0.866696 0.693414 0.069687
O O13 0.422456 0.500000 0.846404
O O14 0.447285 0.621300 0.660267
O O15 0.424462 0.700316 0.882653
O O16 0.500000 0.596155 0.000000
O O17 0.746316 0.000000 0.460695
O O18 0.500000 0.639892 0.500000
O O19 0.434800 0.500000 0.403875
O O20 0.408673 0.680693 0.332081
#
# Coordination Sequence:
#
# PCOD8097657 Si02
#       8
#     8   8   8   8   8   8   8   8
#     4   9  19  35  57  84 105 139 188 227 277 341
#     4  10  20  34  54  79 108 147 195 235 273 324
#     4  10  22  37  55  82 114 149 187 227 281 341
#     4  10  21  35  54  81 109 143 185 230 278 330
#     4   9  19  37  59  81 110 142 176 228 287 340
#     4  10  21  37  56  81 112 150 192 228 275 334
#     4  10  20  36  56  82 113 148 186 236 283 331
#     4  11  21  35  57  82 113 149 185 233 278 325
#
# _framework density 19.452390000000001
#
# number of rings (size 3 to 8) (size 9 to 14) (size 15 to 20)
#    0.000    2.125    2.500    1.125    1.750    5.000 
#    0.000    0.000    0.000    6.000    0.000    0.000 
#    0.000    0.000    0.000    0.000    0.000    0.000 
#
# Total GULP energy -396519.781785 kJ/mol
# GULP energy per Si atom -12391.243181 kJ/mol
# Density = 1.940812 g / cm^3
# Si number density = 19.452390 Si / 1000 Ang^3
#
#
#
# Elastic Constant Matrix: (Units=GPa)
#
#
# Indices 1 2 3 4 5 6 
#
# 1 127.4382 49.6716 26.2617 0.0000 -9.8037 0.0000
# 2 49.6716 141.1968 40.5235 0.0000 1.3177 0.0000
# 3 26.2617 40.5235 55.0952 0.0000 -10.0449 0.0000
# 4 0.0000 0.0000 0.0000 106.4898 0.0000 24.2256
# 5 -9.8037 1.3177 -10.0449 0.0000 15.0617 0.0000
# 6 0.0000 0.0000 0.0000 24.2256 0.0000 28.3605
#
#
#
# Elastic Compliance Matrix: (Units=1/GPa)
#
#
# Indices 1 2 3 4 5 6 
#
# 1 0.009775 -0.003114 -0.001320 0.000000 0.005755 0.000000
# 2 -0.003114 0.010456 -0.007676 0.000000 -0.008061 0.000000
# 3 -0.001320 -0.007676 0.027768 0.000000 0.018331 0.000000
# 4 0.000000 0.000000 0.000000 0.011656 0.000000 -0.009956
# 5 0.005755 -0.008061 0.018331 0.000000 0.083070 0.000000
# 6 0.000000 0.000000 0.000000 -0.009956 0.000000 0.043765
#
#
# Mechanical properties :
#
#
# Convention : Reuss Voigt Hill
#
# Bulk Modulus (GPa) = 42.05352 61.84930 51.95141
# Shear Modulus (GPa) = 22.86917 43.80062 33.33490
#
# Velocity S-wave (km/s) = 3.43249 4.75034 4.14414
# Velocity P-wave (km/s) = 6.11351 7.87095 7.04723
#
# Compressibility (1/GPa) = 0.02377922
#
# Stress axis : x y z
#
# Youngs Moduli (GPa) = 102.29851 95.63978 36.01327
#
# Poissons Ratio (x) = 0.29779 0.04754
# Poissons Ratio (y) = 0.31853 0.27644
# Poissons Ratio (z) = 0.13505 0.73413
#
# Static dielectric constant tensor:
#      x y z
#    x 3.747310 0.000000 -0.124380 
#    y 0.000000 3.788980 0.000000 
#    z -0.124380 0.000000 3.334450 
# 
# 
# High freq. dielectric constant tensor:
#      x y z
#    x 1.751180 0.000000 -0.006720 
#    y 0.000000 1.773950 0.000000 
#    z -0.006720 0.000000 1.732710 
# 
# From -- ./inp_files/111650.got.cif
#   From: 2010.06.25/outbox.cif.g09.slc.cpg/sg12_56_cif.got.tgz:111650.got - 2010.06.28 00:19:55.
