data_PCOD8097346
_publ_section_title
;
Structure prediction by ZEFSAII (Michael W. Deem and Ramdas Pophale) SiO2 
 PCOD8097346
Probable space group: C 2/M
;
_chemical_formula_sum "Si O2"
_cell_formula_units_Z 64
_cell_length_a 29.955503
_cell_length_b 8.889940
_cell_length_c 19.459892
_cell_angle_alpha 90.000000
_cell_angle_beta 142.632333
_cell_angle_gamma 90.000000
_cell_volume 3145.231711
_symmetry_space_group_name_H-M "C 2/M"
_symmetry_group_IT_number 12
_symmetry_cell_setting 'monoclinic'
loop_
_space_group_symop_operation_xyz
x,y,z
-x,y,-z
-x,-y,-z
x,-y,z
1/2+x,1/2+y,z
1/2-x,1/2+y,-z
1/2-x,1/2-y,-z
1/2+x,1/2-y,z
loop_
_atom_site_type_symbol
_atom_site_label
_atom_site_fract_x
_atom_site_fract_y
_atom_site_fract_z
Si Si1 0.241471 0.823084 0.823820
Si Si2 0.529274 0.179160 0.241077
Si Si3 0.868538 0.673284 0.074217
Si Si4 0.774949 0.676554 0.708689
Si Si5 0.366851 0.821546 0.508986
Si Si6 0.062270 0.678942 0.128455
Si Si7 0.620270 0.172983 0.760303
Si Si8 0.021277 0.822469 0.449272
O O1 0.256381 0.782766 0.763983
O O2 0.166430 0.745034 0.755384
O O3 0.231742 0.000000 0.824188
O O4 0.308189 0.753111 0.950264
O O5 0.449000 0.246245 0.161699
O O6 0.589559 0.236526 0.370038
O O7 0.548605 0.238852 0.188741
O O8 0.528540 0.000000 0.242544
O O9 0.875470 0.500000 0.061274
O O10 0.839803 0.690736 0.117207
O O11 0.768835 0.500000 0.686245
O O12 0.716939 0.762272 0.588800
O O13 0.857134 0.736219 0.795128
O O14 0.403250 0.752253 0.484497
O O15 0.367624 0.000000 0.504356
O O16 0.059433 0.500000 0.122847
O O17 0.000000 0.742944 0.000000
O O18 0.543898 0.260270 0.677855
O O19 0.603998 0.000000 0.722978
O O20 0.000000 0.771480 0.500000
O O21 0.030188 0.000000 0.454216
#
# Coordination Sequence:
#
# PCOD8097346 Si02
#       8
#     8   8   8   8   8   8   8   8
#     4  10  20  34  53  77 110 149 185 230 282 326
#     4   9  17  32  55  82 111 143 185 233 279 330
#     4   9  17  32  53  78 109 143 181 229 280 330
#     4  10  21  36  55  84 115 143 185 235 277 324
#     4  11  22  37  57  81 112 152 188 225 279 337
#     4   9  17  32  58  89 114 142 184 232 280 331
#     4  11  21  34  53  80 111 144 185 228 277 338
#     4  11  23  38  56  78 108 147 191 238 280 323
#
# _framework density 20.348261999999998
#
# number of rings (size 3 to 8) (size 9 to 14) (size 15 to 20)
#    0.000    2.000    1.250    3.000    0.000    8.000 
#    0.000    0.625    0.000    1.125    0.000    0.000 
#    0.000    0.000    0.000    0.000    0.000    0.000 
#
# Total GULP energy -396791.814135 kJ/mol
# GULP energy per Si atom -12399.744192 kJ/mol
# Density = 2.030195 g / cm^3
# Si number density = 20.348262 Si / 1000 Ang^3
#
#
#
# Elastic Constant Matrix: (Units=GPa)
#
#
# Indices 1 2 3 4 5 6 
#
# 1 125.1343 25.3232 39.3478 0.0000 7.5758 0.0000
# 2 25.3232 35.1997 22.3363 0.0000 -1.1272 0.0000
# 3 39.3478 22.3363 102.7382 0.0000 9.1228 0.0000
# 4 0.0000 0.0000 0.0000 26.2207 0.0000 4.4943
# 5 7.5758 -1.1272 9.1228 0.0000 37.5790 0.0000
# 6 0.0000 0.0000 0.0000 4.4943 0.0000 16.6378
#
#
#
# Elastic Compliance Matrix: (Units=1/GPa)
#
#
# Indices 1 2 3 4 5 6 
#
# 1 0.010013 -0.005697 -0.002455 0.000000 -0.001593 0.000000
# 2 -0.005697 0.036485 -0.006081 0.000000 0.003719 0.000000
# 3 -0.002455 -0.006081 0.012232 0.000000 -0.002657 0.000000
# 4 0.000000 0.000000 0.000000 0.039989 0.000000 -0.010802
# 5 -0.001593 0.003719 -0.002657 0.000000 0.027688 0.000000
# 6 0.000000 0.000000 0.000000 -0.010802 0.000000 0.063022
#
#
# Mechanical properties :
#
#
# Convention : Reuss Voigt Hill
#
# Bulk Modulus (GPa) = 33.04121 48.56519 40.80320
# Shear Modulus (GPa) = 21.93161 27.82516 24.87838
#
# Velocity S-wave (km/s) = 3.28657 3.70191 3.50041
# Velocity P-wave (km/s) = 5.53851 6.49546 6.03598
#
# Compressibility (1/GPa) = 0.03026524
#
# Stress axis : x y z
#
# Youngs Moduli (GPa) = 99.87463 27.40841 81.75568
#
# Poissons Ratio (x) = 0.15613 0.20069
# Poissons Ratio (y) = 0.56894 0.49714
# Poissons Ratio (z) = 0.24517 0.16666
#
# Static dielectric constant tensor:
#      x y z
#    x 3.744510 0.000000 0.063710 
#    y 0.000000 3.199300 0.000000 
#    z 0.063710 0.000000 3.959310 
# 
# 
# High freq. dielectric constant tensor:
#      x y z
#    x 1.797770 0.000000 0.002240 
#    y 0.000000 1.746210 0.000000 
#    z 0.002240 0.000000 1.812690 
# 
# From -- ./inp_files/295870.got.cif
#   From: 2010.06.25/outbox.cif.g09.slc.cpg/sg12_148_cif.got.tgz:295870.got - 2010.06.28 00:19:55.
