data_PCOD8097492
_publ_section_title
;
Structure prediction by ZEFSAII (Michael W. Deem and Ramdas Pophale) SiO2 
 PCOD8097492
Probable space group: C 2/M
;
_chemical_formula_sum "Si O2"
_cell_formula_units_Z 56
_cell_length_a 9.102356
_cell_length_b 18.511824
_cell_length_c 17.661260
_cell_angle_alpha 90.000000
_cell_angle_beta 103.407849
_cell_angle_gamma 90.000000
_cell_volume 2894.831760
_symmetry_space_group_name_H-M "C 2/M"
_symmetry_group_IT_number 12
_symmetry_cell_setting 'monoclinic'
loop_
_space_group_symop_operation_xyz
x,y,z
-x,y,-z
-x,-y,-z
x,-y,z
1/2+x,1/2+y,z
1/2-x,1/2+y,-z
1/2-x,1/2-y,-z
1/2+x,1/2-y,z
loop_
_atom_site_type_symbol
_atom_site_label
_atom_site_fract_x
_atom_site_fract_y
_atom_site_fract_z
Si Si1 0.672485 0.917839 0.544918
Si Si2 0.018413 0.199414 0.916735
Si Si3 0.240760 0.417876 0.052934
Si Si4 0.966538 0.581433 0.115615
Si Si5 0.814711 0.697612 0.177603
Si Si6 0.904145 0.707887 0.355593
Si Si7 0.742302 0.190320 0.436424
O O1 0.500000 0.920330 0.500000
O O2 0.684528 0.860870 0.616680
O O3 0.765540 0.886773 0.482560
O O4 0.728431 0.000000 0.571831
O O5 0.101472 0.122758 0.929727
O O6 0.123558 0.252257 0.881821
O O7 0.862165 0.186860 0.855515
O O8 0.000000 0.230317 0.000000
O O9 0.277403 0.500000 0.078035
O O10 0.123899 0.385932 0.101765
O O11 0.163907 0.412672 0.962299
O O12 0.995068 0.500000 0.144220
O O13 0.909072 0.623264 0.182457
O O14 0.842128 0.724976 0.265008
O O15 0.873021 0.785268 0.393701
O O16 0.081445 0.692166 0.374636
O O17 0.750000 0.250000 0.500000
#
# Coordination Sequence:
#
# PCOD8097492 Si02
#       7
#     8   8   8   8   8   8   8
#     4   8  15  30  55  83 106 133 172 213 252 306
#     4  12  24  37  54  76 106 147 195 242 279 331
#     4   9  19  37  58  77  99 132 183 242 286 330
#     4   9  19  36  57  78 102 136 180 231 287 340
#     4  12  24  35  53  80 113 148 184 234 292 331
#     4  10  20  34  53  81 112 143 175 220 270 324
#     4   9  17  33  57  80 106 141 177 212 256 318
#
# _framework density 19.344821
#
# number of rings (size 3 to 8) (size 9 to 14) (size 15 to 20)
#    0.000    2.143    1.429    4.286    2.000    1.429 
#    0.000    0.000    0.000    7.714    0.000    0.000 
#    0.000    0.000    0.000    0.000    0.000    0.000 
#
# Total GULP energy -346960.617354 kJ/mol
# GULP energy per Si atom -12391.450620 kJ/mol
# Density = 1.930079 g / cm^3
# Si number density = 19.344821 Si / 1000 Ang^3
#
#
#
# Elastic Constant Matrix: (Units=GPa)
#
#
# Indices 1 2 3 4 5 6 
#
# 1 69.5507 23.9721 18.4247 0.0000 -0.8775 0.0000
# 2 23.9721 78.7500 13.0727 0.0000 -8.9684 0.0000
# 3 18.4247 13.0727 80.7928 0.0000 -1.0045 0.0000
# 4 0.0000 0.0000 0.0000 18.2630 0.0000 -5.1595
# 5 -0.8775 -8.9684 -1.0045 0.0000 22.8065 0.0000
# 6 0.0000 0.0000 0.0000 -5.1595 0.0000 33.4580
#
#
#
# Elastic Compliance Matrix: (Units=1/GPa)
#
#
# Indices 1 2 3 4 5 6 
#
# 1 0.016819 -0.004763 -0.003082 0.000000 -0.001362 0.000000
# 2 -0.004763 0.015004 -0.001271 0.000000 0.005661 0.000000
# 3 -0.003082 -0.001271 0.013285 0.000000 -0.000033 0.000000
# 4 0.000000 0.000000 0.000000 0.057250 0.000000 0.008828
# 5 -0.001362 0.005661 -0.000033 0.000000 0.046019 0.000000
# 6 0.000000 0.000000 0.000000 0.008828 0.000000 0.031250
#
#
# Mechanical properties :
#
#
# Convention : Reuss Voigt Hill
#
# Bulk Modulus (GPa) = 37.20773 37.78139 37.49456
# Shear Modulus (GPa) = 24.17583 26.48044 25.32814
#
# Velocity S-wave (km/s) = 3.53899 3.70383 3.62235
# Velocity P-wave (km/s) = 5.99791 6.15338 6.07614
#
# Compressibility (1/GPa) = 0.02687614
#
# Stress axis : x y z
#
# Youngs Moduli (GPa) = 59.45662 66.64848 75.27068
#
# Poissons Ratio (x) = 0.31747 0.23197
# Poissons Ratio (y) = 0.28321 0.09568
# Poissons Ratio (z) = 0.18323 0.08472
#
# Static dielectric constant tensor:
#      x y z
#    x 2.896310 0.000000 0.081180 
#    y 0.000000 3.669580 0.000000 
#    z 0.081180 0.000000 3.251930 
# 
# 
# High freq. dielectric constant tensor:
#      x y z
#    x 1.749680 0.000000 -0.007610 
#    y 0.000000 1.748520 0.000000 
#    z -0.007610 0.000000 1.730410 
# 
# From -- ./inp_files/257163.got.cif
#   From: 2010.06.25/outbox.cif.g09.slc.cpg/sg12_129_cif.got.tgz:257163.got - 2010.06.28 00:19:55.
