data_PCOD8097160
_publ_section_title
;
Structure prediction by ZEFSAII (Michael W. Deem and Ramdas Pophale) SiO2 
 PCOD8097160
Probable space group: C 2/M
;
_chemical_formula_sum "Si O2"
_cell_formula_units_Z 56
_cell_length_a 8.622715
_cell_length_b 27.472574
_cell_length_c 16.608266
_cell_angle_alpha 90.000000
_cell_angle_beta 48.769965
_cell_angle_gamma 90.000000
_cell_volume 2958.868472
_symmetry_space_group_name_H-M "C 2/M"
_symmetry_group_IT_number 12
_symmetry_cell_setting 'monoclinic'
loop_
_space_group_symop_operation_xyz
x,y,z
-x,y,-z
-x,-y,-z
x,-y,z
1/2+x,1/2+y,z
1/2-x,1/2+y,-z
1/2-x,1/2-y,-z
1/2+x,1/2-y,z
loop_
_atom_site_type_symbol
_atom_site_label
_atom_site_fract_x
_atom_site_fract_y
_atom_site_fract_z
Si Si1 0.658099 0.445226 0.013134
Si Si2 0.460223 0.690489 0.700973
Si Si3 0.771676 0.625507 0.109893
Si Si4 0.771017 0.779867 0.607063
Si Si5 0.262724 0.555741 0.570142
Si Si6 0.819718 0.355990 0.500039
Si Si7 0.884295 0.446157 0.204851
O O1 0.607873 0.500000 0.062768
O O2 0.645231 0.405284 0.087671
O O3 0.500000 0.428041 0.000000
O O4 0.877425 0.445268 0.896709
O O5 0.348161 0.674882 0.823153
O O6 0.609881 0.736083 0.663556
O O7 0.285339 0.700601 0.693443
O O8 0.603156 0.646641 0.620886
O O9 0.768853 0.593044 0.190765
O O10 0.000000 0.638491 0.000000
O O11 0.681290 0.819923 0.576546
O O12 0.000000 0.762798 0.500000
O O13 0.500000 0.570968 0.500000
O O14 0.242326 0.500000 0.549296
O O15 0.156001 0.588794 0.538841
O O16 0.141979 0.566673 0.693303
O O17 0.000000 0.342295 0.500000
O O18 0.792602 0.500000 0.218062
#
# Coordination Sequence:
#
# PCOD8097160 Si02
#       7
#     8   8   8   8   8   8   8
#     4   9  18  33  53  78 107 138 177 222 258 296
#     4  11  21  37  58  79 103 134 175 223 269 311
#     4  10  20  34  53  78 104 137 177 214 258 314
#     4  10  20  37  59  81 103 131 175 223 265 315
#     4  10  20  34  52  78 112 146 177 210 257 316
#     4  11  21  34  55  82 109 139 175 215 262 314
#     4   9  17  32  53  74 101 140 179 212 250 301
#
# _framework density 18.926155000000001
#
# number of rings (size 3 to 8) (size 9 to 14) (size 15 to 20)
#    0.000    2.000    0.000    6.429    0.000    3.143 
#    0.000    4.286    0.000    0.000    0.000    0.000 
#    0.000    0.000    0.000    0.000    0.000    0.000 
#
# Total GULP energy -347132.503316 kJ/mol
# GULP energy per Si atom -12397.589404 kJ/mol
# Density = 1.888308 g / cm^3
# Si number density = 18.926155 Si / 1000 Ang^3
#
#
#
# Elastic Constant Matrix: (Units=GPa)
#
#
# Indices 1 2 3 4 5 6 
#
# 1 128.7274 61.3632 32.1098 0.0000 7.7655 0.0000
# 2 61.3632 104.5819 56.0185 0.0000 5.4905 0.0000
# 3 32.1098 56.0185 76.2100 0.0000 17.3603 0.0000
# 4 0.0000 0.0000 0.0000 31.9924 0.0000 2.2001
# 5 7.7655 5.4905 17.3603 0.0000 15.7369 0.0000
# 6 0.0000 0.0000 0.0000 2.2001 0.0000 37.5446
#
#
#
# Elastic Compliance Matrix: (Units=1/GPa)
#
#
# Indices 1 2 3 4 5 6 
#
# 1 0.011035 -0.007124 0.001685 0.000000 -0.004818 0.000000
# 2 -0.007124 0.021572 -0.015949 0.000000 0.013584 0.000000
# 3 0.001685 -0.015949 0.030796 0.000000 -0.029240 0.000000
# 4 0.000000 0.000000 0.000000 0.031384 0.000000 -0.001839
# 5 -0.004818 0.013584 -0.029240 0.000000 0.093439 0.000000
# 6 0.000000 0.000000 0.000000 -0.001839 0.000000 0.026743
#
#
# Mechanical properties :
#
#
# Convention : Reuss Voigt Hill
#
# Bulk Modulus (GPa) = 48.48311 67.61138 58.04725
# Shear Modulus (GPa) = 18.89499 27.72331 23.30915
#
# Velocity S-wave (km/s) = 3.16310 3.83144 3.51320
# Velocity P-wave (km/s) = 6.24603 7.44141 6.86977
#
# Compressibility (1/GPa) = 0.02062574
#
# Stress axis : x y z
#
# Youngs Moduli (GPa) = 90.62271 46.35658 32.47192
#
# Poissons Ratio (x) = 0.33025 -0.05471
# Poissons Ratio (y) = 0.64561 0.51790
# Poissons Ratio (z) = -0.15270 0.73935
#
# Static dielectric constant tensor:
#      x y z
#    x 3.463800 0.000000 0.100820 
#    y 0.000000 3.491820 0.000000 
#    z 0.100820 0.000000 3.415640 
# 
# 
# High freq. dielectric constant tensor:
#      x y z
#    x 1.731150 0.000000 0.004020 
#    y 0.000000 1.734430 0.000000 
#    z 0.004020 0.000000 1.724080 
# 
# From -- ./inp_files/199912.got.cif
#   From: 2010.06.25/outbox.cif.g09.slc.cpg/sg12_100_cif.got.tgz:199912.got - 2010.06.28 00:19:55.
