data_PCOD8097232
_publ_section_title
;
Structure prediction by ZEFSAII (Michael W. Deem and Ramdas Pophale) SiO2 
 PCOD8097232
Probable space group: C 2/M
;
_chemical_formula_sum "Si O2"
_cell_formula_units_Z 56
_cell_length_a 18.069977
_cell_length_b 9.302597
_cell_length_c 18.645238
_cell_angle_alpha 90.000000
_cell_angle_beta 104.179743
_cell_angle_gamma 90.000000
_cell_volume 3038.728466
_symmetry_space_group_name_H-M "C 2/M"
_symmetry_group_IT_number 12
_symmetry_cell_setting 'monoclinic'
loop_
_space_group_symop_operation_xyz
x,y,z
-x,y,-z
-x,-y,-z
x,-y,z
1/2+x,1/2+y,z
1/2-x,1/2+y,-z
1/2-x,1/2-y,-z
1/2+x,1/2-y,z
loop_
_atom_site_type_symbol
_atom_site_label
_atom_site_fract_x
_atom_site_fract_y
_atom_site_fract_z
Si Si1 0.246194 0.833134 0.287989
Si Si2 0.380420 0.333461 0.857075
Si Si3 0.101385 0.170212 0.712857
Si Si4 0.947704 0.167240 0.140954
Si Si5 0.524222 0.329110 0.428112
Si Si6 0.193351 0.831605 0.434660
Si Si7 0.911665 0.337583 0.998776
O O1 0.182285 0.788541 0.215613
O O2 0.320117 0.739415 0.292295
O O3 0.213452 0.796128 0.357904
O O4 0.267555 0.000000 0.286193
O O5 0.374996 0.500000 0.876991
O O6 0.462586 0.298247 0.842527
O O7 0.364691 0.241904 0.925083
O O8 0.081027 0.217435 0.788414
O O9 0.035007 0.228975 0.645045
O O10 0.109333 0.000000 0.708298
O O11 0.899406 0.256277 0.071058
O O12 0.931954 0.000000 0.123269
O O13 0.500000 0.268518 0.500000
O O14 0.523572 0.500000 0.427628
O O15 0.608338 0.272677 0.428988
O O16 0.250000 0.750000 0.500000
O O17 0.199207 0.000000 0.452726
O O18 0.881333 0.500000 0.998817
O O19 0.000000 0.332754 0.000000
#
# Coordination Sequence:
#
# PCOD8097232 Si02
#       7
#     8   8   8   8   8   8   8
#     4  10  21  35  51  74 105 137 167 206 256 303
#     4   9  17  32  53  74  99 133 171 209 252 303
#     4  10  20  34  53  76 101 133 174 213 249 297
#     4   9  17  31  52  75  98 129 171 213 251 298
#     4   9  17  31  53  78 102 131 168 208 247 290
#     4  10  20  35  55  79 106 135 169 208 251 299
#     4   9  17  29  48  76 105 130 162 208 259 306
#
# _framework density 18.428761000000002
#
# number of rings (size 3 to 8) (size 9 to 14) (size 15 to 20)
#    0.000    2.571    0.000    2.143    0.000    8.000 
#    0.000    1.429    0.000    6.000    0.000    0.000 
#    0.000    0.000    0.000    0.000    0.000    0.000 
#
# Total GULP energy -347251.793341 kJ/mol
# GULP energy per Si atom -12401.849762 kJ/mol
# Density = 1.838682 g / cm^3
# Si number density = 18.428761 Si / 1000 Ang^3
#
#
#
# Elastic Constant Matrix: (Units=GPa)
#
#
# Indices 1 2 3 4 5 6 
#
# 1 122.5148 43.8439 81.3470 0.0000 -2.7719 0.0000
# 2 43.8439 56.5736 65.1378 0.0000 -0.0291 0.0000
# 3 81.3470 65.1378 190.5335 0.0000 -1.6012 0.0000
# 4 0.0000 0.0000 0.0000 24.6476 0.0000 1.0688
# 5 -2.7719 -0.0291 -1.6012 0.0000 31.4972 0.0000
# 6 0.0000 0.0000 0.0000 1.0688 0.0000 27.7660
#
#
#
# Elastic Compliance Matrix: (Units=1/GPa)
#
#
# Indices 1 2 3 4 5 6 
#
# 1 0.012482 -0.005848 -0.003322 0.000000 0.000924 0.000000
# 2 -0.005848 0.031897 -0.008416 0.000000 -0.000913 0.000000
# 3 -0.003322 -0.008416 0.009545 0.000000 0.000185 0.000000
# 4 0.000000 0.000000 0.000000 0.040640 0.000000 -0.001564
# 5 0.000924 -0.000913 0.000185 0.000000 0.031839 0.000000
# 6 0.000000 0.000000 0.000000 -0.001564 0.000000 0.036076
#
#
# Mechanical properties :
#
#
# Convention : Reuss Voigt Hill
#
# Bulk Modulus (GPa) = 53.32401 83.36435 68.34418
# Shear Modulus (GPa) = 24.52176 28.73502 26.62839
#
# Velocity S-wave (km/s) = 3.65173 3.95302 3.80536
# Velocity P-wave (km/s) = 6.83946 8.13445 7.51490
#
# Compressibility (1/GPa) = 0.01875328
#
# Stress axis : x y z
#
# Youngs Moduli (GPa) = 80.11775 31.35065 104.76260
#
# Poissons Ratio (x) = 0.18333 0.34802
# Poissons Ratio (y) = 0.46851 0.88166
# Poissons Ratio (z) = 0.26615 0.26384
#
# Static dielectric constant tensor:
#      x y z
#    x 3.314520 0.000000 -0.022760 
#    y 0.000000 3.214710 0.000000 
#    z -0.022760 0.000000 3.657380 
# 
# 
# High freq. dielectric constant tensor:
#      x y z
#    x 1.704600 0.000000 -0.002320 
#    y 0.000000 1.692380 0.000000 
#    z -0.002320 0.000000 1.733890 
# 
# From -- ./inp_files/275658.got.cif
#   From: 2010.06.25/outbox.cif.g09.slc.cpg/sg12_138_cif.got.tgz:275658.got - 2010.06.28 00:19:55.
