data_PCOD8097360
_publ_section_title
;
Structure prediction by ZEFSAII (Michael W. Deem and Ramdas Pophale) SiO2 
 PCOD8097360
Probable space group: C 2/M
;
_chemical_formula_sum "Si O2"
_cell_formula_units_Z 40
_cell_length_a 18.195244
_cell_length_b 9.040443
_cell_length_c 15.218814
_cell_angle_alpha 90.000000
_cell_angle_beta 123.391967
_cell_angle_gamma 90.000000
_cell_volume 2090.142462
_symmetry_space_group_name_H-M "C 2/M"
_symmetry_group_IT_number 12
_symmetry_cell_setting 'monoclinic'
loop_
_space_group_symop_operation_xyz
x,y,z
-x,y,-z
-x,-y,-z
x,-y,z
1/2+x,1/2+y,z
1/2-x,1/2+y,-z
1/2-x,1/2-y,-z
1/2+x,1/2-y,z
loop_
_atom_site_type_symbol
_atom_site_label
_atom_site_fract_x
_atom_site_fract_y
_atom_site_fract_z
Si Si1 0.885036 0.335389 0.087535
Si Si2 0.645482 0.824162 0.660295
Si Si3 0.330470 0.330178 0.507524
Si Si4 0.517270 0.669299 0.706981
Si Si5 0.221206 0.163778 0.110318
O O1 0.922599 0.500000 0.097901
O O2 0.959727 0.235026 0.181996
O O3 0.800446 0.338212 0.093561
O O4 0.856901 0.270596 0.973891
O O5 0.645004 0.750839 0.565723
O O6 0.563001 0.761755 0.659878
O O7 0.737670 0.783811 0.769729
O O8 0.634038 0.000000 0.645262
O O9 0.305998 0.500000 0.471684
O O10 0.250000 0.250000 0.500000
O O11 0.412729 0.320206 0.627429
O O12 0.550296 0.500000 0.723756
O O13 0.180835 0.000000 0.092599
#
# Coordination Sequence:
#
# PCOD8097360 Si02
#       5
#     8   8   8   8   8
#     4   9  16  26  45  74 104 135 169 207 253 301
#     4  10  20  34  55  81 107 137 173 213 257 305
#     4  11  24  39  55  75 102 138 176 216 263 311
#     4  10  20  34  53  78 107 138 173 213 258 307
#     4   8  15  27  44  71 105 136 165 202 251 304
#
# _framework density 19.137450999999999
#
# number of rings (size 3 to 8) (size 9 to 14) (size 15 to 20)
#    0.000    2.400    0.000    4.200    0.000   11.200 
#    0.000    0.000    0.000    1.200    0.000    8.400 
#    0.000    0.000    0.000    0.000    0.000    0.000 
#
# Total GULP energy -247971.188617 kJ/mol
# GULP energy per Si atom -12398.559431 kJ/mol
# Density = 1.909389 g / cm^3
# Si number density = 19.137451 Si / 1000 Ang^3
#
#
#
# Elastic Constant Matrix: (Units=GPa)
#
#
# Indices 1 2 3 4 5 6 
#
# 1 44.6205 34.1722 19.3466 0.0000 13.9030 0.0000
# 2 34.1722 147.7904 61.6322 0.0000 17.2827 0.0000
# 3 19.3466 61.6322 106.4227 0.0000 22.1748 0.0000
# 4 0.0000 0.0000 0.0000 38.7962 0.0000 1.1795
# 5 13.9030 17.2827 22.1748 0.0000 10.5444 0.0000
# 6 0.0000 0.0000 0.0000 1.1795 0.0000 22.7477
#
#
#
# Elastic Compliance Matrix: (Units=1/GPa)
#
#
# Indices 1 2 3 4 5 6 
#
# 1 0.044594 -0.006383 0.010077 0.000000 -0.069529 0.000000
# 2 -0.006383 0.010107 -0.005331 0.000000 0.003060 0.000000
# 3 0.010077 -0.005331 0.020647 0.000000 -0.047970 0.000000
# 4 0.000000 0.000000 0.000000 0.025816 0.000000 -0.001339
# 5 -0.069529 0.003060 -0.047970 0.000000 0.282379 0.000000
# 6 0.000000 0.000000 0.000000 -0.001339 0.000000 0.044030
#
#
# Mechanical properties :
#
#
# Convention : Reuss Voigt Hill
#
# Bulk Modulus (GPa) = 13.87427 58.79284 36.33356
# Shear Modulus (GPa) = 10.99210 26.66314 18.82762
#
# Velocity S-wave (km/s) = 2.39921 3.73667 3.13998
# Velocity P-wave (km/s) = 3.86530 7.02887 5.67210
#
# Compressibility (1/GPa) = 0.07207587
#
# Stress axis : x y z
#
# Youngs Moduli (GPa) = 22.42449 98.93771 48.43297
#
# Poissons Ratio (x) = 0.63149 -0.48806
# Poissons Ratio (y) = 0.14313 0.25818
# Poissons Ratio (z) = -0.22597 0.52740
#
# Static dielectric constant tensor:
#      x y z
#    x 2.808010 0.000000 0.185470 
#    y 0.000000 3.793990 0.000000 
#    z 0.185470 0.000000 3.798100 
# 
# 
# High freq. dielectric constant tensor:
#      x y z
#    x 1.683310 0.000000 0.011560 
#    y 0.000000 1.761400 0.000000 
#    z 0.011560 0.000000 1.761750 
# 
# From -- ./inp_files/220577.got.cif
#   From: 2010.06.25/outbox.cif.g09.slc.cpg/sg12_111_cif.got.tgz:220577.got - 2010.06.28 00:19:55.
