data_PCOD8097606
_publ_section_title
;
Structure prediction by ZEFSAII (Michael W. Deem and Ramdas Pophale) SiO2 
 PCOD8097606
Probable space group: C 2/M
;
_chemical_formula_sum "Si O2"
_cell_formula_units_Z 56
_cell_length_a 18.795144
_cell_length_b 9.098661
_cell_length_c 29.755428
_cell_angle_alpha 90.000000
_cell_angle_beta 142.240858
_cell_angle_gamma 90.000000
_cell_volume 3115.906434
_symmetry_space_group_name_H-M "C 2/M"
_symmetry_group_IT_number 12
_symmetry_cell_setting 'monoclinic'
loop_
_space_group_symop_operation_xyz
x,y,z
-x,y,-z
-x,-y,-z
x,-y,z
1/2+x,1/2+y,z
1/2-x,1/2+y,-z
1/2-x,1/2-y,-z
1/2+x,1/2-y,z
loop_
_atom_site_type_symbol
_atom_site_label
_atom_site_fract_x
_atom_site_fract_y
_atom_site_fract_z
Si Si1 0.166799 0.325504 0.994086
Si Si2 0.581443 0.666103 0.716981
Si Si3 0.784687 0.331740 0.289674
Si Si4 0.045007 0.172642 0.569645
Si Si5 0.277655 0.831799 0.877614
Si Si6 0.423271 0.672276 0.874479
Si Si7 0.630634 0.333212 0.439879
O O1 0.167265 0.500000 0.987164
O O2 0.038834 0.263006 0.923533
O O3 0.250000 0.250000 0.000000
O O4 0.211725 0.280472 0.065941
O O5 0.606842 0.500000 0.710851
O O6 0.640505 0.787651 0.715985
O O7 0.639963 0.682316 0.795407
O O8 0.441371 0.690111 0.643286
O O9 0.807115 0.500000 0.312388
O O10 0.828187 0.239858 0.354726
O O11 0.651329 0.303534 0.208531
O O12 0.000000 0.237376 0.500000
O O13 0.951983 0.220094 0.560871
O O14 0.062032 0.000000 0.574938
O O15 0.358517 0.732363 0.886450
O O16 0.320180 0.000000 0.893295
O O17 0.448929 0.500000 0.895032
O O18 0.665922 0.500000 0.464850
O O19 0.750000 0.250000 0.500000
#
# Coordination Sequence:
#
# PCOD8097606 Si02
#       7
#     8   8   8   8   8   8   8
#     4  11  23  37  53  74 103 137 169 205 253 305
#     4   8  15  30  50  70  94 126 163 201 244 291
#     4   9  17  29  48  75 101 125 159 204 248 287
#     4   9  18  33  51  70  96 131 168 203 242 291
#     4   9  18  34  56  78  98 126 168 212 251 297
#     4  10  20  34  54  79 104 130 165 209 252 299
#     4   9  17  29  47  70  95 125 157 193 239 286
#
# _framework density 17.972299
#
# number of rings (size 3 to 8) (size 9 to 14) (size 15 to 20)
#    0.000    2.714    0.000    2.571    0.000    7.143 
#    0.000    1.429    0.000    5.143    0.000    0.000 
#    0.000    0.000    0.000    0.000    0.000    0.000 
#
# Total GULP energy -346925.918388 kJ/mol
# GULP energy per Si atom -12390.211371 kJ/mol
# Density = 1.793139 g / cm^3
# Si number density = 17.972299 Si / 1000 Ang^3
#
#
#
# Elastic Constant Matrix: (Units=GPa)
#
#
# Indices 1 2 3 4 5 6 
#
# 1 71.8484 42.4929 64.4960 0.0000 2.3951 -0.0001
# 2 42.4929 71.4820 64.0232 0.0000 0.9487 -0.0002
# 3 64.4960 64.0232 172.8436 0.0000 -0.4767 0.0000
# 4 0.0000 0.0000 0.0000 33.2214 0.0000 4.4731
# 5 2.3951 0.9487 -0.4767 0.0000 27.3073 0.0000
# 6 -0.0001 -0.0002 0.0000 4.4731 0.0000 23.9147
#
#
#
# Elastic Compliance Matrix: (Units=1/GPa)
#
#
# Indices 1 2 3 4 5 6 
#
# 1 0.024771 -0.009601 -0.005692 0.000000 -0.001938 0.000000
# 2 -0.009601 0.024677 -0.005558 0.000000 -0.000112 0.000000
# 3 -0.005692 -0.005558 0.009971 0.000000 0.000866 0.000000
# 4 0.000000 0.000000 0.000000 0.030879 0.000000 -0.005776
# 5 -0.001938 -0.000112 0.000866 0.000000 0.036809 0.000000
# 6 0.000000 0.000000 0.000000 -0.005776 0.000000 0.042896
#
#
# Mechanical properties :
#
#
# Convention : Reuss Voigt Hill
#
# Bulk Modulus (GPa) = 56.44847 73.13314 64.79081
# Shear Modulus (GPa) = 22.97688 26.56615 24.77152
#
# Velocity S-wave (km/s) = 3.57944 3.84887 3.71660
# Velocity P-wave (km/s) = 6.96850 7.78025 7.38553
#
# Compressibility (1/GPa) = 0.01771527
#
# Stress axis : x y z
#
# Youngs Moduli (GPa) = 40.37004 40.52398 100.29337
#
# Poissons Ratio (x) = 0.38908 0.57088
# Poissons Ratio (y) = 0.38761 0.55745
# Poissons Ratio (z) = 0.22979 0.22524
#
# Static dielectric constant tensor:
#      x y z
#    x 2.942740 0.000000 -0.084700 
#    y 0.000000 3.319440 0.000000 
#    z -0.084700 0.000000 3.960470 
# 
# 
# High freq. dielectric constant tensor:
#      x y z
#    x 1.642120 0.000000 -0.003150 
#    y 0.000000 1.699620 0.000000 
#    z -0.003150 0.000000 1.725140 
# 
# From -- ./inp_files/342522.got.cif
#   From: 2010.06.25/outbox.cif.g09.slc.cpg/sg12_172_cif.got.tgz:342522.got - 2010.06.28 00:19:55.
