data_PCOD8097088
_publ_section_title
;
Structure prediction by ZEFSAII (Michael W. Deem and Ramdas Pophale) SiO2 
 PCOD8097088
Probable space group: C 2/M
;
_chemical_formula_sum "Si O2"
_cell_formula_units_Z 64
_cell_length_a 27.874293
_cell_length_b 9.084090
_cell_length_c 15.946650
_cell_angle_alpha 90.000000
_cell_angle_beta 62.370100
_cell_angle_gamma 90.000000
_cell_volume 3577.418037
_symmetry_space_group_name_H-M "C 2/M"
_symmetry_group_IT_number 12
_symmetry_cell_setting 'monoclinic'
loop_
_space_group_symop_operation_xyz
x,y,z
-x,y,-z
-x,-y,-z
x,-y,z
1/2+x,1/2+y,z
1/2-x,1/2+y,-z
1/2-x,1/2-y,-z
1/2+x,1/2-y,z
loop_
_atom_site_type_symbol
_atom_site_label
_atom_site_fract_x
_atom_site_fract_y
_atom_site_fract_z
Si Si1 0.885964 0.671295 0.741952
Si Si2 0.764589 0.672538 0.235520
Si Si3 0.642645 0.332398 0.745546
Si Si4 0.268233 0.826455 0.900627
Si Si5 0.477634 0.330014 0.106775
Si Si6 0.403633 0.671984 0.394352
Si Si7 0.146937 0.828262 0.391161
Si Si8 0.007275 0.673890 0.247962
O O1 0.888411 0.500000 0.720418
O O2 0.831079 0.713038 0.835239
O O3 0.889433 0.751272 0.649802
O O4 0.935979 0.723039 0.757850
O O5 0.768405 0.500000 0.212736
O O6 0.813938 0.719565 0.253983
O O7 0.767484 0.760987 0.146071
O O8 0.709784 0.713512 0.329337
O O9 0.663011 0.500000 0.740499
O O10 0.586746 0.307170 0.840219
O O11 0.634433 0.294698 0.654366
O O12 0.257957 0.000000 0.914609
O O13 0.250000 0.750000 0.000000
O O14 0.492445 0.500000 0.110896
O O15 0.506588 0.235178 0.154527
O O16 0.500000 0.273928 0.000000
O O17 0.418353 0.500000 0.385079
O O18 0.371880 0.726197 0.502277
O O19 0.459475 0.760169 0.343172
O O20 0.137376 0.000000 0.388750
O O21 0.000646 0.500000 0.250227
#
# Coordination Sequence:
#
# PCOD8097088 Si02
#       8
#     8   8   8   8   8   8   8   8
#     4   9  20  36  52  74 105 135 164 205 254 301
#     4  10  20  34  52  76 104 133 169 210 251 299
#     4   9  18  33  52  74 102 134 167 207 253 298
#     4  10  20  36  55  75 102 135 170 208 252 299
#     4   9  19  36  55  75 101 134 171 208 249 300
#     4   9  19  36  54  74 102 134 170 210 250 296
#     4   9  19  35  54  75 100 133 172 210 247 295
#     4  10  20  34  52  76 104 133 167 207 253 301
#
# _framework density 17.889997000000001
#
# number of rings (size 3 to 8) (size 9 to 14) (size 15 to 20)
#    0.000    2.625    0.000    1.875    0.000    6.750 
#    0.000    5.000    0.000    0.000    0.000    0.000 
#    0.000    0.000    0.000    0.000    0.000    0.000 
#
# Total GULP energy -396890.317802 kJ/mol
# GULP energy per Si atom -12402.822431 kJ/mol
# Density = 1.784928 g / cm^3
# Si number density = 17.889997 Si / 1000 Ang^3
#
#
#
# Elastic Constant Matrix: (Units=GPa)
#
#
# Indices 1 2 3 4 5 6 
#
# 1 123.5991 53.4914 63.3092 0.0000 13.1732 0.0000
# 2 53.4914 69.1156 54.2667 0.0000 6.9500 0.0000
# 3 63.3092 54.2667 166.2868 0.0000 9.8064 0.0000
# 4 0.0000 0.0000 0.0000 26.0768 0.0000 5.7931
# 5 13.1732 6.9500 9.8064 0.0000 14.1371 0.0000
# 6 0.0000 0.0000 0.0000 5.7931 0.0000 32.9404
#
#
#
# Elastic Compliance Matrix: (Units=1/GPa)
#
#
# Indices 1 2 3 4 5 6 
#
# 1 0.013370 -0.008022 -0.002054 0.000000 -0.007090 0.000000
# 2 -0.008022 0.024666 -0.004923 0.000000 -0.001237 0.000000
# 3 -0.002054 -0.004923 0.008494 0.000000 -0.001558 0.000000
# 4 0.000000 0.000000 0.000000 0.039907 0.000000 -0.007018
# 5 -0.007090 -0.001237 -0.001558 0.000000 0.079031 0.000000
# 6 0.000000 0.000000 0.000000 -0.007018 0.000000 0.031592
#
#
# Mechanical properties :
#
#
# Convention : Reuss Voigt Hill
#
# Bulk Modulus (GPa) = 60.48486 77.90401 69.19444
# Shear Modulus (GPa) = 21.49887 27.15980 24.32934
#
# Velocity S-wave (km/s) = 3.47035 3.90058 3.69174
# Velocity P-wave (km/s) = 7.06686 7.99542 7.54544
#
# Compressibility (1/GPa) = 0.01653306
#
# Stress axis : x y z
#
# Youngs Moduli (GPa) = 74.79240 40.54090 117.72727
#
# Poissons Ratio (x) = 0.32521 0.24186
# Poissons Ratio (y) = 0.59998 0.57953
# Poissons Ratio (z) = 0.15365 0.19957
#
# Static dielectric constant tensor:
#      x y z
#    x 3.286290 0.000000 0.010870 
#    y 0.000000 3.276520 0.000000 
#    z 0.010870 0.000000 3.486350 
# 
# 
# High freq. dielectric constant tensor:
#      x y z
#    x 1.689960 0.000000 0.003250 
#    y 0.000000 1.694120 0.000000 
#    z 0.003250 0.000000 1.697330 
# 
# From -- ./inp_files/243783.got.cif
#   From: 2010.06.25/outbox.cif.g09.slc.cpg/sg12_122_cif.got.tgz:243783.got - 2010.06.28 00:19:55.
