data_PCOD8097384
_publ_section_title
;
Structure prediction by ZEFSAII (Michael W. Deem and Ramdas Pophale) SiO2 
 PCOD8097384
Probable space group: C 2/M
;
_chemical_formula_sum "Si O2"
_cell_formula_units_Z 64
_cell_length_a 18.553412
_cell_length_b 8.837617
_cell_length_c 34.603286
_cell_angle_alpha 90.000000
_cell_angle_beta 143.886929
_cell_angle_gamma 90.000000
_cell_volume 3344.045637
_symmetry_space_group_name_H-M "C 2/M"
_symmetry_group_IT_number 12
_symmetry_cell_setting 'monoclinic'
loop_
_space_group_symop_operation_xyz
x,y,z
-x,y,-z
-x,-y,-z
x,-y,z
1/2+x,1/2+y,z
1/2-x,1/2+y,-z
1/2-x,1/2-y,-z
1/2+x,1/2-y,z
loop_
_atom_site_type_symbol
_atom_site_label
_atom_site_fract_x
_atom_site_fract_y
_atom_site_fract_z
Si Si1 0.391747 0.676866 0.372829
Si Si2 0.670251 0.678503 0.499058
Si Si3 0.095862 0.824709 0.116813
Si Si4 0.530722 0.678081 0.736673
Si Si5 0.226367 0.675748 0.873529
Si Si6 0.273974 0.823068 0.626278
Si Si7 0.816228 0.679789 0.262563
Si Si8 0.824612 0.819866 0.997991
O O1 0.385507 0.500000 0.360529
O O2 0.530881 0.734636 0.435305
O O3 0.326963 0.714114 0.385155
O O4 0.322890 0.766810 0.309331
O O5 0.677281 0.500000 0.498021
O O6 0.750000 0.750000 0.500000
O O7 0.720745 0.731236 0.562280
O O8 0.152590 0.796217 0.099313
O O9 0.187690 0.758935 0.189245
O O10 0.078981 0.000000 0.117873
O O11 0.961643 0.749982 0.059823
O O12 0.537008 0.500000 0.733944
O O13 0.614338 0.726898 0.808905
O O14 0.394202 0.728065 0.687726
O O15 0.572486 0.754422 0.714596
O O16 0.187938 0.500000 0.855463
O O17 0.258527 0.732318 0.930151
O O18 0.306675 0.000000 0.640039
O O19 0.824653 0.500000 0.263408
O O20 0.826882 0.000000 0.001220
O O21 0.750000 0.750000 0.000000
#
# Coordination Sequence:
#
# PCOD8097384 Si02
#       8
#     8   8   8   8   8   8   8   8
#     4  10  21  37  57  82 112 144 181 224 269 319
#     4  10  21  37  58  82 108 143 183 224 270 319
#     4   8  16  33  56  77  99 134 180 221 256 307
#     4  11  22  36  56  82 111 142 181 228 272 319
#     4   9  18  35  58  79 101 138 185 225 266 319
#     4  10  21  38  58  80 111 148 182 220 271 327
#     4  10  20  36  58  82 109 143 182 222 270 326
#     4  10  20  34  53  78 108 140 175 219 271 324
#
# _framework density 19.138494999999999
#
# number of rings (size 3 to 8) (size 9 to 14) (size 15 to 20)
#    0.000    2.250    0.000    3.750    0.000    8.000 
#    0.000    5.625    0.000    6.000    0.000    0.000 
#    0.000    0.000    0.000    0.000    0.000    0.000 
#
# Total GULP energy -396848.449237 kJ/mol
# GULP energy per Si atom -12401.514039 kJ/mol
# Density = 1.909493 g / cm^3
# Si number density = 19.138495 Si / 1000 Ang^3
#
#
#
# Elastic Constant Matrix: (Units=GPa)
#
#
# Indices 1 2 3 4 5 6 
#
# 1 130.8926 36.1671 75.4604 0.0000 -7.6644 0.0003
# 2 36.1671 53.8112 36.5244 -0.0001 -1.1090 0.0005
# 3 75.4604 36.5244 123.7719 0.0000 -8.6966 0.0000
# 4 0.0000 -0.0001 0.0000 24.0199 0.0000 -4.1558
# 5 -7.6644 -1.1090 -8.6966 0.0000 30.0472 -0.0001
# 6 0.0003 0.0005 0.0000 -4.1558 -0.0001 32.0557
#
#
#
# Elastic Compliance Matrix: (Units=1/GPa)
#
#
# Indices 1 2 3 4 5 6 
#
# 1 0.012481 -0.004072 -0.006323 0.000000 0.001203 0.000000
# 2 -0.004072 0.024605 -0.004887 0.000000 -0.001545 0.000000
# 3 -0.006323 -0.004887 0.013526 0.000000 0.002121 0.000000
# 4 0.000000 0.000000 0.000000 0.042587 0.000000 0.005521
# 5 0.001203 -0.001545 0.002121 0.000000 0.034145 0.000000
# 6 0.000000 0.000000 0.000000 0.005521 0.000000 0.031911
#
#
# Mechanical properties :
#
#
# Convention : Reuss Voigt Hill
#
# Bulk Modulus (GPa) = 49.88042 67.19772 58.53907
# Shear Modulus (GPa) = 25.44508 27.91281 26.67894
#
# Velocity S-wave (km/s) = 3.65022 3.82313 3.73767
# Velocity P-wave (km/s) = 6.62457 7.39432 7.02000
#
# Compressibility (1/GPa) = 0.02004795
#
# Stress axis : x y z
#
# Youngs Moduli (GPa) = 80.12405 40.64142 73.93430
#
# Poissons Ratio (x) = 0.16549 0.46749
# Poissons Ratio (y) = 0.32625 0.36132
# Poissons Ratio (z) = 0.50662 0.19861
#
# Static dielectric constant tensor:
#      x y z
#    x 3.345800 0.000000 0.092380 
#    y 0.000000 3.271850 0.000000 
#    z 0.092380 0.000000 3.861270 
# 
# 
# High freq. dielectric constant tensor:
#      x y z
#    x 1.746670 0.000000 0.000730 
#    y 0.000000 1.721380 0.000000 
#    z 0.000730 0.000000 1.760580 
# 
# From -- ./inp_files/375545.got.cif
#   From: 2010.06.25/outbox.cif.g09.slc.cpg/sg12_188_cif.got.tgz:375545.got - 2010.06.28 00:19:55.
