data_PCOD8097476
_publ_section_title
;
Structure prediction by ZEFSAII (Michael W. Deem and Ramdas Pophale) SiO2 
 PCOD8097476
Probable space group: C 2/M
;
_chemical_formula_sum "Si O2"
_cell_formula_units_Z 48
_cell_length_a 25.156930
_cell_length_b 9.122724
_cell_length_c 11.503656
_cell_angle_alpha 90.000000
_cell_angle_beta 89.188041
_cell_angle_gamma 90.000000
_cell_volume 2639.820839
_symmetry_space_group_name_H-M "C 2/M"
_symmetry_group_IT_number 12
_symmetry_cell_setting 'monoclinic'
loop_
_space_group_symop_operation_xyz
x,y,z
-x,y,-z
-x,-y,-z
x,-y,z
1/2+x,1/2+y,z
1/2-x,1/2+y,-z
1/2-x,1/2-y,-z
1/2+x,1/2-y,z
loop_
_atom_site_type_symbol
_atom_site_label
_atom_site_fract_x
_atom_site_fract_y
_atom_site_fract_z
Si Si1 0.439481 0.671832 0.003800
Si Si2 0.808789 0.670180 0.379915
Si Si3 0.701953 0.829241 0.352609
Si Si4 0.607067 0.327641 0.243824
Si Si5 0.513947 0.169461 0.366892
Si Si6 0.410602 0.172251 0.229845
O O1 0.438978 0.500000 0.028170
O O2 0.406215 0.749371 0.106158
O O3 0.500000 0.731022 0.000000
O O4 0.411193 0.713701 0.884900
O O5 0.795433 0.500000 0.359189
O O6 0.760793 0.766557 0.332163
O O7 0.818071 0.700692 0.515847
O O8 0.861461 0.720932 0.311344
O O9 0.663582 0.747302 0.264171
O O10 0.702304 0.000000 0.322440
O O11 0.612535 0.500000 0.261592
O O12 0.564594 0.267213 0.336559
O O13 0.500000 0.196389 0.500000
O O14 0.464600 0.222291 0.290828
O O15 0.528126 0.000000 0.343222
O O16 0.409857 0.000000 0.209602
#
# Coordination Sequence:
#
# PCOD8097476 Si02
#       6
#     8   8   8   8   8   8
#     4  10  21  38  55  75 109 148 185 229 275 319
#     4   9  19  37  58  83 114 144 178 223 275 327
#     4  10  20  36  59  84 112 145 181 224 273 327
#     4  11  22  36  55  79 109 146 185 226 273 323
#     4  10  20  34  53  80 113 143 174 220 275 328
#     4  10  20  34  56  82 108 142 183 225 270 325
#
# _framework density 18.183050999999999
#
# number of rings (size 3 to 8) (size 9 to 14) (size 15 to 20)
#    0.000    2.000    1.667    2.000    0.000    6.000 
#    0.000    2.500    0.000    0.000    0.000    0.000 
#    0.000    0.000    0.000    0.000    0.000    0.000 
#
# Total GULP energy -297724.397509 kJ/mol
# GULP energy per Si atom -12405.183230 kJ/mol
# Density = 1.814167 g / cm^3
# Si number density = 18.183051 Si / 1000 Ang^3
#
#
#
# Elastic Constant Matrix: (Units=GPa)
#
#
# Indices 1 2 3 4 5 6 
#
# 1 72.6661 32.5736 33.4410 0.0000 14.9586 0.0000
# 2 32.5736 58.0350 36.9164 0.0000 14.1548 0.0000
# 3 33.4410 36.9164 78.5659 0.0000 13.7765 0.0000
# 4 0.0000 0.0000 0.0000 29.5642 0.0000 -0.5858
# 5 14.9586 14.1548 13.7765 0.0000 33.1293 0.0000
# 6 0.0000 0.0000 0.0000 -0.5858 0.0000 35.3685
#
#
#
# Elastic Compliance Matrix: (Units=1/GPa)
#
#
# Indices 1 2 3 4 5 6 
#
# 1 0.019900 -0.007487 -0.004247 0.000000 -0.004020 0.000000
# 2 -0.007487 0.028612 -0.009391 0.000000 -0.004939 0.000000
# 3 -0.004247 -0.009391 0.019317 0.000000 -0.002103 0.000000
# 4 0.000000 0.000000 0.000000 0.033836 0.000000 0.000560
# 5 -0.004020 -0.004939 -0.002103 0.000000 0.034984 0.000000
# 6 0.000000 0.000000 0.000000 0.000560 0.000000 0.028283
#
#
# Mechanical properties :
#
#
# Convention : Reuss Voigt Hill
#
# Bulk Modulus (GPa) = 39.09625 46.12545 42.61085
# Shear Modulus (GPa) = 23.17934 26.70148 24.94041
#
# Velocity S-wave (km/s) = 3.57428 3.83623 3.70757
# Velocity P-wave (km/s) = 6.21145 6.71153 6.46632
#
# Compressibility (1/GPa) = 0.02557790
#
# Stress axis : x y z
#
# Youngs Moduli (GPa) = 50.25140 34.95082 51.76682
#
# Poissons Ratio (x) = 0.26168 0.21987
# Poissons Ratio (y) = 0.37624 0.48615
# Poissons Ratio (z) = 0.21343 0.32823
#
# Static dielectric constant tensor:
#      x y z
#    x 3.358650 0.000000 0.069630 
#    y 0.000000 3.312290 0.000000 
#    z 0.069630 0.000000 3.330280 
# 
# 
# High freq. dielectric constant tensor:
#      x y z
#    x 1.706300 0.000000 0.004850 
#    y 0.000000 1.704170 0.000000 
#    z 0.004850 0.000000 1.702820 
# 
# From -- ./inp_files/172254.got.cif
#   From: 2010.06.25/outbox.cif.g09.slc.cpg/sg12_87_cif.got.tgz:172254.got - 2010.06.28 00:19:55.
