data_PCOD8097702
_publ_section_title
;
Structure prediction by ZEFSAII (Michael W. Deem and Ramdas Pophale) SiO2 
 PCOD8097702
Probable space group: C 2/M
;
_chemical_formula_sum "Si O2"
_cell_formula_units_Z 40
_cell_length_a 17.886930
_cell_length_b 8.952123
_cell_length_c 25.774502
_cell_angle_alpha 90.000000
_cell_angle_beta 149.868679
_cell_angle_gamma 90.000000
_cell_volume 2071.770576
_symmetry_space_group_name_H-M "C 2/M"
_symmetry_group_IT_number 12
_symmetry_cell_setting 'monoclinic'
loop_
_space_group_symop_operation_xyz
x,y,z
-x,y,-z
-x,-y,-z
x,-y,z
1/2+x,1/2+y,z
1/2-x,1/2+y,-z
1/2-x,1/2-y,-z
1/2+x,1/2-y,z
loop_
_atom_site_type_symbol
_atom_site_label
_atom_site_fract_x
_atom_site_fract_y
_atom_site_fract_z
Si Si1 0.911219 0.323215 0.198248
Si Si2 0.584275 0.822809 0.201621
Si Si3 0.408657 0.176591 0.995534
Si Si4 0.578888 0.327345 0.602044
Si Si5 0.590306 0.176197 0.407095
O O1 0.893272 0.500000 0.184573
O O2 0.750426 0.251467 0.101509
O O3 0.003529 0.260815 0.204505
O O4 0.996076 0.272054 0.300796
O O5 0.753434 0.764557 0.301526
O O6 0.586298 0.000000 0.204419
O O7 0.496950 0.764084 0.098798
O O8 0.387034 0.000000 0.984271
O O9 0.500000 0.227089 0.000000
O O10 0.500000 0.307301 0.500000
O O11 0.575926 0.500000 0.618184
O O12 0.493380 0.227794 0.591896
O O13 0.750000 0.250000 0.500000
O O14 0.611573 0.000000 0.420720
#
# Coordination Sequence:
#
# PCOD8097702 Si02
#       5
#     8   8   8   8   8
#     4  10  21  37  56  79 108 143 183 225 271 325
#     4   9  18  34  55  79 109 144 182 224 273 331
#     4  10  20  34  54  80 109 142 181 226 274 324
#     4  10  20  37  61  84 110 147 185 224 277 335
#     4  11  23  38  57  82 112 146 186 231 277 328
#
# _framework density 19.307155999999999
#
# number of rings (size 3 to 8) (size 9 to 14) (size 15 to 20)
#    0.000    2.000    0.000    3.600    0.000    7.200 
#    0.000    2.000    0.000    0.000    0.000    0.000 
#    0.000    0.000    0.000    0.000    0.000    0.000 
#
# Total GULP energy -248075.088939 kJ/mol
# GULP energy per Si atom -12403.754447 kJ/mol
# Density = 1.926321 g / cm^3
# Si number density = 19.307156 Si / 1000 Ang^3
#
#
#
# Elastic Constant Matrix: (Units=GPa)
#
#
# Indices 1 2 3 4 5 6 
#
# 1 157.1719 32.0877 82.3023 0.0005 12.1656 -0.0001
# 2 32.0877 32.0283 42.5987 0.0008 2.1241 -0.0001
# 3 82.3023 42.5987 182.2585 0.0026 16.2667 -0.0002
# 4 0.0005 0.0008 0.0026 27.5814 0.0003 9.8146
# 5 12.1656 2.1241 16.2667 0.0003 44.4035 0.0000
# 6 -0.0001 -0.0001 -0.0002 9.8146 0.0000 22.5856
#
#
#
# Elastic Compliance Matrix: (Units=1/GPa)
#
#
# Indices 1 2 3 4 5 6 
#
# 1 0.008949 -0.005303 -0.002694 0.000000 -0.001211 0.000000
# 2 -0.005303 0.048584 -0.009183 -0.000001 0.002493 0.000000
# 3 -0.002694 -0.009183 0.009040 -0.000001 -0.002134 0.000000
# 4 0.000000 -0.000001 -0.000001 0.042888 0.000000 -0.018637
# 5 -0.001211 0.002493 -0.002134 0.000000 0.023515 0.000000
# 6 0.000000 0.000000 0.000000 -0.018637 0.000000 0.052375
#
#
# Mechanical properties :
#
#
# Convention : Reuss Voigt Hill
#
# Bulk Modulus (GPa) = 31.04296 76.15956 53.60126
# Shear Modulus (GPa) = 21.69678 33.21210 27.45444
#
# Velocity S-wave (km/s) = 3.35590 4.15202 3.77501
# Velocity P-wave (km/s) = 5.57938 7.90681 6.84278
#
# Compressibility (1/GPa) = 0.03221342
#
# Stress axis : x y z
#
# Youngs Moduli (GPa) = 111.73924 20.58307 110.62001
#
# Poissons Ratio (x) = 0.10915 0.29798
# Poissons Ratio (y) = 0.59254 1.01584
# Poissons Ratio (z) = 0.30099 0.18902
#
# Static dielectric constant tensor:
#      x y z
#    x 3.508170 -0.000010 -0.062760 
#    y -0.000010 3.289250 0.000000 
#    z -0.062760 0.000000 3.784150 
# 
# 
# High freq. dielectric constant tensor:
#      x y z
#    x 1.771550 0.000000 0.000060 
#    y 0.000000 1.722810 0.000000 
#    z 0.000060 0.000000 1.773200 
# 
# From -- ./inp_files/151746.got.cif
#   From: 2010.06.25/outbox.cif.g09.slc.cpg/sg12_76_cif.got.tgz:151746.got - 2010.06.28 00:19:55.
