data_PCOD8097220
_publ_section_title
;
Structure prediction by ZEFSAII (Michael W. Deem and Ramdas Pophale) SiO2 
 PCOD8097220
Probable space group: C 2/M
;
_chemical_formula_sum "Si O2"
_cell_formula_units_Z 48
_cell_length_a 9.931006
_cell_length_b 30.813993
_cell_length_c 8.777650
_cell_angle_alpha 90.000000
_cell_angle_beta 104.377756
_cell_angle_gamma 90.000000
_cell_volume 2601.954238
_symmetry_space_group_name_H-M "C 2/M"
_symmetry_group_IT_number 12
_symmetry_cell_setting 'monoclinic'
loop_
_space_group_symop_operation_xyz
x,y,z
-x,y,-z
-x,-y,-z
x,-y,z
1/2+x,1/2+y,z
1/2-x,1/2+y,-z
1/2-x,1/2-y,-z
1/2+x,1/2-y,z
loop_
_atom_site_type_symbol
_atom_site_label
_atom_site_fract_x
_atom_site_fract_y
_atom_site_fract_z
Si Si1 0.168438 0.000000 0.710834
Si Si2 0.813187 0.828443 0.300131
Si Si3 0.670586 0.414054 0.865801
Si Si4 0.158904 0.087095 0.202714
Si Si5 0.151794 0.746064 0.113171
Si Si6 0.130018 0.177088 0.332336
Si Si7 0.163320 0.000000 0.366031
O O1 0.230208 0.958329 0.813408
O O2 0.222715 0.000000 0.553292
O O3 0.002454 0.000000 0.673064
O O4 0.778170 0.877335 0.238049
O O5 0.687759 0.798982 0.205220
O O6 0.820012 0.819531 0.481024
O O7 0.963520 0.818675 0.268853
O O8 0.506022 0.416682 0.837434
O O9 0.725898 0.408155 0.053314
O O10 0.196441 0.131481 0.299061
O O11 0.219780 0.043483 0.298098
O O12 0.186771 0.784540 0.241945
O O13 0.250000 0.750000 0.000000
O O14 0.000000 0.746373 0.000000
#
# Coordination Sequence:
#
# PCOD8097220 Si02
#       7
#     4   8   8   8   8   8   4
#     4   9  15  23  37  61  94 134 167 212 255 306
#     4  10  20  35  52  76 104 138 176 219 267 318
#     4   9  16  26  43  65  97 131 174 211 258 311
#     4   9  16  25  42  65  96 135 170 211 257 313
#     4  12  23  38  57  78 105 139 180 223 268 318
#     4  10  20  34  53  75 105 139 175 218 269 318
#     4   9  15  23  35  61  97 132 173 204 254 314
#
# _framework density 18.447671
#
# number of rings (size 3 to 8) (size 9 to 14) (size 15 to 20)
#    0.000    2.167    1.667    3.000    2.333    6.000 
#    0.000    0.000    0.000    0.000    0.000    0.583 
#    0.000    0.000    0.000   11.000    0.000    7.500 
#
# Total GULP energy -297423.459533 kJ/mol
# GULP energy per Si atom -12392.644147 kJ/mol
# Density = 1.840568 g / cm^3
# Si number density = 18.447671 Si / 1000 Ang^3
#
#
#
# Elastic Constant Matrix: (Units=GPa)
#
#
# Indices 1 2 3 4 5 6 
#
# 1 35.9183 31.8369 36.6883 0.0000 -8.9211 0.0000
# 2 31.8369 167.1032 69.9009 0.0000 -12.0304 0.0000
# 3 36.6883 69.9009 121.6103 0.0000 -20.0390 0.0000
# 4 0.0000 0.0000 0.0000 43.0506 0.0000 -9.7532
# 5 -8.9211 -12.0304 -20.0390 0.0000 20.6582 0.0000
# 6 0.0000 0.0000 0.0000 -9.7532 0.0000 12.1701
#
#
#
# Elastic Compliance Matrix: (Units=1/GPa)
#
#
# Indices 1 2 3 4 5 6 
#
# 1 0.042594 -0.003579 -0.009647 0.000000 0.006951 0.000000
# 2 -0.003579 0.008180 -0.003680 0.000000 -0.000352 0.000000
# 3 -0.009647 -0.003680 0.014532 0.000000 0.007787 0.000000
# 4 0.000000 0.000000 0.000000 0.028381 0.000000 0.022745
# 5 0.006951 -0.000352 0.007787 0.000000 0.058758 0.000000
# 6 0.000000 0.000000 0.000000 0.022745 0.000000 0.100397
#
#
# Mechanical properties :
#
#
# Convention : Reuss Voigt Hill
#
# Bulk Modulus (GPa) = 31.75297 66.83156 49.29227
# Shear Modulus (GPa) = 16.82633 27.58950 22.20791
#
# Velocity S-wave (km/s) = 3.02339 3.87144 3.47339
# Velocity P-wave (km/s) = 5.42565 7.50269 6.54706
#
# Compressibility (1/GPa) = 0.03149311
#
# Stress axis : x y z
#
# Youngs Moduli (GPa) = 23.47742 122.24388 68.81357
#
# Poissons Ratio (x) = 0.43752 0.66387
# Poissons Ratio (y) = 0.08403 0.25325
# Poissons Ratio (z) = 0.22650 0.44988
#
# Static dielectric constant tensor:
#      x y z
#    x 2.744810 0.000000 -0.273390 
#    y 0.000000 3.489700 0.000000 
#    z -0.273390 0.000000 3.595940 
# 
# 
# High freq. dielectric constant tensor:
#      x y z
#    x 1.639540 0.000000 -0.028810 
#    y 0.000000 1.733860 0.000000 
#    z -0.028810 0.000000 1.731350 
# 
# From -- ./inp_files/53739.got.cif
#   From: 2010.06.25/outbox.cif.g09.slc.cpg/sg12_27_cif.got.tgz:53739.got - 2010.06.28 00:19:55.
