data_PCOD8097671
_publ_section_title
;
Structure prediction by ZEFSAII (Michael W. Deem and Ramdas Pophale) SiO2 
 PCOD8097671
Probable space group: C 2/M
;
_chemical_formula_sum "Si O2"
_cell_formula_units_Z 40
_cell_length_a 16.401570
_cell_length_b 15.617696
_cell_length_c 13.155755
_cell_angle_alpha 90.000000
_cell_angle_beta 144.257995
_cell_angle_gamma 90.000000
_cell_volume 1968.486514
_symmetry_space_group_name_H-M "C 2/M"
_symmetry_group_IT_number 12
_symmetry_cell_setting 'monoclinic'
loop_
_space_group_symop_operation_xyz
x,y,z
-x,y,-z
-x,-y,-z
x,-y,z
1/2+x,1/2+y,z
1/2-x,1/2+y,-z
1/2-x,1/2-y,-z
1/2+x,1/2-y,z
loop_
_atom_site_type_symbol
_atom_site_label
_atom_site_fract_x
_atom_site_fract_y
_atom_site_fract_z
Si Si1 0.627950 0.693160 0.922485
Si Si2 0.840589 0.594431 0.817488
Si Si3 0.663856 0.404236 0.156415
Si Si4 0.082599 0.903885 0.679866
Si Si5 0.667492 0.255878 0.313619
O O1 0.552395 0.642235 0.755197
O O2 0.501210 0.746357 0.844886
O O3 0.750000 0.750000 0.000000
O O4 0.698849 0.632169 0.079313
O O5 0.821816 0.500000 0.748296
O O6 0.749402 0.598792 0.828446
O O7 0.783003 0.668177 0.687630
O O8 0.000000 0.613420 0.000000
O O9 0.730980 0.500000 0.237343
O O10 0.717401 0.338307 0.297537
O O11 0.500000 0.413420 0.000000
O O12 0.000000 0.862206 0.500000
O O13 0.026012 0.000000 0.636011
O O14 0.750000 0.250000 0.500000
#
# Coordination Sequence:
#
# PCOD8097671 Si02
#       5
#     8   8   8   8   8
#     4  11  21  34  56  80 109 144 180 221 267 322
#     4  10  20  36  56  77 106 141 177 217 264 324
#     4   9  19  36  57  80 108 145 188 227 267 324
#     4  10  20  34  54  80 106 133 174 227 271 306
#     4  11  22  36  56  80 108 142 180 224 272 323
#
# _framework density 20.320181000000002
#
# number of rings (size 3 to 8) (size 9 to 14) (size 15 to 20)
#    0.000    1.800    0.000    6.000    0.000    1.600 
#    0.000    1.000    0.000    1.200    0.000    0.000 
#    0.000    0.000    0.000    0.000    0.000    0.000 
#
# Total GULP energy -247873.163581 kJ/mol
# GULP energy per Si atom -12393.658179 kJ/mol
# Density = 2.027393 g / cm^3
# Si number density = 20.320181 Si / 1000 Ang^3
#
#
#
# Elastic Constant Matrix: (Units=GPa)
#
#
# Indices 1 2 3 4 5 6 
#
# 1 93.8735 52.8723 24.8766 0.0000 -21.4644 0.0000
# 2 52.8723 152.2106 33.7387 0.0000 -32.8079 0.0000
# 3 24.8766 33.7387 64.1818 0.0000 -20.4992 0.0000
# 4 0.0000 0.0000 0.0000 17.5685 0.0000 -3.7472
# 5 -21.4644 -32.8079 -20.4992 0.0000 45.2511 0.0000
# 6 0.0000 0.0000 0.0000 -3.7472 0.0000 31.0765
#
#
#
# Elastic Compliance Matrix: (Units=1/GPa)
#
#
# Indices 1 2 3 4 5 6 
#
# 1 0.014073 -0.003705 -0.002611 0.000000 0.002807 0.000000
# 2 -0.003705 0.009177 -0.002133 0.000000 0.003930 0.000000
# 3 -0.002611 -0.002133 0.019670 0.000000 0.006126 0.000000
# 4 0.000000 0.000000 0.000000 0.058423 0.000000 0.007045
# 5 0.002807 0.003930 0.006126 0.000000 0.029055 0.000000
# 6 0.000000 0.000000 0.000000 0.007045 0.000000 0.033028
#
#
# Mechanical properties :
#
#
# Convention : Reuss Voigt Hill
#
# Bulk Modulus (GPa) = 38.42700 59.24901 48.83800
# Shear Modulus (GPa) = 26.45560 32.03110 29.24335
#
# Velocity S-wave (km/s) = 3.61215 3.97460 3.79770
# Velocity P-wave (km/s) = 6.02898 7.09114 6.58152
#
# Compressibility (1/GPa) = 0.02602337
#
# Stress axis : x y z
#
# Youngs Moduli (GPa) = 71.05882 108.97399 50.83768
#
# Poissons Ratio (x) = 0.40372 0.13272
# Poissons Ratio (y) = 0.26326 0.10843
# Poissons Ratio (z) = 0.18551 0.23242
#
# Static dielectric constant tensor:
#      x y z
#    x 3.948880 0.000000 -0.068760 
#    y 0.000000 4.133770 0.000000 
#    z -0.068760 0.000000 3.497920 
# 
# 
# High freq. dielectric constant tensor:
#      x y z
#    x 1.797180 0.000000 -0.005080 
#    y 0.000000 1.802170 0.000000 
#    z -0.005080 0.000000 1.768540 
# 
# From -- ./inp_files/59243.got.cif
#   From: 2010.06.25/outbox.cif.g09.slc.cpg/sg12_30_cif.got.tgz:59243.got - 2010.06.28 00:19:55.
