data_PCOD8097113
_publ_section_title
;
Structure prediction by ZEFSAII (Michael W. Deem and Ramdas Pophale) SiO2 
 PCOD8097113
Probable space group: C 2/M
;
_chemical_formula_sum "Si O2"
_cell_formula_units_Z 48
_cell_length_a 24.896815
_cell_length_b 12.216654
_cell_length_c 18.807924
_cell_angle_alpha 90.000000
_cell_angle_beta 23.469407
_cell_angle_gamma 90.000000
_cell_volume 2278.258016
_symmetry_space_group_name_H-M "C 2/M"
_symmetry_group_IT_number 12
_symmetry_cell_setting 'monoclinic'
loop_
_space_group_symop_operation_xyz
x,y,z
-x,y,-z
-x,-y,-z
x,-y,z
1/2+x,1/2+y,z
1/2-x,1/2+y,-z
1/2-x,1/2-y,-z
1/2+x,1/2-y,z
loop_
_atom_site_type_symbol
_atom_site_label
_atom_site_fract_x
_atom_site_fract_y
_atom_site_fract_z
Si Si1 0.326749 0.880206 0.175114
Si Si2 0.819072 0.233026 0.309683
Si Si3 0.512799 0.200869 0.662726
Si Si4 0.643289 0.500000 0.790069
Si Si5 0.067977 0.500000 0.496264
Si Si6 0.012527 0.879099 0.562322
Si Si7 0.017408 0.627873 0.151527
O O1 0.384652 0.791532 0.160028
O O2 0.170634 0.886927 0.381463
O O3 0.390385 0.000000 0.113455
O O4 0.361883 0.847386 0.050846
O O5 0.659167 0.242442 0.509430
O O6 0.886850 0.296940 0.293192
O O7 0.852246 0.104465 0.267193
O O8 0.442927 0.303986 0.707430
O O9 0.431622 0.162813 0.831498
O O10 0.516563 0.105892 0.599916
O O11 0.766408 0.500000 0.699461
O O12 0.500000 0.500000 0.000000
O O13 0.000000 0.500000 0.500000
O O14 0.000000 0.824602 0.500000
O O15 0.944441 0.000000 0.647436
O O16 0.975206 0.500000 0.203470
#
# Coordination Sequence:
#
# PCOD8097113 Si02
#       7
#     8   8   8   4   4   8   8
#     4   9  18  32  54  80 100 135 181 224 267 322
#     4  10  20  34  52  76 110 146 182 214 269 342
#     4  10  20  35  51  81 109 139 182 227 277 328
#     4  10  20  34  54  80 112 145 185 230 269 333
#     4  10  20  36  58  80 109 147 191 232 275 329
#     4   9  18  35  57  76  98 135 181 226 271 328
#     4  11  20  33  53  78 113 139 176 230 282 322
#
# _framework density 21.068729000000001
#
# number of rings (size 3 to 8) (size 9 to 14) (size 15 to 20)
#    0.000    2.167    0.833    3.000    0.000    2.000 
#    1.500    0.833    0.000    0.000    0.000    0.000 
#    0.000    0.000    0.000    0.000    0.000    0.000 
#
# Total GULP energy -297326.795615 kJ/mol
# GULP energy per Si atom -12388.616484 kJ/mol
# Density = 2.102078 g / cm^3
# Si number density = 21.068729 Si / 1000 Ang^3
#
#
#
# Elastic Constant Matrix: (Units=GPa)
#
#
# Indices 1 2 3 4 5 6 
#
# 1 97.0030 48.4733 20.5812 0.0000 35.4146 0.0000
# 2 48.4733 133.4869 21.6424 0.0000 29.8935 0.0000
# 3 20.5812 21.6424 48.0229 0.0000 27.7880 0.0000
# 4 0.0000 0.0000 0.0000 18.7336 0.0000 7.1930
# 5 35.4146 29.8935 27.7880 0.0000 37.2775 0.0000
# 6 0.0000 0.0000 0.0000 7.1930 0.0000 41.6037
#
#
#
# Elastic Compliance Matrix: (Units=1/GPa)
#
#
# Indices 1 2 3 4 5 6 
#
# 1 0.017097 -0.003113 0.003570 0.000000 -0.016407 0.000000
# 2 -0.003113 0.009699 -0.000435 0.000000 -0.004496 0.000000
# 3 0.003570 -0.000435 0.037369 0.000000 -0.030898 0.000000
# 4 0.000000 0.000000 0.000000 0.057176 0.000000 -0.009885
# 5 -0.016407 -0.004496 -0.030898 0.000000 0.069051 0.000000
# 6 0.000000 0.000000 0.000000 -0.009885 0.000000 0.025745
#
#
# Mechanical properties :
#
#
# Convention : Reuss Voigt Hill
#
# Bulk Modulus (GPa) = 15.57455 51.10073 33.33764
# Shear Modulus (GPa) = 21.05285 32.04402 26.54843
#
# Velocity S-wave (km/s) = 3.16451 3.90414 3.55362
# Velocity P-wave (km/s) = 4.55637 6.68057 5.71798
#
# Compressibility (1/GPa) = 0.06420732
#
# Stress axis : x y z
#
# Youngs Moduli (GPa) = 58.48847 103.10091 26.76046
#
# Poissons Ratio (x) = 0.32095 -0.09552
# Poissons Ratio (y) = 0.18207 0.01165
# Poissons Ratio (z) = -0.20878 0.04490
#
# Static dielectric constant tensor:
#      x y z
#    x 3.842800 0.000000 0.171680 
#    y 0.000000 5.776580 0.000000 
#    z 0.171680 0.000000 3.595200 
# 
# 
# High freq. dielectric constant tensor:
#      x y z
#    x 1.814690 0.000000 0.013040 
#    y 0.000000 1.836490 0.000000 
#    z 0.013040 0.000000 1.802250 
# 
# From -- ./inp_files/232830.got.cif
#   From: 2010.06.25/outbox.cif.g09.slc.cpg/sg12_117_cif.got.tgz:232830.got - 2010.06.28 00:19:55.
