data_PCOD8097604
_publ_section_title
;
Structure prediction by ZEFSAII (Michael W. Deem and Ramdas Pophale) SiO2 
 PCOD8097604
Probable space group: C 2/M
;
_chemical_formula_sum "Si O2"
_cell_formula_units_Z 64
_cell_length_a 18.907763
_cell_length_b 24.477602
_cell_length_c 11.949311
_cell_angle_alpha 90.000000
_cell_angle_beta 38.626796
_cell_angle_gamma 90.000000
_cell_volume 3452.287660
_symmetry_space_group_name_H-M "C 2/M"
_symmetry_group_IT_number 12
_symmetry_cell_setting 'monoclinic'
loop_
_space_group_symop_operation_xyz
x,y,z
-x,y,-z
-x,-y,-z
x,-y,z
1/2+x,1/2+y,z
1/2-x,1/2+y,-z
1/2-x,1/2-y,-z
1/2+x,1/2-y,z
loop_
_atom_site_type_symbol
_atom_site_label
_atom_site_fract_x
_atom_site_fract_y
_atom_site_fract_z
Si Si1 0.120567 0.439074 0.797244
Si Si2 0.736646 0.703936 0.152814
Si Si3 0.239457 0.343155 0.518578
Si Si4 0.485088 0.370650 0.146479
Si Si5 0.974298 0.061880 0.700513
Si Si6 0.164469 0.746914 0.455167
Si Si7 0.574512 0.272501 0.160126
Si Si8 0.818093 0.088743 0.700731
O O1 0.111271 0.500000 0.752234
O O2 0.155897 0.390808 0.667194
O O3 0.216662 0.446347 0.774238
O O4 0.000000 0.422870 0.000000
O O5 0.688979 0.752204 0.291974
O O6 0.662299 0.696715 0.133035
O O7 0.735063 0.648223 0.221866
O O8 0.866325 0.718289 0.961670
O O9 0.354041 0.372962 0.341036
O O10 0.189754 0.313696 0.469899
O O11 0.258431 0.294409 0.584262
O O12 0.550161 0.413263 0.147138
O O13 0.538662 0.310883 0.100585
O O14 0.500000 0.388353 0.000000
O O15 0.860571 0.063960 0.765755
O O16 0.075994 0.094912 0.515259
O O17 0.014922 0.000000 0.662399
O O18 0.032742 0.757498 0.634212
#
# Coordination Sequence:
#
# PCOD8097604 Si02
#       8
#     8   8   8   8   8   8   8   8
#     4  11  23  38  59  87 120 156 196 246 301 353
#     4  11  20  34  56  82 112 147 188 237 292 347
#     4  10  21  35  53  79 113 151 192 236 285 351
#     4  11  21  37  55  80 122 154 192 237 289 353
#     4  11  22  36  61  89 114 151 196 249 305 347
#     4  10  20  34  54  78 110 151 189 234 291 343
#     4  10  22  35  52  81 112 149 190 235 286 347
#     4  11  20  37  61  86 117 147 190 252 299 350
#
# _framework density 18.538430999999999
#
# number of rings (size 3 to 8) (size 9 to 14) (size 15 to 20)
#    0.000    1.375    3.750    3.375    3.500    0.250 
#    0.000    0.000    0.000    0.000    0.000    0.000 
#    0.000    4.000    0.000    0.000    0.000    0.000 
#
# Total GULP energy -396715.970767 kJ/mol
# GULP energy per Si atom -12397.374086 kJ/mol
# Density = 1.849624 g / cm^3
# Si number density = 18.538431 Si / 1000 Ang^3
#
#
#
# Elastic Constant Matrix: (Units=GPa)
#
#
# Indices 1 2 3 4 5 6 
#
# 1 67.0146 12.4357 28.6823 0.0046 10.8731 0.0010
# 2 12.4357 94.4465 29.7715 0.0013 4.4072 0.0003
# 3 28.6823 29.7715 72.2398 0.0055 1.4577 0.0009
# 4 0.0046 0.0013 0.0055 -14.0103 -0.0054 -3.2476
# 5 10.8731 4.4072 1.4577 -0.0054 33.8092 -0.0010
# 6 0.0010 0.0003 0.0009 -3.2476 -0.0010 19.0857
#
#
#
# Elastic Compliance Matrix: (Units=1/GPa)
#
#
# Indices 1 2 3 4 5 6 
#
# 1 0.019053 0.000127 -0.007500 0.000006 -0.005821 0.000000
# 2 0.000127 0.012234 -0.005064 0.000000 -0.001417 0.000000
# 3 -0.007500 -0.005064 0.018862 0.000003 0.002259 0.000000
# 4 0.000006 0.000000 0.000003 -0.068668 -0.000013 -0.011684
# 5 -0.005821 -0.001417 0.002259 -0.000013 0.031537 0.000000
# 6 0.000000 0.000000 0.000000 -0.011684 0.000000 0.050407
#
#
# Mechanical properties :
#
#
# Convention : Reuss Voigt Hill
#
# Bulk Modulus (GPa) = 39.56376 41.71998 40.64187
# Shear Modulus (GPa) = 51.69462 18.63103 35.16283
#
# Velocity S-wave (km/s) = 5.28636 3.17360 4.35990
# Velocity P-wave (km/s) = 7.65824 5.99854 6.87863
#
# Compressibility (1/GPa) = 0.02527566
#
# Stress axis : x y z
#
# Youngs Moduli (GPa) = 52.48566 81.74241 53.01752
#
# Poissons Ratio (x) = -0.01038 0.39761
# Poissons Ratio (y) = -0.00667 0.26846
# Poissons Ratio (z) = 0.39362 0.41391
#
# Static dielectric constant tensor:
#      x y z
#    x 3.496270 0.000000 -0.013290 
#    y 0.000000 3.349470 0.000000 
#    z -0.013290 0.000000 3.300840 
# 
# 
# High freq. dielectric constant tensor:
#      x y z
#    x 1.717920 0.000000 -0.004840 
#    y 0.000000 1.711220 0.000000 
#    z -0.004840 0.000000 1.705800 
# 
# From -- ./inp_files/170585.got.cif
#   From: 2010.06.25/outbox.cif.g09.slc.cpg/sg12_86_cif.got.tgz:170585.got - 2010.06.28 00:19:55.
