data_PCOD8097213
_publ_section_title
;
Structure prediction by ZEFSAII (Michael W. Deem and Ramdas Pophale) SiO2 
 PCOD8097213
Probable space group: C 2/M
;
_chemical_formula_sum "Si O2"
_cell_formula_units_Z 56
_cell_length_a 9.640185
_cell_length_b 16.701933
_cell_length_c 27.164446
_cell_angle_alpha 90.000000
_cell_angle_beta 141.261220
_cell_angle_gamma 90.000000
_cell_volume 2736.958480
_symmetry_space_group_name_H-M "C 2/M"
_symmetry_group_IT_number 12
_symmetry_cell_setting 'monoclinic'
loop_
_space_group_symop_operation_xyz
x,y,z
-x,y,-z
-x,-y,-z
x,-y,z
1/2+x,1/2+y,z
1/2-x,1/2+y,-z
1/2-x,1/2-y,-z
1/2+x,1/2-y,z
loop_
_atom_site_type_symbol
_atom_site_label
_atom_site_fract_x
_atom_site_fract_y
_atom_site_fract_z
Si Si1 0.807910 0.908096 0.309605
Si Si2 0.213841 0.404790 0.587051
Si Si3 0.733585 0.646874 0.807784
Si Si4 0.793026 0.091679 0.719167
Si Si5 0.896315 0.328104 0.236898
Si Si6 0.912147 0.592064 0.027296
Si Si7 0.564791 0.407773 0.071766
O O1 0.728446 0.902279 0.231430
O O2 0.655161 0.851685 0.301712
O O3 0.064985 0.878406 0.381707
O O4 0.784899 0.000000 0.321141
O O5 0.207761 0.500000 0.586694
O O6 0.214524 0.374663 0.643939
O O7 0.000000 0.368863 0.500000
O O8 0.559480 0.600781 0.794961
O O9 0.635290 0.733919 0.769984
O O10 0.972926 0.648393 0.900066
O O11 0.682230 0.140163 0.732352
O O12 0.724991 0.000000 0.707970
O O13 0.764397 0.361940 0.153225
O O14 0.976891 0.500000 0.055826
O O15 0.649266 0.603093 0.953362
O O16 0.000000 0.622927 0.000000
O O17 0.638289 0.500000 0.086878
O O18 0.500000 0.373119 0.000000
#
# Coordination Sequence:
#
# PCOD8097213 Si02
#       7
#     8   8   8   8   8   8   8
#     4  10  20  36  59  81 108 148 186 219 266 335
#     4   8  16  34  61  89 112 140 183 228 268 321
#     4  11  22  36  55  79 110 146 186 231 277 330
#     4  10  20  36  59  82 109 146 184 225 274 331
#     4  12  23  35  54  84 117 143 181 237 284 324
#     4  10  20  34  53  75 101 140 191 238 278 327
#     4  10  21  35  51  72 104 145 184 227 280 332
#
# _framework density 20.46067
#
# number of rings (size 3 to 8) (size 9 to 14) (size 15 to 20)
#    0.000    1.857    0.000    6.000    0.000    3.429 
#    0.000    0.714    0.000   17.143    0.000    0.000 
#    0.000    0.000    0.000    0.000    0.000    0.286 
#
# Total GULP energy -347163.996470 kJ/mol
# GULP energy per Si atom -12398.714160 kJ/mol
# Density = 2.041410 g / cm^3
# Si number density = 20.460670 Si / 1000 Ang^3
#
#
#
# Elastic Constant Matrix: (Units=GPa)
#
#
# Indices 1 2 3 4 5 6 
#
# 1 97.5281 5.8181 12.0558 -0.0001 4.3625 0.0000
# 2 5.8181 57.6909 10.5652 -0.0002 1.1552 -0.0001
# 3 12.0558 10.5652 92.3373 -0.0005 7.6073 -0.0002
# 4 -0.0001 -0.0002 -0.0005 16.7053 -0.0002 2.1623
# 5 4.3625 1.1552 7.6073 -0.0002 24.4530 -0.0001
# 6 0.0000 -0.0001 -0.0002 2.1623 -0.0001 20.1292
#
#
#
# Elastic Compliance Matrix: (Units=1/GPa)
#
#
# Indices 1 2 3 4 5 6 
#
# 1 0.010511 -0.000819 -0.001157 0.000000 -0.001477 0.000000
# 2 -0.000819 0.017770 -0.001918 0.000000 -0.000097 0.000000
# 3 -0.001157 -0.001918 0.011470 0.000000 -0.003271 0.000000
# 4 0.000000 0.000000 0.000000 0.060705 0.000000 -0.006521
# 5 -0.001477 -0.000097 -0.003271 0.000000 0.042181 0.000000
# 6 0.000000 0.000000 0.000000 -0.006521 0.000000 0.050380
#
#
# Mechanical properties :
#
#
# Convention : Reuss Voigt Hill
#
# Bulk Modulus (GPa) = 31.28635 33.82607 32.55621
# Shear Modulus (GPa) = 23.64531 26.86531 25.25531
#
# Velocity S-wave (km/s) = 3.40317 3.62750 3.51712
# Velocity P-wave (km/s) = 5.54673 5.84064 5.69558
#
# Compressibility (1/GPa) = 0.03196282
#
# Stress axis : x y z
#
# Youngs Moduli (GPa) = 95.13507 56.27602 87.18449
#
# Poissons Ratio (x) = 0.04607 0.10088
# Poissons Ratio (y) = 0.07788 0.16725
# Poissons Ratio (z) = 0.11008 0.10796
#
# Static dielectric constant tensor:
#      x y z
#    x 3.852040 0.000000 0.151140 
#    y 0.000000 3.458610 0.000000 
#    z 0.151140 0.000000 3.791380 
# 
# 
# High freq. dielectric constant tensor:
#      x y z
#    x 1.809320 0.000000 0.008540 
#    y 0.000000 1.777740 0.000000 
#    z 0.008540 0.000000 1.783240 
# 
# From -- ./inp_files/356721.got.cif
#   From: 2010.06.25/outbox.cif.g09.slc.cpg/sg12_179_cif.got.tgz:356721.got - 2010.06.28 00:19:55.
