data_PCOD8097582
_publ_section_title
;
Structure prediction by ZEFSAII (Michael W. Deem and Ramdas Pophale) SiO2 
 PCOD8097582
Probable space group: C 2/M
;
_chemical_formula_sum "Si O2"
_cell_formula_units_Z 56
_cell_length_a 13.724726
_cell_length_b 11.265817
_cell_length_c 16.511209
_cell_angle_alpha 90.000000
_cell_angle_beta 71.573486
_cell_angle_gamma 90.000000
_cell_volume 2422.076250
_symmetry_space_group_name_H-M "C 2/M"
_symmetry_group_IT_number 12
_symmetry_cell_setting 'monoclinic'
loop_
_space_group_symop_operation_xyz
x,y,z
-x,y,-z
-x,-y,-z
x,-y,z
1/2+x,1/2+y,z
1/2-x,1/2+y,-z
1/2-x,1/2-y,-z
1/2+x,1/2-y,z
loop_
_atom_site_type_symbol
_atom_site_label
_atom_site_fract_x
_atom_site_fract_y
_atom_site_fract_z
Si Si1 0.234419 0.367790 0.112693
Si Si2 0.166569 0.728558 0.689894
Si Si3 0.858012 0.217828 0.725654
Si Si4 0.497621 0.369739 0.818714
Si Si5 0.287231 0.864920 0.539738
Si Si6 0.982940 0.632133 0.403951
Si Si7 0.598233 0.227428 0.017352
O O1 0.274878 0.500000 0.116094
O O2 0.173122 0.326861 0.207929
O O3 0.159072 0.368775 0.054247
O O4 0.330504 0.281653 0.071791
O O5 0.257221 0.655511 0.712409
O O6 0.229915 0.844799 0.639939
O O7 0.110678 0.648938 0.637184
O O8 0.086445 0.774829 0.777412
O O9 0.919929 0.122983 0.762501
O O10 0.931320 0.268619 0.634592
O O11 0.544734 0.500000 0.818680
O O12 0.436905 0.334805 0.915285
O O13 0.250000 0.750000 0.500000
O O14 0.414860 0.857798 0.507293
O O15 0.258442 0.000000 0.516650
O O16 0.028502 0.500000 0.380524
O O17 0.500000 0.166938 0.000000
#
# Coordination Sequence:
#
# PCOD8097582 Si02
#       7
#     8   8   8   8   8   8   8
#     4  10  21  36  53  75 104 134 166 209 257 305
#     4  10  20  34  54  78 104 138 177 215 261 314
#     4  10  21  35  52  78 107 135 172 216 260 309
#     4  10  21  36  53  76 106 137 171 213 259 310
#     4   9  18  33  53  78 108 141 179 224 270 318
#     4   9  19  35  53  75 105 138 174 217 262 310
#     4  10  21  36  54  77 102 131 171 212 253 306
#
# _framework density 23.120660000000001
#
# number of rings (size 3 to 8) (size 9 to 14) (size 15 to 20)
#    0.000    2.286    0.000    2.143    0.000    6.000 
#    0.000    1.429    0.000   10.286    0.000   14.000 
#    0.000    0.000    0.000    0.000    0.000    0.000 
#
# Total GULP energy -346959.919831 kJ/mol
# GULP energy per Si atom -12391.425708 kJ/mol
# Density = 2.306804 g / cm^3
# Si number density = 23.120660 Si / 1000 Ang^3
#
#
#
# Elastic Constant Matrix: (Units=GPa)
#
#
# Indices 1 2 3 4 5 6 
#
# 1 117.4931 -8.3702 -0.1730 0.0000 -7.2660 0.0000
# 2 -8.3702 67.2509 12.3215 0.0000 -7.7970 0.0000
# 3 -0.1730 12.3215 94.5446 0.0000 -18.0081 0.0000
# 4 0.0000 0.0000 0.0000 10.7936 0.0000 -3.0396
# 5 -7.2660 -7.7970 -18.0081 0.0000 31.4494 0.0000
# 6 0.0000 0.0000 0.0000 -3.0396 0.0000 9.9767
#
#
#
# Elastic Compliance Matrix: (Units=1/GPa)
#
#
# Indices 1 2 3 4 5 6 
#
# 1 0.008763 0.001325 0.000327 0.000000 0.002541 0.000000
# 2 0.001325 0.015684 -0.001395 0.000000 0.003396 0.000000
# 3 0.000327 -0.001395 0.012019 0.000000 0.006612 0.000000
# 4 0.000000 0.000000 0.000000 0.101343 0.000000 0.030876
# 5 0.002541 0.003396 0.006612 0.000000 0.037012 0.000000
# 6 0.000000 0.000000 0.000000 0.030876 0.000000 0.109641
#
#
# Mechanical properties :
#
#
# Convention : Reuss Voigt Hill
#
# Bulk Modulus (GPa) = 27.04071 31.87170 29.45620
# Shear Modulus (GPa) = 16.87632 28.81128 22.84380
#
# Velocity S-wave (km/s) = 2.70464 3.53388 3.14670
# Velocity P-wave (km/s) = 4.63404 5.51960 5.09609
#
# Compressibility (1/GPa) = 0.03698128
#
# Stress axis : x y z
#
# Youngs Moduli (GPa) = 114.11428 63.75970 83.20323
#
# Poissons Ratio (x) = -0.08450 -0.02723
# Poissons Ratio (y) = -0.15123 0.11605
# Poissons Ratio (z) = -0.03734 0.08893
#
# Static dielectric constant tensor:
#      x y z
#    x 4.670870 0.000000 -0.022110 
#    y 0.000000 3.562180 0.000000 
#    z -0.022110 0.000000 4.482760 
# 
# 
# High freq. dielectric constant tensor:
#      x y z
#    x 1.939260 0.000000 -0.004120 
#    y 0.000000 1.865870 0.000000 
#    z -0.004120 0.000000 1.933130 
# 
# From -- ./inp_files/268642.got.cif
#   From: 2010.06.25/outbox.cif.g09.slc.cpg/sg12_135_cif.got.tgz:268642.got - 2010.06.28 00:19:55.
