data_PCOD8097563
_publ_section_title
;
Structure prediction by ZEFSAII (Michael W. Deem and Ramdas Pophale) SiO2 
 PCOD8097563
Probable space group: C 2/M
;
_chemical_formula_sum "Si O2"
_cell_formula_units_Z 56
_cell_length_a 8.970867
_cell_length_b 10.613543
_cell_length_c 32.022434
_cell_angle_alpha 90.000000
_cell_angle_beta 109.556303
_cell_angle_gamma 90.000000
_cell_volume 2873.057578
_symmetry_space_group_name_H-M "C 2/M"
_symmetry_group_IT_number 12
_symmetry_cell_setting 'monoclinic'
loop_
_space_group_symop_operation_xyz
x,y,z
-x,y,-z
-x,-y,-z
x,-y,z
1/2+x,1/2+y,z
1/2-x,1/2+y,-z
1/2-x,1/2-y,-z
1/2+x,1/2-y,z
loop_
_atom_site_type_symbol
_atom_site_label
_atom_site_fract_x
_atom_site_fract_y
_atom_site_fract_z
Si Si1 0.350904 0.361277 0.762520
Si Si2 0.128547 0.357460 0.976505
Si Si3 0.803410 0.854389 0.664589
Si Si4 0.312208 0.709593 0.180355
Si Si5 0.937785 0.857894 0.377512
Si Si6 0.974827 0.361837 0.123481
Si Si7 0.132843 0.860947 0.477928
O O1 0.280503 0.500000 0.756046
O O2 0.328749 0.305048 0.714181
O O3 0.537078 0.370614 0.791118
O O4 0.244132 0.289796 0.785577
O O5 0.202336 0.500000 0.979589
O O6 0.048564 0.311670 0.925714
O O7 0.250000 0.250000 0.000000
O O8 0.000000 0.361040 0.000000
O O9 0.689813 0.753676 0.631462
O O10 0.972451 0.847767 0.658039
O O11 0.739133 0.000000 0.656266
O O12 0.161196 0.630091 0.151673
O O13 0.368856 0.786866 0.145842
O O14 0.061783 0.833995 0.425934
O O15 0.863077 0.000000 0.374786
O O16 0.903932 0.500000 0.119785
O O17 0.250000 0.750000 0.500000
O O18 0.000000 0.860630 0.500000
O O19 0.215668 0.000000 0.485564
#
# Coordination Sequence:
#
# PCOD8097563 Si02
#       7
#     8   8   8   8   8   8   8
#     4  10  20  35  53  76 105 135 172 216 260 309
#     4  10  21  37  56  80 109 140 177 219 262 313
#     4  10  21  36  55  79 107 140 178 219 263 314
#     4  10  20  34  54  77 103 136 172 211 263 312
#     4  10  21  37  55  79 109 140 178 221 264 314
#     4  10  20  35  54  77 105 136 173 215 259 310
#     4  10  21  36  55  80 109 140 177 220 265 316
#
# _framework density 19.491430999999999
#
# number of rings (size 3 to 8) (size 9 to 14) (size 15 to 20)
#    0.000    2.000    0.000    3.429    0.000    1.714 
#    0.000    7.143    0.000    0.000    0.000    0.000 
#    0.000    0.000    0.000    0.000    0.000    0.000 
#
# Total GULP energy -346979.257900 kJ/mol
# GULP energy per Si atom -12392.116354 kJ/mol
# Density = 1.944707 g / cm^3
# Si number density = 19.491431 Si / 1000 Ang^3
#
#
#
# Elastic Constant Matrix: (Units=GPa)
#
#
# Indices 1 2 3 4 5 6 
#
# 1 59.4003 26.0976 14.6151 0.0000 -11.3851 0.0000
# 2 26.0976 105.9974 33.8060 0.0000 11.6937 0.0000
# 3 14.6151 33.8060 95.2130 0.0000 -15.0631 0.0000
# 4 0.0000 0.0000 0.0000 30.4415 0.0000 3.3129
# 5 -11.3851 11.6937 -15.0631 0.0000 32.8251 0.0000
# 6 0.0000 0.0000 0.0000 3.3129 0.0000 17.9133
#
#
#
# Elastic Compliance Matrix: (Units=1/GPa)
#
#
# Indices 1 2 3 4 5 6 
#
# 1 0.021526 -0.006624 0.000649 0.000000 0.010124 0.000000
# 2 -0.006624 0.013879 -0.005453 0.000000 -0.009744 0.000000
# 3 0.000649 -0.005453 0.013675 0.000000 0.008443 0.000000
# 4 0.000000 0.000000 0.000000 0.033525 0.000000 -0.006200
# 5 0.010124 -0.009744 0.008443 0.000000 0.041321 0.000000
# 6 0.000000 0.000000 0.000000 -0.006200 0.000000 0.056971
#
#
# Mechanical properties :
#
#
# Convention : Reuss Voigt Hill
#
# Bulk Modulus (GPa) = 38.13121 45.51646 41.82384
# Shear Modulus (GPa) = 23.53022 28.64209 26.08616
#
# Velocity S-wave (km/s) = 3.47826 3.83753 3.66230
# Velocity P-wave (km/s) = 5.97801 6.56035 6.27594
#
# Compressibility (1/GPa) = 0.02622524
#
# Stress axis : x y z
#
# Youngs Moduli (GPa) = 46.45607 72.05145 73.12732
#
# Poissons Ratio (x) = 0.47725 -0.04748
# Poissons Ratio (y) = 0.30771 0.39873
# Poissons Ratio (z) = -0.03016 0.39287
#
# Static dielectric constant tensor:
#      x y z
#    x 3.382730 0.000000 -0.179600 
#    y 0.000000 3.720030 0.000000 
#    z -0.179600 0.000000 3.803700 
# 
# 
# High freq. dielectric constant tensor:
#      x y z
#    x 1.749310 0.000000 -0.019780 
#    y 0.000000 1.764060 0.000000 
#    z -0.019780 0.000000 1.775060 
# 
# From -- ./inp_files/355754.got.cif
#   From: 2010.06.25/outbox.cif.g09.slc.cpg/sg12_178_cif.got.tgz:355754.got - 2010.06.28 00:19:55.
