data_PCOD8097070
_publ_section_title
;
Structure prediction by ZEFSAII (Michael W. Deem and Ramdas Pophale) SiO2 
 PCOD8097070
Probable space group: C 2/M
;
_chemical_formula_sum "Si O2"
_cell_formula_units_Z 56
_cell_length_a 18.969872
_cell_length_b 9.011811
_cell_length_c 18.373330
_cell_angle_alpha 90.000000
_cell_angle_beta 115.493509
_cell_angle_gamma 90.000000
_cell_volume 2835.150146
_symmetry_space_group_name_H-M "C 2/M"
_symmetry_group_IT_number 12
_symmetry_cell_setting 'monoclinic'
loop_
_space_group_symop_operation_xyz
x,y,z
-x,y,-z
-x,-y,-z
x,-y,z
1/2+x,1/2+y,z
1/2-x,1/2+y,-z
1/2-x,1/2-y,-z
1/2+x,1/2-y,z
loop_
_atom_site_type_symbol
_atom_site_label
_atom_site_fract_x
_atom_site_fract_y
_atom_site_fract_z
Si Si1 0.087935 0.827643 0.751333
Si Si2 0.078403 0.330970 0.000854
Si Si3 0.307709 0.170909 0.308454
Si Si4 0.324988 0.329163 0.066057
Si Si5 0.221137 0.825328 0.414347
Si Si6 0.572616 0.171447 0.280239
Si Si7 0.167766 0.334850 0.184706
O O1 0.118622 0.766165 0.687381
O O2 0.158046 0.801752 0.840980
O O3 0.010646 0.743127 0.741299
O O4 0.067296 0.000000 0.734549
O O5 0.065613 0.500000 0.968638
O O6 0.146261 0.322154 0.090928
O O7 0.098834 0.230542 0.941393
O O8 0.000000 0.264883 0.000000
O O9 0.288421 0.205845 0.384045
O O10 0.230992 0.209684 0.228110
O O11 0.328135 0.000000 0.305087
O O12 0.312833 0.500000 0.043761
O O13 0.250000 0.250000 0.000000
O O14 0.250000 0.750000 0.500000
O O15 0.139082 0.753519 0.355999
O O16 0.208368 0.000000 0.419686
O O17 0.591996 0.187851 0.202825
O O18 0.570286 0.000000 0.303168
O O19 0.202919 0.500000 0.215572
#
# Coordination Sequence:
#
# PCOD8097070 Si02
#       7
#     8   8   8   8   8   8   8
#     4  11  23  38  55  79 113 149 188 234 281 331
#     4  10  20  34  52  75 104 139 182 232 282 331
#     4  10  21  36  57  83 109 141 181 223 267 321
#     4  11  24  38  53  76 108 148 192 238 286 333
#     4  10  21  39  63  91 120 147 179 220 267 325
#     4  10  20  36  60  86 113 148 186 227 278 332
#     4   9  18  33  53  77 105 140 183 228 276 331
#
# _framework density 19.752039
#
# number of rings (size 3 to 8) (size 9 to 14) (size 15 to 20)
#    0.000    1.857    0.000    3.857    0.000   10.000 
#    0.000    0.714    0.000    4.286    0.000    0.000 
#    0.000    0.000    0.000    0.000    0.000    0.000 
#
# Total GULP energy -347221.660115 kJ/mol
# GULP energy per Si atom -12400.773576 kJ/mol
# Density = 1.970708 g / cm^3
# Si number density = 19.752039 Si / 1000 Ang^3
#
#
#
# Elastic Constant Matrix: (Units=GPa)
#
#
# Indices 1 2 3 4 5 6 
#
# 1 87.8288 49.0197 12.8848 0.0000 -13.2502 0.0000
# 2 49.0197 122.1254 44.8994 0.0000 -10.2583 0.0000
# 3 12.8848 44.8994 63.3765 0.0000 -11.5600 0.0000
# 4 0.0000 0.0000 0.0000 28.9413 0.0000 0.9541
# 5 -13.2502 -10.2583 -11.5600 0.0000 25.3827 0.0000
# 6 0.0000 0.0000 0.0000 0.9541 0.0000 39.1900
#
#
#
# Elastic Compliance Matrix: (Units=1/GPa)
#
#
# Indices 1 2 3 4 5 6 
#
# 1 0.015799 -0.006823 0.002860 0.000000 0.006793 0.000000
# 2 -0.006823 0.014041 -0.008916 0.000000 -0.001947 0.000000
# 3 0.002860 -0.008916 0.023043 0.000000 0.008384 0.000000
# 4 0.000000 0.000000 0.000000 0.034580 0.000000 -0.000842
# 5 0.006793 -0.001947 0.008384 0.000000 0.045974 0.000000
# 6 0.000000 0.000000 0.000000 -0.000842 0.000000 0.025537
#
#
# Mechanical properties :
#
#
# Convention : Reuss Voigt Hill
#
# Bulk Modulus (GPa) = 36.86323 54.10429 45.48376
# Shear Modulus (GPa) = 25.80351 29.80459 27.80405
#
# Velocity S-wave (km/s) = 3.61830 3.88872 3.75594
# Velocity P-wave (km/s) = 6.01329 6.90029 6.47200
#
# Compressibility (1/GPa) = 0.02712731
#
# Stress axis : x y z
#
# Youngs Moduli (GPa) = 63.29614 71.21987 43.39758
#
# Poissons Ratio (x) = 0.48590 -0.12414
# Poissons Ratio (y) = 0.43184 0.38691
# Poissons Ratio (z) = -0.18106 0.63497
#
# Static dielectric constant tensor:
#      x y z
#    x 3.666720 0.000000 -0.206240 
#    y 0.000000 3.696420 0.000000 
#    z -0.206240 0.000000 3.481880 
# 
# 
# High freq. dielectric constant tensor:
#      x y z
#    x 1.779030 0.000000 -0.012640 
#    y 0.000000 1.777490 0.000000 
#    z -0.012640 0.000000 1.751350 
# 
# From -- ./inp_files/275566.got.cif
#   From: 2010.06.25/outbox.cif.g09.slc.cpg/sg12_138_cif.got.tgz:275566.got - 2010.06.28 00:19:55.
