data_PCOD8097548
_publ_section_title
;
Structure prediction by ZEFSAII (Michael W. Deem and Ramdas Pophale) SiO2 
 PCOD8097548
Probable space group: C 2/M
;
_chemical_formula_sum "Si O2"
_cell_formula_units_Z 64
_cell_length_a 14.419283
_cell_length_b 9.252809
_cell_length_c 23.996233
_cell_angle_alpha 90.000000
_cell_angle_beta 91.109123
_cell_angle_gamma 90.000000
_cell_volume 3200.950494
_symmetry_space_group_name_H-M "C 2/M"
_symmetry_group_IT_number 12
_symmetry_cell_setting 'monoclinic'
loop_
_space_group_symop_operation_xyz
x,y,z
-x,y,-z
-x,-y,-z
x,-y,z
1/2+x,1/2+y,z
1/2-x,1/2+y,-z
1/2-x,1/2-y,-z
1/2+x,1/2-y,z
loop_
_atom_site_type_symbol
_atom_site_label
_atom_site_fract_x
_atom_site_fract_y
_atom_site_fract_z
Si Si1 0.324715 0.831215 0.728397
Si Si2 0.534730 0.670733 0.201321
Si Si3 0.502621 0.831349 0.089017
Si Si4 0.364047 0.841781 0.397176
Si Si5 0.889149 0.833536 0.294171
Si Si6 0.892015 0.160392 0.504305
Si Si7 0.846685 0.332579 0.999485
Si Si8 0.846192 0.840454 0.624401
O O1 0.368789 0.749290 0.781833
O O2 0.215218 0.800097 0.727156
O O3 0.376186 0.767379 0.673932
O O4 0.347154 0.000000 0.732326
O O5 0.551301 0.500000 0.198011
O O6 0.499459 0.729557 0.142320
O O7 0.456683 0.712656 0.245419
O O8 0.409642 0.794652 0.053606
O O9 0.504119 0.000000 0.105797
O O10 0.594526 0.792409 0.054801
O O11 0.419575 0.750012 0.351311
O O12 0.352765 0.763241 0.456263
O O13 0.262819 0.861177 0.371516
O O14 0.410683 0.000000 0.405921
O O15 0.899172 0.000000 0.310138
O O16 0.871873 0.228353 0.564815
O O17 0.000000 0.145971 0.500000
O O18 0.845889 0.000000 0.499344
O O19 0.821841 0.500000 0.998905
O O20 0.750000 0.250000 0.000000
O O21 0.893356 0.000000 0.632497
#
# Coordination Sequence:
#
# PCOD8097548 Si02
#       8
#     8   8   8   8   8   8   8   8
#     4  10  21  38  59  82 109 146 188 232 285 341
#     4  11  23  38  59  85 115 152 192 237 280 327
#     4   9  20  39  58  84 122 159 194 232 280 333
#     4  10  20  34  54  77 101 130 173 229 277 325
#     4   9  21  40  58  77 108 149 188 225 279 347
#     4  10  21  34  50  73 102 137 172 212 272 342
#     4   9  19  37  62  89 121 160 196 234 280 327
#     4   9  19  36  54  74 102 137 176 220 274 337
#
# _framework density 19.994062
#
# number of rings (size 3 to 8) (size 9 to 14) (size 15 to 20)
#    0.000    2.375    0.000    2.250    1.750    4.750 
#    0.000    5.000    0.000    0.000    0.000    0.000 
#    0.000    0.000    0.000    0.000    0.000    0.000 
#
# Total GULP energy -396741.100226 kJ/mol
# GULP energy per Si atom -12398.159382 kJ/mol
# Density = 1.994856 g / cm^3
# Si number density = 19.994062 Si / 1000 Ang^3
#
#
#
# Elastic Constant Matrix: (Units=GPa)
#
#
# Indices 1 2 3 4 5 6 
#
# 1 72.9951 32.8039 26.7203 0.0000 0.3199 0.0000
# 2 32.8039 96.2264 52.4042 0.0000 6.7974 0.0000
# 3 26.7203 52.4042 110.7901 0.0000 4.4541 0.0000
# 4 0.0000 0.0000 0.0000 40.8047 0.0000 -2.0036
# 5 0.3199 6.7974 4.4541 0.0000 24.7531 0.0000
# 6 0.0000 0.0000 0.0000 -2.0036 0.0000 24.3600
#
#
#
# Elastic Compliance Matrix: (Units=1/GPa)
#
#
# Indices 1 2 3 4 5 6 
#
# 1 0.016480 -0.004744 -0.001787 0.000000 0.001411 0.000000
# 2 -0.004744 0.015541 -0.006082 0.000000 -0.003112 0.000000
# 3 -0.001787 -0.006082 0.012355 0.000000 -0.000530 0.000000
# 4 0.000000 0.000000 0.000000 0.024606 0.000000 0.002024
# 5 0.001411 -0.003112 -0.000530 0.000000 0.041331 0.000000
# 6 0.000000 0.000000 0.000000 0.002024 0.000000 0.041217
#
#
# Mechanical properties :
#
#
# Convention : Reuss Voigt Hill
#
# Bulk Modulus (GPa) = 52.22064 55.98537 54.10301
# Shear Modulus (GPa) = 27.30142 29.18913 28.24527
#
# Velocity S-wave (km/s) = 3.69924 3.82500 3.76265
# Velocity P-wave (km/s) = 6.66488 6.89705 6.78196
#
# Compressibility (1/GPa) = 0.01914952
#
# Stress axis : x y z
#
# Youngs Moduli (GPa) = 60.68074 64.34390 80.93797
#
# Poissons Ratio (x) = 0.30527 0.14465
# Poissons Ratio (y) = 0.28789 0.49225
# Poissons Ratio (z) = 0.10845 0.39133
#
# Static dielectric constant tensor:
#      x y z
#    x 3.550740 0.000000 -0.030270 
#    y 0.000000 3.838300 0.000000 
#    z -0.030270 0.000000 3.704320 
# 
# 
# High freq. dielectric constant tensor:
#      x y z
#    x 1.777820 0.000000 0.000230 
#    y 0.000000 1.779370 0.000000 
#    z 0.000230 0.000000 1.777580 
# 
# From -- ./inp_files/338823.got.cif
#   From: 2010.06.25/outbox.cif.g09.slc.cpg/sg12_170_cif.got.tgz:338823.got - 2010.06.28 00:19:55.
