data_PCOD8097427
_publ_section_title
;
Structure prediction by ZEFSAII (Michael W. Deem and Ramdas Pophale) SiO2 
 PCOD8097427
Probable space group: C 2/M
;
_chemical_formula_sum "Si O2"
_cell_formula_units_Z 52
_cell_length_a 27.225431
_cell_length_b 9.524053
_cell_length_c 10.946945
_cell_angle_alpha 90.000000
_cell_angle_beta 77.758662
_cell_angle_gamma 90.000000
_cell_volume 2773.965378
_symmetry_space_group_name_H-M "C 2/M"
_symmetry_group_IT_number 12
_symmetry_cell_setting 'monoclinic'
loop_
_space_group_symop_operation_xyz
x,y,z
-x,y,-z
-x,-y,-z
x,-y,z
1/2+x,1/2+y,z
1/2-x,1/2+y,-z
1/2-x,1/2-y,-z
1/2+x,1/2-y,z
loop_
_atom_site_type_symbol
_atom_site_label
_atom_site_fract_x
_atom_site_fract_y
_atom_site_fract_z
Si Si1 0.394207 0.660479 0.168988
Si Si2 0.684732 0.837437 0.429732
Si Si3 0.560941 0.661135 0.111407
Si Si4 0.397333 0.654720 0.652537
Si Si5 0.000000 0.252536 0.500000
Si Si6 0.295816 0.658352 0.346778
Si Si7 0.472133 0.840805 0.253228
O O1 0.410485 0.500000 0.186525
O O2 0.333833 0.677200 0.213191
O O3 0.420023 0.759360 0.257204
O O4 0.408954 0.706770 0.025026
O O5 0.640236 0.771928 0.374935
O O6 0.687453 0.767515 0.559988
O O7 0.738468 0.814563 0.333446
O O8 0.671548 0.000000 0.454147
O O9 0.541981 0.500000 0.113754
O O10 0.598067 0.681535 0.205574
O O11 0.513082 0.761049 0.149399
O O12 0.375033 0.500000 0.638572
O O13 0.452057 0.658514 0.560254
O O14 0.014490 0.345440 0.610088
O O15 0.299773 0.500000 0.398631
O O16 0.467827 0.000000 0.209006
#
# Coordination Sequence:
#
# PCOD8097427 Si02
#       7
#     8   8   8   8   4   8   8
#     4  10  20  36  56  75  99 135 177 214 248 295
#     4  10  20  34  53  79 108 134 164 209 263 306
#     4   9  20  37  54  73 100 137 177 211 247 299
#     4  10  20  35  55  76 101 135 173 211 251 300
#     4  10  22  36  52  76 106 138 172 206 246 304
#     4   9  19  35  55  77 102 135 173 210 250 304
#     4  11  22  34  51  77 108 137 166 208 260 306
#
# _framework density 18.745726999999999
#
# number of rings (size 3 to 8) (size 9 to 14) (size 15 to 20)
#    0.000    2.154    0.000    2.769    0.000   11.077 
#    0.000    0.769    0.000    0.000    0.000    0.000 
#    0.000    0.000    0.000    0.000    0.000    0.000 
#
# Total GULP energy -322363.720436 kJ/mol
# GULP energy per Si atom -12398.604632 kJ/mol
# Density = 1.870306 g / cm^3
# Si number density = 18.745727 Si / 1000 Ang^3
#
#
#
# Elastic Constant Matrix: (Units=GPa)
#
#
# Indices 1 2 3 4 5 6 
#
# 1 115.1309 54.8540 54.4658 0.0000 -8.2977 0.0000
# 2 54.8540 114.0829 37.8485 0.0000 -0.5887 0.0000
# 3 54.4658 37.8485 96.4760 0.0000 -14.7900 0.0000
# 4 0.0000 0.0000 0.0000 18.5186 0.0000 0.4382
# 5 -8.2977 -0.5887 -14.7900 0.0000 25.2568 0.0000
# 6 0.0000 0.0000 0.0000 0.4382 0.0000 10.5908
#
#
#
# Elastic Compliance Matrix: (Units=1/GPa)
#
#
# Indices 1 2 3 4 5 6 
#
# 1 0.013707 -0.004680 -0.005745 0.000000 0.001030 0.000000
# 2 -0.004680 0.011796 -0.002394 0.000000 -0.002665 0.000000
# 3 -0.005745 -0.002394 0.015655 0.000000 0.007224 0.000000
# 4 0.000000 0.000000 0.000000 0.054053 0.000000 -0.002237
# 5 0.001030 -0.002665 0.007224 0.000000 0.044100 0.000000
# 6 0.000000 0.000000 0.000000 -0.002237 0.000000 0.094514
#
#
# Mechanical properties :
#
#
# Convention : Reuss Voigt Hill
#
# Bulk Modulus (GPa) = 64.42690 68.89183 66.65936
# Shear Modulus (GPa) = 18.89383 22.77469 20.83426
#
# Velocity S-wave (km/s) = 3.17819 3.48936 3.33740
# Velocity P-wave (km/s) = 6.92180 7.28455 7.10549
#
# Compressibility (1/GPa) = 0.01552147
#
# Stress axis : x y z
#
# Youngs Moduli (GPa) = 72.95382 84.77260 63.87607
#
# Poissons Ratio (x) = 0.39670 0.36695
# Poissons Ratio (y) = 0.34140 0.15294
# Poissons Ratio (z) = 0.41910 0.20298
#
# Static dielectric constant tensor:
#      x y z
#    x 3.506150 0.000000 -0.117450 
#    y 0.000000 3.412260 0.000000 
#    z -0.117450 0.000000 3.412220 
# 
# 
# High freq. dielectric constant tensor:
#      x y z
#    x 1.724570 0.000000 -0.010060 
#    y 0.000000 1.730010 0.000000 
#    z -0.010060 0.000000 1.717370 
# 
# From -- ./inp_files/179895.got.cif
#   From: 2010.06.25/outbox.cif.g09.slc.cpg/sg12_90_cif.got.tgz:179895.got - 2010.06.28 00:19:55.
