data_PCOD8097156
_publ_section_title
;
Structure prediction by ZEFSAII (Michael W. Deem and Ramdas Pophale) SiO2 
 PCOD8097156
Probable space group: C 2/M
;
_chemical_formula_sum "Si O2"
_cell_formula_units_Z 60
_cell_length_a 8.731811
_cell_length_b 10.824323
_cell_length_c 30.599241
_cell_angle_alpha 90.000000
_cell_angle_beta 95.574212
_cell_angle_gamma 90.000000
_cell_volume 2878.439926
_symmetry_space_group_name_H-M "C 2/M"
_symmetry_group_IT_number 12
_symmetry_cell_setting 'monoclinic'
loop_
_space_group_symop_operation_xyz
x,y,z
-x,y,-z
-x,-y,-z
x,-y,z
1/2+x,1/2+y,z
1/2-x,1/2+y,-z
1/2-x,1/2-y,-z
1/2+x,1/2-y,z
loop_
_atom_site_type_symbol
_atom_site_label
_atom_site_fract_x
_atom_site_fract_y
_atom_site_fract_z
Si Si1 0.746859 0.637916 0.057027
Si Si2 0.936256 0.641278 0.335466
Si Si3 0.500000 0.213369 0.000000
Si Si4 0.795752 0.743389 0.606631
Si Si5 0.117265 0.360268 0.850657
Si Si6 0.891904 0.140612 0.264267
Si Si7 0.140233 0.770511 0.206493
Si Si8 0.029272 0.141062 0.547773
O O1 0.693930 0.500000 0.066494
O O2 0.811066 0.700359 0.103379
O O3 0.878652 0.632309 0.023564
O O4 0.593847 0.705652 0.037244
O O5 0.916909 0.500000 0.316597
O O6 0.812831 0.661046 0.370508
O O7 0.908163 0.749386 0.299650
O O8 0.110896 0.654042 0.357834
O O9 0.701660 0.662550 0.569361
O O10 0.916037 0.821139 0.582822
O O11 0.069554 0.500000 0.859391
O O12 0.963400 0.288220 0.834151
O O13 0.236099 0.357952 0.813569
O O14 0.037816 0.147492 0.236133
O O15 0.730757 0.162090 0.234833
O O16 0.889715 0.000000 0.284013
O O17 0.000000 0.209539 0.500000
O O18 0.999211 0.000000 0.538353
#
# Coordination Sequence:
#
# PCOD8097156 Si02
#       8
#     8   8   4   8   8   8   8   8
#     4  10  20  34  54  79 108 144 183 224 272 326
#     4  11  24  40  60  86 117 154 194 236 284 339
#     4  10  20  34  52  78 112 142 180 226 272 322
#     4  10  22  38  58  84 118 150 190 236 282 332
#     4  10  20  36  57  80 108 144 184 226 276 333
#     4  11  24  40  60  86 115 148 189 237 288 342
#     4  10  22  38  58  82 112 144 184 232 284 336
#     4  10  20  36  59  85 114 150 190 232 280 333
#
# _framework density 20.844625000000001
#
# number of rings (size 3 to 8) (size 9 to 14) (size 15 to 20)
#    0.000    1.733    0.000    4.000    0.000    8.533 
#    0.000    0.000    0.000   19.200    0.000    0.000 
#    0.000    0.000    0.000    0.000    0.000    0.000 
#
# Total GULP energy -371914.457989 kJ/mol
# GULP energy per Si atom -12397.148600 kJ/mol
# Density = 2.079718 g / cm^3
# Si number density = 20.844625 Si / 1000 Ang^3
#
#
#
# Elastic Constant Matrix: (Units=GPa)
#
#
# Indices 1 2 3 4 5 6 
#
# 1 78.9406 15.2974 20.9441 0.0000 19.7421 0.0000
# 2 15.2974 112.1361 40.9971 0.0000 13.3664 0.0000
# 3 20.9441 40.9971 119.7338 0.0000 24.4323 0.0000
# 4 0.0000 0.0000 0.0000 26.8823 0.0000 0.0386
# 5 19.7421 13.3664 24.4323 0.0000 38.5143 0.0000
# 6 0.0000 0.0000 0.0000 0.0386 0.0000 8.7964
#
#
#
# Elastic Compliance Matrix: (Units=1/GPa)
#
#
# Indices 1 2 3 4 5 6 
#
# 1 0.014751 -0.000882 -0.000917 0.000000 -0.006674 0.000000
# 2 -0.000882 0.010325 -0.003150 0.000000 -0.001133 0.000000
# 3 -0.000917 -0.003150 0.010650 0.000000 -0.005193 0.000000
# 4 0.000000 0.000000 0.000000 0.037199 0.000000 -0.000163
# 5 -0.006674 -0.001133 -0.005193 0.000000 0.033073 0.000000
# 6 0.000000 0.000000 0.000000 -0.000163 0.000000 0.113683
#
#
# Mechanical properties :
#
#
# Convention : Reuss Voigt Hill
#
# Bulk Modulus (GPa) = 38.71487 51.69864 45.20675
# Shear Modulus (GPa) = 20.99188 30.41005 25.70097
#
# Velocity S-wave (km/s) = 3.17687 3.82369 3.51519
# Velocity P-wave (km/s) = 5.66304 6.65957 6.18142
#
# Compressibility (1/GPa) = 0.02582987
#
# Stress axis : x y z
#
# Youngs Moduli (GPa) = 67.79300 96.85581 93.89325
#
# Poissons Ratio (x) = 0.08540 0.08606
# Poissons Ratio (y) = 0.05977 0.29574
# Poissons Ratio (z) = 0.06213 0.30507
#
# Static dielectric constant tensor:
#      x y z
#    x 3.998280 0.000000 -0.005580 
#    y 0.000000 3.464130 0.000000 
#    z -0.005580 0.000000 4.406650 
# 
# 
# High freq. dielectric constant tensor:
#      x y z
#    x 1.827250 0.000000 0.005930 
#    y 0.000000 1.797400 0.000000 
#    z 0.005930 0.000000 1.828670 
# 
# From -- ./inp_files/372180.got.cif
#   From: 2010.06.25/outbox.cif.g09.slc.cpg/sg12_187_cif.got.tgz:372180.got - 2010.06.28 00:19:55.
