data_PCOD8097490
_publ_section_title
;
Structure prediction by ZEFSAII (Michael W. Deem and Ramdas Pophale) SiO2 
 PCOD8097490
Probable space group: C 2/M
;
_chemical_formula_sum "Si O2"
_cell_formula_units_Z 32
_cell_length_a 16.240599
_cell_length_b 13.600588
_cell_length_c 8.990152
_cell_angle_alpha 90.000000
_cell_angle_beta 66.190320
_cell_angle_gamma 90.000000
_cell_volume 1816.754917
_symmetry_space_group_name_H-M "C 2/M"
_symmetry_group_IT_number 12
_symmetry_cell_setting 'monoclinic'
loop_
_space_group_symop_operation_xyz
x,y,z
-x,y,-z
-x,-y,-z
x,-y,z
1/2+x,1/2+y,z
1/2-x,1/2+y,-z
1/2-x,1/2-y,-z
1/2+x,1/2-y,z
loop_
_atom_site_type_symbol
_atom_site_label
_atom_site_fract_x
_atom_site_fract_y
_atom_site_fract_z
Si Si1 0.769008 0.391367 0.073877
Si Si2 0.588667 0.791866 0.855259
Si Si3 0.915925 0.385662 0.454959
Si Si4 0.733325 0.197501 0.233413
O O1 0.731825 0.500000 0.139675
O O2 0.776153 0.382197 0.890471
O O3 0.868462 0.378398 0.073259
O O4 0.704152 0.305884 0.189331
O O5 0.561017 0.835017 0.716853
O O6 0.662638 0.704089 0.786383
O O7 0.500000 0.749578 0.000000
O O8 0.894626 0.500000 0.447361
O O9 0.827958 0.333009 0.584709
O O10 0.000000 0.368462 0.500000
#
# Coordination Sequence:
#
# PCOD8097490 Si02
#       4
#     8   8   8   8
#     4   9  18  33  56  78 103 138 177 217 264 309
#     4  10  20  34  53  81 109 141 174 212 266 317
#     4  11  22  34  55  83 109 137 175 224 267 309
#     4   9  20  35  52  81 106 145 169 220 266 311
#
# _framework density 17.613824000000001
#
# number of rings (size 3 to 8) (size 9 to 14) (size 15 to 20)
#    1.500    0.750    0.000    3.750    0.000    4.000 
#    0.000    0.000    0.000    3.750    0.000    0.000 
#    0.000    0.000    0.000    0.000    0.000    0.000 
#
# Total GULP energy -198263.324206 kJ/mol
# GULP energy per Si atom -12391.457763 kJ/mol
# Density = 1.757373 g / cm^3
# Si number density = 17.613824 Si / 1000 Ang^3
#
#
#
# Elastic Constant Matrix: (Units=GPa)
#
#
# Indices 1 2 3 4 5 6 
#
# 1 88.3600 35.6278 55.2902 0.0000 -3.6344 0.0000
# 2 35.6278 46.3972 20.9394 0.0000 -6.4818 0.0000
# 3 55.2902 20.9394 110.2082 0.0000 -9.0855 0.0000
# 4 0.0000 0.0000 0.0000 10.2009 0.0000 -4.4208
# 5 -3.6344 -6.4818 -9.0855 0.0000 38.1138 0.0000
# 6 0.0000 0.0000 0.0000 -4.4208 0.0000 15.9370
#
#
#
# Elastic Compliance Matrix: (Units=1/GPa)
#
#
# Indices 1 2 3 4 5 6 
#
# 1 0.022045 -0.013307 -0.008716 0.000000 -0.002239 0.000000
# 2 -0.013307 0.031948 0.000968 0.000000 0.004395 0.000000
# 3 -0.008716 0.000968 0.013472 0.000000 0.002545 0.000000
# 4 0.000000 0.000000 0.000000 0.111425 0.000000 0.030908
# 5 -0.002239 0.004395 0.002545 0.000000 0.027378 0.000000
# 6 0.000000 0.000000 0.000000 0.030908 0.000000 0.071321
#
#
# Mechanical properties :
#
#
# Convention : Reuss Voigt Hill
#
# Bulk Modulus (GPa) = 39.43848 52.07559 45.75703
# Shear Modulus (GPa) = 15.23694 21.72420 18.48057
#
# Velocity S-wave (km/s) = 2.94437 3.51573 3.24266
# Velocity P-wave (km/s) = 5.83081 6.79043 6.32883
#
# Compressibility (1/GPa) = 0.02535595
#
# Stress axis : x y z
#
# Youngs Moduli (GPa) = 45.36263 31.30050 74.22703
#
# Poissons Ratio (x) = 0.41652 0.64694
# Poissons Ratio (y) = 0.60364 -0.07186
# Poissons Ratio (z) = 0.39537 -0.03030
#
# Static dielectric constant tensor:
#      x y z
#    x 3.134130 0.000000 0.158120 
#    y 0.000000 3.032870 0.000000 
#    z 0.158120 0.000000 3.148970 
# 
# 
# High freq. dielectric constant tensor:
#      x y z
#    x 1.668590 0.000000 0.017690 
#    y 0.000000 1.659540 0.000000 
#    z 0.017690 0.000000 1.683040 
# 
# From -- ./inp_files/58711.got.cif
#   From: 2010.06.25/outbox.cif.g09.slc.cpg/sg12_30_cif.got.tgz:58711.got - 2010.06.28 00:19:55.
