data_PCOD8097478
_publ_section_title
;
Structure prediction by ZEFSAII (Michael W. Deem and Ramdas Pophale) SiO2 
 PCOD8097478
Probable space group: C 2/M
;
_chemical_formula_sum "Si O2"
_cell_formula_units_Z 56
_cell_length_a 29.816386
_cell_length_b 8.913165
_cell_length_c 21.677401
_cell_angle_alpha 90.000000
_cell_angle_beta 30.556466
_cell_angle_gamma 90.000000
_cell_volume 2928.793990
_symmetry_space_group_name_H-M "C 2/M"
_symmetry_group_IT_number 12
_symmetry_cell_setting 'monoclinic'
loop_
_space_group_symop_operation_xyz
x,y,z
-x,y,-z
-x,-y,-z
x,-y,z
1/2+x,1/2+y,z
1/2-x,1/2+y,-z
1/2-x,1/2-y,-z
1/2+x,1/2-y,z
loop_
_atom_site_type_symbol
_atom_site_label
_atom_site_fract_x
_atom_site_fract_y
_atom_site_fract_z
Si Si1 0.416241 0.178422 0.365790
Si Si2 0.781321 0.324365 0.184325
Si Si3 0.722551 0.324098 0.123015
Si Si4 0.779780 0.178477 0.609864
Si Si5 0.463338 0.328318 0.979738
Si Si6 0.866862 0.173756 0.300248
Si Si7 0.114453 0.323593 0.151773
O O1 0.369323 0.239818 0.482896
O O2 0.364177 0.253514 0.370835
O O3 0.517608 0.232781 0.246854
O O4 0.407820 0.000000 0.371182
O O5 0.796506 0.500000 0.167910
O O6 0.721618 0.278440 0.196219
O O7 0.735104 0.270016 0.301798
O O8 0.877061 0.256341 0.060463
O O9 0.710999 0.500000 0.127421
O O10 0.640340 0.244744 0.187417
O O11 0.815253 0.270420 0.982908
O O12 0.697737 0.235275 0.667287
O O13 0.788872 0.000000 0.592668
O O14 0.437557 0.500000 0.022471
O O15 0.534531 0.309995 0.841775
O O16 0.500000 0.257716 0.000000
O O17 0.837045 0.000000 0.338884
O O18 0.113636 0.500000 0.160625
#
# Coordination Sequence:
#
# PCOD8097478 Si02
#       7
#     8   8   8   8   8   8   8
#     4  11  23  39  58  79 108 145 187 231 274 321
#     4  10  21  36  56  82 112 148 185 224 273 326
#     4   9  18  35  59  85 111 137 172 221 274 327
#     4  11  23  38  55  78 110 148 190 228 270 324
#     4  10  20  34  53  80 113 144 177 221 271 322
#     4  11  22  37  57  81 111 146 185 227 275 325
#     4   9  19  36  58  84 110 137 175 222 273 327
#
# _framework density 19.120498000000001
#
# number of rings (size 3 to 8) (size 9 to 14) (size 15 to 20)
#    0.000    1.857    1.429    2.571    0.000    4.857 
#    0.000    3.571    0.000    4.286    0.000    0.000 
#    0.000    0.000    0.000    0.000    0.000    0.000 
#
# Total GULP energy -347276.075518 kJ/mol
# GULP energy per Si atom -12402.716983 kJ/mol
# Density = 1.907698 g / cm^3
# Si number density = 19.120498 Si / 1000 Ang^3
#
#
#
# Elastic Constant Matrix: (Units=GPa)
#
#
# Indices 1 2 3 4 5 6 
#
# 1 120.6154 29.1774 40.5093 0.0007 9.5794 0.0005
# 2 29.1774 31.6278 25.4915 0.0053 1.1142 0.0006
# 3 40.5093 25.4915 76.2147 0.0050 10.1178 -0.0007
# 4 0.0007 0.0053 0.0050 28.9474 0.0016 -2.6632
# 5 9.5794 1.1142 10.1178 0.0016 23.9925 -0.0009
# 6 0.0005 0.0006 -0.0007 -2.6632 -0.0009 31.6339
#
#
#
# Elastic Compliance Matrix: (Units=1/GPa)
#
#
# Indices 1 2 3 4 5 6 
#
# 1 0.011488 -0.008061 -0.003020 0.000002 -0.002939 0.000000
# 2 -0.008061 0.049373 -0.013085 -0.000007 0.006443 -0.000002
# 3 -0.003020 -0.013085 0.019980 -0.000001 -0.006612 0.000001
# 4 0.000002 -0.000007 -0.000001 0.034815 -0.000002 0.002931
# 5 -0.002939 0.006443 -0.006612 -0.000002 0.045342 0.000001
# 6 0.000000 -0.000002 0.000001 0.002931 0.000001 0.031858
#
#
# Mechanical properties :
#
#
# Convention : Reuss Voigt Hill
#
# Bulk Modulus (GPa) = 30.75908 46.53492 38.64700
# Shear Modulus (GPa) = 19.83925 25.80010 22.81967
#
# Velocity S-wave (km/s) = 3.22466 3.67732 3.45841
# Velocity P-wave (km/s) = 5.47599 6.51313 6.01695
#
# Compressibility (1/GPa) = 0.03251072
#
# Stress axis : x y z
#
# Youngs Moduli (GPa) = 87.04393 20.25395 50.04927
#
# Poissons Ratio (x) = 0.16326 0.15115
# Poissons Ratio (y) = 0.70164 0.65488
# Poissons Ratio (z) = 0.26288 0.26502
#
# Static dielectric constant tensor:
#      x y z
#    x 3.579640 0.000000 0.142710 
#    y 0.000000 3.443670 0.000010 
#    z 0.142710 0.000010 3.608950 
# 
# 
# High freq. dielectric constant tensor:
#      x y z
#    x 1.745230 0.000000 0.007640 
#    y 0.000000 1.741920 0.000000 
#    z 0.007640 0.000000 1.740440 
# 
# From -- ./inp_files/248908.got.cif
#   From: 2010.06.25/outbox.cif.g09.slc.cpg/sg12_125_cif.got.tgz:248908.got - 2010.06.28 00:19:55.
