data_PCOD8097290
_publ_section_title
;
Structure prediction by ZEFSAII (Michael W. Deem and Ramdas Pophale) SiO2 
 PCOD8097290
Probable space group: C 2/M
;
_chemical_formula_sum "Si O2"
_cell_formula_units_Z 48
_cell_length_a 8.468999
_cell_length_b 11.388962
_cell_length_c 26.643543
_cell_angle_alpha 90.000000
_cell_angle_beta 109.354381
_cell_angle_gamma 90.000000
_cell_volume 2424.622003
_symmetry_space_group_name_H-M "C 2/M"
_symmetry_group_IT_number 12
_symmetry_cell_setting 'monoclinic'
loop_
_space_group_symop_operation_xyz
x,y,z
-x,y,-z
-x,-y,-z
x,-y,z
1/2+x,1/2+y,z
1/2-x,1/2+y,-z
1/2-x,1/2-y,-z
1/2+x,1/2-y,z
loop_
_atom_site_type_symbol
_atom_site_label
_atom_site_fract_x
_atom_site_fract_y
_atom_site_fract_z
Si Si1 0.670188 0.287495 0.788519
Si Si2 0.083800 0.305772 0.461563
Si Si3 0.542929 0.630186 0.145407
Si Si4 0.797197 0.869345 0.396503
Si Si5 0.120414 0.367389 0.279470
Si Si6 0.355264 0.633606 0.024732
O O1 0.561878 0.367555 0.814048
O O2 0.770566 0.366464 0.759759
O O3 0.551008 0.202533 0.744315
O O4 0.798942 0.215414 0.836505
O O5 0.250000 0.250000 0.500000
O O6 0.141984 0.380518 0.419782
O O7 0.000000 0.377220 0.500000
O O8 0.952241 0.206694 0.431168
O O9 0.614952 0.500000 0.145552
O O10 0.425061 0.664276 0.086862
O O11 0.725322 0.814628 0.337229
O O12 0.867030 0.000000 0.394351
O O13 0.069927 0.500000 0.286834
O O14 0.268651 0.500000 0.016249
O O15 0.500000 0.624983 0.000000
O O16 0.250000 0.750000 0.000000
#
# Coordination Sequence:
#
# PCOD8097290 Si02
#       6
#     8   8   8   8   8   8
#     4  10  20  34  54  77 105 136 171 214 259 305
#     4   9  19  34  52  75 101 130 169 209 248 301
#     4  10  20  35  54  77 106 139 176 217 263 314
#     4  10  20  35  54  75 103 136 167 207 257 303
#     4  10  20  34  53  77 103 134 171 208 253 308
#     4  10  21  37  56  80 110 144 183 226 274 326
#
# _framework density 19.796899
#
# number of rings (size 3 to 8) (size 9 to 14) (size 15 to 20)
#    0.000    2.167    0.000    3.000    0.000    3.667 
#    0.000    6.667    0.000   14.000    0.000    0.000 
#    0.000    0.000    0.000    0.000    0.000    0.000 
#
# Total GULP energy -297359.000023 kJ/mol
# GULP energy per Si atom -12389.958334 kJ/mol
# Density = 1.975184 g / cm^3
# Si number density = 19.796899 Si / 1000 Ang^3
#
#
#
# Elastic Constant Matrix: (Units=GPa)
#
#
# Indices 1 2 3 4 5 6 
#
# 1 61.4895 20.8180 21.1327 0.0000 8.8448 0.0000
# 2 20.8180 92.5558 37.9444 0.0000 23.1332 0.0000
# 3 21.1327 37.9444 115.9757 0.0000 12.3768 0.0000
# 4 0.0000 0.0000 0.0000 -750.0584 0.0000 -503.0972
# 5 8.8448 23.1332 12.3768 0.0000 32.7778 0.0000
# 6 0.0000 0.0000 0.0000 -503.0972 0.0000 -314.9727
#
#
#
# Elastic Compliance Matrix: (Units=1/GPa)
#
#
# Indices 1 2 3 4 5 6 
#
# 1 0.018239 -0.002635 -0.002224 0.000000 -0.002222 0.000000
# 2 -0.002635 0.014966 -0.003506 0.000000 -0.008527 0.000000
# 3 -0.002224 -0.003506 0.010260 0.000000 -0.000800 0.000000
# 4 0.000000 0.000000 0.000000 0.018683 0.000000 -0.029842
# 5 -0.002222 -0.008527 -0.000800 0.000000 0.037428 0.000000
# 6 0.000000 0.000000 0.000000 -0.029842 0.000000 0.044491
#
#
# Mechanical properties :
#
#
# Convention : Reuss Voigt Hill
#
# Bulk Modulus (GPa) = 37.40573 47.75681 42.58127
# Shear Modulus (GPa) = 29.46217 -193.77560 -82.15672
#
# Velocity S-wave (km/s) = 3.86193 -9.90426 -6.44902
# Velocity P-wave (km/s) = 6.23071 10.32553 5.82215
#
# Compressibility (1/GPa) = 0.02673387
#
# Stress axis : x y z
#
# Youngs Moduli (GPa) = 54.82712 66.81945 97.46353
#
# Poissons Ratio (x) = 0.17608 0.21678
# Poissons Ratio (y) = 0.14448 0.34173
# Poissons Ratio (z) = 0.12194 0.23428
#
# Static dielectric constant tensor:
#      x y z
#    x 3.695790 0.000000 -0.226110 
#    y 0.000000 3.575950 0.000000 
#    z -0.226110 0.000000 3.976400 
# 
# 
# High freq. dielectric constant tensor:
#      x y z
#    x 1.766470 0.000000 -0.008060 
#    y 0.000000 1.761170 0.000000 
#    z -0.008060 0.000000 1.792680 
# 
# From -- ./inp_files/331979.got.cif
#   From: 2010.06.25/outbox.cif.g09.slc.cpg/sg12_166_cif.got.tgz:331979.got - 2010.06.28 00:19:55.
