data_PCOD8097954
_publ_section_title
;
Structure prediction by ZEFSAII (Michael W. Deem and Ramdas Pophale) SiO2 
 PCOD8097954
Probable space group: C 2/M
;
_chemical_formula_sum "Si O2"
_cell_formula_units_Z 56
_cell_length_a 14.781592
_cell_length_b 9.191118
_cell_length_c 31.018177
_cell_angle_alpha 90.000000
_cell_angle_beta 44.546031
_cell_angle_gamma 90.000000
_cell_volume 2956.122248
_symmetry_space_group_name_H-M "C 2/M"
_symmetry_group_IT_number 12
_symmetry_cell_setting 'monoclinic'
loop_
_space_group_symop_operation_xyz
x,y,z
-x,y,-z
-x,-y,-z
x,-y,z
1/2+x,1/2+y,z
1/2-x,1/2+y,-z
1/2-x,1/2-y,-z
1/2+x,1/2-y,z
loop_
_atom_site_type_symbol
_atom_site_label
_atom_site_fract_x
_atom_site_fract_y
_atom_site_fract_z
Si Si1 0.213438 0.326033 0.641347
Si Si2 0.040178 0.171856 0.286160
Si Si3 0.549419 0.330121 0.068320
Si Si4 0.277421 0.168058 0.054254
Si Si5 0.946375 0.173620 0.620841
Si Si6 0.121319 0.159022 0.489901
Si Si7 0.291892 0.169782 0.148463
O O1 0.199389 0.500000 0.645067
O O2 0.311150 0.276225 0.645832
O O3 0.265919 0.264797 0.576791
O O4 0.077614 0.251263 0.697617
O O5 0.048544 0.230579 0.332234
O O6 0.169583 0.218175 0.217886
O O7 0.018190 0.000000 0.291487
O O8 0.530827 0.500000 0.066941
O O9 0.642458 0.295935 0.076962
O O10 0.412881 0.258418 0.125495
O O11 0.607328 0.261894 0.005044
O O12 0.262682 0.210271 0.108972
O O13 0.315148 0.000000 0.035159
O O14 0.069214 0.238621 0.551363
O O15 0.954286 0.000000 0.615908
O O16 0.000000 0.140478 0.500000
O O17 0.173009 0.000000 0.485513
O O18 0.321620 0.000000 0.143946
#
# Coordination Sequence:
#
# PCOD8097954 Si02
#       7
#     8   8   8   8   8   8   8
#     4   9  17  31  51  72  94 124 164 206 245 288
#     4  10  21  34  48  70  99 132 167 198 236 288
#     4  10  20  34  55  81 101 121 159 206 241 274
#     4   9  19  36  55  75 102 132 157 189 242 297
#     4   8  15  30  50  70  95 127 162 201 244 291
#     4   7  11  23  46  71  91 118 158 200 244 292
#     4  10  21  36  51  69 100 139 167 189 233 295
#
# _framework density 18.943736000000001
#
# number of rings (size 3 to 8) (size 9 to 14) (size 15 to 20)
#    0.000    3.000    0.000    2.571    0.000    5.143 
#    0.000    0.714    0.000    3.857    0.000    0.000 
#    0.000    0.000    0.000    0.000    0.000    0.000 
#
# Total GULP energy -347030.864413 kJ/mol
# GULP energy per Si atom -12393.959443 kJ/mol
# Density = 1.890062 g / cm^3
# Si number density = 18.943736 Si / 1000 Ang^3
#
#
#
# Elastic Constant Matrix: (Units=GPa)
#
#
# Indices 1 2 3 4 5 6 
#
# 1 55.5382 20.0111 24.2197 0.0001 -11.1629 0.0002
# 2 20.0111 34.1541 23.9641 0.0003 -12.0003 0.0003
# 3 24.2197 23.9641 91.7502 -0.0001 -14.4529 0.0000
# 4 0.0001 0.0003 -0.0001 19.0483 0.0001 -5.5890
# 5 -11.1629 -12.0003 -14.4529 0.0001 32.8471 0.0001
# 6 0.0002 0.0003 0.0000 -5.5890 0.0001 24.2417
#
#
#
# Elastic Compliance Matrix: (Units=1/GPa)
#
#
# Indices 1 2 3 4 5 6 
#
# 1 0.023786 -0.010844 -0.003006 0.000000 0.002799 0.000000
# 2 -0.010844 0.043882 -0.007150 -0.000001 0.009201 -0.000001
# 3 -0.003006 -0.007150 0.013955 0.000000 0.002507 0.000000
# 4 0.000000 -0.000001 0.000000 0.056307 -0.000001 0.012982
# 5 0.002799 0.009201 0.002507 -0.000001 0.035860 0.000000
# 6 0.000000 -0.000001 0.000000 0.012982 0.000000 0.044244
#
#
# Mechanical properties :
#
#
# Convention : Reuss Voigt Hill
#
# Bulk Modulus (GPa) = 25.23698 35.31470 30.27584
# Shear Modulus (GPa) = 18.29889 22.77727 20.53808
#
# Velocity S-wave (km/s) = 3.11136 3.47127 3.29623
# Velocity P-wave (km/s) = 5.12430 5.89480 5.52300
#
# Compressibility (1/GPa) = 0.03962440
#
# Stress axis : x y z
#
# Youngs Moduli (GPa) = 42.04108 22.78849 71.65987
#
# Poissons Ratio (x) = 0.24712 0.21538
# Poissons Ratio (y) = 0.45590 0.51233
# Poissons Ratio (z) = 0.12636 0.16293
#
# Static dielectric constant tensor:
#      x y z
#    x 3.424180 0.000000 0.041510 
#    y 0.000000 3.081500 0.000000 
#    z 0.041510 0.000000 3.688960 
# 
# 
# High freq. dielectric constant tensor:
#      x y z
#    x 1.735080 0.000000 -0.001650 
#    y 0.000000 1.697620 0.000000 
#    z -0.001650 0.000000 1.741880 
# 
# From -- ./inp_files/374929.got.cif
#   From: 2010.06.25/outbox.cif.g09.slc.cpg/sg12_188_cif.got.tgz:374929.got - 2010.06.28 00:19:55.
