data_PCOD8097151
_publ_section_title
;
Structure prediction by ZEFSAII (Michael W. Deem and Ramdas Pophale) SiO2 
 PCOD8097151
Probable space group: C 2/M
;
_chemical_formula_sum "Si O2"
_cell_formula_units_Z 44
_cell_length_a 8.792108
_cell_length_b 10.170566
_cell_length_c 23.820211
_cell_angle_alpha 90.000000
_cell_angle_beta 108.975056
_cell_angle_gamma 90.000000
_cell_volume 2014.275466
_symmetry_space_group_name_H-M "C 2/M"
_symmetry_group_IT_number 12
_symmetry_cell_setting 'monoclinic'
loop_
_space_group_symop_operation_xyz
x,y,z
-x,y,-z
-x,-y,-z
x,-y,z
1/2+x,1/2+y,z
1/2-x,1/2+y,-z
1/2-x,1/2-y,-z
1/2+x,1/2-y,z
loop_
_atom_site_type_symbol
_atom_site_label
_atom_site_fract_x
_atom_site_fract_y
_atom_site_fract_z
Si Si1 0.500411 0.145373 0.640922
Si Si2 0.115915 0.849869 0.462636
Si Si3 0.500000 0.210092 0.000000
Si Si4 0.167687 0.145709 0.799452
Si Si5 0.839354 0.856140 0.079295
Si Si6 0.662118 0.274732 0.279955
O O1 0.471801 0.271935 0.597949
O O2 0.388248 0.160187 0.682285
O O3 0.689401 0.142023 0.678112
O O4 0.459826 0.000000 0.609780
O O5 0.250000 0.750000 0.500000
O O6 0.000000 0.873029 0.500000
O O7 0.173226 0.000000 0.450893
O O8 0.340064 0.127997 0.967776
O O9 0.536393 0.292947 0.948769
O O10 0.160966 0.217196 0.859932
O O11 0.294243 0.218261 0.775417
O O12 0.994479 0.135969 0.748248
O O13 0.235959 0.000000 0.816448
O O14 0.910553 0.000000 0.098287
#
# Coordination Sequence:
#
# PCOD8097151 Si02
#       6
#     8   8   4   8   8   8
#     4  11  23  39  61  88 118 153 193 238 289 344
#     4  11  25  43  64  91 122 156 196 240 287 341
#     4  10  20  34  52  78 110 140 184 236 284 338
#     4  10  20  36  56  79 110 148 188 232 284 341
#     4  10  20  34  54  78 107 145 186 231 284 339
#     4  10  22  37  57  84 115 148 190 236 285 340
#
# _framework density 21.844082
#
# number of rings (size 3 to 8) (size 9 to 14) (size 15 to 20)
#    0.000    1.636    0.000    4.364    0.000    8.727 
#    0.000    0.000    0.000   17.455    0.000    0.000 
#    0.000    0.000    0.000    0.000    0.000    0.000 
#
# Total GULP energy -272568.845696 kJ/mol
# GULP energy per Si atom -12389.492986 kJ/mol
# Density = 2.179436 g / cm^3
# Si number density = 21.844082 Si / 1000 Ang^3
#
#
#
# Elastic Constant Matrix: (Units=GPa)
#
#
# Indices 1 2 3 4 5 6 
#
# 1 83.3705 16.7492 12.9888 0.0000 -13.4869 0.0000
# 2 16.7492 128.0449 28.6993 0.0000 -10.6963 0.0000
# 3 12.9888 28.6993 98.8205 0.0000 -17.4519 0.0000
# 4 0.0000 0.0000 0.0000 -35.8275 0.0000 -128.1178
# 5 -13.4869 -10.6963 -17.4519 0.0000 40.9309 0.0000
# 6 0.0000 0.0000 0.0000 -128.1178 0.0000 -267.2769
#
#
#
# Elastic Compliance Matrix: (Units=1/GPa)
#
#
# Indices 1 2 3 4 5 6 
#
# 1 0.012941 -0.001231 -0.000700 0.000000 0.003644 0.000000
# 2 -0.001231 0.008530 -0.002156 0.000000 0.000904 0.000000
# 3 -0.000700 -0.002156 0.011568 0.000000 0.004139 0.000000
# 4 0.000000 0.000000 0.000000 0.039085 0.000000 -0.018735
# 5 0.003644 0.000904 0.004139 0.000000 0.027633 0.000000
# 6 0.000000 0.000000 0.000000 -0.018735 0.000000 0.005239
#
#
# Mechanical properties :
#
#
# Convention : Reuss Voigt Hill
#
# Bulk Modulus (GPa) = 40.21777 47.45670 43.83724
# Shear Modulus (GPa) = 41.16663 -35.64813 2.75925
#
# Velocity S-wave (km/s) = 4.34587 -4.04410 1.12512
# Velocity P-wave (km/s) = 6.60556 0.18443 4.66901
#
# Compressibility (1/GPa) = 0.02486463
#
# Stress axis : x y z
#
# Youngs Moduli (GPa) = 77.27659 117.23990 86.44365
#
# Poissons Ratio (x) = 0.14438 0.06049
# Poissons Ratio (y) = 0.09517 0.18634
# Poissons Ratio (z) = 0.05407 0.25272
#
# Static dielectric constant tensor:
#      x y z
#    x 3.936140 0.000000 -0.161000 
#    y 0.000000 3.843840 0.000000 
#    z -0.161000 0.000000 4.113120 
# 
# 
# High freq. dielectric constant tensor:
#      x y z
#    x 1.864430 0.000000 -0.008100 
#    y 0.000000 1.843930 0.000000 
#    z -0.008100 0.000000 1.868710 
# 
# From -- ./inp_files/332096.got.cif
#   From: 2010.06.25/outbox.cif.g09.slc.cpg/sg12_167_cif.got.tgz:332096.got - 2010.06.28 00:19:55.
