data_PCOD8097353
_publ_section_title
;
Structure prediction by ZEFSAII (Michael W. Deem and Ramdas Pophale) SiO2 
 PCOD8097353
Probable space group: C 2/M
;
_chemical_formula_sum "Si O2"
_cell_formula_units_Z 48
_cell_length_a 25.427555
_cell_length_b 23.909241
_cell_length_c 8.698313
_cell_angle_alpha 90.000000
_cell_angle_beta 28.546548
_cell_angle_gamma 90.000000
_cell_volume 2527.071465
_symmetry_space_group_name_H-M "C 2/M"
_symmetry_group_IT_number 12
_symmetry_cell_setting 'monoclinic'
loop_
_space_group_symop_operation_xyz
x,y,z
-x,y,-z
-x,-y,-z
x,-y,z
1/2+x,1/2+y,z
1/2-x,1/2+y,-z
1/2-x,1/2-y,-z
1/2+x,1/2-y,z
loop_
_atom_site_type_symbol
_atom_site_label
_atom_site_fract_x
_atom_site_fract_y
_atom_site_fract_z
Si Si1 0.296075 0.064640 0.997204
Si Si2 0.123490 0.936399 0.188658
Si Si3 0.184017 0.646313 0.799627
Si Si4 0.334146 0.239061 0.918196
Si Si5 0.432216 0.155151 0.463274
Si Si6 0.761960 0.157818 0.264832
O O1 0.387914 0.101525 0.672649
O O2 0.334551 0.000000 0.900522
O O3 0.177444 0.070719 0.218782
O O4 0.282710 0.087353 0.205956
O O5 0.000000 0.912607 0.500000
O O6 0.125042 0.000000 0.128894
O O7 0.195765 0.903790 0.879659
O O8 0.252777 0.660157 0.471243
O O9 0.217676 0.694905 0.830613
O O10 0.054746 0.644324 0.090367
O O11 0.437297 0.209617 0.564893
O O12 0.250000 0.250000 0.000000
O O13 0.351449 0.296938 0.968442
O O14 0.356504 0.167680 0.510065
#
# Coordination Sequence:
#
# PCOD8097353 Si02
#       6
#     8   8   8   8   8   8
#     4   9  18  33  53  76 102 136 174 205 242 303
#     4   9  19  37  57  73  95 134 178 213 248 295
#     4  11  20  32  52  80 109 132 160 209 262 298
#     4   9  18  33  50  69  98 136 172 201 236 294
#     4   9  19  34  53  75 104 139 169 200 247 307
#     4  10  20  34  53  78 105 130 167 214 256 297
#
# _framework density 18.994316999999999
#
# number of rings (size 3 to 8) (size 9 to 14) (size 15 to 20)
#    0.000    2.500    0.000    4.000    0.000    3.333 
#    0.000    0.833    0.000    8.000    0.000    0.000 
#    0.000    0.000    0.000    0.000    0.000    0.000 
#
# Total GULP energy -297403.324036 kJ/mol
# GULP energy per Si atom -12391.805168 kJ/mol
# Density = 1.895109 g / cm^3
# Si number density = 18.994317 Si / 1000 Ang^3
#
#
#
# Elastic Constant Matrix: (Units=GPa)
#
#
# Indices 1 2 3 4 5 6 
#
# 1 80.2815 30.1349 33.8976 -0.0002 11.4815 0.0001
# 2 30.1349 88.1718 24.4836 0.0000 4.2529 0.0000
# 3 33.8976 24.4836 64.1086 -0.0002 5.0954 0.0002
# 4 -0.0002 0.0000 -0.0002 11.7791 0.0001 1.9869
# 5 11.4815 4.2529 5.0954 0.0001 36.8480 -0.0001
# 6 0.0001 0.0000 0.0002 1.9869 -0.0001 30.2305
#
#
#
# Elastic Compliance Matrix: (Units=1/GPa)
#
#
# Indices 1 2 3 4 5 6 
#
# 1 0.017630 -0.003727 -0.007579 0.000000 -0.004015 0.000000
# 2 -0.003727 0.013498 -0.003188 0.000000 0.000044 0.000000
# 3 -0.007579 -0.003188 0.020836 0.000000 -0.000152 0.000000
# 4 0.000000 0.000000 0.000000 0.085848 0.000000 -0.005642
# 5 -0.004015 0.000044 -0.000152 0.000000 0.028405 0.000000
# 6 0.000000 0.000000 0.000000 -0.005642 0.000000 0.033450
#
#
# Mechanical properties :
#
#
# Convention : Reuss Voigt Hill
#
# Bulk Modulus (GPa) = 43.52530 45.51047 44.51788
# Shear Modulus (GPa) = 21.15833 25.37459 23.26646
#
# Velocity S-wave (km/s) = 3.34118 3.65897 3.50368
# Velocity P-wave (km/s) = 6.15218 6.47015 6.31316
#
# Compressibility (1/GPa) = 0.02297515
#
# Stress axis : x y z
#
# Youngs Moduli (GPa) = 56.72282 74.08277 47.99478
#
# Poissons Ratio (x) = 0.27611 0.36376
# Poissons Ratio (y) = 0.21141 0.15301
# Poissons Ratio (z) = 0.42991 0.23617
#
# Static dielectric constant tensor:
#      x y z
#    x 3.585960 0.000000 -0.058410 
#    y 0.000000 3.831760 0.000000 
#    z -0.058410 0.000000 3.212620 
# 
# 
# High freq. dielectric constant tensor:
#      x y z
#    x 1.748020 0.000000 -0.003550 
#    y 0.000000 1.746080 0.000000 
#    z -0.003550 0.000000 1.703480 
# 
# From -- ./inp_files/106757.got.cif
#   From: 2010.06.25/outbox.cif.g09.slc.cpg/sg12_54_cif.got.tgz:106757.got - 2010.06.28 00:19:55.
