data_PCOD8097273
_publ_section_title
;
Structure prediction by ZEFSAII (Michael W. Deem and Ramdas Pophale) SiO2 
 PCOD8097273
Probable space group: C 2/M
;
_chemical_formula_sum "Si O2"
_cell_formula_units_Z 64
_cell_length_a 14.077631
_cell_length_b 8.463394
_cell_length_c 31.074673
_cell_angle_alpha 90.000000
_cell_angle_beta 115.031888
_cell_angle_gamma 90.000000
_cell_volume 3354.622254
_symmetry_space_group_name_H-M "C 2/M"
_symmetry_group_IT_number 12
_symmetry_cell_setting 'monoclinic'
loop_
_space_group_symop_operation_xyz
x,y,z
-x,y,-z
-x,-y,-z
x,-y,z
1/2+x,1/2+y,z
1/2-x,1/2+y,-z
1/2-x,1/2-y,-z
1/2+x,1/2-y,z
loop_
_atom_site_type_symbol
_atom_site_label
_atom_site_fract_x
_atom_site_fract_y
_atom_site_fract_z
Si Si1 0.978935 0.814619 0.879577
Si Si2 0.312650 0.815431 0.051945
Si Si3 0.773849 0.315027 0.376178
Si Si4 0.954784 0.815813 0.202739
Si Si5 0.435751 0.815367 0.694750
Si Si6 0.980325 0.184528 0.375067
Si Si7 0.246462 0.187590 0.132677
Si Si8 0.304689 0.814090 0.552647
O O1 0.995090 0.766013 0.833190
O O2 0.866152 0.752742 0.872977
O O3 0.066145 0.735977 0.926757
O O4 0.989203 0.000000 0.887918
O O5 0.260956 0.753800 0.086404
O O6 0.305072 0.000000 0.048279
O O7 0.250000 0.750000 0.000000
O O8 0.758252 0.500000 0.381457
O O9 0.681901 0.252922 0.327353
O O10 0.884291 0.283691 0.375227
O O11 0.768670 0.225205 0.420737
O O12 0.013641 0.712960 0.249393
O O13 0.832146 0.771642 0.179318
O O14 0.969920 0.000000 0.215603
O O15 0.505157 0.728154 0.672076
O O16 0.432304 0.000000 0.683196
O O17 0.083754 0.228406 0.421560
O O18 0.956159 0.000000 0.375075
O O19 0.259506 0.000000 0.139553
O O20 0.250000 0.750000 0.500000
O O21 0.322870 0.000000 0.552791
#
# Coordination Sequence:
#
# PCOD8097273 Si02
#       8
#     8   8   8   8   8   8   8   8
#     4   9  19  36  56  76 103 137 176 218 265 316
#     4  10  20  34  53  76 105 137 174 217 265 318
#     4  11  22  39  60  85 115 149 187 231 280 333
#     4  10  20  35  55  80 108 139 176 224 272 321
#     4  11  22  38  58  82 113 150 187 228 274 328
#     4  11  22  39  60  85 114 147 187 233 280 330
#     4   9  19  36  55  76 103 139 178 219 266 323
#     4  11  22  39  60  86 116 150 189 232 280 331
#
# _framework density 19.078154999999999
#
# number of rings (size 3 to 8) (size 9 to 14) (size 15 to 20)
#    0.000    1.750    0.000    6.750    0.000    3.500 
#    0.000    8.750    0.000    0.000    0.000    0.000 
#    0.000    0.000    0.000    0.000    0.000    0.000 
#
# Total GULP energy -396948.488162 kJ/mol
# GULP energy per Si atom -12404.640255 kJ/mol
# Density = 1.903473 g / cm^3
# Si number density = 19.078155 Si / 1000 Ang^3
#
#
#
# Elastic Constant Matrix: (Units=GPa)
#
#
# Indices 1 2 3 4 5 6 
#
# 1 128.7558 9.4980 48.4128 0.0000 10.8182 0.0000
# 2 9.4980 72.8278 24.4080 0.0000 2.4934 0.0000
# 3 48.4128 24.4080 136.1911 0.0000 10.2516 0.0000
# 4 0.0000 0.0000 0.0000 34.6591 0.0000 3.2920
# 5 10.8182 2.4934 10.2516 0.0000 14.3233 0.0000
# 6 0.0000 0.0000 0.0000 3.2920 0.0000 31.7372
#
#
#
# Elastic Compliance Matrix: (Units=1/GPa)
#
#
# Indices 1 2 3 4 5 6 
#
# 1 0.009281 -0.000064 -0.002918 0.000000 -0.004910 0.000000
# 2 -0.000064 0.014616 -0.002546 0.000000 -0.000674 0.000000
# 3 -0.002918 -0.002546 0.009129 0.000000 -0.003887 0.000000
# 4 0.000000 0.000000 0.000000 0.029140 0.000000 -0.003023
# 5 -0.004910 -0.000674 -0.003887 0.000000 0.076424 0.000000
# 6 0.000000 0.000000 0.000000 -0.003023 0.000000 0.031822
#
#
# Mechanical properties :
#
#
# Convention : Reuss Voigt Hill
#
# Bulk Modulus (GPa) = 45.51852 55.82360 50.67106
# Shear Modulus (GPa) = 26.48433 33.17431 29.82932
#
# Velocity S-wave (km/s) = 3.72990 4.17449 3.95844
# Velocity P-wave (km/s) = 6.51616 7.24977 6.89273
#
# Compressibility (1/GPa) = 0.02196908
#
# Stress axis : x y z
#
# Youngs Moduli (GPa) = 107.74506 68.41954 109.54381
#
# Poissons Ratio (x) = 0.00440 0.31966
# Poissons Ratio (y) = 0.00693 0.27888
# Poissons Ratio (z) = 0.31441 0.17419
#
# Static dielectric constant tensor:
#      x y z
#    x 3.565680 0.000000 0.024590 
#    y 0.000000 3.541630 0.000000 
#    z 0.024590 0.000000 3.490520 
# 
# 
# High freq. dielectric constant tensor:
#      x y z
#    x 1.743210 0.000000 0.005250 
#    y 0.000000 1.754040 0.000000 
#    z 0.005250 0.000000 1.744330 
# 
# From -- ./inp_files/375101.got.cif
#   From: 2010.06.25/outbox.cif.g09.slc.cpg/sg12_188_cif.got.tgz:375101.got - 2010.06.28 00:19:55.
