data_PCOD8097271
_publ_section_title
;
Structure prediction by ZEFSAII (Michael W. Deem and Ramdas Pophale) SiO2 
 PCOD8097271
Probable space group: C 2/M
;
_chemical_formula_sum "Si O2"
_cell_formula_units_Z 64
_cell_length_a 14.110685
_cell_length_b 8.679360
_cell_length_c 29.168048
_cell_angle_alpha 90.000000
_cell_angle_beta 105.265600
_cell_angle_gamma 90.000000
_cell_volume 3446.216037
_symmetry_space_group_name_H-M "C 2/M"
_symmetry_group_IT_number 12
_symmetry_cell_setting 'monoclinic'
loop_
_space_group_symop_operation_xyz
x,y,z
-x,y,-z
-x,-y,-z
x,-y,z
1/2+x,1/2+y,z
1/2-x,1/2+y,-z
1/2-x,1/2-y,-z
1/2+x,1/2-y,z
loop_
_atom_site_type_symbol
_atom_site_label
_atom_site_fract_x
_atom_site_fract_y
_atom_site_fract_z
Si Si1 0.343291 0.320712 0.880959
Si Si2 0.153589 0.320793 0.798389
Si Si3 0.386976 0.680419 0.302847
Si Si4 0.223456 0.680232 0.627603
Si Si5 0.929654 0.681702 0.631065
Si Si6 0.737729 0.679689 0.948934
Si Si7 0.529179 0.181042 0.552422
Si Si8 0.049972 0.818351 0.867652
O O1 0.347708 0.500000 0.892826
O O2 0.259230 0.282528 0.833501
O O3 0.324093 0.235837 0.926400
O O4 0.445908 0.261663 0.873682
O O5 0.142103 0.500000 0.784513
O O6 0.145318 0.217318 0.752522
O O7 0.068358 0.272036 0.822790
O O8 0.376402 0.500000 0.311267
O O9 0.315591 0.774053 0.327473
O O10 0.499691 0.732897 0.323854
O O11 0.249177 0.500000 0.630747
O O12 0.318129 0.778877 0.627408
O O13 0.141433 0.721999 0.579150
O O14 0.947872 0.500000 0.638022
O O15 0.957028 0.741190 0.583388
O O16 0.746658 0.500000 0.955311
O O17 0.632330 0.728747 0.915108
O O18 0.750000 0.750000 0.000000
O O19 0.500000 0.258972 0.500000
O O20 0.515508 0.000000 0.546804
O O21 0.051336 0.000000 0.857502
#
# Coordination Sequence:
#
# PCOD8097271 Si02
#       8
#     8   8   8   8   8   8   8   8
#     4   9  19  36  56  76 102 135 171 211 256 307
#     4  10  20  35  55  79 106 134 169 216 265 314
#     4  11  22  37  56  77 106 142 180 221 265 316
#     4  10  20  35  55  79 109 142 178 220 267 319
#     4  10  20  35  55  79 108 140 178 222 267 317
#     4  10  20  34  53  76 105 137 173 215 258 307
#     4   8  16  32  53  77 107 142 178 218 263 313
#     4   9  19  36  55  76 103 138 176 213 257 312
#
# _framework density 18.571093999999999
#
# number of rings (size 3 to 8) (size 9 to 14) (size 15 to 20)
#    0.000    2.375    0.000    3.375    0.000    3.500 
#    0.000    6.250    0.000   12.750    0.000    0.000 
#    0.000    0.000    0.000    0.000    0.000    0.000 
#
# Total GULP energy -396868.639466 kJ/mol
# GULP energy per Si atom -12402.144983 kJ/mol
# Density = 1.852883 g / cm^3
# Si number density = 18.571094 Si / 1000 Ang^3
#
#
#
# Elastic Constant Matrix: (Units=GPa)
#
#
# Indices 1 2 3 4 5 6 
#
# 1 114.3352 16.3267 38.6783 0.0000 -7.9792 0.0000
# 2 16.3267 47.4220 29.5326 0.0000 -0.0852 0.0000
# 3 38.6783 29.5326 121.7074 0.0000 -3.1263 0.0000
# 4 0.0000 0.0000 0.0000 25.2177 0.0000 -2.4165
# 5 -7.9792 -0.0852 -3.1263 0.0000 14.6825 0.0000
# 6 0.0000 0.0000 0.0000 -2.4165 0.0000 30.4822
#
#
#
# Elastic Compliance Matrix: (Units=1/GPa)
#
#
# Indices 1 2 3 4 5 6 
#
# 1 0.010268 -0.001854 -0.002685 0.000000 0.004998 0.000000
# 2 -0.001854 0.025195 -0.005577 0.000000 -0.002049 0.000000
# 3 -0.002685 -0.005577 0.010442 0.000000 0.000732 0.000000
# 4 0.000000 0.000000 0.000000 0.039958 0.000000 0.003168
# 5 0.004998 -0.002049 0.000732 0.000000 0.070968 0.000000
# 6 0.000000 0.000000 0.000000 0.003168 0.000000 0.033057
#
#
# Mechanical properties :
#
#
# Convention : Reuss Voigt Hill
#
# Bulk Modulus (GPa) = 38.95174 50.28221 44.61697
# Shear Modulus (GPa) = 22.86467 27.33829 25.10148
#
# Velocity S-wave (km/s) = 3.51265 3.84094 3.68046
# Velocity P-wave (km/s) = 6.12140 6.84140 6.49139
#
# Compressibility (1/GPa) = 0.02567279
#
# Stress axis : x y z
#
# Youngs Moduli (GPa) = 97.38983 39.69025 95.76936
#
# Poissons Ratio (x) = 0.07359 0.25713
# Poissons Ratio (y) = 0.18057 0.53411
# Poissons Ratio (z) = 0.26148 0.22135
#
# Static dielectric constant tensor:
#      x y z
#    x 3.473400 0.000000 -0.023250 
#    y 0.000000 3.339830 0.000000 
#    z -0.023250 0.000000 3.553130 
# 
# 
# High freq. dielectric constant tensor:
#      x y z
#    x 1.722070 0.000000 -0.002780 
#    y 0.000000 1.716980 0.000000 
#    z -0.002780 0.000000 1.724030 
# 
# From -- ./inp_files/359874.got.cif
#   From: 2010.06.25/outbox.cif.g09.slc.cpg/sg12_180_cif.got.tgz:359874.got - 2010.06.28 00:19:55.
