data_PCOD8097727
_publ_section_title
;
Structure prediction by ZEFSAII (Michael W. Deem and Ramdas Pophale) SiO2 
 PCOD8097727
Probable space group: C 2/M
;
_chemical_formula_sum "Si O2"
_cell_formula_units_Z 56
_cell_length_a 29.514536
_cell_length_b 8.968632
_cell_length_c 17.429071
_cell_angle_alpha 90.000000
_cell_angle_beta 35.936701
_cell_angle_gamma 90.000000
_cell_volume 2707.658792
_symmetry_space_group_name_H-M "C 2/M"
_symmetry_group_IT_number 12
_symmetry_cell_setting 'monoclinic'
loop_
_space_group_symop_operation_xyz
x,y,z
-x,y,-z
-x,-y,-z
x,-y,z
1/2+x,1/2+y,z
1/2-x,1/2+y,-z
1/2-x,1/2-y,-z
1/2+x,1/2-y,z
loop_
_atom_site_type_symbol
_atom_site_label
_atom_site_fract_x
_atom_site_fract_y
_atom_site_fract_z
Si Si1 0.145037 0.674445 0.578155
Si Si2 0.586406 0.672469 0.514564
Si Si3 0.909452 0.827410 0.753444
Si Si4 0.179739 0.167899 0.675103
Si Si5 0.066039 0.169793 0.961559
Si Si6 0.815049 0.323243 0.751445
Si Si7 0.140025 0.177293 0.010708
O O1 0.129201 0.500000 0.592838
O O2 0.090276 0.760513 0.594513
O O3 0.129252 0.729811 0.686586
O O4 0.232536 0.721875 0.438308
O O5 0.609393 0.500000 0.484779
O O6 0.498463 0.693544 0.607773
O O7 0.644771 0.756026 0.378482
O O8 0.858855 0.726681 0.767573
O O9 0.884864 0.000000 0.778328
O O10 0.893384 0.770554 0.861922
O O11 0.146340 0.177861 0.805982
O O12 0.176520 0.000000 0.647047
O O13 0.083813 0.243324 0.020437
O O14 0.038292 0.000000 0.013049
O O15 0.000000 0.250815 0.000000
O O16 0.818784 0.500000 0.739236
O O17 0.727260 0.264538 0.878688
O O18 0.140041 0.000000 0.003884
#
# Coordination Sequence:
#
# PCOD8097727 Si02
#       7
#     8   8   8   8   8   8   8
#     4  10  20  34  54  80 112 150 189 235 284 337
#     4  11  23  37  58  86 116 150 191 237 287 341
#     4  10  22  39  60  85 116 149 192 244 286 336
#     4   9  18  33  53  80 111 146 191 235 279 333
#     4   9  17  29  53  83 110 141 185 233 274 323
#     4  11  22  38  61  85 116 152 189 236 292 351
#     4   9  19  36  57  85 116 150 191 238 288 336
#
# _framework density 20.682075999999999
#
# number of rings (size 3 to 8) (size 9 to 14) (size 15 to 20)
#    0.000    2.143    0.000    3.000    2.000    5.714 
#    0.000    0.714    0.000    1.286    0.000    0.000 
#    0.000    0.000    0.000    0.000    0.000    0.000 
#
# Total GULP energy -347175.101523 kJ/mol
# GULP energy per Si atom -12399.110769 kJ/mol
# Density = 2.063500 g / cm^3
# Si number density = 20.682076 Si / 1000 Ang^3
#
#
#
# Elastic Constant Matrix: (Units=GPa)
#
#
# Indices 1 2 3 4 5 6 
#
# 1 117.4831 34.0128 7.0095 -0.0025 5.3828 -0.0002
# 2 34.0128 64.9304 16.7228 -0.0206 -0.5253 0.0123
# 3 7.0095 16.7228 60.0210 -0.0106 4.5729 0.0059
# 4 -0.0025 -0.0206 -0.0106 22.1304 -0.0009 3.3184
# 5 5.3828 -0.5253 4.5729 -0.0009 31.9133 0.0003
# 6 -0.0002 0.0123 0.0059 3.3184 0.0003 31.6898
#
#
#
# Elastic Compliance Matrix: (Units=1/GPa)
#
#
# Indices 1 2 3 4 5 6 
#
# 1 0.010148 -0.005454 0.000477 -0.000004 -0.001870 0.000003
# 2 -0.005454 0.019551 -0.004959 0.000017 0.001952 -0.000008
# 3 0.000477 -0.004959 0.018198 0.000004 -0.002770 -0.000002
# 4 -0.000004 0.000017 0.000004 0.045908 0.000002 -0.004807
# 5 -0.001870 0.001952 -0.002770 0.000002 0.032079 -0.000001
# 6 0.000003 -0.000008 -0.000002 -0.004807 -0.000001 0.032059
#
#
# Mechanical properties :
#
#
# Convention : Reuss Voigt Hill
#
# Bulk Modulus (GPa) = 35.68266 39.76942 37.72604
# Shear Modulus (GPa) = 26.71558 29.45932 28.08745
#
# Velocity S-wave (km/s) = 3.59796 3.77820 3.68918
# Velocity P-wave (km/s) = 5.87799 6.18900 6.03550
#
# Compressibility (1/GPa) = 0.02802481
#
# Stress axis : x y z
#
# Youngs Moduli (GPa) = 98.54131 51.14826 54.95158
#
# Poissons Ratio (x) = 0.27895 -0.02620
# Poissons Ratio (y) = 0.53743 0.27251
# Poissons Ratio (z) = -0.04699 0.25365
#
# Static dielectric constant tensor:
#      x y z
#    x 3.952460 -0.000010 0.031560 
#    y -0.000010 3.408920 0.000020 
#    z 0.031560 0.000020 3.763190 
# 
# 
# High freq. dielectric constant tensor:
#      x y z
#    x 1.825240 0.000000 0.003390 
#    y 0.000000 1.771430 0.000000 
#    z 0.003390 0.000000 1.813350 
# 
# From -- ./inp_files/292363.got.cif
#   From: 2010.06.25/outbox.cif.g09.slc.cpg/sg12_147_cif.got.tgz:292363.got - 2010.06.28 00:19:55.
