data_PCOD8097844
_publ_section_title
;
Structure prediction by ZEFSAII (Michael W. Deem and Ramdas Pophale) SiO2 
 PCOD8097844
Probable space group: C 2/M
;
_chemical_formula_sum "Si O2"
_cell_formula_units_Z 40
_cell_length_a 11.199139
_cell_length_b 28.541851
_cell_length_c 8.270097
_cell_angle_alpha 90.000000
_cell_angle_beta 52.155865
_cell_angle_gamma 90.000000
_cell_volume 2087.516765
_symmetry_space_group_name_H-M "C 2/M"
_symmetry_group_IT_number 12
_symmetry_cell_setting 'monoclinic'
loop_
_space_group_symop_operation_xyz
x,y,z
-x,y,-z
-x,-y,-z
x,-y,z
1/2+x,1/2+y,z
1/2-x,1/2+y,-z
1/2-x,1/2-y,-z
1/2+x,1/2-y,z
loop_
_atom_site_type_symbol
_atom_site_label
_atom_site_fract_x
_atom_site_fract_y
_atom_site_fract_z
Si Si1 0.611024 0.312053 0.049930
Si Si2 0.074669 0.635671 0.764719
Si Si3 0.058160 0.279764 0.282851
Si Si4 0.897981 0.449065 0.927092
Si Si5 0.646544 0.391658 0.285983
O O1 0.553271 0.261884 0.158974
O O2 0.608234 0.349107 0.197725
O O3 0.500000 0.329645 0.000000
O O4 0.779675 0.305248 0.841109
O O5 0.249615 0.625348 0.650900
O O6 0.064800 0.681224 0.663026
O O7 0.983774 0.591878 0.754216
O O8 0.000000 0.646674 0.000000
O O9 0.000000 0.258986 0.500000
O O10 0.888636 0.500000 0.845854
O O11 0.728331 0.433003 0.116751
O O12 0.000000 0.454816 0.000000
O O13 0.500000 0.411541 0.500000
#
# Coordination Sequence:
#
# PCOD8097844 Si02
#       5
#     8   8   8   8   8
#     4  11  24  37  52  78 112 141 177 221 266 313
#     4   9  17  36  56  76 107 142 177 220 258 317
#     4  11  23  37  56  78 104 145 182 216 262 313
#     4   8  15  31  56  81 105 137 174 219 268 312
#     4  10  20  34  54  83 110 140 175 223 267 308
#
# _framework density 19.161522000000001
#
# number of rings (size 3 to 8) (size 9 to 14) (size 15 to 20)
#    0.000    2.600    4.000    1.200    5.600    1.200 
#    0.000    0.000    0.000    1.200    0.000    0.000 
#    0.000    0.000    0.000    0.000    0.000    0.000 
#
# Total GULP energy -247829.122649 kJ/mol
# GULP energy per Si atom -12391.456132 kJ/mol
# Density = 1.911791 g / cm^3
# Si number density = 19.161522 Si / 1000 Ang^3
#
#
#
# Elastic Constant Matrix: (Units=GPa)
#
#
# Indices 1 2 3 4 5 6 
#
# 1 81.0178 31.8907 29.3081 0.0000 -16.5509 0.0000
# 2 31.8907 115.9823 11.4738 0.0000 1.1202 0.0000
# 3 29.3081 11.4738 63.5670 0.0000 -11.1434 0.0000
# 4 0.0000 0.0000 0.0000 10.2212 0.0000 -4.1699
# 5 -16.5509 1.1202 -11.1434 0.0000 20.4995 0.0000
# 6 0.0000 0.0000 0.0000 -4.1699 0.0000 2.1452
#
#
#
# Elastic Compliance Matrix: (Units=1/GPa)
#
#
# Indices 1 2 3 4 5 6 
#
# 1 0.018760 -0.004720 -0.005634 0.000000 0.012342 0.000000
# 2 -0.004720 0.010007 -0.000435 0.000000 -0.004595 0.000000
# 3 -0.005634 -0.000435 0.019470 0.000000 0.006059 0.000000
# 4 0.000000 0.000000 0.000000 0.472672 0.000000 0.918802
# 5 0.012342 -0.004595 0.006059 0.000000 0.062291 0.000000
# 6 0.000000 0.000000 0.000000 0.918802 0.000000 2.252177
#
#
# Mechanical properties :
#
#
# Convention : Reuss Voigt Hill
#
# Bulk Modulus (GPa) = 37.51221 45.10135 41.30678
# Shear Modulus (GPa) = 1.74469 19.09947 10.42208
#
# Velocity S-wave (km/s) = 0.95524 3.16058 2.33471
# Velocity P-wave (km/s) = 4.56465 6.07516 5.37325
#
# Compressibility (1/GPa) = 0.02665798
#
# Stress axis : x y z
#
# Youngs Moduli (GPa) = 53.30375 99.92657 51.36179
#
# Poissons Ratio (x) = 0.47168 0.28938
# Poissons Ratio (y) = 0.25161 0.02237
# Poissons Ratio (z) = 0.30032 0.04351
#
# Static dielectric constant tensor:
#      x y z
#    x 3.516160 0.000000 -0.269590 
#    y 0.000000 4.129700 0.000000 
#    z -0.269590 0.000000 3.202640 
# 
# 
# High freq. dielectric constant tensor:
#      x y z
#    x 1.731600 0.000000 -0.024430 
#    y 0.000000 1.744100 0.000000 
#    z -0.024430 0.000000 1.718410 
# 
# From -- ./inp_files/53662.got.cif
#   From: 2010.06.25/outbox.cif.g09.slc.cpg/sg12_27_cif.got.tgz:53662.got - 2010.06.28 00:19:55.
