data_PCOD8097609
_publ_section_title
;
Structure prediction by ZEFSAII (Michael W. Deem and Ramdas Pophale) SiO2 
 PCOD8097609
Probable space group: C 2/M
;
_chemical_formula_sum "Si O2"
_cell_formula_units_Z 56
_cell_length_a 13.087252
_cell_length_b 13.254586
_cell_length_c 26.025792
_cell_angle_alpha 90.000000
_cell_angle_beta 140.125616
_cell_angle_gamma 90.000000
_cell_volume 2894.335168
_symmetry_space_group_name_H-M "C 2/M"
_symmetry_group_IT_number 12
_symmetry_cell_setting 'monoclinic'
loop_
_space_group_symop_operation_xyz
x,y,z
-x,y,-z
-x,-y,-z
x,-y,z
1/2+x,1/2+y,z
1/2-x,1/2+y,-z
1/2-x,1/2-y,-z
1/2+x,1/2-y,z
loop_
_atom_site_type_symbol
_atom_site_label
_atom_site_fract_x
_atom_site_fract_y
_atom_site_fract_z
Si Si1 0.794418 0.677735 0.971082
Si Si2 0.204922 0.195597 0.408403
Si Si3 0.897608 0.384826 0.573386
Si Si4 0.854320 0.883483 0.283889
Si Si5 0.137256 0.291869 0.115689
Si Si6 0.232613 0.700969 0.685830
Si Si7 0.539696 0.389148 0.148509
O O1 0.795715 0.730871 0.915393
O O2 0.651493 0.596985 0.917262
O O3 0.750000 0.750000 0.000000
O O4 0.975396 0.638707 0.051298
O O5 0.193053 0.311831 0.421815
O O6 0.337490 0.137668 0.492655
O O7 0.263352 0.195448 0.373213
O O8 0.041301 0.135160 0.350741
O O9 0.861598 0.500000 0.574958
O O10 0.085248 0.364355 0.649785
O O11 0.769643 0.851924 0.198279
O O12 0.784044 0.817702 0.303560
O O13 0.821107 0.000000 0.283427
O O14 0.093762 0.183485 0.123133
O O15 0.391300 0.653444 0.771340
O O16 0.608185 0.500000 0.162694
#
# Coordination Sequence:
#
# PCOD8097609 Si02
#       7
#     8   8   8   8   8   8   8
#     4   9  18  34  53  74 104 138 170 210 256 304
#     4  10  21  36  54  78 107 137 173 217 257 303
#     4  10  21  36  54  78 107 139 174 212 259 309
#     4  10  21  36  55  78 104 137 175 213 258 309
#     4   9  19  35  53  75 107 137 168 215 260 303
#     4  10  21  36  54  78 107 136 173 217 258 305
#     4  10  20  34  54  79 104 135 174 213 258 309
#
# _framework density 19.348139
#
# number of rings (size 3 to 8) (size 9 to 14) (size 15 to 20)
#    0.000    2.286    0.000    2.143    0.000    5.714 
#    0.000    7.143    0.000   18.857    0.000    0.000 
#    0.000    0.000    0.000    0.000    0.000    0.000 
#
# Total GULP energy -347044.731523 kJ/mol
# GULP energy per Si atom -12394.454697 kJ/mol
# Density = 1.930410 g / cm^3
# Si number density = 19.348139 Si / 1000 Ang^3
#
#
#
# Elastic Constant Matrix: (Units=GPa)
#
#
# Indices 1 2 3 4 5 6 
#
# 1 45.0391 14.8721 4.9457 0.0000 -2.5623 0.0000
# 2 14.8721 129.0531 17.6607 0.0000 7.3287 0.0000
# 3 4.9457 17.6607 81.2736 0.0000 9.1093 0.0000
# 4 0.0000 0.0000 0.0000 11.8348 0.0000 5.1394
# 5 -2.5623 7.3287 9.1093 0.0000 29.0007 0.0000
# 6 0.0000 0.0000 0.0000 5.1394 0.0000 10.5792
#
#
#
# Elastic Compliance Matrix: (Units=1/GPa)
#
#
# Indices 1 2 3 4 5 6 
#
# 1 0.023407 -0.002713 -0.001185 0.000000 0.003126 0.000000
# 2 -0.002713 0.008366 -0.001440 0.000000 -0.001902 0.000000
# 3 -0.001185 -0.001440 0.013122 0.000000 -0.003863 0.000000
# 4 0.000000 0.000000 0.000000 0.107088 0.000000 -0.052023
# 5 0.003126 -0.001902 -0.003863 0.000000 0.036452 0.000000
# 6 0.000000 0.000000 0.000000 -0.052023 0.000000 0.119797
#
#
# Mechanical properties :
#
#
# Convention : Reuss Voigt Hill
#
# Bulk Modulus (GPa) = 29.22299 36.70251 32.96275
# Shear Modulus (GPa) = 15.13710 24.80877 19.97294
#
# Velocity S-wave (km/s) = 2.80009 3.58471 3.21642
# Velocity P-wave (km/s) = 5.05872 6.01201 5.55584
#
# Compressibility (1/GPa) = 0.03421963
#
# Stress axis : x y z
#
# Youngs Moduli (GPa) = 42.72288 119.52589 76.20767
#
# Poissons Ratio (x) = 0.32424 0.09032
# Poissons Ratio (y) = 0.11589 0.10972
# Poissons Ratio (z) = 0.05064 0.17209
#
# Static dielectric constant tensor:
#      x y z
#    x 3.502740 0.000000 0.203700 
#    y 0.000000 3.365330 0.000000 
#    z 0.203700 0.000000 3.956850 
# 
# 
# High freq. dielectric constant tensor:
#      x y z
#    x 1.744360 0.000000 0.007150 
#    y 0.000000 1.733720 0.000000 
#    z 0.007150 0.000000 1.779280 
# 
# From -- ./inp_files/360839.got.cif
#   From: 2010.06.25/outbox.cif.g09.slc.cpg/sg12_181_cif.got.tgz:360839.got - 2010.06.28 00:19:55.
