data_PCOD8097196
_publ_section_title
;
Structure prediction by ZEFSAII (Michael W. Deem and Ramdas Pophale) SiO2 
 PCOD8097196
Probable space group: C 2/M
;
_chemical_formula_sum "Si O2"
_cell_formula_units_Z 40
_cell_length_a 26.153281
_cell_length_b 13.494500
_cell_length_c 16.494467
_cell_angle_alpha 90.000000
_cell_angle_beta 159.696837
_cell_angle_gamma 90.000000
_cell_volume 2019.923875
_symmetry_space_group_name_H-M "C 2/M"
_symmetry_group_IT_number 12
_symmetry_cell_setting 'monoclinic'
loop_
_space_group_symop_operation_xyz
x,y,z
-x,y,-z
-x,-y,-z
x,-y,z
1/2+x,1/2+y,z
1/2-x,1/2+y,-z
1/2-x,1/2-y,-z
1/2+x,1/2-y,z
loop_
_atom_site_type_symbol
_atom_site_label
_atom_site_fract_x
_atom_site_fract_y
_atom_site_fract_z
Si Si1 0.114432 0.752379 0.018434
Si Si2 0.129056 0.386841 0.633923
Si Si3 0.583668 0.112150 0.378737
Si Si4 0.650194 0.385246 0.334891
Si Si5 0.827146 0.388898 0.758707
O O1 0.039164 0.682111 0.841235
O O2 0.995476 0.819301 0.889232
O O3 0.225667 0.822108 0.134362
O O4 0.209021 0.687087 0.222816
O O5 0.168171 0.500000 0.713945
O O6 0.076506 0.376468 0.463775
O O7 0.000000 0.346865 0.500000
O O8 0.547220 0.000000 0.296484
O O9 0.747621 0.138697 0.590689
O O10 0.602354 0.500000 0.265295
O O11 0.741126 0.354993 0.550448
O O12 0.777863 0.500000 0.710138
O O13 0.000000 0.386560 0.000000
#
# Coordination Sequence:
#
# PCOD8097196 Si02
#       5
#     8   8   8   8   8
#     4  12  21  33  61  84 109 144 188 223 263 328
#     4  10  24  43  57  75 107 146 188 236 283 316
#     4  10  21  36  55  81 113 143 177 222 274 331
#     4  10  21  34  51  85 120 144 175 216 271 331
#     4  10  20  34  52  81 122 152 169 207 271 333
#
# _framework density 19.802727000000001
#
# number of rings (size 3 to 8) (size 9 to 14) (size 15 to 20)
#    0.000    1.600    2.000    3.000    2.800    0.800 
#    0.000    3.000    0.000    2.400    0.000    0.000 
#    0.000    0.000    0.000    0.000    0.000    0.000 
#
# Total GULP energy -248100.133938 kJ/mol
# GULP energy per Si atom -12405.006697 kJ/mol
# Density = 1.975765 g / cm^3
# Si number density = 19.802727 Si / 1000 Ang^3
#
#
#
# Elastic Constant Matrix: (Units=GPa)
#
#
# Indices 1 2 3 4 5 6 
#
# 1 133.1484 59.3870 52.1435 0.0000 17.7243 0.0000
# 2 59.3870 93.0879 35.6011 0.0000 10.1371 0.0000
# 3 52.1435 35.6011 53.5361 0.0000 2.8229 0.0000
# 4 0.0000 0.0000 0.0000 21.4418 0.0000 14.6077
# 5 17.7243 10.1371 2.8229 0.0000 22.6361 0.0000
# 6 0.0000 0.0000 0.0000 14.6077 0.0000 11.2957
#
#
#
# Elastic Compliance Matrix: (Units=1/GPa)
#
#
# Indices 1 2 3 4 5 6 
#
# 1 0.014964 -0.004331 -0.011253 0.000000 -0.008374 0.000000
# 2 -0.004331 0.016318 -0.006469 0.000000 -0.003110 0.000000
# 3 -0.011253 -0.006469 0.033545 0.000000 0.007525 0.000000
# 4 0.000000 0.000000 0.000000 0.392005 0.000000 -0.506944
# 5 -0.008374 -0.003110 0.007525 0.000000 0.051188 -0.000001
# 6 0.000000 0.000000 0.000000 -0.506944 -0.000001 0.744113
#
#
# Mechanical properties :
#
#
# Convention : Reuss Voigt Hill
#
# Bulk Modulus (GPa) = 48.26207 63.78172 56.02190
# Shear Modulus (GPa) = 3.83687 19.91745 11.87716
#
# Velocity S-wave (km/s) = 1.39347 3.17486 2.45169
# Velocity P-wave (km/s) = 5.19744 6.76152 6.03040
#
# Compressibility (1/GPa) = 0.02072021
#
# Stress axis : x y z
#
# Youngs Moduli (GPa) = 66.82903 61.28092 29.81114
#
# Poissons Ratio (x) = 0.26539 0.33546
# Poissons Ratio (y) = 0.28942 0.19286
# Poissons Ratio (z) = 0.75202 0.39646
#
# Static dielectric constant tensor:
#      x y z
#    x 3.421530 0.000000 -0.092270 
#    y 0.000000 4.040920 0.000000 
#    z -0.092270 0.000000 3.474330 
# 
# 
# High freq. dielectric constant tensor:
#      x y z
#    x 1.739880 0.000000 -0.015370 
#    y 0.000000 1.799550 0.000000 
#    z -0.015370 0.000000 1.764030 
# 
# From -- ./inp_files/246652.got.cif
#   From: 2010.06.25/outbox.cif.g09.slc.cpg/sg12_124_cif.got.tgz:246652.got - 2010.06.28 00:19:55.
