data_PCOD8097041
_publ_section_title
;
Structure prediction by ZEFSAII (Michael W. Deem and Ramdas Pophale) SiO2 
 PCOD8097041
Probable space group: C 2/M
;
_chemical_formula_sum "Si O2"
_cell_formula_units_Z 56
_cell_length_a 14.472135
_cell_length_b 9.244365
_cell_length_c 20.520533
_cell_angle_alpha 90.000000
_cell_angle_beta 67.924446
_cell_angle_gamma 90.000000
_cell_volume 2544.089387
_symmetry_space_group_name_H-M "C 2/M"
_symmetry_group_IT_number 12
_symmetry_cell_setting 'monoclinic'
loop_
_space_group_symop_operation_xyz
x,y,z
-x,y,-z
-x,-y,-z
x,-y,z
1/2+x,1/2+y,z
1/2-x,1/2+y,-z
1/2-x,1/2-y,-z
1/2+x,1/2-y,z
loop_
_atom_site_type_symbol
_atom_site_label
_atom_site_fract_x
_atom_site_fract_y
_atom_site_fract_z
Si Si1 0.521428 0.668587 0.921614
Si Si2 0.313644 0.345038 0.529408
Si Si3 0.069160 0.660766 0.417370
Si Si4 0.565052 0.340448 0.623475
Si Si5 0.067579 0.668327 0.170518
Si Si6 0.354462 0.170236 0.287831
Si Si7 0.733723 0.669323 0.806278
O O1 0.498815 0.500000 0.920228
O O2 0.443801 0.749017 0.894788
O O3 0.636873 0.703965 0.875715
O O4 0.500000 0.723832 0.000000
O O5 0.263637 0.500000 0.560237
O O6 0.250000 0.250000 0.500000
O O7 0.337520 0.263778 0.590348
O O8 0.409895 0.372123 0.458717
O O9 0.106269 0.500000 0.389466
O O10 0.000000 0.650847 0.500000
O O11 0.025875 0.727342 0.361419
O O12 0.540805 0.500000 0.661505
O O13 0.652760 0.255097 0.640465
O O14 0.076094 0.500000 0.152007
O O15 0.166934 0.721468 0.181997
O O16 0.969274 0.703586 0.238575
O O17 0.276770 0.239793 0.257684
O O18 0.333048 0.000000 0.299804
O O19 0.740237 0.500000 0.787172
#
# Coordination Sequence:
#
# PCOD8097041 Si02
#       7
#     8   8   8   8   8   8   8
#     4   9  18  32  52  80 111 142 177 217 262 313
#     4  10  20  34  52  75 103 133 166 207 258 316
#     4   9  17  31  52  74  97 128 163 203 251 304
#     4  10  20  35  54  75 100 133 169 209 260 318
#     4   9  19  35  54  76 104 141 180 219 265 312
#     4  10  20  35  54  77 103 135 179 227 266 312
#     4   9  18  35  55  74 105 145 178 217 267 317
#
# _framework density 22.011806
#
# number of rings (size 3 to 8) (size 9 to 14) (size 15 to 20)
#    0.000    2.571    0.000    1.714    0.000    5.429 
#    2.571    0.000    0.000    0.000    0.000    0.000 
#    0.000    0.000    0.000    0.000    0.000    0.000 
#
# Total GULP energy -346953.442286 kJ/mol
# GULP energy per Si atom -12391.194367 kJ/mol
# Density = 2.196171 g / cm^3
# Si number density = 22.011806 Si / 1000 Ang^3
#
#
#
# Elastic Constant Matrix: (Units=GPa)
#
#
# Indices 1 2 3 4 5 6 
#
# 1 118.3089 45.9175 33.5319 0.0000 45.1011 0.0000
# 2 45.9175 151.7359 20.6367 0.0000 37.0292 0.0000
# 3 33.5319 20.6367 96.1795 0.0000 27.2324 0.0000
# 4 0.0000 0.0000 0.0000 28.0865 0.0000 17.2820
# 5 45.1011 37.0292 27.2324 0.0000 39.1274 0.0000
# 6 0.0000 0.0000 0.0000 17.2820 0.0000 36.2513
#
#
#
# Elastic Compliance Matrix: (Units=1/GPa)
#
#
# Indices 1 2 3 4 5 6 
#
# 1 0.015114 -0.000439 -0.000448 0.000000 -0.016694 0.000000
# 2 -0.000439 0.008607 0.000585 0.000000 -0.008047 0.000000
# 3 -0.000448 0.000585 0.013000 0.000000 -0.009085 0.000000
# 4 0.000000 0.000000 0.000000 0.050384 0.000000 -0.024019
# 5 -0.016694 -0.008047 -0.009085 0.000000 0.058739 0.000000
# 6 0.000000 0.000000 0.000000 -0.024019 0.000000 0.039036
#
#
# Mechanical properties :
#
#
# Convention : Reuss Voigt Hill
#
# Bulk Modulus (GPa) = 27.68813 62.93294 45.31053
# Shear Modulus (GPa) = 25.31340 38.43557 31.87449
#
# Velocity S-wave (km/s) = 3.39483 4.18321 3.80947
# Velocity P-wave (km/s) = 5.28891 7.21006 6.32288
#
# Compressibility (1/GPa) = 0.03611656
#
# Stress axis : x y z
#
# Youngs Moduli (GPa) = 66.16471 116.17874 76.92107
#
# Poissons Ratio (x) = 0.05097 0.03449
# Poissons Ratio (y) = 0.02903 -0.04496
# Poissons Ratio (z) = 0.02966 -0.06791
#
# Static dielectric constant tensor:
#      x y z
#    x 3.992130 0.000000 -0.240200 
#    y 0.000000 3.994830 0.000000 
#    z -0.240200 0.000000 4.663170 
# 
# 
# High freq. dielectric constant tensor:
#      x y z
#    x 1.863700 0.000000 0.014570 
#    y 0.000000 1.874190 0.000000 
#    z 0.014570 0.000000 1.849830 
# 
# From -- ./inp_files/309044.got.cif
#   From: 2010.06.25/outbox.cif.g09.slc.cpg/sg12_155_cif.got.tgz:309044.got - 2010.06.28 00:19:55.
