data_PCOD8097911
_publ_section_title
;
Structure prediction by ZEFSAII (Michael W. Deem and Ramdas Pophale) SiO2 
 PCOD8097911
Probable space group: C 2/M
;
_chemical_formula_sum "Si O2"
_cell_formula_units_Z 48
_cell_length_a 8.689149
_cell_length_b 12.823929
_cell_length_c 24.626095
_cell_angle_alpha 90.000000
_cell_angle_beta 63.496188
_cell_angle_gamma 90.000000
_cell_volume 2455.673795
_symmetry_space_group_name_H-M "C 2/M"
_symmetry_group_IT_number 12
_symmetry_cell_setting 'monoclinic'
loop_
_space_group_symop_operation_xyz
x,y,z
-x,y,-z
-x,-y,-z
x,-y,z
1/2+x,1/2+y,z
1/2-x,1/2+y,-z
1/2-x,1/2-y,-z
1/2+x,1/2-y,z
loop_
_atom_site_type_symbol
_atom_site_label
_atom_site_fract_x
_atom_site_fract_y
_atom_site_fract_z
Si Si1 0.140529 0.883945 0.020731
Si Si2 0.238813 0.752658 0.182842
Si Si3 0.236252 0.619726 0.393485
Si Si4 0.435624 0.710466 0.455955
Si Si5 0.403617 0.807321 0.902174
Si Si6 0.402896 0.620828 0.251286
O O1 0.135448 0.812772 0.074577
O O2 0.098652 0.000000 0.046835
O O3 0.325347 0.881921 0.960841
O O4 0.000000 0.841941 0.000000
O O5 0.393901 0.825956 0.136906
O O6 0.183360 0.676067 0.142648
O O7 0.293228 0.677434 0.222620
O O8 0.090381 0.828815 0.226588
O O9 0.176931 0.500000 0.411846
O O10 0.401014 0.642078 0.407503
O O11 0.304546 0.637809 0.322686
O O12 0.070435 0.694319 0.426324
O O13 0.500000 0.646892 0.500000
O O14 0.250000 0.750000 0.500000
O O15 0.421865 0.500000 0.233540
#
# Coordination Sequence:
#
# PCOD8097911 Si02
#       6
#     8   8   8   8   8   8
#     4  10  20  34  55  78 105 141 178 218 280 348
#     4  10  21  37  58  80 113 144 182 241 279 326
#     4  10  20  37  59  82 116 154 190 233 278 327
#     4   9  19  34  56  87 118 150 189 228 273 330
#     4  10  20  36  54  80 108 138 176 227 280 335
#     4  10  22  39  60  84 110 150 193 231 281 331
#
# _framework density 19.546569999999999
#
# number of rings (size 3 to 8) (size 9 to 14) (size 15 to 20)
#    0.000    2.167    1.667    1.000    0.000    7.333 
#    0.000    5.833    0.000   18.000    0.000    0.000 
#    0.000    0.000    0.000    0.000    0.000    0.000 
#
# Total GULP energy -297408.924299 kJ/mol
# GULP energy per Si atom -12392.038512 kJ/mol
# Density = 1.950208 g / cm^3
# Si number density = 19.546570 Si / 1000 Ang^3
#
#
#
# Elastic Constant Matrix: (Units=GPa)
#
#
# Indices 1 2 3 4 5 6 
#
# 1 116.3272 45.4353 43.0565 0.0000 -9.3744 0.0000
# 2 45.4353 92.4602 44.5747 0.0000 1.3185 0.0000
# 3 43.0565 44.5747 88.8335 0.0000 -6.7514 0.0000
# 4 0.0000 0.0000 0.0000 4.4449 0.0000 -0.7363
# 5 -9.3744 1.3185 -6.7514 0.0000 23.2875 0.0000
# 6 0.0000 0.0000 0.0000 -0.7363 0.0000 25.8641
#
#
#
# Elastic Compliance Matrix: (Units=1/GPa)
#
#
# Indices 1 2 3 4 5 6 
#
# 1 0.011804 -0.004285 -0.003264 0.000000 0.004048 0.000000
# 2 -0.004285 0.016023 -0.006302 0.000000 -0.004459 0.000000
# 3 -0.003264 -0.006302 0.016287 0.000000 0.003765 0.000000
# 4 0.000000 0.000000 0.000000 0.226044 0.000000 0.006435
# 5 0.004048 -0.004459 0.003765 0.000000 0.045915 0.000000
# 6 0.000000 0.000000 0.000000 0.006435 0.000000 0.038847
#
#
# Mechanical properties :
#
#
# Convention : Reuss Voigt Hill
#
# Bulk Modulus (GPa) = 60.92653 62.63932 61.78292
# Shear Modulus (GPa) = 12.88354 21.68959 17.28657
#
# Velocity S-wave (km/s) = 2.57012 3.33473 2.97708
# Velocity P-wave (km/s) = 6.32811 6.85150 6.59500
#
# Compressibility (1/GPa) = 0.01641321
#
# Stress axis : x y z
#
# Youngs Moduli (GPa) = 84.71490 62.41082 61.39814
#
# Poissons Ratio (x) = 0.26743 0.20038
# Poissons Ratio (y) = 0.36301 0.38693
# Poissons Ratio (z) = 0.27648 0.39331
#
# Static dielectric constant tensor:
#      x y z
#    x 4.085510 0.000000 0.370240 
#    y 0.000000 3.608460 0.000000 
#    z 0.370240 0.000000 4.186740 
# 
# 
# High freq. dielectric constant tensor:
#      x y z
#    x 1.773690 0.000000 0.002980 
#    y 0.000000 1.732480 0.000000 
#    z 0.002980 0.000000 1.778580 
# 
# From -- ./inp_files/299778.got.cif
#   From: 2010.06.25/outbox.cif.g09.slc.cpg/sg12_150_cif.got.tgz:299778.got - 2010.06.28 00:19:55.
