data_PCOD8097299
_publ_section_title
;
Structure prediction by ZEFSAII (Michael W. Deem and Ramdas Pophale) SiO2 
 PCOD8097299
Probable space group: C 2/M
;
_chemical_formula_sum "Si O2"
_cell_formula_units_Z 32
_cell_length_a 18.518086
_cell_length_b 8.789416
_cell_length_c 11.353279
_cell_angle_alpha 90.000000
_cell_angle_beta 114.470390
_cell_angle_gamma 90.000000
_cell_volume 1681.909210
_symmetry_space_group_name_H-M "C 2/M"
_symmetry_group_IT_number 12
_symmetry_cell_setting 'monoclinic'
loop_
_space_group_symop_operation_xyz
x,y,z
-x,y,-z
-x,-y,-z
x,-y,z
1/2+x,1/2+y,z
1/2-x,1/2+y,-z
1/2-x,1/2-y,-z
1/2+x,1/2-y,z
loop_
_atom_site_type_symbol
_atom_site_label
_atom_site_fract_x
_atom_site_fract_y
_atom_site_fract_z
Si Si1 0.266497 0.179891 0.885310
Si Si2 0.955707 0.180764 0.644211
Si Si3 0.116813 0.819315 0.642545
Si Si4 0.081435 0.823200 0.122806
O O1 0.199633 0.242674 0.749517
O O2 0.351968 0.227882 0.897679
O O3 0.261765 0.000000 0.893228
O O4 0.250000 0.250000 0.000000
O O5 0.894859 0.235473 0.500763
O O6 0.927250 0.243779 0.750882
O O7 0.043925 0.242188 0.673233
O O8 0.959136 0.000000 0.653493
O O9 0.115178 0.000000 0.644222
O O10 0.105661 0.000000 0.139022
O O11 0.000000 0.797039 0.000000
#
# Coordination Sequence:
#
# PCOD8097299 Si02
#       4
#     8   8   8   8
#     4  11  22  35  52  75 103 134 171 213 256 302
#     4   8  14  28  51  75 100 131 167 205 246 295
#     4   8  15  29  50  75 100 130 168 207 247 295
#     4  10  20  34  53  77 104 135 171 209 251 301
#
# _framework density 19.025997
#
# number of rings (size 3 to 8) (size 9 to 14) (size 15 to 20)
#    0.000    2.750    0.000    3.750    0.000    5.500 
#    0.000    0.000    0.000    1.500    0.000   10.500 
#    0.000    0.000    0.000    0.000    0.000    0.000 
#
# Total GULP energy -198340.500307 kJ/mol
# GULP energy per Si atom -12396.281269 kJ/mol
# Density = 1.898269 g / cm^3
# Si number density = 19.025997 Si / 1000 Ang^3
#
#
#
# Elastic Constant Matrix: (Units=GPa)
#
#
# Indices 1 2 3 4 5 6 
#
# 1 125.7779 30.9236 78.2348 0.0000 -14.4241 0.0000
# 2 30.9236 34.2471 34.1537 0.0000 1.1649 0.0000
# 3 78.2348 34.1537 153.6572 0.0000 -11.4035 0.0000
# 4 0.0000 0.0000 0.0000 15.7094 0.0000 -4.2010
# 5 -14.4241 1.1649 -11.4035 0.0000 42.5465 0.0000
# 6 0.0000 0.0000 0.0000 -4.2010 0.0000 21.6245
#
#
#
# Elastic Compliance Matrix: (Units=1/GPa)
#
#
# Indices 1 2 3 4 5 6 
#
# 1 0.013089 -0.007109 -0.004837 0.000000 0.003336 0.000000
# 2 -0.007109 0.041844 -0.006066 0.000000 -0.005182 0.000000
# 3 -0.004837 -0.006066 0.010417 0.000000 0.001318 0.000000
# 4 0.000000 0.000000 0.000000 0.067144 0.000000 0.013044
# 5 0.003336 -0.005182 0.001318 0.000000 0.025130 0.000000
# 6 0.000000 0.000000 0.000000 0.013044 0.000000 0.048778
#
#
# Mechanical properties :
#
#
# Convention : Reuss Voigt Hill
#
# Bulk Modulus (GPa) = 34.09811 66.70071 50.39941
# Shear Modulus (GPa) = 19.82544 27.33409 23.57977
#
# Velocity S-wave (km/s) = 3.23153 3.79446 3.52425
# Velocity P-wave (km/s) = 5.64664 7.37095 6.56565
#
# Compressibility (1/GPa) = 0.02932714
#
# Stress axis : x y z
#
# Youngs Moduli (GPa) = 76.39770 23.89824 95.99940
#
# Poissons Ratio (x) = 0.16989 0.46433
# Poissons Ratio (y) = 0.54311 0.58231
# Poissons Ratio (z) = 0.36952 0.14496
#
# Static dielectric constant tensor:
#      x y z
#    x 3.620870 0.000000 -0.050420 
#    y 0.000000 2.978410 0.000000 
#    z -0.050420 0.000000 4.012580 
# 
# 
# High freq. dielectric constant tensor:
#      x y z
#    x 1.741990 0.000000 -0.002560 
#    y 0.000000 1.685670 0.000000 
#    z -0.002560 0.000000 1.761050 
# 
# From -- ./inp_files/82450.got.cif
#   From: 2010.06.25/outbox.cif.g09.slc.cpg/sg12_42_cif.got.tgz:82450.got - 2010.06.28 00:19:55.
