data_PCOD8097406
_publ_section_title
;
Structure prediction by ZEFSAII (Michael W. Deem and Ramdas Pophale) SiO2 
 PCOD8097406
Probable space group: C 2/M
;
_chemical_formula_sum "Si O2"
_cell_formula_units_Z 56
_cell_length_a 24.770502
_cell_length_b 8.913706
_cell_length_c 32.113893
_cell_angle_alpha 90.000000
_cell_angle_beta 26.532999
_cell_angle_gamma 90.000000
_cell_volume 3167.486883
_symmetry_space_group_name_H-M "C 2/M"
_symmetry_group_IT_number 12
_symmetry_cell_setting 'monoclinic'
loop_
_space_group_symop_operation_xyz
x,y,z
-x,y,-z
-x,-y,-z
x,-y,z
1/2+x,1/2+y,z
1/2-x,1/2+y,-z
1/2-x,1/2-y,-z
1/2+x,1/2-y,z
loop_
_atom_site_type_symbol
_atom_site_label
_atom_site_fract_x
_atom_site_fract_y
_atom_site_fract_z
Si Si1 0.324889 0.176267 0.771928
Si Si2 0.694539 0.826455 0.118532
Si Si3 0.522193 0.674534 0.778616
Si Si4 0.430687 0.324511 0.395509
Si Si5 0.033262 0.172780 0.088951
Si Si6 0.909628 0.323632 0.098504
Si Si7 0.680657 0.175082 0.606811
O O1 0.303702 0.221008 0.834456
O O2 0.449201 0.248244 0.669367
O O3 0.217524 0.241191 0.818352
O O4 0.330694 0.000000 0.761239
O O5 0.600214 0.726418 0.158892
O O6 0.657931 0.000000 0.138828
O O7 0.824722 0.791897 0.009295
O O8 0.539157 0.500000 0.758134
O O9 0.517354 0.709714 0.830684
O O10 0.638908 0.762319 0.680236
O O11 0.451848 0.500000 0.375151
O O12 0.401207 0.255712 0.371048
O O13 0.322079 0.290108 0.502642
O O14 0.964575 0.281225 0.104945
O O15 0.010813 0.000000 0.091623
O O16 0.888089 0.500000 0.110794
O O17 0.000000 0.267954 0.000000
O O18 0.653034 0.000000 0.622414
#
# Coordination Sequence:
#
# PCOD8097406 Si02
#       7
#     8   8   8   8   8   8   8
#     4  11  21  34  57  82 110 145 178 221 273 322
#     4  10  20  34  53  78 110 147 182 217 266 325
#     4  11  22  34  54  81 111 146 182 225 268 318
#     4  10  20  34  54  80 109 140 179 225 268 319
#     4  10  22  39  55  76 108 148 188 222 268 321
#     4  11  23  37  56  81 107 141 185 230 269 311
#     4  10  20  34  53  78 110 145 177 217 273 326
#
# _framework density 17.679632999999999
#
# number of rings (size 3 to 8) (size 9 to 14) (size 15 to 20)
#    0.000    1.571    2.857    2.571    0.000    4.571 
#    0.000    0.000    0.000    0.857    0.000    6.000 
#    0.000    0.000    0.000    0.000    0.000    0.000 
#
# Total GULP energy -347348.904013 kJ/mol
# GULP energy per Si atom -12405.318000 kJ/mol
# Density = 1.763939 g / cm^3
# Si number density = 17.679633 Si / 1000 Ang^3
#
#
#
# Elastic Constant Matrix: (Units=GPa)
#
#
# Indices 1 2 3 4 5 6 
#
# 1 73.6936 39.6334 44.5559 0.0077 3.9002 -0.0151
# 2 39.6334 80.3126 51.3097 -0.0022 -1.2746 0.0065
# 3 44.5559 51.3097 129.6465 -0.0009 1.3670 0.0057
# 4 0.0077 -0.0022 -0.0009 31.9539 -0.0035 -3.4780
# 5 3.9002 -1.2746 1.3670 -0.0035 23.0276 0.0078
# 6 -0.0151 0.0065 0.0057 -3.4780 0.0078 29.9852
#
#
#
# Elastic Compliance Matrix: (Units=1/GPa)
#
#
# Indices 1 2 3 4 5 6 
#
# 1 0.020168 -0.007503 -0.003924 -0.000004 -0.003598 0.000013
# 2 -0.007503 0.019496 -0.005165 0.000002 0.002657 -0.000007
# 3 -0.003924 -0.005165 0.011109 0.000001 -0.000281 -0.000003
# 4 -0.000004 0.000002 0.000001 0.031695 0.000004 0.003676
# 5 -0.003598 0.002657 -0.000281 0.000004 0.044199 -0.000013
# 6 0.000013 -0.000007 -0.000003 0.003676 -0.000013 0.033776
#
#
# Mechanical properties :
#
#
# Convention : Reuss Voigt Hill
#
# Bulk Modulus (GPa) = 56.85437 61.62786 59.24112
# Shear Modulus (GPa) = 25.06387 26.87025 25.96706
#
# Velocity S-wave (km/s) = 3.76928 3.90274 3.83659
# Velocity P-wave (km/s) = 7.15341 7.43252 7.29430
#
# Compressibility (1/GPa) = 0.01758880
#
# Stress axis : x y z
#
# Youngs Moduli (GPa) = 49.58460 51.29223 90.01696
#
# Poissons Ratio (x) = 0.38484 0.35320
# Poissons Ratio (y) = 0.37202 0.46498
# Poissons Ratio (z) = 0.19456 0.26495
#
# Static dielectric constant tensor:
#      x y z
#    x 3.046690 -0.000010 0.055070 
#    y -0.000010 3.337260 0.000020 
#    z 0.055070 0.000020 3.461200 
# 
# 
# High freq. dielectric constant tensor:
#      x y z
#    x 1.657590 0.000000 -0.001040 
#    y 0.000000 1.696280 0.000000 
#    z -0.001040 0.000000 1.692910 
# 
# From -- ./inp_files/237357.got.cif
#   From: 2010.06.25/outbox.cif.g09.slc.cpg/sg12_119_cif.got.tgz:237357.got - 2010.06.28 00:19:55.
