data_PCOD8097675
_publ_section_title
;
Structure prediction by ZEFSAII (Michael W. Deem and Ramdas Pophale) SiO2 
 PCOD8097675
Probable space group: C 2/M
;
_chemical_formula_sum "Si O2"
_cell_formula_units_Z 64
_cell_length_a 17.900474
_cell_length_b 9.117262
_cell_length_c 26.813354
_cell_angle_alpha 90.000000
_cell_angle_beta 49.130875
_cell_angle_gamma 90.000000
_cell_volume 3309.179539
_symmetry_space_group_name_H-M "C 2/M"
_symmetry_group_IT_number 12
_symmetry_cell_setting 'monoclinic'
loop_
_space_group_symop_operation_xyz
x,y,z
-x,y,-z
-x,-y,-z
x,-y,z
1/2+x,1/2+y,z
1/2-x,1/2+y,-z
1/2-x,1/2-y,-z
1/2+x,1/2-y,z
loop_
_atom_site_type_symbol
_atom_site_label
_atom_site_fract_x
_atom_site_fract_y
_atom_site_fract_z
Si Si1 0.085758 0.330813 0.257099
Si Si2 0.964678 0.330868 0.111182
Si Si3 0.435963 0.170703 0.237578
Si Si4 0.398874 0.667739 0.515032
Si Si5 0.058774 0.828226 0.613677
Si Si6 0.203645 0.172139 0.874544
Si Si7 0.811378 0.671335 0.015792
Si Si8 0.711203 0.672138 0.632275
O O1 0.067535 0.500000 0.276558
O O2 0.201139 0.294784 0.201239
O O3 0.029544 0.285251 0.230743
O O4 0.043199 0.242640 0.322783
O O5 0.932983 0.500000 0.117512
O O6 0.962685 0.285216 0.169785
O O7 0.892318 0.226923 0.112287
O O8 0.073087 0.302676 0.042973
O O9 0.339307 0.259854 0.296661
O O10 0.411083 0.000000 0.253175
O O11 0.500000 0.681610 0.500000
O O12 0.361767 0.500000 0.529026
O O13 0.413696 0.731688 0.452933
O O14 0.319879 0.763743 0.578954
O O15 0.147914 0.784423 0.611281
O O16 0.039629 0.000000 0.620107
O O17 0.219117 0.258510 0.918776
O O18 0.193817 0.000000 0.890582
O O19 0.785017 0.500000 0.027238
O O20 0.750000 0.750000 0.000000
O O21 0.718522 0.500000 0.636781
#
# Coordination Sequence:
#
# PCOD8097675 Si02
#       8
#     8   8   8   8   8   8   8   8
#     4   9  19  36  57  80 107 142 183 225 270 323
#     4  10  22  39  58  82 113 149 187 227 276 334
#     4   9  18  36  59  78 103 142 183 222 268 324
#     4  10  21  36  53  75 105 141 179 218 265 325
#     4   9  19  35  55  79 105 136 179 226 268 318
#     4  11  23  38  57  85 119 151 186 228 276 331
#     4  11  23  40  62  86 113 147 190 236 280 330
#     4  10  20  34  54  80 107 135 174 224 271 318
#
# _framework density 19.340142
#
# number of rings (size 3 to 8) (size 9 to 14) (size 15 to 20)
#    0.000    2.125    0.000    2.625    0.000    8.250 
#    0.000    6.250    0.000    0.000    0.000    0.000 
#    0.000    0.000    0.000    0.000    0.000    0.000 
#
# Total GULP energy -396947.238410 kJ/mol
# GULP energy per Si atom -12404.601200 kJ/mol
# Density = 1.929612 g / cm^3
# Si number density = 19.340142 Si / 1000 Ang^3
#
#
#
# Elastic Constant Matrix: (Units=GPa)
#
#
# Indices 1 2 3 4 5 6 
#
# 1 46.9599 26.6506 6.9985 -0.0001 -11.4738 -0.0002
# 2 26.6506 75.0347 39.4349 -0.0003 -12.4474 -0.0001
# 3 6.9985 39.4349 81.4657 0.0000 -12.6301 0.0000
# 4 -0.0001 -0.0003 0.0000 31.2103 0.0000 -0.2841
# 5 -11.4738 -12.4474 -12.6301 0.0000 26.6154 -0.0001
# 6 -0.0002 -0.0001 0.0000 -0.2841 -0.0001 30.9606
#
#
#
# Elastic Compliance Matrix: (Units=1/GPa)
#
#
# Indices 1 2 3 4 5 6 
#
# 1 0.029263 -0.011095 0.004326 0.000000 0.009479 0.000000
# 2 -0.011095 0.022616 -0.009819 0.000000 0.001135 0.000000
# 3 0.004326 -0.009819 0.017523 0.000000 0.005588 0.000000
# 4 0.000000 0.000000 0.000000 0.032043 0.000000 0.000294
# 5 0.009479 0.001135 0.005588 0.000000 0.044841 0.000000
# 6 0.000000 0.000000 0.000000 0.000294 0.000000 0.032302
#
#
# Mechanical properties :
#
#
# Convention : Reuss Voigt Hill
#
# Bulk Modulus (GPa) = 27.60333 38.84758 33.22545
# Shear Modulus (GPa) = 22.33758 26.44901 24.39330
#
# Velocity S-wave (km/s) = 3.40219 3.70208 3.55530
# Velocity P-wave (km/s) = 5.45314 6.19709 5.83698
#
# Compressibility (1/GPa) = 0.03622752
#
# Stress axis : x y z
#
# Youngs Moduli (GPa) = 34.17342 44.21599 57.06858
#
# Poissons Ratio (x) = 0.49056 -0.24690
# Poissons Ratio (y) = 0.37914 0.56034
# Poissons Ratio (z) = -0.14784 0.43415
#
# Static dielectric constant tensor:
#      x y z
#    x 3.576610 0.000000 0.116100 
#    y 0.000000 3.532350 0.000000 
#    z 0.116100 0.000000 3.682610 
# 
# 
# High freq. dielectric constant tensor:
#      x y z
#    x 1.749280 0.000000 0.001440 
#    y 0.000000 1.751460 0.000000 
#    z 0.001440 0.000000 1.765270 
# 
# From -- ./inp_files/378002.got.cif
#   From: 2010.06.25/outbox.cif.g09.slc.cpg/sg12_190_cif.got.tgz:378002.got - 2010.06.28 00:19:55.
