data_PCOD8097426
_publ_section_title
;
Structure prediction by ZEFSAII (Michael W. Deem and Ramdas Pophale) SiO2 
 PCOD8097426
Probable space group: C 2/M
;
_chemical_formula_sum "Si O2"
_cell_formula_units_Z 48
_cell_length_a 12.051120
_cell_length_b 13.680244
_cell_length_c 16.313282
_cell_angle_alpha 90.000000
_cell_angle_beta 81.785406
_cell_angle_gamma 90.000000
_cell_volume 2661.850520
_symmetry_space_group_name_H-M "C 2/M"
_symmetry_group_IT_number 12
_symmetry_cell_setting 'monoclinic'
loop_
_space_group_symop_operation_xyz
x,y,z
-x,y,-z
-x,-y,-z
x,-y,z
1/2+x,1/2+y,z
1/2-x,1/2+y,-z
1/2-x,1/2-y,-z
1/2+x,1/2-y,z
loop_
_atom_site_type_symbol
_atom_site_label
_atom_site_fract_x
_atom_site_fract_y
_atom_site_fract_z
Si Si1 0.834970 0.886570 0.523073
Si Si2 0.997567 0.888469 0.809933
Si Si3 0.492958 0.307993 0.371835
Si Si4 0.576195 0.108516 0.571711
Si Si5 0.224285 0.111547 0.065543
Si Si6 0.889758 0.777255 0.062816
O O1 0.888506 0.855366 0.431012
O O2 0.703132 0.864687 0.533265
O O3 0.892003 0.825355 0.590454
O O4 0.859922 0.000000 0.536678
O O5 0.873718 0.875242 0.858423
O O6 0.996981 0.856327 0.716803
O O7 0.084835 0.824022 0.851960
O O8 0.036910 0.000000 0.812964
O O9 0.471304 0.191468 0.362359
O O10 0.500000 0.110790 0.500000
O O11 0.570727 0.000000 0.613183
O O12 0.327765 0.175502 0.086272
O O13 0.263725 0.000000 0.054747
O O14 0.186588 0.146675 0.979489
O O15 0.000000 0.753139 0.000000
#
# Coordination Sequence:
#
# PCOD8097426 Si02
#       6
#     8   8   8   8   8   8
#     4  10  20  35  54  76 103 137 178 225 265 312
#     4  10  20  34  53  79 106 136 173 218 265 312
#     4  11  20  33  56  78 105 136 182 222 267 310
#     4  10  21  37  55  75 102 141 183 220 268 321
#     4   9  18  34  56  79 106 140 174 210 259 315
#     4   9  18  34  55  79 106 137 175 214 257 309
#
# _framework density 18.032567
#
# number of rings (size 3 to 8) (size 9 to 14) (size 15 to 20)
#    0.000    2.167    1.667    3.000    0.000    3.667 
#    0.000    2.500    0.000    4.000    0.000    0.000 
#    0.000    0.000    0.000    0.000    0.000    0.000 
#
# Total GULP energy -297603.878893 kJ/mol
# GULP energy per Si atom -12400.161621 kJ/mol
# Density = 1.799152 g / cm^3
# Si number density = 18.032567 Si / 1000 Ang^3
#
#
#
# Elastic Constant Matrix: (Units=GPa)
#
#
# Indices 1 2 3 4 5 6 
#
# 1 105.9822 63.5443 31.0914 0.0000 8.9190 0.0000
# 2 63.5443 147.2357 42.1764 0.0000 -1.7334 0.0000
# 3 31.0914 42.1764 96.9947 0.0000 10.6484 0.0000
# 4 0.0000 0.0000 0.0000 24.3949 0.0000 -2.1540
# 5 8.9190 -1.7334 10.6484 0.0000 9.0812 0.0000
# 6 0.0000 0.0000 0.0000 -2.1540 0.0000 35.8908
#
#
#
# Elastic Compliance Matrix: (Units=1/GPa)
#
#
# Indices 1 2 3 4 5 6 
#
# 1 0.014656 -0.006448 -0.000205 0.000000 -0.015384 0.000000
# 2 -0.006448 0.010915 -0.004136 0.000000 0.013266 0.000000
# 3 -0.000205 -0.004136 0.014047 0.000000 -0.017059 0.000000
# 4 0.000000 0.000000 0.000000 0.041211 0.000000 0.002473
# 5 -0.015384 0.013266 -0.017059 0.000000 0.147762 0.000000
# 6 0.000000 0.000000 0.000000 0.002473 0.000000 0.028011
#
#
# Mechanical properties :
#
#
# Convention : Reuss Voigt Hill
#
# Bulk Modulus (GPa) = 55.43067 69.31521 62.37294
# Shear Modulus (GPa) = 17.59364 28.10009 22.84687
#
# Velocity S-wave (km/s) = 3.12694 3.95181 3.56332
# Velocity P-wave (km/s) = 6.62140 7.70355 7.18289
#
# Compressibility (1/GPa) = 0.01804055
#
# Stress axis : x y z
#
# Youngs Moduli (GPa) = 68.22968 91.61295 71.18995
#
# Poissons Ratio (x) = 0.59069 0.01463
# Poissons Ratio (y) = 0.43992 0.29444
# Poissons Ratio (z) = 0.01402 0.37891
#
# Static dielectric constant tensor:
#      x y z
#    x 3.406330 0.000000 0.023510 
#    y 0.000000 3.760710 0.000000 
#    z 0.023510 0.000000 3.059350 
# 
# 
# High freq. dielectric constant tensor:
#      x y z
#    x 1.701410 0.000000 0.005150 
#    y 0.000000 1.717270 0.000000 
#    z 0.005150 0.000000 1.671960 
# 
# From -- ./inp_files/204393.got.cif
#   From: 2010.06.25/outbox.cif.g09.slc.cpg/sg12_103_cif.got.tgz:204393.got - 2010.06.28 00:19:55.
