data_PCOD8097851
_publ_section_title
;
Structure prediction by ZEFSAII (Michael W. Deem and Ramdas Pophale) SiO2 
 PCOD8097851
Probable space group: C 2/M
;
_chemical_formula_sum "Si O2"
_cell_formula_units_Z 56
_cell_length_a 18.817778
_cell_length_b 17.201291
_cell_length_c 9.783251
_cell_angle_alpha 90.000000
_cell_angle_beta 114.160310
_cell_angle_gamma 90.000000
_cell_volume 2889.346942
_symmetry_space_group_name_H-M "C 2/M"
_symmetry_group_IT_number 12
_symmetry_cell_setting 'monoclinic'
loop_
_space_group_symop_operation_xyz
x,y,z
-x,y,-z
-x,-y,-z
x,-y,z
1/2+x,1/2+y,z
1/2-x,1/2+y,-z
1/2-x,1/2-y,-z
1/2+x,1/2-y,z
loop_
_atom_site_type_symbol
_atom_site_label
_atom_site_fract_x
_atom_site_fract_y
_atom_site_fract_z
Si Si1 0.136953 0.588879 0.749226
Si Si2 0.457559 0.412353 0.608621
Si Si3 0.623800 0.907190 0.433770
Si Si4 0.308531 0.408201 0.891339
Si Si5 0.454689 0.323815 0.096678
Si Si6 0.487690 0.145328 0.142884
Si Si7 0.204306 0.090174 0.426551
O O1 0.154051 0.500000 0.730886
O O2 0.106836 0.620275 0.577731
O O3 0.221384 0.621719 0.860896
O O4 0.075636 0.596945 0.822266
O O5 0.500000 0.407645 0.500000
O O6 0.462224 0.500000 0.672778
O O7 0.500862 0.351906 0.736142
O O8 0.365673 0.388609 0.523671
O O9 0.568324 0.858914 0.289081
O O10 0.711146 0.876358 0.464018
O O11 0.610295 0.000000 0.401961
O O12 0.321825 0.500000 0.929800
O O13 0.323563 0.384094 0.745858
O O14 0.367799 0.358653 0.030300
O O15 0.453102 0.231159 0.100992
O O16 0.500000 0.355072 0.000000
O O17 0.500000 0.110114 0.000000
O O18 0.221851 0.000000 0.433800
#
# Coordination Sequence:
#
# PCOD8097851 Si02
#       7
#     8   8   8   8   8   8   8
#     4   9  19  37  62  86 105 134 187 236 273 329
#     4  10  20  34  54  83 114 141 181 233 279 323
#     4   9  18  36  62  83 102 139 187 231 275 325
#     4   9  17  33  61  88 103 135 189 233 269 316
#     4  11  22  36  56  77 113 156 189 214 260 331
#     4  11  24  37  51  79 119 150 182 222 272 327
#     4   8  15  31  57  84 106 132 176 232 277 317
#
# _framework density 19.381542
#
# number of rings (size 3 to 8) (size 9 to 14) (size 15 to 20)
#    0.000    2.429    1.429    3.000    0.000    4.571 
#    2.571    0.714    0.000    0.000    0.000    0.000 
#    0.000    0.000    0.000    0.000    0.000    0.000 
#
# Total GULP energy -346984.785242 kJ/mol
# GULP energy per Si atom -12392.313759 kJ/mol
# Density = 1.933743 g / cm^3
# Si number density = 19.381542 Si / 1000 Ang^3
#
#
#
# Elastic Constant Matrix: (Units=GPa)
#
#
# Indices 1 2 3 4 5 6 
#
# 1 146.6482 14.1613 59.2322 0.0000 6.2380 0.0000
# 2 14.1613 31.2517 27.1375 0.0000 9.5909 0.0000
# 3 59.2322 27.1375 91.5273 0.0000 11.1306 0.0000
# 4 0.0000 0.0000 0.0000 24.2040 0.0000 -1.7790
# 5 6.2380 9.5909 11.1306 0.0000 33.2056 0.0000
# 6 0.0000 0.0000 0.0000 -1.7790 0.0000 10.1173
#
#
#
# Elastic Compliance Matrix: (Units=1/GPa)
#
#
# Indices 1 2 3 4 5 6 
#
# 1 0.009275 0.001356 -0.006406 0.000000 0.000013 0.000000
# 2 0.001356 0.045729 -0.013342 0.000000 -0.008990 0.000000
# 3 -0.006406 -0.013342 0.019195 0.000000 -0.001377 0.000000
# 4 0.000000 0.000000 0.000000 0.041856 0.000000 0.007360
# 5 0.000013 -0.008990 -0.001377 0.000000 0.033171 0.000000
# 6 0.000000 0.000000 0.000000 0.007360 0.000000 0.100135
#
#
# Mechanical properties :
#
#
# Convention : Reuss Voigt Hill
#
# Bulk Modulus (GPa) = 26.72845 52.27659 39.50252
# Shear Modulus (GPa) = 16.74380 24.76511 20.75446
#
# Velocity S-wave (km/s) = 2.94241 3.57847 3.27591
# Velocity P-wave (km/s) = 5.03630 6.64114 5.89360
#
# Compressibility (1/GPa) = 0.03741332
#
# Stress axis : x y z
#
# Youngs Moduli (GPa) = 107.81742 21.86794 52.09766
#
# Poissons Ratio (x) = -0.02965 0.33373
# Poissons Ratio (y) = -0.14616 0.69511
# Poissons Ratio (z) = 0.69066 0.29177
#
# Static dielectric constant tensor:
#      x y z
#    x 19.193780 0.000000 -8.999430 
#    y 0.000000 3.187620 0.000000 
#    z -8.999430 0.000000 8.778220 
# 
# 
# High freq. dielectric constant tensor:
#      x y z
#    x 1.770830 0.000000 0.011690 
#    y 0.000000 1.719790 0.000000 
#    z 0.011690 0.000000 1.742290 
# 
# From -- ./inp_files/88072.got.cif
#   From: 2010.06.25/outbox.cif.g09.slc.cpg/sg12_45_cif.got.tgz:88072.got - 2010.06.28 00:19:55.
