data_PCOD8097072
_publ_section_title
;
Structure prediction by ZEFSAII (Michael W. Deem and Ramdas Pophale) SiO2 
 PCOD8097072
Probable space group: C 2/M
;
_chemical_formula_sum "Si O2"
_cell_formula_units_Z 56
_cell_length_a 10.140914
_cell_length_b 17.884130
_cell_length_c 21.812636
_cell_angle_alpha 90.000000
_cell_angle_beta 53.195712
_cell_angle_gamma 90.000000
_cell_volume 3167.492510
_symmetry_space_group_name_H-M "C 2/M"
_symmetry_group_IT_number 12
_symmetry_cell_setting 'monoclinic'
loop_
_space_group_symop_operation_xyz
x,y,z
-x,y,-z
-x,-y,-z
x,-y,z
1/2+x,1/2+y,z
1/2-x,1/2+y,-z
1/2-x,1/2-y,-z
1/2+x,1/2-y,z
loop_
_atom_site_type_symbol
_atom_site_label
_atom_site_fract_x
_atom_site_fract_y
_atom_site_fract_z
Si Si1 0.344759 0.822801 0.852394
Si Si2 0.207243 0.915452 0.711352
Si Si3 0.319696 0.589152 0.537415
Si Si4 0.473541 0.317969 0.141517
Si Si5 0.974281 0.415192 0.297982
Si Si6 0.316614 0.089142 0.551234
Si Si7 0.342559 0.417251 0.001782
O O1 0.435550 0.754558 0.859143
O O2 0.179850 0.798301 0.860943
O O3 0.475616 0.862523 0.771861
O O4 0.302081 0.879882 0.918654
O O5 0.086038 0.863804 0.783275
O O6 0.391426 0.913460 0.685941
O O7 0.215213 0.884836 0.639527
O O8 0.138175 0.000000 0.733565
O O9 0.500000 0.621511 0.500000
O O10 0.316921 0.500000 0.536481
O O11 0.271698 0.621158 0.484364
O O12 0.194968 0.615895 0.625417
O O13 0.612340 0.366609 0.068908
O O14 0.953826 0.500000 0.279057
O O15 0.500000 0.122665 0.500000
O O16 0.324958 0.000000 0.549075
O O17 0.285294 0.500000 0.995943
O O18 0.500000 0.426479 0.000000
#
# Coordination Sequence:
#
# PCOD8097072 Si02
#       7
#     8   8   8   8   8   8   8
#     4  10  20  34  53  75 103 136 167 200 245 298
#     4   9  16  28  50  75  96 126 171 215 248 283
#     4   9  16  26  42  69 100 126 157 204 259 301
#     4  10  20  34  52  75 105 136 165 201 245 297
#     4   9  16  29  50  73  97 128 170 212 247 290
#     4   9  14  24  44  69  94 121 161 210 252 292
#     4   9  17  32  57  84 102 124 167 212 244 282
#
# _framework density 17.679599
#
# number of rings (size 3 to 8) (size 9 to 14) (size 15 to 20)
#    0.000    2.714    1.429    1.286    0.000    3.429 
#    2.571    0.000    0.000    5.143    0.000    0.000 
#    0.000    0.000    0.000    0.000    0.000    0.000 
#
# Total GULP energy -347102.368623 kJ/mol
# GULP energy per Si atom -12396.513165 kJ/mol
# Density = 1.763936 g / cm^3
# Si number density = 17.679599 Si / 1000 Ang^3
#
#
#
# Elastic Constant Matrix: (Units=GPa)
#
#
# Indices 1 2 3 4 5 6 
#
# 1 82.4585 42.7592 63.5635 -0.0004 2.1164 0.0003
# 2 42.7592 93.6370 64.8197 -0.0003 2.1898 0.0003
# 3 63.5635 64.8197 169.3880 -0.0005 -0.3658 0.0005
# 4 -0.0004 -0.0003 -0.0005 -50.6377 0.0004 52.1965
# 5 2.1164 2.1898 -0.3658 0.0004 21.7189 -0.0004
# 6 0.0003 0.0003 0.0005 52.1965 -0.0004 -23.7447
#
#
#
# Elastic Compliance Matrix: (Units=1/GPa)
#
#
# Indices 1 2 3 4 5 6 
#
# 1 0.018676 -0.004954 -0.005115 0.000000 -0.001406 0.000000
# 2 -0.004954 0.015895 -0.004226 0.000000 -0.001191 0.000000
# 3 -0.005115 -0.004226 0.009443 0.000000 0.001084 0.000000
# 4 0.000000 0.000000 0.000000 0.015600 0.000000 0.034292
# 5 -0.001406 -0.001191 0.001084 0.000000 0.046318 0.000000
# 6 0.000000 0.000000 0.000000 0.034292 0.000000 0.033268
#
#
# Mechanical properties :
#
#
# Convention : Reuss Voigt Hill
#
# Bulk Modulus (GPa) = 64.84144 76.41870 70.63007
# Shear Modulus (GPa) = 28.91311 1.09005 15.00158
#
# Velocity S-wave (km/s) = 4.04839 0.78607 2.91611
# Velocity P-wave (km/s) = 7.65559 6.64394 7.16764
#
# Compressibility (1/GPa) = 0.01542224
#
# Stress axis : x y z
#
# Youngs Moduli (GPa) = 53.54582 62.91186 105.90219
#
# Poissons Ratio (x) = 0.31168 0.54172
# Poissons Ratio (y) = 0.26528 0.44755
# Poissons Ratio (z) = 0.27390 0.26587
#
# Static dielectric constant tensor:
#      x y z
#    x 3.141240 0.000000 0.009070 
#    y 0.000000 3.052690 0.000000 
#    z 0.009070 0.000000 3.545170 
# 
# 
# High freq. dielectric constant tensor:
#      x y z
#    x 1.655610 0.000000 0.001150 
#    y 0.000000 1.652560 0.000000 
#    z 0.001150 0.000000 1.706180 
# 
# From -- ./inp_files/263960.got.cif
#   From: 2010.06.25/outbox.cif.g09.slc.cpg/sg12_132_cif.got.tgz:263960.got - 2010.06.28 00:19:55.
