data_PCOD8097364
_publ_section_title
;
Structure prediction by ZEFSAII (Michael W. Deem and Ramdas Pophale) SiO2 
 PCOD8097364
Probable space group: C 2/M
;
_chemical_formula_sum "Si O2"
_cell_formula_units_Z 56
_cell_length_a 18.600766
_cell_length_b 9.072376
_cell_length_c 18.303143
_cell_angle_alpha 90.000000
_cell_angle_beta 75.342270
_cell_angle_gamma 90.000000
_cell_volume 2988.189819
_symmetry_space_group_name_H-M "C 2/M"
_symmetry_group_IT_number 12
_symmetry_cell_setting 'monoclinic'
loop_
_space_group_symop_operation_xyz
x,y,z
-x,y,-z
-x,-y,-z
x,-y,z
1/2+x,1/2+y,z
1/2-x,1/2+y,-z
1/2-x,1/2-y,-z
1/2+x,1/2-y,z
loop_
_atom_site_type_symbol
_atom_site_label
_atom_site_fract_x
_atom_site_fract_y
_atom_site_fract_z
Si Si1 0.510787 0.829946 0.266398
Si Si2 0.861772 0.828853 0.270208
Si Si3 0.686451 0.670238 0.559622
Si Si4 0.956106 0.666082 0.438203
Si Si5 0.789194 0.172926 0.136916
Si Si6 0.865373 0.175219 0.853207
Si Si7 0.080090 0.174591 0.002622
O O1 0.437026 0.765314 0.247397
O O2 0.508470 0.811056 0.354466
O O3 0.583410 0.742016 0.223074
O O4 0.518006 0.000000 0.241543
O O5 0.813735 0.788315 0.354344
O O6 0.809927 0.791695 0.215104
O O7 0.885818 0.000000 0.264387
O O8 0.699290 0.500000 0.544238
O O9 0.750000 0.750000 0.500000
O O10 0.608796 0.715777 0.544800
O O11 0.923276 0.500000 0.445909
O O12 0.000000 0.697952 0.500000
O O13 0.717472 0.264629 0.133137
O O14 0.773292 0.000000 0.129301
O O15 0.856984 0.229487 0.069466
O O16 0.898879 0.228133 0.921873
O O17 0.863817 0.000000 0.846765
O O18 0.075413 0.000000 0.000719
O O19 0.000000 0.241793 0.000000
#
# Coordination Sequence:
#
# PCOD8097364 Si02
#       7
#     8   8   8   8   8   8   8
#     4  10  20  35  56  79 104 137 176 217 262 313
#     4   9  19  36  57  78 102 137 178 219 262 310
#     4  10  20  34  53  78 107 138 175 217 262 312
#     4   9  19  36  56  77 103 136 175 219 264 311
#     4  10  20  36  57  79 106 139 176 217 260 307
#     4  11  22  35  53  79 111 141 172 214 261 309
#     4   9  18  34  57  80 102 136 178 215 256 308
#
# _framework density 18.740442000000002
#
# number of rings (size 3 to 8) (size 9 to 14) (size 15 to 20)
#    0.000    2.286    0.000    2.571    0.000    5.429 
#    0.000    6.429    0.000    3.000    0.000    0.000 
#    0.000    0.000    0.000    0.000    0.000    0.000 
#
# Total GULP energy -347251.555361 kJ/mol
# GULP energy per Si atom -12401.841263 kJ/mol
# Density = 1.869779 g / cm^3
# Si number density = 18.740442 Si / 1000 Ang^3
#
#
#
# Elastic Constant Matrix: (Units=GPa)
#
#
# Indices 1 2 3 4 5 6 
#
# 1 142.1530 56.3938 85.1179 0.0000 -3.8793 0.0000
# 2 56.3938 69.2174 49.9031 0.0000 -7.6112 0.0000
# 3 85.1179 49.9031 127.6192 0.0000 -6.8171 0.0000
# 4 0.0000 0.0000 0.0000 24.7900 0.0000 -3.8081
# 5 -3.8793 -7.6112 -6.8171 0.0000 37.1356 0.0000
# 6 0.0000 0.0000 0.0000 -3.8081 0.0000 37.0658
#
#
#
# Elastic Compliance Matrix: (Units=1/GPa)
#
#
# Indices 1 2 3 4 5 6 
#
# 1 0.013442 -0.006359 -0.006537 0.000000 -0.001099 0.000000
# 2 -0.006359 0.023401 -0.004735 0.000000 0.003263 0.000000
# 3 -0.006537 -0.004735 0.014097 0.000000 0.000935 0.000000
# 4 0.000000 0.000000 0.000000 0.040986 0.000000 0.004211
# 5 -0.001099 0.003263 0.000935 0.000000 0.027654 0.000000
# 6 0.000000 0.000000 0.000000 0.004211 0.000000 0.027412
#
#
# Mechanical properties :
#
#
# Convention : Reuss Voigt Hill
#
# Bulk Modulus (GPa) = 63.78659 80.20214 71.99436
# Shear Modulus (GPa) = 26.66962 29.63661 28.15312
#
# Velocity S-wave (km/s) = 3.77650 3.98103 3.88011
# Velocity P-wave (km/s) = 7.28881 8.00129 7.65334
#
# Compressibility (1/GPa) = 0.01567728
#
# Stress axis : x y z
#
# Youngs Moduli (GPa) = 74.39436 42.73395 70.93535
#
# Poissons Ratio (x) = 0.27176 0.46373
# Poissons Ratio (y) = 0.47309 0.33586
# Poissons Ratio (z) = 0.48634 0.20233
#
# Static dielectric constant tensor:
#      x y z
#    x 3.361190 0.000000 0.058020 
#    y 0.000000 3.372060 0.000000 
#    z 0.058020 0.000000 3.602230 
# 
# 
# High freq. dielectric constant tensor:
#      x y z
#    x 1.725680 0.000000 -0.000940 
#    y 0.000000 1.718010 0.000000 
#    z -0.000940 0.000000 1.742530 
# 
# From -- ./inp_files/275173.got.cif
#   From: 2010.06.25/outbox.cif.g09.slc.cpg/sg12_138_cif.got.tgz:275173.got - 2010.06.28 00:19:55.
