data_PCOD8097848
_publ_section_title
;
Structure prediction by ZEFSAII (Michael W. Deem and Ramdas Pophale) SiO2 
 PCOD8097848
Probable space group: C 2/M
;
_chemical_formula_sum "Si O2"
_cell_formula_units_Z 56
_cell_length_a 15.250094
_cell_length_b 8.977363
_cell_length_c 31.710408
_cell_angle_alpha 90.000000
_cell_angle_beta 137.663392
_cell_angle_gamma 90.000000
_cell_volume 2923.822684
_symmetry_space_group_name_H-M "C 2/M"
_symmetry_group_IT_number 12
_symmetry_cell_setting 'monoclinic'
loop_
_space_group_symop_operation_xyz
x,y,z
-x,y,-z
-x,-y,-z
x,-y,z
1/2+x,1/2+y,z
1/2-x,1/2+y,-z
1/2-x,1/2-y,-z
1/2+x,1/2-y,z
loop_
_atom_site_type_symbol
_atom_site_label
_atom_site_fract_x
_atom_site_fract_y
_atom_site_fract_z
Si Si1 0.378087 0.827944 0.864387
Si Si2 0.275198 0.176384 0.121900
Si Si3 0.259907 0.323951 0.349481
Si Si4 0.933902 0.676775 0.791016
Si Si5 0.555984 0.673533 0.441032
Si Si6 0.660648 0.827688 0.002385
Si Si7 0.238340 0.825835 0.429600
O O1 0.268155 0.727839 0.847185
O O2 0.390522 0.765505 0.821410
O O3 0.512189 0.807097 0.936704
O O4 0.334345 0.000000 0.849139
O O5 0.421534 0.235380 0.167157
O O6 0.265298 0.000000 0.113546
O O7 0.179907 0.252250 0.054370
O O8 0.247871 0.500000 0.350332
O O9 0.165782 0.262244 0.279411
O O10 0.405974 0.277365 0.388564
O O11 0.212550 0.250850 0.375900
O O12 0.934827 0.500000 0.791473
O O13 0.573277 0.500000 0.457770
O O14 0.628772 0.764430 0.503208
O O15 0.616208 0.711201 0.416639
O O16 0.699531 0.000000 0.018829
O O17 0.750000 0.750000 0.000000
O O18 0.254873 0.000000 0.428371
#
# Coordination Sequence:
#
# PCOD8097848 Si02
#       7
#     8   8   8   8   8   8   8
#     4  10  21  39  59  81 110 147 186 227 276 333
#     4  11  22  38  58  84 113 145 184 230 280 333
#     4  10  20  36  58  78 104 148 190 220 262 327
#     4   9  20  39  57  76 109 149 185 224 273 324
#     4   9  19  35  55  80 108 143 183 218 264 330
#     4  11  21  36  60  86 113 145 182 229 282 332
#     4  10  20  34  54  83 114 139 172 228 280 316
#
# _framework density 19.153009000000001
#
# number of rings (size 3 to 8) (size 9 to 14) (size 15 to 20)
#    0.000    2.000    1.429    2.143    0.000    6.857 
#    0.000    3.571    0.000    0.000    0.000    0.000 
#    0.000    0.000    0.000    0.000    0.000    0.000 
#
# Total GULP energy -347301.103544 kJ/mol
# GULP energy per Si atom -12403.610841 kJ/mol
# Density = 1.910942 g / cm^3
# Si number density = 19.153009 Si / 1000 Ang^3
#
#
#
# Elastic Constant Matrix: (Units=GPa)
#
#
# Indices 1 2 3 4 5 6 
#
# 1 125.4837 39.8499 65.5062 0.0000 -26.2225 0.0000
# 2 39.8499 59.3518 40.7750 0.0000 -8.2930 0.0000
# 3 65.5062 40.7750 140.5139 0.0000 -22.7967 0.0000
# 4 0.0000 0.0000 0.0000 23.7677 0.0000 -7.3226
# 5 -26.2225 -8.2930 -22.7967 0.0000 21.9581 0.0000
# 6 0.0000 0.0000 0.0000 -7.3226 0.0000 35.2339
#
#
#
# Elastic Compliance Matrix: (Units=1/GPa)
#
#
# Indices 1 2 3 4 5 6 
#
# 1 0.013573 -0.005562 -0.002916 0.000000 0.011082 0.000000
# 2 -0.005562 0.023391 -0.004617 0.000000 -0.002601 0.000000
# 3 -0.002916 -0.004617 0.010785 0.000000 0.005970 0.000000
# 4 0.000000 0.000000 0.000000 0.044952 0.000000 0.009342
# 5 0.011082 -0.002601 0.005970 0.000000 0.063991 0.000000
# 6 0.000000 0.000000 0.000000 0.009342 0.000000 0.030323
#
#
# Mechanical properties :
#
#
# Convention : Reuss Voigt Hill
#
# Bulk Modulus (GPa) = 46.38233 68.62352 57.50293
# Shear Modulus (GPa) = 22.68685 28.13983 25.41334
#
# Velocity S-wave (km/s) = 3.44540 3.83719 3.64656
# Velocity P-wave (km/s) = 6.33222 7.45244 6.91505
#
# Compressibility (1/GPa) = 0.02155993
#
# Stress axis : x y z
#
# Youngs Moduli (GPa) = 73.67373 42.75068 92.72522
#
# Poissons Ratio (x) = 0.23777 0.27039
# Poissons Ratio (y) = 0.40975 0.42811
# Poissons Ratio (z) = 0.21483 0.19738
#
# Static dielectric constant tensor:
#      x y z
#    x 2.314640 0.000000 0.176960 
#    y 0.000000 3.384170 0.000000 
#    z 0.176960 0.000000 3.664760 
# 
# 
# High freq. dielectric constant tensor:
#      x y z
#    x 1.759750 0.000000 -0.006270 
#    y 0.000000 1.730960 0.000000 
#    z -0.006270 0.000000 1.742080 
# 
# From -- ./inp_files/375136.got.cif
#   From: 2010.06.25/outbox.cif.g09.slc.cpg/sg12_188_cif.got.tgz:375136.got - 2010.06.28 00:19:55.
