data_PCOD8097051
_publ_section_title
;
Structure prediction by ZEFSAII (Michael W. Deem and Ramdas Pophale) SiO2 
 PCOD8097051
Probable space group: C 2/M
;
_chemical_formula_sum "Si O2"
_cell_formula_units_Z 48
_cell_length_a 8.943598
_cell_length_b 10.698995
_cell_length_c 26.966978
_cell_angle_alpha 90.000000
_cell_angle_beta 105.341987
_cell_angle_gamma 90.000000
_cell_volume 2488.447203
_symmetry_space_group_name_H-M "C 2/M"
_symmetry_group_IT_number 12
_symmetry_cell_setting 'monoclinic'
loop_
_space_group_symop_operation_xyz
x,y,z
-x,y,-z
-x,-y,-z
x,-y,z
1/2+x,1/2+y,z
1/2-x,1/2+y,-z
1/2-x,1/2-y,-z
1/2+x,1/2-y,z
loop_
_atom_site_type_symbol
_atom_site_label
_atom_site_fract_x
_atom_site_fract_y
_atom_site_fract_z
Si Si1 0.151588 0.861482 0.688132
Si Si2 0.185665 0.142063 0.801893
Si Si3 0.169538 0.785426 0.378209
Si Si4 0.008990 0.360513 0.554968
Si Si5 0.044690 0.638977 0.854695
Si Si6 0.139547 0.361398 0.974601
O O1 0.155145 0.805621 0.743736
O O2 0.271823 0.791349 0.663733
O O3 0.976316 0.867187 0.651867
O O4 0.218429 0.000000 0.696888
O O5 0.112447 0.245305 0.830709
O O6 0.364199 0.136626 0.829552
O O7 0.115775 0.000000 0.802704
O O8 0.314495 0.865742 0.409905
O O9 0.111176 0.700941 0.418109
O O10 0.946636 0.500000 0.543527
O O11 0.000000 0.293642 0.500000
O O12 0.111804 0.500000 0.845897
O O13 0.075645 0.666880 0.914639
O O14 0.220004 0.500000 0.983348
O O15 0.250000 0.250000 0.000000
O O16 0.000000 0.361179 0.000000
#
# Coordination Sequence:
#
# PCOD8097051 Si02
#       6
#     8   8   8   8   8   8
#     4  10  20  35  54  77 104 135 174 216 260 311
#     4  10  21  37  57  80 108 143 180 221 269 320
#     4  10  20  34  53  76 103 135 171 213 260 308
#     4  10  20  34  52  75 103 135 171 211 257 309
#     4  10  21  37  56  81 111 142 179 222 267 318
#     4  10  21  37  57  81 110 143 180 222 267 316
#
# _framework density 19.289138000000001
#
# number of rings (size 3 to 8) (size 9 to 14) (size 15 to 20)
#    0.000    2.000    0.000    3.500    0.000    3.000 
#    0.000    4.167    0.000    8.000    0.000    0.000 
#    0.000    0.000    0.000    0.000    0.000    0.000 
#
# Total GULP energy -297421.766514 kJ/mol
# GULP energy per Si atom -12392.573605 kJ/mol
# Density = 1.924524 g / cm^3
# Si number density = 19.289138 Si / 1000 Ang^3
#
#
#
# Elastic Constant Matrix: (Units=GPa)
#
#
# Indices 1 2 3 4 5 6 
#
# 1 63.5701 37.0884 29.0086 0.0000 -17.1396 0.0000
# 2 37.0884 111.0113 55.6519 0.0000 -23.6711 0.0000
# 3 29.0086 55.6519 140.4148 0.0000 -23.8342 0.0000
# 4 0.0000 0.0000 0.0000 27.9931 0.0000 0.3777
# 5 -17.1396 -23.6711 -23.8342 0.0000 36.8963 0.0000
# 6 0.0000 0.0000 0.0000 0.3777 0.0000 24.6664
#
#
#
# Elastic Compliance Matrix: (Units=1/GPa)
#
#
# Indices 1 2 3 4 5 6 
#
# 1 0.020809 -0.005102 -0.001338 0.000000 0.005528 0.000000
# 2 -0.005102 0.013329 -0.003571 0.000000 0.003874 0.000000
# 3 -0.001338 -0.003571 0.009344 0.000000 0.003123 0.000000
# 4 0.000000 0.000000 0.000000 0.035730 0.000000 -0.000547
# 5 0.005528 0.003874 0.003123 0.000000 0.034174 0.000000
# 6 0.000000 0.000000 0.000000 -0.000547 0.000000 0.040549
#
#
# Mechanical properties :
#
#
# Convention : Reuss Voigt Hill
#
# Bulk Modulus (GPa) = 42.62917 62.05491 52.34204
# Shear Modulus (GPa) = 27.50599 30.79432 29.15016
#
# Velocity S-wave (km/s) = 3.78032 3.99991 3.89166
# Velocity P-wave (km/s) = 6.41891 7.31936 6.88388
#
# Compressibility (1/GPa) = 0.02345812
#
# Stress axis : x y z
#
# Youngs Moduli (GPa) = 48.05663 75.02336 107.02377
#
# Poissons Ratio (x) = 0.38280 0.14322
# Poissons Ratio (y) = 0.24520 0.38220
# Poissons Ratio (z) = 0.06431 0.26792
#
# Static dielectric constant tensor:
#      x y z
#    x 3.344250 0.000000 -0.032330 
#    y 0.000000 3.835040 0.000000 
#    z -0.032330 0.000000 3.839010 
# 
# 
# High freq. dielectric constant tensor:
#      x y z
#    x 1.739860 0.000000 -0.000560 
#    y 0.000000 1.753690 0.000000 
#    z -0.000560 0.000000 1.774310 
# 
# From -- ./inp_files/331989.got.cif
#   From: 2010.06.25/outbox.cif.g09.slc.cpg/sg12_166_cif.got.tgz:331989.got - 2010.06.28 00:19:55.
