data_PCOD8097394
_publ_section_title
;
Structure prediction by ZEFSAII (Michael W. Deem and Ramdas Pophale) SiO2 
 PCOD8097394
Probable space group: C 2/M
;
_chemical_formula_sum "Si O2"
_cell_formula_units_Z 56
_cell_length_a 31.851621
_cell_length_b 8.628030
_cell_length_c 12.032276
_cell_angle_alpha 90.000000
_cell_angle_beta 123.565712
_cell_angle_gamma 90.000000
_cell_volume 2755.290995
_symmetry_space_group_name_H-M "C 2/M"
_symmetry_group_IT_number 12
_symmetry_cell_setting 'monoclinic'
loop_
_space_group_symop_operation_xyz
x,y,z
-x,y,-z
-x,-y,-z
x,-y,z
1/2+x,1/2+y,z
1/2-x,1/2+y,-z
1/2-x,1/2-y,-z
1/2+x,1/2-y,z
loop_
_atom_site_type_symbol
_atom_site_label
_atom_site_fract_x
_atom_site_fract_y
_atom_site_fract_z
Si Si1 0.573937 0.683827 0.362692
Si Si2 0.742019 0.182442 0.366474
Si Si3 0.834608 0.815247 0.357111
Si Si4 0.055768 0.817083 0.095487
Si Si5 0.867199 0.815785 0.167603
Si Si6 0.979048 0.184266 0.353746
Si Si7 0.151292 0.182370 0.102503
O O1 0.577541 0.500000 0.377296
O O2 0.617454 0.753282 0.505512
O O3 0.581331 0.742211 0.247497
O O4 0.518246 0.739524 0.317278
O O5 0.750000 0.250000 0.500000
O O6 0.784400 0.247575 0.343561
O O7 0.688228 0.227760 0.238390
O O8 0.746447 0.000000 0.383516
O O9 0.836872 0.755534 0.232082
O O10 0.835629 0.000000 0.359588
O O11 0.093649 0.773899 0.050965
O O12 0.048814 0.000000 0.092810
O O13 0.000000 0.742011 0.000000
O O14 0.923717 0.745898 0.250795
O O15 0.870604 0.000000 0.174978
O O16 0.840142 0.764107 0.013053
O O17 0.000000 0.249198 0.500000
O O18 0.975209 0.000000 0.351871
O O19 0.160701 0.000000 0.131837
#
# Coordination Sequence:
#
# PCOD8097394 Si02
#       7
#     8   8   8   8   8   8   8
#     4   9  14  21  36  59  92 131 167 205 253 305
#     4  11  23  39  58  77 100 133 176 221 267 314
#     4   9  17  29  46  70  98 132 172 213 256 304
#     4   9  16  26  42  69 104 137 170 210 256 303
#     4   9  16  27  44  71 107 140 169 205 254 312
#     4   9  13  19  35  63 100 137 167 200 250 305
#     4  10  20  34  53  78 109 141 172 212 262 311
#
# _framework density 20.324532000000001
#
# number of rings (size 3 to 8) (size 9 to 14) (size 15 to 20)
#    0.000    2.571    1.429    2.143    0.000    6.286 
#    0.000    0.000    0.000    1.286    0.000    0.000 
#    0.000    0.571    0.000    0.857    0.000    0.000 
#
# Total GULP energy -347010.163736 kJ/mol
# GULP energy per Si atom -12393.220133 kJ/mol
# Density = 2.027827 g / cm^3
# Si number density = 20.324532 Si / 1000 Ang^3
#
#
#
# Elastic Constant Matrix: (Units=GPa)
#
#
# Indices 1 2 3 4 5 6 
#
# 1 138.1290 18.2555 68.4607 0.0000 -14.8593 0.0000
# 2 18.2555 16.6719 15.7078 0.0000 -1.0221 0.0000
# 3 68.4607 15.7078 149.4627 0.0000 -15.5804 0.0000
# 4 0.0000 0.0000 0.0000 15.0465 0.0000 0.5515
# 5 -14.8593 -1.0221 -15.5804 0.0000 41.3542 0.0000
# 6 0.0000 0.0000 0.0000 0.5515 0.0000 11.5072
#
#
#
# Elastic Compliance Matrix: (Units=1/GPa)
#
#
# Indices 1 2 3 4 5 6 
#
# 1 0.010315 -0.007683 -0.003696 0.000000 0.002124 0.000000
# 2 -0.007683 0.072337 -0.004356 0.000000 -0.002614 0.000000
# 3 -0.003696 -0.004356 0.009047 0.000000 0.001973 0.000000
# 4 0.000000 0.000000 0.000000 0.066578 0.000000 -0.003191
# 5 0.002124 -0.002614 0.001973 0.000000 0.025623 0.000000
# 6 0.000000 0.000000 0.000000 -0.003191 0.000000 0.087055
#
#
# Mechanical properties :
#
#
# Convention : Reuss Voigt Hill
#
# Bulk Modulus (GPa) = 16.60279 56.56796 36.58538
# Shear Modulus (GPa) = 15.50378 27.03754 21.27066
#
# Velocity S-wave (km/s) = 2.76490 3.65127 3.23855
# Velocity P-wave (km/s) = 4.28713 6.75785 5.65897
#
# Compressibility (1/GPa) = 0.06023082
#
# Stress axis : x y z
#
# Youngs Moduli (GPa) = 96.94289 13.82410 110.53366
#
# Poissons Ratio (x) = 0.10621 0.40854
# Poissons Ratio (y) = 0.74478 0.48146
# Poissons Ratio (z) = 0.35831 0.06021
#
# Static dielectric constant tensor:
#      x y z
#    x 3.998870 0.000000 -0.145300 
#    y 0.000000 2.846370 0.000000 
#    z -0.145300 0.000000 3.880460 
# 
# 
# High freq. dielectric constant tensor:
#      x y z
#    x 1.807690 0.000000 -0.009230 
#    y 0.000000 1.702190 0.000000 
#    z -0.009230 0.000000 1.806750 
# 
# From -- ./inp_files/182211.got.cif
#   From: 2010.06.25/outbox.cif.g09.slc.cpg/sg12_92_cif.got.tgz:182211.got - 2010.06.28 00:19:55.
