data_PCOD8097732
_publ_section_title
;
Structure prediction by ZEFSAII (Michael W. Deem and Ramdas Pophale) SiO2 
 PCOD8097732
Probable space group: C 2/M
;
_chemical_formula_sum "Si O2"
_cell_formula_units_Z 56
_cell_length_a 27.497759
_cell_length_b 8.644683
_cell_length_c 16.042006
_cell_angle_alpha 90.000000
_cell_angle_beta 131.094747
_cell_angle_gamma 90.000000
_cell_volume 2873.820061
_symmetry_space_group_name_H-M "C 2/M"
_symmetry_group_IT_number 12
_symmetry_cell_setting 'monoclinic'
loop_
_space_group_symop_operation_xyz
x,y,z
-x,y,-z
-x,-y,-z
x,-y,z
1/2+x,1/2+y,z
1/2-x,1/2+y,-z
1/2-x,1/2-y,-z
1/2+x,1/2-y,z
loop_
_atom_site_type_symbol
_atom_site_label
_atom_site_fract_x
_atom_site_fract_y
_atom_site_fract_z
Si Si1 0.117207 0.818628 0.447277
Si Si2 0.646686 0.678713 0.878165
Si Si3 0.247042 0.320042 0.871880
Si Si4 0.835486 0.678334 0.667922
Si Si5 0.011419 0.317755 0.752229
Si Si6 0.471736 0.178830 0.885230
Si Si7 0.229207 0.319094 0.662540
O O1 0.152998 0.778783 0.401253
O O2 0.155507 0.735169 0.565853
O O3 0.043426 0.760028 0.366781
O O4 0.118379 0.000000 0.463710
O O5 0.627404 0.500000 0.853404
O O6 0.690482 0.718808 0.848305
O O7 0.582096 0.778983 0.798790
O O8 0.685165 0.719139 0.006689
O O9 0.229539 0.500000 0.864272
O O10 0.252520 0.274327 0.781430
O O11 0.829806 0.500000 0.633921
O O12 0.894953 0.703102 0.798199
O O13 0.771466 0.729655 0.642362
O O14 0.998954 0.500000 0.736203
O O15 0.003434 0.250333 0.837228
O O16 0.491169 0.000000 0.909386
O O17 0.500000 0.261944 0.000000
O O18 0.236355 0.500000 0.654995
#
# Coordination Sequence:
#
# PCOD8097732 Si02
#       7
#     8   8   8   8   8   8   8
#     4  11  22  38  57  80 112 148 190 233 275 327
#     4  10  20  37  60  85 114 145 183 227 276 334
#     4   9  21  39  58  83 114 147 183 228 280 331
#     4  10  20  34  54  80 113 150 189 227 274 328
#     4  10  20  35  58  82 111 149 184 223 279 335
#     4   8  16  30  48  76 110 142 180 222 261 316
#     4  11  22  37  57  81 113 147 187 233 279 328
#
# _framework density 19.486260000000001
#
# number of rings (size 3 to 8) (size 9 to 14) (size 15 to 20)
#    0.000    2.143    0.000    4.286    2.000    1.714 
#    0.000    0.714    0.000    6.857    0.000    0.000 
#    0.000    0.000    0.000    0.000    0.000    0.000 
#
# Total GULP energy -347241.889696 kJ/mol
# GULP energy per Si atom -12401.496061 kJ/mol
# Density = 1.944191 g / cm^3
# Si number density = 19.486260 Si / 1000 Ang^3
#
#
#
# Elastic Constant Matrix: (Units=GPa)
#
#
# Indices 1 2 3 4 5 6 
#
# 1 70.1888 14.5465 25.3412 0.0000 17.5390 0.0000
# 2 14.5465 51.1335 19.6488 0.0000 0.7166 0.0000
# 3 25.3412 19.6488 81.8831 0.0000 10.0530 0.0000
# 4 0.0000 0.0000 0.0000 26.0948 0.0000 3.0784
# 5 17.5390 0.7166 10.0530 0.0000 24.1243 0.0000
# 6 0.0000 0.0000 0.0000 3.0784 0.0000 28.7175
#
#
#
# Elastic Compliance Matrix: (Units=1/GPa)
#
#
# Indices 1 2 3 4 5 6 
#
# 1 0.019498 -0.004016 -0.003525 0.000000 -0.012587 0.000000
# 2 -0.004016 0.022429 -0.004654 0.000000 0.004193 0.000000
# 3 -0.003525 -0.004654 0.014848 0.000000 -0.003486 0.000000
# 4 0.000000 0.000000 0.000000 0.038813 0.000000 -0.004160
# 5 -0.012587 0.004193 -0.003486 0.000000 0.051931 0.000000
# 6 0.000000 0.000000 0.000000 -0.004160 0.000000 0.035268
#
#
# Mechanical properties :
#
#
# Convention : Reuss Voigt Hill
#
# Bulk Modulus (GPa) = 30.87865 35.80873 33.34369
# Shear Modulus (GPa) = 22.93884 25.36526 24.15205
#
# Velocity S-wave (km/s) = 3.43473 3.61182 3.52439
# Velocity P-wave (km/s) = 5.62233 5.98414 5.80606
#
# Compressibility (1/GPa) = 0.03238483
#
# Stress axis : x y z
#
# Youngs Moduli (GPa) = 51.28855 44.58590 67.34774
#
# Poissons Ratio (x) = 0.17904 0.23741
# Poissons Ratio (y) = 0.20596 0.31343
# Poissons Ratio (z) = 0.18080 0.20750
#
# Static dielectric constant tensor:
#      x y z
#    x 3.333840 0.000000 0.081650 
#    y 0.000000 3.409820 0.000000 
#    z 0.081650 0.000000 3.841740 
# 
# 
# High freq. dielectric constant tensor:
#      x y z
#    x 1.741990 0.000000 0.013280 
#    y 0.000000 1.752740 0.000000 
#    z 0.013280 0.000000 1.766900 
# 
# From -- ./inp_files/239043.got.cif
#   From: 2010.06.25/outbox.cif.g09.slc.cpg/sg12_120_cif.got.tgz:239043.got - 2010.06.28 00:19:55.
