data_PCOD8097662
_publ_section_title
;
Structure prediction by ZEFSAII (Michael W. Deem and Ramdas Pophale) SiO2 
 PCOD8097662
Probable space group: C 2/M
;
_chemical_formula_sum "Si O2"
_cell_formula_units_Z 56
_cell_length_a 32.121361
_cell_length_b 9.114491
_cell_length_c 21.419241
_cell_angle_alpha 90.000000
_cell_angle_beta 26.211493
_cell_angle_gamma 90.000000
_cell_volume 2769.771220
_symmetry_space_group_name_H-M "C 2/M"
_symmetry_group_IT_number 12
_symmetry_cell_setting 'monoclinic'
loop_
_space_group_symop_operation_xyz
x,y,z
-x,y,-z
-x,-y,-z
x,-y,z
1/2+x,1/2+y,z
1/2-x,1/2+y,-z
1/2-x,1/2-y,-z
1/2+x,1/2-y,z
loop_
_atom_site_type_symbol
_atom_site_label
_atom_site_fract_x
_atom_site_fract_y
_atom_site_fract_z
Si Si1 0.747277 0.331425 0.780547
Si Si2 0.346761 0.841198 0.313010
Si Si3 0.632522 0.339273 0.604499
Si Si4 0.724409 0.170486 0.939841
Si Si5 0.606955 0.668044 0.863480
Si Si6 0.103765 0.171039 0.199528
Si Si7 0.912042 0.673867 0.461958
O O1 0.756369 0.500000 0.790153
O O2 0.744826 0.226639 0.843116
O O3 0.649342 0.306338 0.875129
O O4 0.835619 0.288442 0.617946
O O5 0.408732 0.748040 0.279806
O O6 0.240350 0.865150 0.478224
O O7 0.334446 0.763272 0.263452
O O8 0.396445 0.000000 0.239218
O O9 0.583334 0.500000 0.663225
O O10 0.619440 0.243617 0.560690
O O11 0.819010 0.196845 0.851446
O O12 0.696329 0.000000 0.975760
O O13 0.638720 0.259941 0.086826
O O14 0.618550 0.500000 0.827894
O O15 0.500000 0.720640 0.000000
O O16 0.011178 0.254848 0.348464
O O17 0.082193 0.000000 0.217855
O O18 0.922394 0.500000 0.439459
#
# Coordination Sequence:
#
# PCOD8097662 Si02
#       7
#     8   8   8   8   8   8   8
#     4  10  22  39  60  87 121 160 199 248 306 360
#     4  10  20  34  54  79 109 147 192 241 289 340
#     4  10  20  34  55  80 110 150 190 236 292 346
#     4  10  22  41  65  90 119 158 200 244 296 359
#     4  10  21  38  58  80 112 155 199 241 292 353
#     4  10  22  41  64  90 121 156 197 245 299 360
#     4  11  22  37  60  90 123 157 200 250 301 357
#
# _framework density 20.218277
#
# number of rings (size 3 to 8) (size 9 to 14) (size 15 to 20)
#    0.000    1.857    1.429    2.143    0.000    6.571 
#    0.000    7.143    0.000    0.000    0.000    0.000 
#    0.000    0.000    0.000    0.000    0.000    0.000 
#
# Total GULP energy -347142.744275 kJ/mol
# GULP energy per Si atom -12397.955153 kJ/mol
# Density = 2.017226 g / cm^3
# Si number density = 20.218277 Si / 1000 Ang^3
#
#
#
# Elastic Constant Matrix: (Units=GPa)
#
#
# Indices 1 2 3 4 5 6 
#
# 1 97.2533 55.2669 35.0825 0.0007 15.2120 0.0000
# 2 55.2669 119.1219 36.9181 -0.0150 5.8854 0.0049
# 3 35.0825 36.9181 69.9747 -0.0048 -9.6790 -0.0016
# 4 0.0007 -0.0150 -0.0048 29.6174 -0.0037 4.9791
# 5 15.2120 5.8854 -9.6790 -0.0037 28.1599 0.0025
# 6 0.0000 0.0049 -0.0016 4.9791 0.0025 33.1299
#
#
#
# Elastic Compliance Matrix: (Units=1/GPa)
#
#
# Indices 1 2 3 4 5 6 
#
# 1 0.017827 -0.005347 -0.007658 -0.000006 -0.011145 0.000002
# 2 -0.005347 0.012114 -0.003844 0.000006 -0.000965 -0.000003
# 3 -0.007658 -0.003844 0.021882 0.000003 0.012462 0.000000
# 4 -0.000006 0.000006 0.000003 0.034639 0.000008 -0.005206
# 5 -0.011145 -0.000965 0.012462 0.000008 0.046017 -0.000004
# 6 0.000002 -0.000003 0.000000 -0.005206 -0.000004 0.030967
#
#
# Mechanical properties :
#
#
# Convention : Reuss Voigt Hill
#
# Bulk Modulus (GPa) = 55.17264 60.09833 57.63548
# Shear Modulus (GPa) = 24.60792 28.78692 26.69742
#
# Velocity S-wave (km/s) = 3.49250 3.77743 3.63776
# Velocity P-wave (km/s) = 6.60387 6.98674 6.79800
#
# Compressibility (1/GPa) = 0.01812493
#
# Stress axis : x y z
#
# Youngs Moduli (GPa) = 56.09590 82.54589 45.69867
#
# Poissons Ratio (x) = 0.44134 0.34997
# Poissons Ratio (y) = 0.29992 0.17568
# Poissons Ratio (z) = 0.42960 0.31734
#
# Static dielectric constant tensor:
#      x y z
#    x 3.544680 0.000000 -0.071800 
#    y 0.000000 3.995340 0.000010 
#    z -0.071800 0.000010 3.645900 
# 
# 
# High freq. dielectric constant tensor:
#      x y z
#    x 1.788660 0.000000 0.000910 
#    y 0.000000 1.804790 0.000000 
#    z 0.000910 0.000000 1.775220 
# 
# From -- ./inp_files/329560.got.cif
#   From: 2010.06.25/outbox.cif.g09.slc.cpg/sg12_165_cif.got.tgz:329560.got - 2010.06.28 00:19:55.
