data_PCOD8097181
_publ_section_title
;
Structure prediction by ZEFSAII (Michael W. Deem and Ramdas Pophale) SiO2 
 PCOD8097181
Probable space group: C 2/M
;
_chemical_formula_sum "Si O2"
_cell_formula_units_Z 52
_cell_length_a 20.646866
_cell_length_b 10.049034
_cell_length_c 17.804159
_cell_angle_alpha 90.000000
_cell_angle_beta 133.964563
_cell_angle_gamma 90.000000
_cell_volume 2658.846344
_symmetry_space_group_name_H-M "C 2/M"
_symmetry_group_IT_number 12
_symmetry_cell_setting 'monoclinic'
loop_
_space_group_symop_operation_xyz
x,y,z
-x,y,-z
-x,-y,-z
x,-y,z
1/2+x,1/2+y,z
1/2-x,1/2+y,-z
1/2-x,1/2-y,-z
1/2+x,1/2-y,z
loop_
_atom_site_type_symbol
_atom_site_label
_atom_site_fract_x
_atom_site_fract_y
_atom_site_fract_z
Si Si1 0.074382 0.850610 0.212655
Si Si2 0.334963 0.854469 0.953909
Si Si3 0.000000 0.746028 0.000000
Si Si4 0.260363 0.153957 0.437592
Si Si5 0.598980 0.157241 0.569193
Si Si6 0.316809 0.845380 0.212215
Si Si7 0.053616 0.351205 0.813703
O O1 0.047929 0.832582 0.103939
O O2 0.180409 0.827386 0.312332
O O3 0.023832 0.751962 0.228346
O O4 0.047030 0.000000 0.213386
O O5 0.424171 0.846258 0.975065
O O6 0.267284 0.736722 0.884124
O O7 0.291218 0.000000 0.904270
O O8 0.362441 0.840352 0.062529
O O9 0.250000 0.250000 0.500000
O O10 0.353454 0.195557 0.471071
O O11 0.264187 0.000000 0.467761
O O12 0.500000 0.222300 0.500000
O O13 0.661988 0.206498 0.687554
O O14 0.589834 0.000000 0.568400
O O15 0.406737 0.819254 0.236189
O O16 0.288756 0.000000 0.186360
O O17 0.011632 0.500000 0.782124
#
# Coordination Sequence:
#
# PCOD8097181 Si02
#       7
#     8   8   4   8   8   8   8
#     4  10  21  36  57  86 116 147 190 240 290 335
#     4  10  20  34  52  79 115 149 182 226 279 337
#     4  10  20  36  58  82 110 150 192 232 280 348
#     4  10  22  39  60  87 117 151 193 240 289 343
#     4   9  19  36  59  84 108 142 192 242 282 329
#     4  10  20  35  57  82 109 144 190 234 278 338
#     4   9  20  35  54  83 114 149 187 225 276 345
#
# _framework density 19.557354
#
# number of rings (size 3 to 8) (size 9 to 14) (size 15 to 20)
#    0.000    2.308    0.000    1.846    2.154    6.154 
#    0.000    2.308    0.000    0.923    0.000    0.000 
#    0.000    0.000    0.000    0.000    0.000    0.000 
#
# Total GULP energy -322329.468997 kJ/mol
# GULP energy per Si atom -12397.287269 kJ/mol
# Density = 1.951284 g / cm^3
# Si number density = 19.557354 Si / 1000 Ang^3
#
#
#
# Elastic Constant Matrix: (Units=GPa)
#
#
# Indices 1 2 3 4 5 6 
#
# 1 107.0920 52.3275 42.7729 0.0000 -4.4984 0.0000
# 2 52.3275 91.7885 42.0337 0.0000 2.3760 0.0000
# 3 42.7729 42.0337 69.8260 0.0000 -0.2378 0.0000
# 4 0.0000 0.0000 0.0000 21.5416 0.0000 4.5523
# 5 -4.4984 2.3760 -0.2378 0.0000 32.0413 0.0000
# 6 0.0000 0.0000 0.0000 4.5523 0.0000 25.7311
#
#
#
# Elastic Compliance Matrix: (Units=1/GPa)
#
#
# Indices 1 2 3 4 5 6 
#
# 1 0.014416 -0.005855 -0.005298 0.000000 0.002419 0.000000
# 2 -0.005855 0.017464 -0.006934 0.000000 -0.002168 0.000000
# 3 -0.005298 -0.006934 0.021740 0.000000 -0.000068 0.000000
# 4 0.000000 0.000000 0.000000 0.048225 0.000000 -0.008532
# 5 0.002419 -0.002168 -0.000068 0.000000 0.031710 0.000000
# 6 0.000000 0.000000 0.000000 -0.008532 0.000000 0.040373
#
#
# Mechanical properties :
#
#
# Convention : Reuss Voigt Hill
#
# Bulk Modulus (GPa) = 57.31627 60.33052 58.82339
# Shear Modulus (GPa) = 23.15704 24.63429 23.89567
#
# Velocity S-wave (km/s) = 3.44475 3.55292 3.49925
# Velocity P-wave (km/s) = 6.72251 6.90985 6.81682
#
# Compressibility (1/GPa) = 0.01744705
#
# Stress axis : x y z
#
# Youngs Moduli (GPa) = 69.36579 57.26130 45.99721
#
# Poissons Ratio (x) = 0.33526 0.24370
# Poissons Ratio (y) = 0.40613 0.31893
# Poissons Ratio (z) = 0.36751 0.39703
#
# Static dielectric constant tensor:
#      x y z
#    x 3.646350 0.000000 -0.069930 
#    y 0.000000 3.403450 0.000000 
#    z -0.069930 0.000000 3.629920 
# 
# 
# High freq. dielectric constant tensor:
#      x y z
#    x 1.768790 0.000000 -0.004220 
#    y 0.000000 1.742110 0.000000 
#    z -0.004220 0.000000 1.761780 
# 
# From -- ./inp_files/282299.got.cif
#   From: 2010.06.25/outbox.cif.g09.slc.cpg/sg12_142_cif.got.tgz:282299.got - 2010.06.28 00:19:55.
