data_PCOD8097999
_publ_section_title
;
Structure prediction by ZEFSAII (Michael W. Deem and Ramdas Pophale) SiO2 
 PCOD8097999
Probable space group: C 2/M
;
_chemical_formula_sum "Si O2"
_cell_formula_units_Z 64
_cell_length_a 15.500045
_cell_length_b 9.347893
_cell_length_c 31.630665
_cell_angle_alpha 90.000000
_cell_angle_beta 135.331023
_cell_angle_gamma 90.000000
_cell_volume 3221.931873
_symmetry_space_group_name_H-M "C 2/M"
_symmetry_group_IT_number 12
_symmetry_cell_setting 'monoclinic'
loop_
_space_group_symop_operation_xyz
x,y,z
-x,y,-z
-x,-y,-z
x,-y,z
1/2+x,1/2+y,z
1/2-x,1/2+y,-z
1/2-x,1/2-y,-z
1/2+x,1/2-y,z
loop_
_atom_site_type_symbol
_atom_site_label
_atom_site_fract_x
_atom_site_fract_y
_atom_site_fract_z
Si Si1 0.666083 0.660358 0.377417
Si Si2 0.969713 0.159001 0.379021
Si Si3 0.632626 0.333654 0.847044
Si Si4 0.549479 0.331156 0.140475
Si Si5 0.276230 0.158052 0.745919
Si Si6 0.406895 0.160690 0.505593
Si Si7 0.956458 0.342846 0.734443
Si Si8 0.586628 0.834496 0.069503
O O1 0.701833 0.500000 0.373807
O O2 0.544794 0.653459 0.362392
O O3 0.777866 0.724727 0.444185
O O4 0.639530 0.763734 0.329359
O O5 0.838544 0.225156 0.319913
O O6 0.040522 0.251050 0.437631
O O7 0.951266 0.000000 0.391580
O O8 0.611789 0.500000 0.830518
O O9 0.565626 0.294785 0.868411
O O10 0.576589 0.250604 0.786902
O O11 0.776013 0.292361 0.897844
O O12 0.564361 0.500000 0.140183
O O13 0.679111 0.267727 0.202667
O O14 0.531433 0.259505 0.088475
O O15 0.389633 0.135205 0.755030
O O16 0.240491 0.000000 0.752291
O O17 0.500000 0.166239 0.500000
O O18 0.385944 0.000000 0.514862
O O19 0.992565 0.500000 0.728606
O O20 0.581895 0.000000 0.081866
O O21 0.500000 0.803047 0.000000
#
# Coordination Sequence:
#
# PCOD8097999 Si02
#       8
#     8   8   8   8   8   8   8   8
#     4  10  21  35  51  75 107 141 177 221 278 337
#     4  10  21  35  53  76 102 137 179 222 272 330
#     4   9  20  39  60  83 118 158 191 232 289 345
#     4  10  21  37  59  88 119 152 192 240 290 335
#     4   9  19  36  55  78 108 143 183 227 278 336
#     4  10  21  36  53  73 101 138 178 223 275 329
#     4  10  20  34  55  82 108 138 183 232 275 327
#     4  10  22  40  62  87 117 157 198 231 276 343
#
# _framework density 19.863859000000001
#
# number of rings (size 3 to 8) (size 9 to 14) (size 15 to 20)
#    0.000    2.250    0.000    1.875    1.750    4.000 
#    0.000    0.000    0.000    0.000    0.000    0.000 
#    0.000    0.000    0.000    0.000    0.000    0.000 
#
# Total GULP energy -396686.248961 kJ/mol
# GULP energy per Si atom -12396.445280 kJ/mol
# Density = 1.981865 g / cm^3
# Si number density = 19.863859 Si / 1000 Ang^3
#
#
#
# Elastic Constant Matrix: (Units=GPa)
#
#
# Indices 1 2 3 4 5 6 
#
# 1 56.4281 25.5918 27.9029 0.0000 7.5612 0.0000
# 2 25.5918 89.5888 57.3299 0.0000 -6.6764 0.0000
# 3 27.9029 57.3299 132.6171 0.0000 9.6389 0.0000
# 4 0.0000 0.0000 0.0000 31.3786 0.0000 -9.0776
# 5 7.5612 -6.6764 9.6389 0.0000 35.0703 0.0000
# 6 0.0000 0.0000 0.0000 -9.0776 0.0000 28.4650
#
#
#
# Elastic Compliance Matrix: (Units=1/GPa)
#
#
# Indices 1 2 3 4 5 6 
#
# 1 0.021803 -0.005426 -0.001862 0.000000 -0.005222 0.000000
# 2 -0.005426 0.017641 -0.006953 0.000000 0.006439 0.000000
# 3 -0.001862 -0.006953 0.011229 0.000000 -0.004008 0.000000
# 4 0.000000 0.000000 0.000000 0.035108 0.000000 0.011196
# 5 -0.005222 0.006439 -0.004008 0.000000 0.031967 0.000000
# 6 0.000000 0.000000 0.000000 0.011196 0.000000 0.038701
#
#
# Mechanical properties :
#
#
# Convention : Reuss Voigt Hill
#
# Bulk Modulus (GPa) = 45.06106 55.58702 50.32404
# Shear Modulus (GPa) = 25.99725 30.17009 28.08367
#
# Velocity S-wave (km/s) = 3.62162 3.90146 3.76414
# Velocity P-wave (km/s) = 6.34211 6.95269 6.65441
#
# Compressibility (1/GPa) = 0.02219211
#
# Stress axis : x y z
#
# Youngs Moduli (GPa) = 45.86530 56.68636 89.05301
#
# Poissons Ratio (x) = 0.30756 0.16585
# Poissons Ratio (y) = 0.24885 0.61915
# Poissons Ratio (z) = 0.08542 0.39412
#
# Static dielectric constant tensor:
#      x y z
#    x 3.526450 0.000000 0.178690 
#    y 0.000000 3.869360 0.000000 
#    z 0.178690 0.000000 3.506460 
# 
# 
# High freq. dielectric constant tensor:
#      x y z
#    x 1.770350 0.000000 0.008760 
#    y 0.000000 1.770160 0.000000 
#    z 0.008760 0.000000 1.775730 
# 
# From -- ./inp_files/375526.got.cif
#   From: 2010.06.25/outbox.cif.g09.slc.cpg/sg12_188_cif.got.tgz:375526.got - 2010.06.28 00:19:55.
