data_PCOD8097988
_publ_section_title
;
Structure prediction by ZEFSAII (Michael W. Deem and Ramdas Pophale) SiO2 
 PCOD8097988
Probable space group: C 2/M
;
_chemical_formula_sum "Si O2"
_cell_formula_units_Z 56
_cell_length_a 30.456462
_cell_length_b 9.088973
_cell_length_c 18.152648
_cell_angle_alpha 90.000000
_cell_angle_beta 144.104342
_cell_angle_gamma 90.000000
_cell_volume 2946.200305
_symmetry_space_group_name_H-M "C 2/M"
_symmetry_group_IT_number 12
_symmetry_cell_setting 'monoclinic'
loop_
_space_group_symop_operation_xyz
x,y,z
-x,y,-z
-x,-y,-z
x,-y,z
1/2+x,1/2+y,z
1/2-x,1/2+y,-z
1/2-x,1/2-y,-z
1/2+x,1/2-y,z
loop_
_atom_site_type_symbol
_atom_site_label
_atom_site_fract_x
_atom_site_fract_y
_atom_site_fract_z
Si Si1 0.284487 0.669146 0.283617
Si Si2 0.264823 0.170498 0.405669
Si Si3 0.646379 0.329080 0.028565
Si Si4 0.829885 0.828070 0.104722
Si Si5 0.145322 0.332791 0.328071
Si Si6 0.017171 0.330552 0.940402
Si Si7 0.077956 0.169045 0.632793
O O1 0.260286 0.500000 0.257607
O O2 0.292719 0.739168 0.374462
O O3 0.224091 0.751737 0.152267
O O4 0.364708 0.687691 0.355749
O O5 0.183093 0.226057 0.319635
O O6 0.325255 0.203732 0.550860
O O7 0.258674 0.000000 0.377020
O O8 0.654113 0.500000 0.057637
O O9 0.630529 0.302421 0.920497
O O10 0.581275 0.265733 0.991007
O O11 0.886221 0.762122 0.243605
O O12 0.814722 0.000000 0.099338
O O13 0.750000 0.750000 0.000000
O O14 0.165348 0.500000 0.332819
O O15 0.056826 0.307444 0.208872
O O16 0.043523 0.500000 0.977173
O O17 0.000000 0.277036 0.000000
O O18 0.000000 0.245666 0.500000
O O19 0.060520 0.000000 0.627210
#
# Coordination Sequence:
#
# PCOD8097988 Si02
#       7
#     8   8   8   8   8   8   8
#     4  11  21  35  58  82 108 148 192 233 284 350
#     4  10  20  34  55  81 113 148 186 236 284 337
#     4  11  23  36  57  87 116 148 190 243 295 343
#     4  10  20  37  60  85 114 150 191 238 288 344
#     4   9  19  36  55  79 112 152 191 229 281 342
#     4  10  21  37  57  81 113 151 192 235 279 340
#     4   9  19  36  58  84 113 147 190 238 285 339
#
# _framework density 19.007532999999999
#
# number of rings (size 3 to 8) (size 9 to 14) (size 15 to 20)
#    0.000    2.000    1.429    2.143    0.000    4.286 
#    0.000    1.429    0.000    3.857    0.000    0.000 
#    0.000    0.000    0.000    0.000    0.000    0.000 
#
# Total GULP energy -347230.778836 kJ/mol
# GULP energy per Si atom -12401.099244 kJ/mol
# Density = 1.896427 g / cm^3
# Si number density = 19.007533 Si / 1000 Ang^3
#
#
#
# Elastic Constant Matrix: (Units=GPa)
#
#
# Indices 1 2 3 4 5 6 
#
# 1 109.7874 55.7176 55.3288 0.0000 -10.3785 0.0000
# 2 55.7176 87.5493 41.7395 0.0000 -1.9406 0.0000
# 3 55.3288 41.7395 132.1967 0.0000 -1.2152 0.0000
# 4 0.0000 0.0000 0.0000 26.2997 0.0000 -1.2795
# 5 -10.3785 -1.9406 -1.2152 0.0000 29.6231 0.0000
# 6 0.0000 0.0000 0.0000 -1.2795 0.0000 10.0292
#
#
#
# Elastic Compliance Matrix: (Units=1/GPa)
#
#
# Indices 1 2 3 4 5 6 
#
# 1 0.015581 -0.007913 -0.003979 0.000000 0.004777 0.000000
# 2 -0.007913 0.017480 -0.002223 0.000000 -0.001719 0.000000
# 3 -0.003979 -0.002223 0.009921 0.000000 -0.001133 0.000000
# 4 0.000000 0.000000 0.000000 0.038261 0.000000 0.004881
# 5 0.004777 -0.001719 -0.001133 0.000000 0.035272 0.000000
# 6 0.000000 0.000000 0.000000 0.004881 0.000000 0.100332
#
#
# Mechanical properties :
#
#
# Convention : Reuss Voigt Hill
#
# Bulk Modulus (GPa) = 67.78582 70.56726 69.17654
# Shear Modulus (GPa) = 20.00039 24.97356 22.48698
#
# Velocity S-wave (km/s) = 3.24734 3.62868 3.44329
# Velocity P-wave (km/s) = 7.05693 7.40020 7.23060
#
# Compressibility (1/GPa) = 0.01475235
#
# Stress axis : x y z
#
# Youngs Moduli (GPa) = 64.17897 57.20820 100.79411
#
# Poissons Ratio (x) = 0.45271 0.40105
# Poissons Ratio (y) = 0.50787 0.22405
# Poissons Ratio (z) = 0.25536 0.12717
#
# Static dielectric constant tensor:
#      x y z
#    x 3.453030 0.000000 -0.172760 
#    y 0.000000 3.460180 0.000000 
#    z -0.172760 0.000000 3.808810 
# 
# 
# High freq. dielectric constant tensor:
#      x y z
#    x 1.741870 0.000000 -0.009710 
#    y 0.000000 1.726660 0.000000 
#    z -0.009710 0.000000 1.749060 
# 
# From -- ./inp_files/292525.got.cif
#   From: 2010.06.25/outbox.cif.g09.slc.cpg/sg12_147_cif.got.tgz:292525.got - 2010.06.28 00:19:55.
