data_PCOD8097278
_publ_section_title
;
Structure prediction by ZEFSAII (Michael W. Deem and Ramdas Pophale) SiO2 
 PCOD8097278
Probable space group: C 2/M
;
_chemical_formula_sum "Si O2"
_cell_formula_units_Z 56
_cell_length_a 19.493262
_cell_length_b 9.163881
_cell_length_c 27.142964
_cell_angle_alpha 90.000000
_cell_angle_beta 141.322196
_cell_angle_gamma 90.000000
_cell_volume 3030.119431
_symmetry_space_group_name_H-M "C 2/M"
_symmetry_group_IT_number 12
_symmetry_cell_setting 'monoclinic'
loop_
_space_group_symop_operation_xyz
x,y,z
-x,y,-z
-x,-y,-z
x,-y,z
1/2+x,1/2+y,z
1/2-x,1/2+y,-z
1/2-x,1/2-y,-z
1/2+x,1/2-y,z
loop_
_atom_site_type_symbol
_atom_site_label
_atom_site_fract_x
_atom_site_fract_y
_atom_site_fract_z
Si Si1 0.154146 0.825843 0.916558
Si Si2 0.414183 0.328701 0.805781
Si Si3 0.312096 0.333824 0.492927
Si Si4 0.706588 0.172212 0.742916
Si Si5 0.626739 0.838534 0.311626
Si Si6 0.486906 0.171496 0.436083
Si Si7 0.610673 0.830289 0.791291
O O1 0.155380 0.764254 0.861937
O O2 0.041229 0.779991 0.881832
O O3 0.169314 0.000000 0.923631
O O4 0.250000 0.750000 0.000000
O O5 0.406661 0.500000 0.801403
O O6 0.331451 0.270299 0.802216
O O7 0.366718 0.279251 0.727195
O O8 0.332601 0.500000 0.520666
O O9 0.250000 0.250000 0.500000
O O10 0.239065 0.324265 0.403458
O O11 0.426831 0.256796 0.548510
O O12 0.630679 0.214945 0.653402
O O13 0.663804 0.235960 0.771022
O O14 0.703978 0.000000 0.747491
O O15 0.520881 0.811046 0.287260
O O16 0.615531 0.000000 0.281855
O O17 0.500000 0.222914 0.500000
O O18 0.510199 0.000000 0.444572
O O19 0.642685 0.000000 0.817578
#
# Coordination Sequence:
#
# PCOD8097278 Si02
#       7
#     8   8   8   8   8   8   8
#     4  10  20  35  56  81 106 130 162 202 247 303
#     4   9  18  33  55  79  99 127 169 209 243 294
#     4  11  22  34  49  71 101 136 178 226 271 314
#     4   9  17  32  53  76 103 135 173 215 258 304
#     4   9  18  32  49  70  97 131 169 210 258 307
#     4  10  20  34  53  76 105 143 182 221 269 319
#     4   9  17  32  54  75  99 133 169 207 253 301
#
# _framework density 18.481119
#
# number of rings (size 3 to 8) (size 9 to 14) (size 15 to 20)
#    0.000    2.429    0.000    2.571    0.000    5.429 
#    0.000    5.714    0.000    4.286    0.000    0.000 
#    0.000    0.000    0.000    0.000    0.000    0.000 
#
# Total GULP energy -347048.133409 kJ/mol
# GULP energy per Si atom -12394.576193 kJ/mol
# Density = 1.843906 g / cm^3
# Si number density = 18.481119 Si / 1000 Ang^3
#
#
#
# Elastic Constant Matrix: (Units=GPa)
#
#
# Indices 1 2 3 4 5 6 
#
# 1 135.5985 27.7566 46.6606 0.0000 15.1059 0.0000
# 2 27.7566 33.8736 29.4164 0.0000 7.6423 0.0001
# 3 46.6606 29.4164 92.1683 0.0000 8.4407 0.0000
# 4 0.0000 0.0000 0.0000 24.2504 0.0000 -1.0637
# 5 15.1059 7.6423 8.4407 0.0000 23.9126 0.0000
# 6 0.0000 0.0001 0.0000 -1.0637 0.0000 27.0769
#
#
#
# Elastic Compliance Matrix: (Units=1/GPa)
#
#
# Indices 1 2 3 4 5 6 
#
# 1 0.009789 -0.004407 -0.003216 0.000000 -0.003640 0.000000
# 2 -0.004407 0.044670 -0.011340 0.000000 -0.007489 0.000000
# 3 -0.003216 -0.011340 0.016099 0.000000 -0.000027 0.000000
# 4 0.000000 0.000000 0.000000 0.041308 0.000000 0.001623
# 5 -0.003640 -0.007489 -0.000027 0.000000 0.046522 0.000000
# 6 0.000000 0.000000 0.000000 0.001623 0.000000 0.036996
#
#
# Mechanical properties :
#
#
# Convention : Reuss Voigt Hill
#
# Bulk Modulus (GPa) = 30.64394 52.14529 41.39462
# Shear Modulus (GPa) = 20.47610 25.56845 23.02228
#
# Velocity S-wave (km/s) = 3.33220 3.72357 3.53330
# Velocity P-wave (km/s) = 5.60553 6.83837 6.25241
#
# Compressibility (1/GPa) = 0.03263288
#
# Stress axis : x y z
#
# Youngs Moduli (GPa) = 102.15599 22.38616 62.11416
#
# Poissons Ratio (x) = 0.09867 0.19974
# Poissons Ratio (y) = 0.45025 0.70437
# Poissons Ratio (z) = 0.32850 0.25386
#
# Static dielectric constant tensor:
#      x y z
#    x 3.909040 0.000000 0.156650 
#    y 0.000000 3.512530 0.000000 
#    z 0.156650 0.000000 3.267910 
# 
# 
# High freq. dielectric constant tensor:
#      x y z
#    x 1.724020 0.000000 0.012120 
#    y 0.000000 1.702690 0.000000 
#    z 0.012120 0.000000 1.704840 
# 
# From -- ./inp_files/280370.got.cif
#   From: 2010.06.25/outbox.cif.g09.slc.cpg/sg12_141_cif.got.tgz:280370.got - 2010.06.28 00:19:55.
