data_PCOD8097873
_publ_section_title
;
Structure prediction by ZEFSAII (Michael W. Deem and Ramdas Pophale) SiO2 
 PCOD8097873
Probable space group: C 2/M
;
_chemical_formula_sum "Si O2"
_cell_formula_units_Z 48
_cell_length_a 9.016965
_cell_length_b 26.589991
_cell_length_c 14.658588
_cell_angle_alpha 90.000000
_cell_angle_beta 42.299749
_cell_angle_gamma 90.000000
_cell_volume 2365.330115
_symmetry_space_group_name_H-M "C 2/M"
_symmetry_group_IT_number 12
_symmetry_cell_setting 'monoclinic'
loop_
_space_group_symop_operation_xyz
x,y,z
-x,y,-z
-x,-y,-z
x,-y,z
1/2+x,1/2+y,z
1/2-x,1/2+y,-z
1/2-x,1/2-y,-z
1/2+x,1/2-y,z
loop_
_atom_site_type_symbol
_atom_site_label
_atom_site_fract_x
_atom_site_fract_y
_atom_site_fract_z
Si Si1 0.220299 0.108419 0.446642
Si Si2 0.284008 0.799820 0.541398
Si Si3 0.067418 0.558711 0.160878
Si Si4 0.000000 0.604294 0.000000
Si Si5 0.470559 0.644410 0.814221
Si Si6 0.500000 0.618764 0.000000
Si Si7 0.743279 0.443183 0.612058
O O1 0.327597 0.154478 0.452619
O O2 0.378061 0.088411 0.298043
O O3 0.164601 0.063817 0.543421
O O4 0.000000 0.128545 0.500000
O O5 0.500000 0.790913 0.500000
O O6 0.250000 0.750000 0.500000
O O7 0.080493 0.811747 0.703003
O O8 0.061103 0.500000 0.187512
O O9 0.293565 0.581684 0.093367
O O10 0.024541 0.567155 0.073962
O O11 0.216686 0.639796 0.897074
O O12 0.599278 0.591729 0.743006
O O13 0.490390 0.654801 0.914297
O O14 0.703624 0.500000 0.662475
O O15 0.000000 0.428082 0.500000
#
# Coordination Sequence:
#
# PCOD8097873 Si02
#       7
#     8   8   8   4   8   4   8
#     4  11  22  36  57  85 116 151 193 247 302 347
#     4  11  23  42  69  93 114 142 186 245 304 356
#     4  11  21  34  53  80 116 159 204 239 278 335
#     4  10  23  36  54  81 122 164 196 235 281 338
#     4  10  21  39  60  86 118 156 196 236 286 347
#     4  10  21  36  56  81 116 158 196 231 275 336
#     4  10  20  34  54  83 121 162 206 257 302 339
#
# _framework density 20.293151000000002
#
# number of rings (size 3 to 8) (size 9 to 14) (size 15 to 20)
#    0.000    1.500    0.000    7.500    0.000    8.000 
#    0.000    0.000    0.000   17.000    0.000    0.000 
#    0.000    0.000    0.000    0.000    0.000    0.000 
#
# Total GULP energy -297603.474260 kJ/mol
# GULP energy per Si atom -12400.144761 kJ/mol
# Density = 2.024696 g / cm^3
# Si number density = 20.293151 Si / 1000 Ang^3
#
#
#
# Elastic Constant Matrix: (Units=GPa)
#
#
# Indices 1 2 3 4 5 6 
#
# 1 129.8686 41.1549 38.0795 0.0000 -12.3017 0.0000
# 2 41.1549 101.7800 51.6206 0.0000 -1.4801 0.0000
# 3 38.0795 51.6206 112.2197 0.0000 -9.6474 0.0000
# 4 0.0000 0.0000 0.0000 13.2767 0.0000 1.5498
# 5 -12.3017 -1.4801 -9.6474 0.0000 29.4340 0.0000
# 6 0.0000 0.0000 0.0000 1.5498 0.0000 31.9692
#
#
#
# Elastic Compliance Matrix: (Units=1/GPa)
#
#
# Indices 1 2 3 4 5 6 
#
# 1 0.009405 -0.002973 -0.001542 0.000000 0.003276 0.000000
# 2 -0.002973 0.013805 -0.005545 0.000000 -0.002366 0.000000
# 3 -0.001542 -0.005545 0.012251 0.000000 0.003092 0.000000
# 4 0.000000 0.000000 0.000000 0.075749 0.000000 -0.003672
# 5 0.003276 -0.002366 0.003092 0.000000 0.036238 0.000000
# 6 0.000000 0.000000 0.000000 -0.003672 0.000000 0.031458
#
#
# Mechanical properties :
#
#
# Convention : Reuss Voigt Hill
#
# Bulk Modulus (GPa) = 65.18640 67.28649 66.23644
# Shear Modulus (GPa) = 24.49315 29.13686 26.81500
#
# Velocity S-wave (km/s) = 3.47791 3.79330 3.63903
# Velocity P-wave (km/s) = 6.95125 7.23980 7.09699
#
# Compressibility (1/GPa) = 0.01534062
#
# Stress axis : x y z
#
# Youngs Moduli (GPa) = 106.32995 72.43709 81.62737
#
# Poissons Ratio (x) = 0.21536 0.12588
# Poissons Ratio (y) = 0.31612 0.45261
# Poissons Ratio (z) = 0.16397 0.40165
#
# Static dielectric constant tensor:
#      x y z
#    x 3.893640 0.000000 -0.030640 
#    y 0.000000 3.380320 0.000000 
#    z -0.030640 0.000000 3.816860 
# 
# 
# High freq. dielectric constant tensor:
#      x y z
#    x 1.818140 0.000000 0.003380 
#    y 0.000000 1.758740 0.000000 
#    z 0.003380 0.000000 1.803170 
# 
# From -- ./inp_files/200164.got.cif
#   From: 2010.06.25/outbox.cif.g09.slc.cpg/sg12_101_cif.got.tgz:200164.got - 2010.06.28 00:19:55.
