data_PCOD8097294
_publ_section_title
;
Structure prediction by ZEFSAII (Michael W. Deem and Ramdas Pophale) SiO2 
 PCOD8097294
Probable space group: C 2/M
;
_chemical_formula_sum "Si O2"
_cell_formula_units_Z 56
_cell_length_a 8.364469
_cell_length_b 12.216809
_cell_length_c 29.691159
_cell_angle_alpha 90.000000
_cell_angle_beta 74.712652
_cell_angle_gamma 90.000000
_cell_volume 2926.696042
_symmetry_space_group_name_H-M "C 2/M"
_symmetry_group_IT_number 12
_symmetry_cell_setting 'monoclinic'
loop_
_space_group_symop_operation_xyz
x,y,z
-x,y,-z
-x,-y,-z
x,-y,z
1/2+x,1/2+y,z
1/2-x,1/2+y,-z
1/2-x,1/2-y,-z
1/2+x,1/2-y,z
loop_
_atom_site_type_symbol
_atom_site_label
_atom_site_fract_x
_atom_site_fract_y
_atom_site_fract_z
Si Si1 0.910000 0.223842 0.749976
Si Si2 0.345059 0.799073 0.034376
Si Si3 0.090913 0.299468 0.534377
Si Si4 0.860765 0.125767 0.194101
Si Si5 0.818728 0.626071 0.306158
Si Si6 0.989955 0.123713 0.912188
Si Si7 0.826216 0.123797 0.587885
O O1 0.802685 0.300219 0.791014
O O2 0.796014 0.145525 0.728598
O O3 0.023880 0.145718 0.771396
O O4 0.017512 0.300232 0.709001
O O5 0.417703 0.702606 0.060035
O O6 0.212008 0.871458 0.071362
O O7 0.500000 0.865677 0.000000
O O8 0.250000 0.750000 0.000000
O O9 0.250000 0.250000 0.500000
O O10 0.155714 0.372588 0.570936
O O11 0.000000 0.365671 0.500000
O O12 0.970380 0.203139 0.560405
O O13 0.958726 0.157768 0.141782
O O14 0.804685 0.000000 0.197697
O O15 0.873832 0.500000 0.303714
O O16 0.719710 0.659212 0.358276
O O17 0.045080 0.000000 0.919441
O O18 0.895125 0.000000 0.581234
#
# Coordination Sequence:
#
# PCOD8097294 Si02
#       7
#     8   8   8   8   8   8   8
#     4  10  20  34  54  76 106 136 166 212 254 294
#     4   9  19  34  52  75 101 130 170 210 249 303
#     4   9  19  34  52  75 101 130 170 210 249 303
#     4  10  20  34  53  77 103 135 172 207 252 305
#     4  10  20  34  53  77 103 135 172 207 252 305
#     4  10  20  35  54  75 103 136 169 210 256 300
#     4  10  20  35  54  75 103 136 169 210 256 300
#
# _framework density 19.134205000000001
#
# number of rings (size 3 to 8) (size 9 to 14) (size 15 to 20)
#    0.000    2.286    0.000    2.571    0.000    5.714 
#    0.000    4.286    0.000   24.000    0.000    0.000 
#    0.000    0.000    0.000    0.000    0.000    0.000 
#
# Total GULP energy -347015.528093 kJ/mol
# GULP energy per Si atom -12393.411718 kJ/mol
# Density = 1.909065 g / cm^3
# Si number density = 19.134205 Si / 1000 Ang^3
#
#
#
# Elastic Constant Matrix: (Units=GPa)
#
#
# Indices 1 2 3 4 5 6 
#
# 1 63.5838 11.5069 23.7576 0.0000 -5.3529 0.0000
# 2 11.5069 58.5063 34.2453 0.0000 -5.7940 0.0000
# 3 23.7576 34.2453 111.9362 0.0000 -12.1617 0.0000
# 4 0.0000 0.0000 0.0000 12.2460 0.0000 4.7095
# 5 -5.3529 -5.7940 -12.1617 0.0000 33.8577 0.0000
# 6 0.0000 0.0000 0.0000 4.7095 0.0000 18.6116
#
#
#
# Elastic Compliance Matrix: (Units=1/GPa)
#
#
# Indices 1 2 3 4 5 6 
#
# 1 0.017253 -0.001463 -0.003065 0.000000 0.001376 0.000000
# 2 -0.001463 0.021002 -0.005983 0.000000 0.001214 0.000000
# 3 -0.003065 -0.005983 0.011707 0.000000 0.002697 0.000000
# 4 0.000000 0.000000 0.000000 0.090462 0.000000 -0.022890
# 5 0.001376 0.001214 0.002697 0.000000 0.030929 0.000000
# 6 0.000000 0.000000 0.000000 -0.022890 0.000000 0.059522
#
#
# Mechanical properties :
#
#
# Convention : Reuss Voigt Hill
#
# Bulk Modulus (GPa) = 34.55272 41.44952 38.00112
# Shear Modulus (GPa) = 19.11719 23.91084 21.51402
#
# Velocity S-wave (km/s) = 3.16430 3.53886 3.35681
# Velocity P-wave (km/s) = 5.60782 6.19738 5.90996
#
# Compressibility (1/GPa) = 0.02894128
#
# Stress axis : x y z
#
# Youngs Moduli (GPa) = 57.96089 47.61432 85.41536
#
# Poissons Ratio (x) = 0.06967 0.26177
# Poissons Ratio (y) = 0.08481 0.51103
# Poissons Ratio (z) = 0.17763 0.28487
#
# Static dielectric constant tensor:
#      x y z
#    x 3.984290 0.000000 -0.040500 
#    y 0.000000 3.227770 0.000000 
#    z -0.040500 0.000000 4.042540 
# 
# 
# High freq. dielectric constant tensor:
#      x y z
#    x 1.750470 0.000000 -0.002560 
#    y 0.000000 1.724720 0.000000 
#    z -0.002560 0.000000 1.763630 
# 
# From -- ./inp_files/371962.got.cif
#   From: 2010.06.25/outbox.cif.g09.slc.cpg/sg12_186_cif.got.tgz:371962.got - 2010.06.28 00:19:55.
