data_PCOD8097713
_publ_section_title
;
Structure prediction by ZEFSAII (Michael W. Deem and Ramdas Pophale) SiO2 
 PCOD8097713
Probable space group: C 2/M
;
_chemical_formula_sum "Si O2"
_cell_formula_units_Z 56
_cell_length_a 18.519272
_cell_length_b 8.784010
_cell_length_c 18.531187
_cell_angle_alpha 90.000000
_cell_angle_beta 104.413823
_cell_angle_gamma 90.000000
_cell_volume 2919.644468
_symmetry_space_group_name_H-M "C 2/M"
_symmetry_group_IT_number 12
_symmetry_cell_setting 'monoclinic'
loop_
_space_group_symop_operation_xyz
x,y,z
-x,y,-z
-x,-y,-z
x,-y,z
1/2+x,1/2+y,z
1/2-x,1/2+y,-z
1/2-x,1/2-y,-z
1/2+x,1/2-y,z
loop_
_atom_site_type_symbol
_atom_site_label
_atom_site_fract_x
_atom_site_fract_y
_atom_site_fract_z
Si Si1 0.355382 0.822796 0.223545
Si Si2 0.008526 0.181328 0.230980
Si Si3 0.789111 0.677502 0.360971
Si Si4 0.526690 0.672901 0.933041
Si Si5 0.306521 0.673207 0.067976
Si Si6 0.081264 0.319487 0.500950
Si Si7 0.866439 0.679749 0.642357
O O1 0.435521 0.743241 0.253793
O O2 0.306155 0.791536 0.281745
O O3 0.308440 0.758738 0.144849
O O4 0.370468 0.000000 0.215740
O O5 0.083967 0.237742 0.285537
O O6 0.007953 0.245498 0.148412
O O7 0.003676 0.000000 0.230560
O O8 0.772659 0.500000 0.371541
O O9 0.859221 0.735835 0.425126
O O10 0.718862 0.776128 0.367374
O O11 0.498006 0.500000 0.929113
O O12 0.615047 0.682789 0.952291
O O13 0.500000 0.757828 0.000000
O O14 0.282809 0.500000 0.077065
O O15 0.250000 0.750000 0.000000
O O16 0.076510 0.500000 0.500351
O O17 0.106848 0.261016 0.429010
O O18 0.000000 0.250288 0.500000
O O19 0.876337 0.500000 0.652332
#
# Coordination Sequence:
#
# PCOD8097713 Si02
#       7
#     8   8   8   8   8   8   8
#     4  10  20  36  58  80 105 143 187 229 277 329
#     4  10  20  35  56  80 108 142 180 225 274 327
#     4  10  21  37  57  80 109 145 183 225 275 330
#     4   8  16  32  53  75  99 132 175 218 260 311
#     4  10  20  34  54  80 110 144 182 227 275 325
#     4   9  18  35  58  81 106 141 184 225 269 326
#     4  11  22  35  55  82 112 144 179 225 276 325
#
# _framework density 19.180418
#
# number of rings (size 3 to 8) (size 9 to 14) (size 15 to 20)
#    0.000    2.286    0.000    3.857    0.000    4.571 
#    0.000    3.571    0.000   17.571    0.000    0.000 
#    0.000    0.000    0.000    0.000    0.000    0.000 
#
# Total GULP energy -347205.859121 kJ/mol
# GULP energy per Si atom -12400.209254 kJ/mol
# Density = 1.913676 g / cm^3
# Si number density = 19.180418 Si / 1000 Ang^3
#
#
#
# Elastic Constant Matrix: (Units=GPa)
#
#
# Indices 1 2 3 4 5 6 
#
# 1 114.8182 38.0481 74.3949 0.0000 -1.2781 0.0000
# 2 38.0481 70.0187 42.6302 0.0000 -3.2167 0.0000
# 3 74.3949 42.6302 139.5913 0.0000 3.9204 0.0000
# 4 0.0000 0.0000 0.0000 23.7722 0.0000 3.6626
# 5 -1.2781 -3.2167 3.9204 0.0000 40.2840 0.0000
# 6 0.0000 0.0000 0.0000 3.6626 0.0000 31.5634
#
#
#
# Elastic Compliance Matrix: (Units=1/GPa)
#
#
# Indices 1 2 3 4 5 6 
#
# 1 0.014099 -0.003732 -0.006396 0.000000 0.000772 0.000000
# 2 -0.003732 0.018682 -0.003765 0.000000 0.001740 0.000000
# 3 -0.006396 -0.003765 0.011769 0.000000 -0.001649 0.000000
# 4 0.000000 0.000000 0.000000 0.042832 0.000000 -0.004970
# 5 0.000772 0.001740 -0.001649 0.000000 0.025148 0.000000
# 6 0.000000 0.000000 0.000000 -0.004970 0.000000 0.032259
#
#
# Mechanical properties :
#
#
# Convention : Reuss Voigt Hill
#
# Bulk Modulus (GPa) = 59.65350 70.50828 65.08089
# Shear Modulus (GPa) = 28.06431 30.41424 29.23927
#
# Velocity S-wave (km/s) = 3.82930 3.98639 3.90864
# Velocity P-wave (km/s) = 7.12181 7.61766 7.37390
#
# Compressibility (1/GPa) = 0.01676347
#
# Stress axis : x y z
#
# Youngs Moduli (GPa) = 70.92811 53.52688 84.97079
#
# Poissons Ratio (x) = 0.19975 0.54347
# Poissons Ratio (y) = 0.26468 0.31996
# Poissons Ratio (z) = 0.45365 0.20155
#
# Static dielectric constant tensor:
#      x y z
#    x 3.498060 0.000000 -0.093550 
#    y 0.000000 3.338970 0.000000 
#    z -0.093550 0.000000 3.770460 
# 
# 
# High freq. dielectric constant tensor:
#      x y z
#    x 1.746460 0.000000 -0.000880 
#    y 0.000000 1.725250 0.000000 
#    z -0.000880 0.000000 1.763850 
# 
# From -- ./inp_files/275536.got.cif
#   From: 2010.06.25/outbox.cif.g09.slc.cpg/sg12_138_cif.got.tgz:275536.got - 2010.06.28 00:19:55.
