data_PCOD8097589
_publ_section_title
;
Structure prediction by ZEFSAII (Michael W. Deem and Ramdas Pophale) SiO2 
 PCOD8097589
Probable space group: C 2/M
;
_chemical_formula_sum "Si O2"
_cell_formula_units_Z 56
_cell_length_a 28.467621
_cell_length_b 9.092029
_cell_length_c 14.272223
_cell_angle_alpha 90.000000
_cell_angle_beta 60.569183
_cell_angle_gamma 90.000000
_cell_volume 3217.337779
_symmetry_space_group_name_H-M "C 2/M"
_symmetry_group_IT_number 12
_symmetry_cell_setting 'monoclinic'
loop_
_space_group_symop_operation_xyz
x,y,z
-x,y,-z
-x,-y,-z
x,-y,z
1/2+x,1/2+y,z
1/2-x,1/2+y,-z
1/2-x,1/2-y,-z
1/2+x,1/2-y,z
loop_
_atom_site_type_symbol
_atom_site_label
_atom_site_fract_x
_atom_site_fract_y
_atom_site_fract_z
Si Si1 0.669977 0.665956 0.838975
Si Si2 0.509451 0.832170 0.886286
Si Si3 0.800887 0.327387 0.900654
Si Si4 0.221582 0.826823 0.258875
Si Si5 0.607808 0.166576 0.043395
Si Si6 0.202542 0.826363 0.488973
Si Si7 0.390335 0.665365 0.290489
O O1 0.687267 0.500000 0.849424
O O2 0.716724 0.780708 0.816417
O O3 0.654072 0.674765 0.747082
O O4 0.619441 0.718062 0.949589
O O5 0.455991 0.815426 0.874399
O O6 0.557359 0.760360 0.780783
O O7 0.526712 0.000000 0.883705
O O8 0.500000 0.763400 0.000000
O O9 0.788374 0.500000 0.905707
O O10 0.812285 0.259138 0.786910
O O11 0.856312 0.295637 0.901453
O O12 0.750000 0.250000 0.000000
O O13 0.202612 0.777149 0.380494
O O14 0.215657 0.000000 0.248771
O O15 0.619745 0.000000 0.997598
O O16 0.250000 0.750000 0.500000
O O17 0.143301 0.780631 0.585655
O O18 0.211961 0.000000 0.489761
O O19 0.411281 0.500000 0.283285
#
# Coordination Sequence:
#
# PCOD8097589 Si02
#       7
#     8   8   8   8   8   8   8
#     4  11  20  30  51  79 110 142 176 214 258 318
#     4  10  20  34  54  78 105 140 177 214 264 323
#     4  11  22  35  54  79 109 142 179 221 266 319
#     4  11  22  35  53  77 109 145 180 218 265 318
#     4  10  21  36  52  75 109 143 177 216 263 318
#     4  10  21  36  54  78 108 142 178 220 268 319
#     4  10  21  35  51  78 111 140 175 219 265 315
#
# _framework density 17.405695000000001
#
# number of rings (size 3 to 8) (size 9 to 14) (size 15 to 20)
#    0.000    1.571    4.286    1.286    0.000    3.143 
#    0.000    0.000    0.000    0.857    0.000    6.000 
#    0.000    0.000    0.000    0.000    0.000    0.000 
#
# Total GULP energy -347153.176070 kJ/mol
# GULP energy per Si atom -12398.327717 kJ/mol
# Density = 1.736608 g / cm^3
# Si number density = 17.405695 Si / 1000 Ang^3
#
#
#
# Elastic Constant Matrix: (Units=GPa)
#
#
# Indices 1 2 3 4 5 6 
#
# 1 101.5621 38.2170 50.0337 0.0000 -2.7615 0.0000
# 2 38.2170 72.1144 47.5993 0.0000 2.0786 0.0000
# 3 50.0337 47.5993 116.3393 0.0000 1.4948 0.0000
# 4 0.0000 0.0000 0.0000 27.1217 0.0000 -0.6627
# 5 -2.7615 2.0786 1.4948 0.0000 27.3034 0.0000
# 6 0.0000 0.0000 0.0000 -0.6627 0.0000 27.9029
#
#
#
# Elastic Compliance Matrix: (Units=1/GPa)
#
#
# Indices 1 2 3 4 5 6 
#
# 1 0.013605 -0.004641 -0.003977 0.000000 0.001947 0.000000
# 2 -0.004641 0.020609 -0.006414 0.000000 -0.001687 0.000000
# 3 -0.003977 -0.006414 0.012938 0.000000 -0.000622 0.000000
# 4 0.000000 0.000000 0.000000 0.036892 0.000000 0.000876
# 5 0.001947 -0.001687 -0.000622 0.000000 0.036985 0.000000
# 6 0.000000 0.000000 0.000000 0.000876 0.000000 0.035859
#
#
# Mechanical properties :
#
#
# Convention : Reuss Voigt Hill
#
# Bulk Modulus (GPa) = 58.52367 62.41287 60.46827
# Shear Modulus (GPa) = 25.95395 26.74331 26.34863
#
# Velocity S-wave (km/s) = 3.86569 3.92403 3.89497
# Velocity P-wave (km/s) = 7.32264 7.51441 7.41914
#
# Compressibility (1/GPa) = 0.01708710
#
# Stress axis : x y z
#
# Youngs Moduli (GPa) = 73.50353 48.52330 77.28923
#
# Poissons Ratio (x) = 0.22519 0.30740
# Poissons Ratio (y) = 0.34111 0.49576
# Poissons Ratio (z) = 0.29234 0.31125
#
# Static dielectric constant tensor:
#      x y z
#    x 3.221840 0.000000 0.125120 
#    y 0.000000 3.284040 0.000000 
#    z 0.125120 0.000000 3.301500 
# 
# 
# High freq. dielectric constant tensor:
#      x y z
#    x 1.662150 0.000000 0.002660 
#    y 0.000000 1.677170 0.000000 
#    z 0.002660 0.000000 1.660800 
# 
# From -- ./inp_files/243640.got.cif
#   From: 2010.06.25/outbox.cif.g09.slc.cpg/sg12_122_cif.got.tgz:243640.got - 2010.06.28 00:19:55.
