data_PCOD8097236
_publ_section_title
;
Structure prediction by ZEFSAII (Michael W. Deem and Ramdas Pophale) SiO2 
 PCOD8097236
Probable space group: C 2/M
;
_chemical_formula_sum "Si O2"
_cell_formula_units_Z 64
_cell_length_a 20.117027
_cell_length_b 9.258292
_cell_length_c 21.932523
_cell_angle_alpha 90.000000
_cell_angle_beta 63.996999
_cell_angle_gamma 90.000000
_cell_volume 3671.405532
_symmetry_space_group_name_H-M "C 2/M"
_symmetry_group_IT_number 12
_symmetry_cell_setting 'monoclinic'
loop_
_space_group_symop_operation_xyz
x,y,z
-x,y,-z
-x,-y,-z
x,-y,z
1/2+x,1/2+y,z
1/2-x,1/2+y,-z
1/2-x,1/2-y,-z
1/2+x,1/2-y,z
loop_
_atom_site_type_symbol
_atom_site_label
_atom_site_fract_x
_atom_site_fract_y
_atom_site_fract_z
Si Si1 0.243843 0.166851 0.181148
Si Si2 0.595872 0.829890 0.910128
Si Si3 0.436657 0.171036 0.941147
Si Si4 0.858542 0.668187 0.439353
Si Si5 0.012038 0.671383 0.427699
Si Si6 0.331285 0.170947 0.681032
Si Si7 0.191119 0.168366 0.065378
Si Si8 0.751372 0.331915 0.591657
O O1 0.328329 0.227767 0.150455
O O2 0.193934 0.257983 0.246479
O O3 0.212529 0.189682 0.126551
O O4 0.240821 0.000000 0.201892
O O5 0.523968 0.789629 0.898434
O O6 0.601324 0.000000 0.914700
O O7 0.588341 0.772817 0.982191
O O8 0.389823 0.260736 0.910793
O O9 0.423079 0.000000 0.937725
O O10 0.851637 0.500000 0.428521
O O11 0.816584 0.709711 0.518631
O O12 0.823894 0.750055 0.395570
O O13 0.943602 0.716450 0.412199
O O14 0.017286 0.500000 0.432011
O O15 0.087155 0.731161 0.367741
O O16 0.000000 0.737517 0.500000
O O17 0.275883 0.216179 0.649072
O O18 0.332785 0.000000 0.689007
O O19 0.189861 0.000000 0.047907
O O20 0.250000 0.250000 0.000000
O O21 0.734200 0.500000 0.595802
#
# Coordination Sequence:
#
# PCOD8097236 Si02
#       8
#     8   8   8   8   8   8   8   8
#     4  10  21  37  53  73 105 143 174 206 259 317
#     4   8  15  31  54  76 100 134 170 207 254 308
#     4   9  16  31  56  80 101 128 170 217 258 301
#     4   9  16  28  51  77  98 126 165 209 253 298
#     4   9  15  29  53  77 100 130 172 219 258 296
#     4  10  20  34  53  76 101 135 176 215 258 305
#     4  11  21  34  54  79 107 138 173 216 264 311
#     4   9  17  30  48  73 103 129 159 206 259 302
#
# _framework density 17.432016000000001
#
# number of rings (size 3 to 8) (size 9 to 14) (size 15 to 20)
#    0.000    2.625    2.500    1.125    0.000    1.500 
#    0.000    3.750    0.000    8.250    0.000    0.000 
#    0.000    0.000    0.000    0.000    0.000    0.000 
#
# Total GULP energy -396703.114780 kJ/mol
# GULP energy per Si atom -12396.972337 kJ/mol
# Density = 1.739234 g / cm^3
# Si number density = 17.432016 Si / 1000 Ang^3
#
#
#
# Elastic Constant Matrix: (Units=GPa)
#
#
# Indices 1 2 3 4 5 6 
#
# 1 151.5042 51.6757 60.7890 0.0000 -12.2242 -0.0002
# 2 51.6757 49.5601 36.0320 0.0001 2.4987 -0.0007
# 3 60.7890 36.0320 93.8318 0.0000 -11.1296 0.0000
# 4 0.0000 0.0001 0.0000 25.3895 0.0000 2.6305
# 5 -12.2242 2.4987 -11.1296 0.0000 24.9827 0.0000
# 6 -0.0002 -0.0007 0.0000 2.6305 0.0000 30.1821
#
#
#
# Elastic Compliance Matrix: (Units=1/GPa)
#
#
# Indices 1 2 3 4 5 6 
#
# 1 0.011788 -0.010386 -0.003000 0.000000 0.005470 0.000000
# 2 -0.010386 0.038750 -0.009728 0.000000 -0.013292 0.000001
# 3 -0.003000 -0.009728 0.017186 0.000000 0.007161 0.000000
# 4 0.000000 0.000000 0.000000 0.039745 0.000000 -0.003464
# 5 0.005470 -0.013292 0.007161 0.000000 0.047224 0.000000
# 6 0.000000 0.000001 0.000000 -0.003464 0.000000 0.033434
#
#
# Mechanical properties :
#
#
# Convention : Reuss Voigt Hill
#
# Bulk Modulus (GPa) = 46.52055 65.76552 56.14303
# Shear Modulus (GPa) = 20.70222 25.87081 23.28652
#
# Velocity S-wave (km/s) = 3.44989 3.85658 3.65889
# Velocity P-wave (km/s) = 6.52792 7.59208 7.08002
#
# Compressibility (1/GPa) = 0.02149588
#
# Stress axis : x y z
#
# Youngs Moduli (GPa) = 84.83206 25.80660 58.18783
#
# Poissons Ratio (x) = 0.26803 0.17454
# Poissons Ratio (y) = 0.88108 0.56605
# Poissons Ratio (z) = 0.25447 0.25105
#
# Static dielectric constant tensor:
#      x y z
#    x 3.611140 0.000000 -0.149030 
#    y 0.000000 2.980470 0.000000 
#    z -0.149030 0.000000 3.131490 
# 
# 
# High freq. dielectric constant tensor:
#      x y z
#    x 1.692090 0.000000 -0.003670 
#    y 0.000000 1.644150 0.000000 
#    z -0.003670 0.000000 1.647190 
# 
# From -- ./inp_files/319779.got.cif
#   From: 2010.06.25/outbox.cif.g09.slc.cpg/sg12_160_cif.got.tgz:319779.got - 2010.06.28 00:19:55.
