data_PCOD8097772
_publ_section_title
;
Structure prediction by ZEFSAII (Michael W. Deem and Ramdas Pophale) SiO2 
 PCOD8097772
Probable space group: C 2/M
;
_chemical_formula_sum "Si O2"
_cell_formula_units_Z 48
_cell_length_a 17.390927
_cell_length_b 12.448449
_cell_length_c 12.190732
_cell_angle_alpha 90.000000
_cell_angle_beta 99.533885
_cell_angle_gamma 90.000000
_cell_volume 2602.719671
_symmetry_space_group_name_H-M "C 2/M"
_symmetry_group_IT_number 12
_symmetry_cell_setting 'monoclinic'
loop_
_space_group_symop_operation_xyz
x,y,z
-x,y,-z
-x,-y,-z
x,-y,z
1/2+x,1/2+y,z
1/2-x,1/2+y,-z
1/2-x,1/2-y,-z
1/2+x,1/2-y,z
loop_
_atom_site_type_symbol
_atom_site_label
_atom_site_fract_x
_atom_site_fract_y
_atom_site_fract_z
Si Si1 0.919542 0.623719 0.037883
Si Si2 0.292287 0.124801 0.823800
Si Si3 0.363732 0.745952 0.227758
Si Si4 0.194895 0.625707 0.587134
Si Si5 0.649902 0.749882 0.371621
Si Si6 0.499733 0.623376 0.370215
O O1 0.922416 0.500000 0.077272
O O2 0.909582 0.700462 0.139066
O O3 0.848680 0.643696 0.938979
O O4 0.000000 0.656982 0.000000
O O5 0.211299 0.182136 0.833844
O O6 0.331031 0.173104 0.724666
O O7 0.276935 0.000000 0.797948
O O8 0.338103 0.840340 0.303194
O O9 0.417548 0.661051 0.303087
O O10 0.187723 0.500000 0.572780
O O11 0.284918 0.658841 0.595982
O O12 0.143428 0.679349 0.479744
O O13 0.568029 0.692330 0.330481
O O14 0.500000 0.639556 0.500000
O O15 0.512442 0.500000 0.341037
#
# Coordination Sequence:
#
# PCOD8097772 Si02
#       6
#     8   8   8   8   8   8
#     4  10  21  38  60  84 113 151 190 231 282 335
#     4  10  21  37  60  86 113 150 191 231 278 333
#     4  11  21  37  58  84 115 147 188 236 279 332
#     4  10  20  34  54  81 111 146 186 233 281 328
#     4  10  20  36  55  81 112 149 187 229 277 333
#     4  11  22  37  56  81 114 150 188 229 278 336
#
# _framework density 18.442246999999998
#
# number of rings (size 3 to 8) (size 9 to 14) (size 15 to 20)
#    0.000    1.667    1.667    3.500    0.000    0.000 
#    0.000    3.333    0.000   12.000    0.000    0.000 
#    0.000    0.000    0.000    0.000    0.000    0.000 
#
# Total GULP energy -297728.838747 kJ/mol
# GULP energy per Si atom -12405.368281 kJ/mol
# Density = 1.840027 g / cm^3
# Si number density = 18.442247 Si / 1000 Ang^3
#
#
#
# Elastic Constant Matrix: (Units=GPa)
#
#
# Indices 1 2 3 4 5 6 
#
# 1 107.0773 63.3154 41.7655 0.0000 -2.4657 0.0000
# 2 63.3154 123.2218 53.4034 0.0000 -2.4754 0.0000
# 3 41.7655 53.4034 82.3283 0.0000 -2.9595 0.0000
# 4 0.0000 0.0000 0.0000 24.4543 0.0000 -0.6228
# 5 -2.4657 -2.4754 -2.9595 0.0000 23.9721 0.0000
# 6 0.0000 0.0000 0.0000 -0.6228 0.0000 23.2765
#
#
#
# Elastic Compliance Matrix: (Units=1/GPa)
#
#
# Indices 1 2 3 4 5 6 
#
# 1 0.014074 -0.005753 -0.003393 0.000000 0.000435 0.000000
# 2 -0.005753 0.013642 -0.005928 0.000000 0.000085 0.000000
# 3 -0.003393 -0.005928 0.017757 0.000000 0.001231 0.000000
# 4 0.000000 0.000000 0.000000 0.040921 0.000000 0.001095
# 5 0.000435 0.000085 0.001231 0.000000 0.041921 0.000000
# 6 0.000000 0.000000 0.000000 0.001095 0.000000 0.042991
#
#
# Mechanical properties :
#
#
# Convention : Reuss Voigt Hill
#
# Bulk Modulus (GPa) = 65.24424 69.95510 67.59967
# Shear Modulus (GPa) = 24.20603 24.61678 24.41140
#
# Velocity S-wave (km/s) = 3.62682 3.65746 3.64217
# Velocity P-wave (km/s) = 7.27962 7.47331 7.37710
#
# Compressibility (1/GPa) = 0.01532702
#
# Stress axis : x y z
#
# Youngs Moduli (GPa) = 71.05369 73.30280 56.31589
#
# Poissons Ratio (x) = 0.42168 0.19106
# Poissons Ratio (y) = 0.40874 0.33383
# Poissons Ratio (z) = 0.24106 0.43452
#
# Static dielectric constant tensor:
#      x y z
#    x 3.457290 0.000000 0.079020 
#    y 0.000000 3.357380 0.000000 
#    z 0.079020 0.000000 3.364590 
# 
# 
# High freq. dielectric constant tensor:
#      x y z
#    x 1.723970 0.000000 0.003940 
#    y 0.000000 1.720210 0.000000 
#    z 0.003940 0.000000 1.717020 
# 
# From -- ./inp_files/153530.got.cif
#   From: 2010.06.25/outbox.cif.g09.slc.cpg/sg12_77_cif.got.tgz:153530.got - 2010.06.28 00:19:55.
