data_PCOD8097469
_publ_section_title
;
Structure prediction by ZEFSAII (Michael W. Deem and Ramdas Pophale) SiO2 
 PCOD8097469
Probable space group: C 2/M
;
_chemical_formula_sum "Si O2"
_cell_formula_units_Z 56
_cell_length_a 23.645565
_cell_length_b 9.111503
_cell_length_c 14.277999
_cell_angle_alpha 90.000000
_cell_angle_beta 83.782924
_cell_angle_gamma 90.000000
_cell_volume 3058.055217
_symmetry_space_group_name_H-M "C 2/M"
_symmetry_group_IT_number 12
_symmetry_cell_setting 'monoclinic'
loop_
_space_group_symop_operation_xyz
x,y,z
-x,y,-z
-x,-y,-z
x,-y,z
1/2+x,1/2+y,z
1/2-x,1/2+y,-z
1/2-x,1/2-y,-z
1/2+x,1/2-y,z
loop_
_atom_site_type_symbol
_atom_site_label
_atom_site_fract_x
_atom_site_fract_y
_atom_site_fract_z
Si Si1 0.536091 0.330943 0.182730
Si Si2 0.879732 0.670644 0.953888
Si Si3 0.710335 0.827271 0.187005
Si Si4 0.585167 0.325874 0.721984
Si Si5 0.560749 0.673383 0.518786
Si Si6 0.374282 0.670061 0.674262
Si Si7 0.830406 0.674190 0.160030
O O1 0.538530 0.500000 0.156021
O O2 0.562053 0.247020 0.089138
O O3 0.471633 0.280075 0.211800
O O4 0.571231 0.298080 0.270613
O O5 0.891426 0.500000 0.945790
O O6 0.827688 0.715045 0.895806
O O7 0.864933 0.721057 0.061140
O O8 0.678655 0.770855 0.286181
O O9 0.768376 0.741674 0.163932
O O10 0.721720 0.000000 0.193258
O O11 0.595490 0.500000 0.724617
O O12 0.580203 0.268230 0.616376
O O13 0.638295 0.241378 0.756123
O O14 0.500000 0.743183 0.500000
O O15 0.552700 0.500000 0.526260
O O16 0.608742 0.715000 0.434186
O O17 0.356116 0.500000 0.684194
O O18 0.825436 0.500000 0.170445
#
# Coordination Sequence:
#
# PCOD8097469 Si02
#       7
#     8   8   8   8   8   8   8
#     4   9  17  30  52  81 109 136 171 214 258 307
#     4   9  20  36  55  77 103 136 175 218 265 312
#     4  10  20  36  57  79 103 133 174 223 266 308
#     4  10  20  34  53  80 111 141 175 214 257 307
#     4   9  15  29  56  84 108 136 173 213 255 306
#     4   9  16  30  55  84 108 134 170 214 260 308
#     4  11  23  38  53  73 104 143 180 216 261 313
#
# _framework density 18.312290999999998
#
# number of rings (size 3 to 8) (size 9 to 14) (size 15 to 20)
#    0.000    2.429    1.429    1.286    0.000    2.857 
#    0.000    4.286    0.000    0.857    0.000    0.000 
#    0.000    0.000    0.000    0.000    0.000    0.000 
#
# Total GULP energy -347233.362303 kJ/mol
# GULP energy per Si atom -12401.191511 kJ/mol
# Density = 1.827061 g / cm^3
# Si number density = 18.312291 Si / 1000 Ang^3
#
#
#
# Elastic Constant Matrix: (Units=GPa)
#
#
# Indices 1 2 3 4 5 6 
#
# 1 21.0582 21.4537 14.7878 0.0000 -0.7486 0.0000
# 2 21.4537 46.9750 29.3663 0.0000 -2.7783 0.0000
# 3 14.7878 29.3663 103.1375 0.0000 -1.2351 0.0000
# 4 0.0000 0.0000 0.0000 23.8479 0.0000 -1.7547
# 5 -0.7486 -2.7783 -1.2351 0.0000 20.0969 0.0000
# 6 0.0000 0.0000 0.0000 -1.7547 0.0000 28.4126
#
#
#
# Elastic Compliance Matrix: (Units=1/GPa)
#
#
# Indices 1 2 3 4 5 6 
#
# 1 0.089089 -0.039927 -0.001432 0.000000 -0.002289 0.000000
# 2 -0.039927 0.043990 -0.006750 0.000000 0.004179 0.000000
# 3 -0.001432 -0.006750 0.011820 0.000000 -0.000260 0.000000
# 4 0.000000 0.000000 0.000000 0.042124 0.000000 0.002602
# 5 -0.002289 0.004179 -0.000260 0.000000 0.050235 0.000000
# 6 0.000000 0.000000 0.000000 0.002602 0.000000 0.035356
#
#
# Mechanical properties :
#
#
# Convention : Reuss Voigt Hill
#
# Bulk Modulus (GPa) = 20.54280 33.59847 27.07063
# Shear Modulus (GPa) = 12.98496 21.50901 17.24699
#
# Velocity S-wave (km/s) = 2.66575 3.43091 3.07225
# Velocity P-wave (km/s) = 4.55163 5.83800 5.23448
#
# Compressibility (1/GPa) = 0.04867887
#
# Stress axis : x y z
#
# Youngs Moduli (GPa) = 11.22475 22.73248 84.60147
#
# Poissons Ratio (x) = 0.90764 0.12119
# Poissons Ratio (y) = 0.44817 0.57110
# Poissons Ratio (z) = 0.01608 0.15345
#
# Static dielectric constant tensor:
#      x y z
#    x 3.306400 0.000000 -0.141070 
#    y 0.000000 3.171030 0.000000 
#    z -0.141070 0.000000 3.551210 
# 
# 
# High freq. dielectric constant tensor:
#      x y z
#    x 1.704680 0.000000 -0.011440 
#    y 0.000000 1.691290 0.000000 
#    z -0.011440 0.000000 1.712370 
# 
# From -- ./inp_files/231019.got.cif
#   From: 2010.06.25/outbox.cif.g09.slc.cpg/sg12_116_cif.got.tgz:231019.got - 2010.06.28 00:19:55.
