data_PCOD8097572
_publ_section_title
;
Structure prediction by ZEFSAII (Michael W. Deem and Ramdas Pophale) SiO2 
 PCOD8097572
Probable space group: C 2/M
;
_chemical_formula_sum "Si O2"
_cell_formula_units_Z 64
_cell_length_a 14.372463
_cell_length_b 9.209328
_cell_length_c 29.853330
_cell_angle_alpha 90.000000
_cell_angle_beta 60.239874
_cell_angle_gamma 90.000000
_cell_volume 3430.261533
_symmetry_space_group_name_H-M "C 2/M"
_symmetry_group_IT_number 12
_symmetry_cell_setting 'monoclinic'
loop_
_space_group_symop_operation_xyz
x,y,z
-x,y,-z
-x,-y,-z
x,-y,z
1/2+x,1/2+y,z
1/2-x,1/2+y,-z
1/2-x,1/2-y,-z
1/2+x,1/2-y,z
loop_
_atom_site_type_symbol
_atom_site_label
_atom_site_fract_x
_atom_site_fract_y
_atom_site_fract_z
Si Si1 0.470717 0.168566 0.374033
Si Si2 0.914493 0.830430 0.082656
Si Si3 0.392718 0.669118 0.257309
Si Si4 0.534416 0.330466 0.442752
Si Si5 0.171239 0.329417 0.812105
Si Si6 0.590432 0.333391 0.272731
Si Si7 0.772984 0.666837 0.358844
Si Si8 0.652252 0.331595 0.000512
O O1 0.463554 0.242832 0.424122
O O2 0.566884 0.237888 0.322140
O O3 0.357759 0.199247 0.377520
O O4 0.495296 0.000000 0.373829
O O5 0.858650 0.730255 0.132406
O O6 0.857064 0.792006 0.049591
O O7 0.899430 0.000000 0.097732
O O8 0.040357 0.790897 0.051078
O O9 0.370182 0.500000 0.255348
O O10 0.400242 0.749178 0.207998
O O11 0.505443 0.699287 0.254172
O O12 0.296322 0.735530 0.309850
O O13 0.500000 0.277530 0.500000
O O14 0.510898 0.500000 0.441943
O O15 0.658595 0.291926 0.406232
O O16 0.148262 0.500000 0.815566
O O17 0.294927 0.291340 0.774154
O O18 0.585151 0.500000 0.289606
O O19 0.778577 0.500000 0.341713
O O20 0.675758 0.500000 0.000749
O O21 0.750000 0.250000 0.000000
#
# Coordination Sequence:
#
# PCOD8097572 Si02
#       8
#     8   8   8   8   8   8   8   8
#     4  10  20  34  54  78 102 130 168 215 260 301
#     4   9  20  38  55  77 110 144 176 213 261 313
#     4  10  20  35  55  78 104 138 176 211 255 312
#     4  10  21  36  53  73 100 136 172 206 255 316
#     4  11  22  35  53  79 110 141 173 215 260 302
#     4   9  20  37  54  74 104 140 174 207 252 312
#     4   9  19  36  54  74 103 135 169 212 258 306
#     4   9  19  37  60  81 105 140 180 220 262 307
#
# _framework density 18.657471000000001
#
# number of rings (size 3 to 8) (size 9 to 14) (size 15 to 20)
#    0.000    2.375    0.000    2.625    0.000    8.250 
#    0.000    5.000    0.000    0.000    0.000    0.000 
#    0.000    0.000    0.000    0.000    0.000    0.000 
#
# Total GULP energy -396921.316826 kJ/mol
# GULP energy per Si atom -12403.791151 kJ/mol
# Density = 1.861501 g / cm^3
# Si number density = 18.657471 Si / 1000 Ang^3
#
#
#
# Elastic Constant Matrix: (Units=GPa)
#
#
# Indices 1 2 3 4 5 6 
#
# 1 87.4532 41.8588 41.3686 0.0000 9.3516 0.0000
# 2 41.8588 79.2504 52.2561 0.0000 12.5557 0.0000
# 3 41.3686 52.2561 113.0093 0.0000 16.5661 0.0000
# 4 0.0000 0.0000 0.0000 37.1000 0.0000 5.5159
# 5 9.3516 12.5557 16.5661 0.0000 22.7970 0.0000
# 6 0.0000 0.0000 0.0000 5.5159 0.0000 31.2550
#
#
#
# Elastic Compliance Matrix: (Units=1/GPa)
#
#
# Indices 1 2 3 4 5 6 
#
# 1 0.015911 -0.006475 -0.002682 0.000000 -0.001012 0.000000
# 2 -0.006475 0.021185 -0.006832 0.000000 -0.004047 0.000000
# 3 -0.002682 -0.006832 0.013741 0.000000 -0.005122 0.000000
# 4 0.000000 0.000000 0.000000 0.027680 0.000000 -0.004885
# 5 -0.001012 -0.004047 -0.005122 0.000000 0.050231 0.000000
# 6 0.000000 0.000000 0.000000 -0.004885 0.000000 0.032857
#
#
# Mechanical properties :
#
#
# Convention : Reuss Voigt Hill
#
# Bulk Modulus (GPa) = 53.03008 61.18664 57.10836
# Shear Modulus (GPa) = 25.01636 27.84568 26.43102
#
# Velocity S-wave (km/s) = 3.66570 3.86744 3.76792
# Velocity P-wave (km/s) = 6.81184 7.26696 7.04307
#
# Compressibility (1/GPa) = 0.01885722
#
# Stress axis : x y z
#
# Youngs Moduli (GPa) = 62.85039 47.20429 72.77635
#
# Poissons Ratio (x) = 0.30565 0.19518
# Poissons Ratio (y) = 0.40697 0.49723
# Poissons Ratio (z) = 0.16856 0.32252
#
# Static dielectric constant tensor:
#      x y z
#    x 3.491890 0.000000 0.046820 
#    y 0.000000 3.402840 0.000000 
#    z 0.046820 0.000000 3.391920 
# 
# 
# High freq. dielectric constant tensor:
#      x y z
#    x 1.732260 0.000000 0.005540 
#    y 0.000000 1.725060 0.000000 
#    z 0.005540 0.000000 1.721360 
# 
# From -- ./inp_files/338821.got.cif
#   From: 2010.06.25/outbox.cif.g09.slc.cpg/sg12_170_cif.got.tgz:338821.got - 2010.06.28 00:19:55.
