data_PCOD8097439
_publ_section_title
;
Structure prediction by ZEFSAII (Michael W. Deem and Ramdas Pophale) SiO2 
 PCOD8097439
Probable space group: C 2/M
;
_chemical_formula_sum "Si O2"
_cell_formula_units_Z 64
_cell_length_a 19.017664
_cell_length_b 8.967239
_cell_length_c 20.560747
_cell_angle_alpha 90.000000
_cell_angle_beta 103.492044
_cell_angle_gamma 90.000000
_cell_volume 3409.579283
_symmetry_space_group_name_H-M "C 2/M"
_symmetry_group_IT_number 12
_symmetry_cell_setting 'monoclinic'
loop_
_space_group_symop_operation_xyz
x,y,z
-x,y,-z
-x,-y,-z
x,-y,z
1/2+x,1/2+y,z
1/2-x,1/2+y,-z
1/2-x,1/2-y,-z
1/2+x,1/2-y,z
loop_
_atom_site_type_symbol
_atom_site_label
_atom_site_fract_x
_atom_site_fract_y
_atom_site_fract_z
Si Si1 0.114851 0.326885 0.184611
Si Si2 0.072279 0.669866 0.553375
Si Si3 0.286721 0.327331 0.448036
Si Si4 0.966501 0.823362 0.186539
Si Si5 0.199005 0.671871 0.074373
Si Si6 0.399037 0.172706 0.294048
Si Si7 0.656645 0.173698 0.920390
Si Si8 0.246022 0.173876 0.702741
O O1 0.092793 0.500000 0.186326
O O2 0.141780 0.289506 0.117870
O O3 0.178041 0.285276 0.248634
O O4 0.047121 0.224198 0.185400
O O5 0.097084 0.500000 0.545989
O O6 0.130202 0.781187 0.536256
O O7 0.062546 0.697172 0.628152
O O8 0.000000 0.708619 0.500000
O O9 0.281022 0.500000 0.459747
O O10 0.250000 0.250000 0.500000
O O11 0.248156 0.282259 0.371962
O O12 0.947357 0.760512 0.253113
O O13 0.912188 0.761130 0.120772
O O14 0.961306 0.000000 0.186767
O O15 0.223595 0.500000 0.083814
O O16 0.270616 0.770634 0.099383
O O17 0.160672 0.707617 0.997909
O O18 0.317280 0.233536 0.276249
O O19 0.396425 0.000000 0.273605
O O20 0.646909 0.000000 0.903266
O O21 0.227021 0.000000 0.707532
#
# Coordination Sequence:
#
# PCOD8097439 Si02
#       8
#     8   8   8   8   8   8   8   8
#     4  10  21  38  57  78 107 141 177 219 272 326
#     4   9  19  36  57  81 109 141 177 219 270 327
#     4  10  20  34  53  79 110 144 182 222 267 318
#     4  12  25  38  53  77 111 146 182 225 271 316
#     4   9  19  36  60  87 112 141 177 221 271 322
#     4  10  20  36  59  82 106 140 181 223 268 323
#     4  10  20  36  59  85 112 143 181 220 263 322
#     4   9  19  36  58  81 107 141 179 222 271 325
#
# _framework density 18.770644000000001
#
# number of rings (size 3 to 8) (size 9 to 14) (size 15 to 20)
#    0.000    2.125    0.000    3.000    0.000    5.250 
#    0.000    7.500    0.000    0.000    0.000    0.000 
#    0.000    0.000    0.000    0.000    0.000    0.000 
#
# Total GULP energy -396914.064666 kJ/mol
# GULP energy per Si atom -12403.564521 kJ/mol
# Density = 1.872792 g / cm^3
# Si number density = 18.770644 Si / 1000 Ang^3
#
#
#
# Elastic Constant Matrix: (Units=GPa)
#
#
# Indices 1 2 3 4 5 6 
#
# 1 129.6274 70.9411 80.0007 0.0000 0.0306 0.0000
# 2 70.9411 102.4321 55.7189 0.0000 -6.1073 0.0000
# 3 80.0007 55.7189 120.1031 0.0000 -4.9942 0.0000
# 4 0.0000 0.0000 0.0000 28.7549 0.0000 -2.5437
# 5 0.0306 -6.1073 -4.9942 0.0000 33.0391 0.0000
# 6 0.0000 0.0000 0.0000 -2.5437 0.0000 38.6587
#
#
#
# Elastic Compliance Matrix: (Units=1/GPa)
#
#
# Indices 1 2 3 4 5 6 
#
# 1 0.016496 -0.007412 -0.007655 0.000000 -0.002542 0.000000
# 2 -0.007412 0.016463 -0.002590 0.000000 0.002659 0.000000
# 3 -0.007655 -0.002590 0.014699 0.000000 0.001750 0.000000
# 4 0.000000 0.000000 0.000000 0.034980 0.000000 0.002302
# 5 -0.002542 0.002659 0.001750 0.000000 0.031025 0.000000
# 6 0.000000 0.000000 0.000000 0.002302 0.000000 0.026019
#
#
# Mechanical properties :
#
#
# Convention : Reuss Voigt Hill
#
# Bulk Modulus (GPa) = 81.00737 85.05377 83.03057
# Shear Modulus (GPa) = 27.91555 29.79068 28.85311
#
# Velocity S-wave (km/s) = 3.86060 3.98815 3.92489
# Velocity P-wave (km/s) = 7.94496 8.16196 8.05419
#
# Compressibility (1/GPa) = 0.01234456
#
# Stress axis : x y z
#
# Youngs Moduli (GPa) = 60.62209 60.74133 68.02969
#
# Poissons Ratio (x) = 0.45021 0.52076
# Poissons Ratio (y) = 0.44933 0.17620
# Poissons Ratio (z) = 0.46405 0.15732
#
# Static dielectric constant tensor:
#      x y z
#    x 3.314390 0.000000 0.029320 
#    y 0.000000 3.508130 0.000000 
#    z 0.029320 0.000000 3.689540 
# 
# 
# High freq. dielectric constant tensor:
#      x y z
#    x 1.721740 0.000000 0.001630 
#    y 0.000000 1.733220 0.000000 
#    z 0.001630 0.000000 1.744060 
# 
# From -- ./inp_files/314141.got.cif
#   From: 2010.06.25/outbox.cif.g09.slc.cpg/sg12_158_cif.got.tgz:314141.got - 2010.06.28 00:19:55.
