data_PCOD8097071
_publ_section_title
;
Structure prediction by ZEFSAII (Michael W. Deem and Ramdas Pophale) SiO2 
 PCOD8097071
Probable space group: C 2/M
;
_chemical_formula_sum "Si O2"
_cell_formula_units_Z 64
_cell_length_a 24.752744
_cell_length_b 9.191781
_cell_length_c 14.913986
_cell_angle_alpha 90.000000
_cell_angle_beta 89.098344
_cell_angle_gamma 90.000000
_cell_volume 3392.836810
_symmetry_space_group_name_H-M "C 2/M"
_symmetry_group_IT_number 12
_symmetry_cell_setting 'monoclinic'
loop_
_space_group_symop_operation_xyz
x,y,z
-x,y,-z
-x,-y,-z
x,-y,z
1/2+x,1/2+y,z
1/2-x,1/2+y,-z
1/2-x,1/2-y,-z
1/2+x,1/2-y,z
loop_
_atom_site_type_symbol
_atom_site_label
_atom_site_fract_x
_atom_site_fract_y
_atom_site_fract_z
Si Si1 0.692066 0.159960 0.587328
Si Si2 0.441367 0.162885 0.836207
Si Si3 0.436575 0.339896 0.003899
Si Si4 0.337352 0.329005 0.241336
Si Si5 0.750623 0.830711 0.095517
Si Si6 0.184786 0.840864 0.426799
Si Si7 0.563326 0.170299 0.821561
Si Si8 0.832328 0.335762 0.750297
O O1 0.694812 0.258469 0.675861
O O2 0.752697 0.135566 0.552979
O O3 0.659681 0.241138 0.507210
O O4 0.665614 0.000000 0.605574
O O5 0.417967 0.272573 0.910730
O O6 0.500950 0.208430 0.798923
O O7 0.397274 0.166654 0.759365
O O8 0.446583 0.000000 0.877345
O O9 0.409598 0.500000 0.019490
O O10 0.500000 0.359089 0.000000
O O11 0.420284 0.227119 0.080696
O O12 0.342428 0.500000 0.256929
O O13 0.305390 0.294193 0.149704
O O14 0.396971 0.257743 0.244878
O O15 0.699313 0.784721 0.158787
O O16 0.747430 0.000000 0.072663
O O17 0.750000 0.750000 0.000000
O O18 0.179325 0.770397 0.330055
O O19 0.156226 0.000000 0.427303
O O20 0.575351 0.000000 0.814700
O O21 0.812793 0.500000 0.727598
#
# Coordination Sequence:
#
# PCOD8097071 Si02
#       8
#     8   8   8   8   8   8   8   8
#     4  10  20  35  57  83 110 142 177 220 270 323
#     4   9  19  34  53  76 103 140 185 227 269 317
#     4   9  17  30  48  71  99 132 176 228 273 309
#     4  11  22  37  56  81 111 144 182 226 273 324
#     4  10  23  38  53  76 111 149 186 223 267 321
#     4  10  20  34  56  85 112 140 175 221 271 323
#     4  10  20  34  52  75 104 141 184 227 270 320
#     4  10  20  37  57  79 109 146 183 224 270 321
#
# _framework density 18.863271000000001
#
# number of rings (size 3 to 8) (size 9 to 14) (size 15 to 20)
#    0.000    2.125    1.250    1.875    1.750    5.000 
#    0.000    0.000    0.000    0.750    0.000    5.250 
#    0.000    0.000    0.000    0.000    0.000    0.000 
#
# Total GULP energy -396605.554291 kJ/mol
# GULP energy per Si atom -12393.923572 kJ/mol
# Density = 1.882034 g / cm^3
# Si number density = 18.863271 Si / 1000 Ang^3
#
#
#
# Elastic Constant Matrix: (Units=GPa)
#
#
# Indices 1 2 3 4 5 6 
#
# 1 71.3952 30.8550 17.3213 0.0000 1.8288 0.0000
# 2 30.8550 132.8230 63.7365 0.0000 4.4408 0.0000
# 3 17.3213 63.7365 108.3794 0.0000 6.7850 0.0000
# 4 0.0000 0.0000 0.0000 33.0966 0.0000 -4.1794
# 5 1.8288 4.4408 6.7850 0.0000 14.4494 0.0000
# 6 0.0000 0.0000 0.0000 -4.1794 0.0000 21.8002
#
#
#
# Elastic Compliance Matrix: (Units=1/GPa)
#
#
# Indices 1 2 3 4 5 6 
#
# 1 0.015597 -0.003378 -0.000461 0.000000 -0.000719 0.000000
# 2 -0.003378 0.011222 -0.006048 0.000000 -0.000181 0.000000
# 3 -0.000461 -0.006048 0.013123 0.000000 -0.004245 0.000000
# 4 0.000000 0.000000 0.000000 0.030964 0.000000 0.005936
# 5 -0.000719 -0.000181 -0.004245 0.000000 0.071347 0.000000
# 6 0.000000 0.000000 0.000000 0.005936 0.000000 0.047009
#
#
# Mechanical properties :
#
#
# Convention : Reuss Voigt Hill
#
# Bulk Modulus (GPa) = 49.58531 59.60257 54.59394
# Shear Modulus (GPa) = 23.17403 27.24825 25.21114
#
# Velocity S-wave (km/s) = 3.50884 3.80480 3.65981
# Velocity P-wave (km/s) = 6.53909 7.13917 6.84571
#
# Compressibility (1/GPa) = 0.02016726
#
# Stress axis : x y z
#
# Youngs Moduli (GPa) = 64.11638 89.11204 76.20100
#
# Poissons Ratio (x) = 0.30100 0.03515
# Poissons Ratio (y) = 0.21657 0.46088
# Poissons Ratio (z) = 0.02957 0.53897
#
# Static dielectric constant tensor:
#      x y z
#    x 3.378560 0.000000 -0.067680 
#    y 0.000000 3.782710 0.000000 
#    z -0.067680 0.000000 3.239650 
# 
# 
# High freq. dielectric constant tensor:
#      x y z
#    x 1.708200 0.000000 -0.003310 
#    y 0.000000 1.747800 0.000000 
#    z -0.003310 0.000000 1.713790 
# 
# From -- ./inp_files/238637.got.cif
#   From: 2010.06.25/outbox.cif.g09.slc.cpg/sg12_120_cif.got.tgz:238637.got - 2010.06.28 00:19:55.
