data_PCOD8097444
_publ_section_title
;
Structure prediction by ZEFSAII (Michael W. Deem and Ramdas Pophale) SiO2 
 PCOD8097444
Probable space group: C 2/M
;
_chemical_formula_sum "Si O2"
_cell_formula_units_Z 48
_cell_length_a 20.186724
_cell_length_b 12.893070
_cell_length_c 20.919387
_cell_angle_alpha 90.000000
_cell_angle_beta 151.830747
_cell_angle_gamma 90.000000
_cell_volume 2570.305104
_symmetry_space_group_name_H-M "C 2/M"
_symmetry_group_IT_number 12
_symmetry_cell_setting 'monoclinic'
loop_
_space_group_symop_operation_xyz
x,y,z
-x,y,-z
-x,-y,-z
x,-y,z
1/2+x,1/2+y,z
1/2-x,1/2+y,-z
1/2-x,1/2-y,-z
1/2+x,1/2-y,z
loop_
_atom_site_type_symbol
_atom_site_label
_atom_site_fract_x
_atom_site_fract_y
_atom_site_fract_z
Si Si1 0.289064 0.276475 0.938949
Si Si2 0.846086 0.278692 0.850886
Si Si3 0.422139 0.619972 0.811752
Si Si4 0.085923 0.621597 0.858068
Si Si5 0.139902 0.880190 0.584731
Si Si6 0.203520 0.272907 0.389075
O O1 0.257610 0.247091 0.838975
O O2 0.147404 0.325286 0.846473
O O3 0.411228 0.362053 0.049234
O O4 0.335456 0.171250 0.014286
O O5 0.858920 0.173505 0.820940
O O6 0.769482 0.365915 0.743837
O O7 0.000000 0.321900 0.000000
O O8 0.386227 0.500000 0.784907
O O9 0.350823 0.665480 0.687331
O O10 0.115497 0.500000 0.883902
O O11 0.920005 0.641875 0.718645
O O12 0.166574 0.817681 0.541699
O O13 0.000000 0.836700 0.500000
O O14 0.122205 0.000000 0.552220
O O15 0.250000 0.250000 0.500000
#
# Coordination Sequence:
#
# PCOD8097444 Si02
#       6
#     8   8   8   8   8   8
#     4   9  19  33  53  82 112 141 177 227 277 331
#     4   9  19  34  56  82 110 144 180 230 279 327
#     4   9  18  34  54  80 109 141 181 223 275 329
#     4  10  20  34  53  79 111 144 180 227 279 331
#     4  10  22  39  59  82 111 148 189 234 283 337
#     4  10  22  37  56  78 110 149 185 235 274 330
#
# _framework density 18.674827000000001
#
# number of rings (size 3 to 8) (size 9 to 14) (size 15 to 20)
#    0.000    2.500    0.000    2.000    2.333    6.000 
#    0.000    0.000    0.000    2.000    0.000    0.000 
#    0.000    0.000    0.000    0.000    0.000    0.000 
#
# Total GULP energy -297643.082561 kJ/mol
# GULP energy per Si atom -12401.795107 kJ/mol
# Density = 1.863232 g / cm^3
# Si number density = 18.674827 Si / 1000 Ang^3
#
#
#
# Elastic Constant Matrix: (Units=GPa)
#
#
# Indices 1 2 3 4 5 6 
#
# 1 140.2859 26.6554 38.7600 -0.0006 -6.9327 -0.0004
# 2 26.6554 75.4620 22.4589 -0.0015 1.0486 -0.0010
# 3 38.7600 22.4589 65.3290 -0.0011 -10.4683 -0.0010
# 4 -0.0006 -0.0015 -0.0011 12.9114 -0.0008 2.6363
# 5 -6.9327 1.0486 -10.4683 -0.0008 36.2239 -0.0006
# 6 -0.0004 -0.0010 -0.0010 2.6363 -0.0006 20.0206
#
#
#
# Elastic Compliance Matrix: (Units=1/GPa)
#
#
# Indices 1 2 3 4 5 6 
#
# 1 0.008727 -0.001746 -0.004511 0.000000 0.000417 0.000000
# 2 -0.001746 0.015249 -0.004541 0.000001 -0.002088 0.000000
# 3 -0.004511 -0.004541 0.020370 0.000001 0.005155 0.000001
# 4 0.000000 0.000001 0.000001 0.079591 0.000002 -0.010480
# 5 0.000417 -0.002088 0.005155 0.000002 0.029236 0.000001
# 6 0.000000 0.000000 0.000001 -0.010480 0.000001 0.051329
#
#
# Mechanical properties :
#
#
# Convention : Reuss Voigt Hill
#
# Bulk Modulus (GPa) = 43.95378 50.75840 47.35609
# Shear Modulus (GPa) = 21.39671 26.71134 24.05402
#
# Velocity S-wave (km/s) = 3.38857 3.78609 3.59283
# Velocity P-wave (km/s) = 6.23677 6.80821 6.52875
#
# Compressibility (1/GPa) = 0.02275117
#
# Stress axis : x y z
#
# Youngs Moduli (GPa) = 114.58793 65.57845 49.09066
#
# Poissons Ratio (x) = 0.11450 0.22143
# Poissons Ratio (y) = 0.20007 0.22292
# Poissons Ratio (z) = 0.51687 0.29779
#
# Static dielectric constant tensor:
#      x y z
#    x 3.722960 0.000000 0.061210 
#    y 0.000000 3.133360 0.000000 
#    z 0.061210 0.000000 3.296700 
# 
# 
# High freq. dielectric constant tensor:
#      x y z
#    x 1.745230 0.000000 -0.000240 
#    y 0.000000 1.709370 0.000000 
#    z -0.000240 0.000000 1.707790 
# 
# From -- ./inp_files/181881.got.cif
#   From: 2010.06.25/outbox.cif.g09.slc.cpg/sg12_91_cif.got.tgz:181881.got - 2010.06.28 00:19:55.
