data_PCOD8097495
_publ_section_title
;
Structure prediction by ZEFSAII (Michael W. Deem and Ramdas Pophale) SiO2 
 PCOD8097495
Probable space group: C 2/M
;
_chemical_formula_sum "Si O2"
_cell_formula_units_Z 48
_cell_length_a 18.979583
_cell_length_b 8.823728
_cell_length_c 21.625761
_cell_angle_alpha 90.000000
_cell_angle_beta 135.145333
_cell_angle_gamma 90.000000
_cell_volume 2554.410999
_symmetry_space_group_name_H-M "C 2/M"
_symmetry_group_IT_number 12
_symmetry_cell_setting 'monoclinic'
loop_
_space_group_symop_operation_xyz
x,y,z
-x,y,-z
-x,-y,-z
x,-y,z
1/2+x,1/2+y,z
1/2-x,1/2+y,-z
1/2-x,1/2-y,-z
1/2+x,1/2-y,z
loop_
_atom_site_type_symbol
_atom_site_label
_atom_site_fract_x
_atom_site_fract_y
_atom_site_fract_z
Si Si1 0.286406 0.823474 0.724900
Si Si2 0.597664 0.677546 0.524316
Si Si3 0.460451 0.678759 0.762014
Si Si4 0.540988 0.177523 0.367063
Si Si5 0.826859 0.676163 0.094297
Si Si6 0.311221 0.173460 0.225178
O O1 0.194181 0.779024 0.623765
O O2 0.381924 0.726373 0.765319
O O3 0.258884 0.781943 0.778132
O O4 0.312089 0.000000 0.736608
O O5 0.500000 0.735256 0.500000
O O6 0.589903 0.500000 0.505879
O O7 0.607014 0.764250 0.465118
O O8 0.469575 0.500000 0.764156
O O9 0.422348 0.741790 0.672548
O O10 0.566568 0.745905 0.847436
O O11 0.425979 0.219171 0.308336
O O12 0.556463 0.000000 0.366857
O O13 0.840330 0.500000 0.087607
O O14 0.784411 0.699699 0.136904
O O15 0.750000 0.750000 0.000000
O O16 0.292960 0.000000 0.233449
#
# Coordination Sequence:
#
# PCOD8097495 Si02
#       6
#     8   8   8   8   8   8
#     4  11  22  36  56  82 116 152 190 237 285 335
#     4  10  20  34  53  81 113 150 197 241 281 333
#     4  11  23  39  59  82 115 152 188 234 288 338
#     4  10  20  35  56  81 111 150 196 240 282 334
#     4  10  21  40  65  92 117 145 184 228 277 340
#     4   9  19  35  56  83 114 147 185 228 278 336
#
# _framework density 18.791025000000001
#
# number of rings (size 3 to 8) (size 9 to 14) (size 15 to 20)
#    0.000    1.833    1.667    4.000    0.000    5.667 
#    0.000    0.833    0.000    5.000    0.000    0.000 
#    0.000    0.000    0.000    0.000    0.000    0.000 
#
# Total GULP energy -297726.327669 kJ/mol
# GULP energy per Si atom -12405.263653 kJ/mol
# Density = 1.874826 g / cm^3
# Si number density = 18.791025 Si / 1000 Ang^3
#
#
#
# Elastic Constant Matrix: (Units=GPa)
#
#
# Indices 1 2 3 4 5 6 
#
# 1 103.9928 52.2644 38.0855 0.0000 -2.3854 0.0000
# 2 52.2644 111.7223 45.8519 0.0000 -2.0162 0.0000
# 3 38.0855 45.8519 95.3267 0.0000 -7.9315 0.0000
# 4 0.0000 0.0000 0.0000 33.4637 0.0000 -3.2724
# 5 -2.3854 -2.0162 -7.9315 0.0000 20.6165 0.0000
# 6 0.0000 0.0000 0.0000 -3.2724 0.0000 34.2642
#
#
#
# Elastic Compliance Matrix: (Units=1/GPa)
#
#
# Indices 1 2 3 4 5 6 
#
# 1 0.013171 -0.004985 -0.002870 0.000000 -0.000068 0.000000
# 2 -0.004985 0.013059 -0.004371 0.000000 -0.000981 0.000000
# 3 -0.002870 -0.004371 0.014129 0.000000 0.004676 0.000000
# 4 0.000000 0.000000 0.000000 0.030165 0.000000 0.002881
# 5 -0.000068 -0.000981 0.004676 0.000000 0.050200 0.000000
# 6 0.000000 0.000000 0.000000 0.002881 0.000000 0.029460
#
#
# Mechanical properties :
#
#
# Convention : Reuss Voigt Hill
#
# Bulk Modulus (GPa) = 62.86973 64.82727 63.84850
# Shear Modulus (GPa) = 27.78739 29.32490 28.55614
#
# Velocity S-wave (km/s) = 3.84963 3.95470 3.90252
# Velocity P-wave (km/s) = 7.29997 7.44492 7.37280
#
# Compressibility (1/GPa) = 0.01590591
#
# Stress axis : x y z
#
# Youngs Moduli (GPa) = 75.92548 76.57537 70.77820
#
# Poissons Ratio (x) = 0.38171 0.20314
# Poissons Ratio (y) = 0.37847 0.30941
# Poissons Ratio (z) = 0.21791 0.33475
#
# Static dielectric constant tensor:
#      x y z
#    x 3.394890 0.000000 -0.082540 
#    y 0.000000 3.443700 0.000000 
#    z -0.082540 0.000000 3.349520 
# 
# 
# High freq. dielectric constant tensor:
#      x y z
#    x 1.728150 0.000000 -0.009360 
#    y 0.000000 1.738850 0.000000 
#    z -0.009360 0.000000 1.718260 
# 
# From -- ./inp_files/249343.got.cif
#   From: 2010.06.25/outbox.cif.g09.slc.cpg/sg12_125_cif.got.tgz:249343.got - 2010.06.28 00:19:55.
