data_PCOD8097709
_publ_section_title
;
Structure prediction by ZEFSAII (Michael W. Deem and Ramdas Pophale) SiO2 
 PCOD8097709
Probable space group: C 2/M
;
_chemical_formula_sum "Si O2"
_cell_formula_units_Z 64
_cell_length_a 18.782749
_cell_length_b 9.261909
_cell_length_c 20.726718
_cell_angle_alpha 90.000000
_cell_angle_beta 101.005019
_cell_angle_gamma 90.000000
_cell_volume 3539.397852
_symmetry_space_group_name_H-M "C 2/M"
_symmetry_group_IT_number 12
_symmetry_cell_setting 'monoclinic'
loop_
_space_group_symop_operation_xyz
x,y,z
-x,y,-z
-x,-y,-z
x,-y,z
1/2+x,1/2+y,z
1/2-x,1/2+y,-z
1/2-x,1/2-y,-z
1/2+x,1/2-y,z
loop_
_atom_site_type_symbol
_atom_site_label
_atom_site_fract_x
_atom_site_fract_y
_atom_site_fract_z
Si Si1 0.589823 0.667588 0.592835
Si Si2 0.762681 0.328628 0.068909
Si Si3 0.329862 0.336272 0.269123
Si Si4 0.054543 0.333938 0.227088
Si Si5 0.810437 0.331684 0.830332
Si Si6 0.672932 0.670172 0.484018
Si Si7 0.103298 0.336752 0.827176
Si Si8 0.053628 0.830246 0.361737
O O1 0.575436 0.500000 0.578979
O O2 0.655625 0.698985 0.653847
O O3 0.618926 0.732185 0.530481
O O4 0.513523 0.732162 0.606373
O O5 0.752290 0.500000 0.059230
O O6 0.705201 0.267124 0.110455
O O7 0.844151 0.284131 0.105957
O O8 0.750000 0.250000 0.000000
O O9 0.349752 0.500000 0.257024
O O10 0.247577 0.301393 0.236231
O O11 0.385738 0.246470 0.236988
O O12 0.068451 0.500000 0.249049
O O13 0.114732 0.279030 0.187552
O O14 0.054720 0.243662 0.292462
O O15 0.981318 0.317544 0.171805
O O16 0.811340 0.500000 0.851404
O O17 0.687626 0.500000 0.496278
O O18 0.750000 0.750000 0.500000
O O19 0.630528 0.701022 0.409928
O O20 0.124806 0.500000 0.815940
O O21 0.041987 0.000000 0.348571
#
# Coordination Sequence:
#
# PCOD8097709 Si02
#       8
#     8   8   8   8   8   8   8   8
#     4   9  17  32  54  74  98 134 178 219 261 314
#     4  10  20  36  58  81 108 142 177 213 253 302
#     4   9  16  29  51  76  97 130 175 214 252 303
#     4  10  20  34  54  80 110 140 170 214 268 316
#     4   9  19  33  52  79 108 137 174 213 256 309
#     4  10  22  37  53  74 103 137 177 224 273 323
#     4   9  18  33  52  78 108 136 168 209 257 304
#     4  10  20  35  54  76 100 137 182 221 263 315
#
# _framework density 18.082170999999999
#
# number of rings (size 3 to 8) (size 9 to 14) (size 15 to 20)
#    0.000    2.500    1.250    0.750    1.750    3.000 
#    0.000    1.875    0.000    5.250    0.000    0.000 
#    0.000    0.000    0.000    0.000    0.000    0.000 
#
# Total GULP energy -396616.176714 kJ/mol
# GULP energy per Si atom -12394.255522 kJ/mol
# Density = 1.804102 g / cm^3
# Si number density = 18.082171 Si / 1000 Ang^3
#
#
#
# Elastic Constant Matrix: (Units=GPa)
#
#
# Indices 1 2 3 4 5 6 
#
# 1 133.4444 42.0868 64.6860 0.0000 -9.7365 0.0000
# 2 42.0868 51.4516 44.6357 0.0000 -2.0347 0.0000
# 3 64.6860 44.6357 116.5733 0.0000 -1.2230 0.0000
# 4 0.0000 0.0000 0.0000 26.8423 0.0000 -0.7175
# 5 -9.7365 -2.0347 -1.2230 0.0000 20.1378 0.0000
# 6 0.0000 0.0000 0.0000 -0.7175 0.0000 25.4011
#
#
#
# Elastic Compliance Matrix: (Units=1/GPa)
#
#
# Indices 1 2 3 4 5 6 
#
# 1 0.011708 -0.005681 -0.004271 0.000000 0.004827 0.000000
# 2 -0.005681 0.031963 -0.009087 0.000000 -0.000069 0.000000
# 3 -0.004271 -0.009087 0.014405 0.000000 -0.002108 0.000000
# 4 0.000000 0.000000 0.000000 0.037283 0.000000 0.001053
# 5 0.004827 -0.000069 -0.002108 0.000000 0.051857 0.000000
# 6 0.000000 0.000000 0.000000 0.001053 0.000000 0.039398
#
#
# Mechanical properties :
#
#
# Convention : Reuss Voigt Hill
#
# Bulk Modulus (GPa) = 50.00259 67.14292 58.57276
# Shear Modulus (GPa) = 21.61149 24.48029 23.04589
#
# Velocity S-wave (km/s) = 3.46089 3.68344 3.57390
# Velocity P-wave (km/s) = 6.60934 7.43660 7.03514
#
# Compressibility (1/GPa) = 0.01999896
#
# Stress axis : x y z
#
# Youngs Moduli (GPa) = 85.41228 31.28587 69.41828
#
# Poissons Ratio (x) = 0.17774 0.29647
# Poissons Ratio (y) = 0.48523 0.63081
# Poissons Ratio (z) = 0.36478 0.28430
#
# Static dielectric constant tensor:
#      x y z
#    x 3.679680 0.000000 0.083760 
#    y 0.000000 3.218460 0.000000 
#    z 0.083760 0.000000 3.344480 
# 
# 
# High freq. dielectric constant tensor:
#      x y z
#    x 1.708120 0.000000 0.010150 
#    y 0.000000 1.681410 0.000000 
#    z 0.010150 0.000000 1.693000 
# 
# From -- ./inp_files/314209.got.cif
#   From: 2010.06.25/outbox.cif.g09.slc.cpg/sg12_158_cif.got.tgz:314209.got - 2010.06.28 00:19:55.
