data_PCOD8097763
_publ_section_title
;
Structure prediction by ZEFSAII (Michael W. Deem and Ramdas Pophale) SiO2 
 PCOD8097763
Probable space group: C 2/M
;
_chemical_formula_sum "Si O2"
_cell_formula_units_Z 56
_cell_length_a 31.186463
_cell_length_b 9.638879
_cell_length_c 21.777244
_cell_angle_alpha 90.000000
_cell_angle_beta 26.196749
_cell_angle_gamma 90.000000
_cell_volume 2889.894243
_symmetry_space_group_name_H-M "C 2/M"
_symmetry_group_IT_number 12
_symmetry_cell_setting 'monoclinic'
loop_
_space_group_symop_operation_xyz
x,y,z
-x,y,-z
-x,-y,-z
x,-y,z
1/2+x,1/2+y,z
1/2-x,1/2+y,-z
1/2-x,1/2-y,-z
1/2+x,1/2-y,z
loop_
_atom_site_type_symbol
_atom_site_label
_atom_site_fract_x
_atom_site_fract_y
_atom_site_fract_z
Si Si1 0.968040 0.661244 0.972755
Si Si2 0.010307 0.345061 0.647203
Si Si3 0.428923 0.652918 0.535411
Si Si4 0.884009 0.842330 0.288334
Si Si5 0.273214 0.837244 0.156335
Si Si6 0.185911 0.663140 0.034635
Si Si7 0.825144 0.653842 0.472007
O O1 0.990062 0.500000 0.932575
O O2 0.029780 0.751580 0.847529
O O3 0.856584 0.697017 0.099392
O O4 0.000000 0.704144 0.000000
O O5 0.993248 0.500000 0.643745
O O6 0.009607 0.241679 0.591567
O O7 0.116324 0.331006 0.540661
O O8 0.926921 0.309145 0.803948
O O9 0.500000 0.635899 0.500000
O O10 0.407113 0.500000 0.535349
O O11 0.327638 0.725053 0.687369
O O12 0.855394 0.780637 0.390562
O O13 0.789579 0.834070 0.365465
O O14 0.919715 0.000000 0.250921
O O15 0.259816 0.000000 0.165981
O O16 0.297211 0.780643 0.056765
O O17 0.211856 0.500000 0.007032
O O18 0.250000 0.750000 0.000000
O O19 0.845592 0.500000 0.416245
#
# Coordination Sequence:
#
# PCOD8097763 Si02
#       7
#     8   8   8   8   8   8   8
#     4  10  21  36  56  79 108 151 194 225 266 334
#     4  10  21  36  57  83 110 144 183 226 280 335
#     4  10  21  37  58  83 112 146 185 232 281 330
#     4  10  20  34  54  81 111 141 179 230 279 320
#     4   9  19  37  58  81 111 149 189 227 275 331
#     4  10  20  36  59  82 109 143 183 231 279 333
#     4   9  19  36  56  78 107 144 181 221 275 334
#
# _framework density 19.377872
#
# number of rings (size 3 to 8) (size 9 to 14) (size 15 to 20)
#    0.000    2.286    0.000    2.143    2.000    5.714 
#    0.000    3.571    0.000    0.000    0.000    0.000 
#    0.000    0.000    0.000    0.000    0.000    0.000 
#
# Total GULP energy -347082.434747 kJ/mol
# GULP energy per Si atom -12395.801241 kJ/mol
# Density = 1.933377 g / cm^3
# Si number density = 19.377872 Si / 1000 Ang^3
#
#
#
# Elastic Constant Matrix: (Units=GPa)
#
#
# Indices 1 2 3 4 5 6 
#
# 1 83.6489 20.2165 19.5041 0.0043 -7.4307 -0.0011
# 2 20.2165 42.3010 26.5991 -0.0071 -1.0848 0.0042
# 3 19.5041 26.5991 98.2742 -0.0002 -2.7284 0.0012
# 4 0.0043 -0.0071 -0.0002 17.2451 0.0026 0.8226
# 5 -7.4307 -1.0848 -2.7284 0.0026 30.5154 -0.0005
# 6 -0.0011 0.0042 0.0012 0.8226 -0.0005 20.9813
#
#
#
# Elastic Compliance Matrix: (Units=1/GPa)
#
#
# Indices 1 2 3 4 5 6 
#
# 1 0.013903 -0.005886 -0.001081 -0.000006 0.003080 0.000002
# 2 -0.005886 0.030984 -0.007245 0.000015 -0.000980 -0.000007
# 3 -0.001081 -0.007245 0.012367 -0.000003 0.000585 0.000001
# 4 -0.000006 0.000015 -0.000003 0.058096 -0.000006 -0.002278
# 5 0.003080 -0.000980 0.000585 -0.000006 0.033538 0.000001
# 6 0.000002 -0.000007 0.000001 -0.002278 0.000001 0.047751
#
#
# Mechanical properties :
#
#
# Convention : Reuss Voigt Hill
#
# Bulk Modulus (GPa) = 34.68560 39.65150 37.16855
# Shear Modulus (GPa) = 21.30631 24.27531 22.79081
#
# Velocity S-wave (km/s) = 3.31949 3.54324 3.43319
# Velocity P-wave (km/s) = 5.71231 6.10295 5.91086
#
# Compressibility (1/GPa) = 0.02883041
#
# Stress axis : x y z
#
# Youngs Moduli (GPa) = 71.92796 32.27492 80.85833
#
# Poissons Ratio (x) = 0.18997 0.08738
# Poissons Ratio (y) = 0.42336 0.58583
# Poissons Ratio (z) = 0.07773 0.23384
#
# Static dielectric constant tensor:
#      x y z
#    x 3.533210 0.000000 -0.164110 
#    y 0.000000 3.509660 0.000020 
#    z -0.164110 0.000020 3.704490 
# 
# 
# High freq. dielectric constant tensor:
#      x y z
#    x 1.750780 0.000000 -0.014820 
#    y 0.000000 1.738770 0.000000 
#    z -0.014820 0.000000 1.757940 
# 
# From -- ./inp_files/329563.got.cif
#   From: 2010.06.25/outbox.cif.g09.slc.cpg/sg12_165_cif.got.tgz:329563.got - 2010.06.28 00:19:55.
