data_PCOD8097306
_publ_section_title
;
Structure prediction by ZEFSAII (Michael W. Deem and Ramdas Pophale) SiO2 
 PCOD8097306
Probable space group: C 2/M
;
_chemical_formula_sum "Si O2"
_cell_formula_units_Z 64
_cell_length_a 28.382584
_cell_length_b 8.668454
_cell_length_c 15.952007
_cell_angle_alpha 90.000000
_cell_angle_beta 116.975867
_cell_angle_gamma 90.000000
_cell_volume 3497.703187
_symmetry_space_group_name_H-M "C 2/M"
_symmetry_group_IT_number 12
_symmetry_cell_setting 'monoclinic'
loop_
_space_group_symop_operation_xyz
x,y,z
-x,y,-z
-x,-y,-z
x,-y,z
1/2+x,1/2+y,z
1/2-x,1/2+y,-z
1/2-x,1/2-y,-z
1/2+x,1/2-y,z
loop_
_atom_site_type_symbol
_atom_site_label
_atom_site_fract_x
_atom_site_fract_y
_atom_site_fract_z
Si Si1 0.847589 0.681543 0.396913
Si Si2 0.400582 0.181600 0.604507
Si Si3 0.636727 0.819578 0.245430
Si Si4 0.118470 0.318662 0.756090
Si Si5 0.511472 0.816988 0.758812
Si Si6 0.971846 0.180013 0.890469
Si Si7 0.262660 0.681524 0.758846
Si Si8 0.273866 0.318550 0.102700
O O1 0.846693 0.500000 0.409355
O O2 0.873923 0.759342 0.500705
O O3 0.881901 0.725515 0.342665
O O4 0.787467 0.740886 0.336297
O O5 0.366602 0.224808 0.659111
O O6 0.460725 0.240411 0.664431
O O7 0.402372 0.000000 0.594129
O O8 0.582513 0.775061 0.155786
O O9 0.684098 0.722319 0.245611
O O10 0.647259 0.000000 0.240714
O O11 0.127856 0.500000 0.775333
O O12 0.063295 0.264235 0.750762
O O13 0.165340 0.232070 0.841226
O O14 0.511196 0.734345 0.848615
O O15 0.509471 0.000000 0.771733
O O16 0.959039 0.000000 0.870749
O O17 0.000000 0.218628 0.000000
O O18 0.258672 0.500000 0.770436
O O19 0.261441 0.760875 0.848298
O O20 0.270547 0.500000 0.095792
O O21 0.250000 0.250000 0.000000
#
# Coordination Sequence:
#
# PCOD8097306 Si02
#       8
#     8   8   8   8   8   8   8   8
#     4   8  15  29  50  75 105 138 171 210 252 299
#     4   8  15  29  49  76 106 136 172 210 251 300
#     4  10  20  34  53  77 105 136 171 213 258 306
#     4   9  18  33  52  77 107 138 172 210 255 305
#     4   9  18  32  52  77 105 135 168 209 255 306
#     4  10  21  36  53  73  99 132 171 214 258 307
#     4  10  20  35  54  77 105 137 173 212 256 305
#     4  11  22  37  56  77 103 135 171 214 260 306
#
# _framework density 18.297722
#
# number of rings (size 3 to 8) (size 9 to 14) (size 15 to 20)
#    0.000    2.625    0.000    3.750    0.000    3.500 
#    0.000    5.000    0.000   18.000    0.000    7.000 
#    0.000    0.000    0.000    0.000    0.000    0.000 
#
# Total GULP energy -396768.338645 kJ/mol
# GULP energy per Si atom -12399.010583 kJ/mol
# Density = 1.825608 g / cm^3
# Si number density = 18.297722 Si / 1000 Ang^3
#
#
#
# Elastic Constant Matrix: (Units=GPa)
#
#
# Indices 1 2 3 4 5 6 
#
# 1 127.5028 30.6798 58.6923 0.0000 -14.6375 0.0000
# 2 30.6798 57.1965 41.8302 0.0000 -0.1972 0.0000
# 3 58.6923 41.8302 163.3486 0.0000 -7.7898 0.0000
# 4 0.0000 0.0000 0.0000 17.5937 0.0000 -0.3984
# 5 -14.6375 -0.1972 -7.7898 0.0000 12.8944 0.0000
# 6 0.0000 0.0000 0.0000 -0.3984 0.0000 29.0236
#
#
#
# Elastic Compliance Matrix: (Units=1/GPa)
#
#
# Indices 1 2 3 4 5 6 
#
# 1 0.011273 -0.004231 -0.002430 0.000000 0.011264 0.000000
# 2 -0.004231 0.023220 -0.004776 0.000000 -0.007333 0.000000
# 3 -0.002430 -0.004776 0.008323 0.000000 0.002197 0.000000
# 4 0.000000 0.000000 0.000000 0.056856 0.000000 0.000781
# 5 0.011264 -0.007333 0.002197 0.000000 0.091554 0.000000
# 6 0.000000 0.000000 0.000000 0.000781 0.000000 0.034465
#
#
# Mechanical properties :
#
#
# Convention : Reuss Voigt Hill
#
# Bulk Modulus (GPa) = 50.14285 67.82806 58.98546
# Shear Modulus (GPa) = 19.59161 26.35872 22.97517
#
# Velocity S-wave (km/s) = 3.27573 3.79957 3.54733
# Velocity P-wave (km/s) = 6.46301 7.50990 7.00604
#
# Compressibility (1/GPa) = 0.01994302
#
# Stress axis : x y z
#
# Youngs Moduli (GPa) = 88.71134 43.06562 120.15402
#
# Poissons Ratio (x) = 0.18220 0.29195
# Poissons Ratio (y) = 0.37531 0.57383
# Poissons Ratio (z) = 0.21555 0.20567
#
# Static dielectric constant tensor:
#      x y z
#    x 0.872980 0.000000 -0.051820 
#    y 0.000000 3.178100 0.000000 
#    z -0.051820 0.000000 3.621970 
# 
# 
# High freq. dielectric constant tensor:
#      x y z
#    x 1.712500 0.000000 -0.001390 
#    y 0.000000 1.690820 0.000000 
#    z -0.001390 0.000000 1.715180 
# 
# From -- ./inp_files/244201.got.cif
#   From: 2010.06.25/outbox.cif.g09.slc.cpg/sg12_123_cif.got.tgz:244201.got - 2010.06.28 00:19:55.
