data_PCOD8097205
_publ_section_title
;
Structure prediction by ZEFSAII (Michael W. Deem and Ramdas Pophale) SiO2 
 PCOD8097205
Probable space group: C 2/M
;
_chemical_formula_sum "Si O2"
_cell_formula_units_Z 48
_cell_length_a 15.174888
_cell_length_b 9.489913
_cell_length_c 19.201408
_cell_angle_alpha 90.000000
_cell_angle_beta 78.854796
_cell_angle_gamma 90.000000
_cell_volume 2713.013717
_symmetry_space_group_name_H-M "C 2/M"
_symmetry_group_IT_number 12
_symmetry_cell_setting 'monoclinic'
loop_
_space_group_symop_operation_xyz
x,y,z
-x,y,-z
-x,-y,-z
x,-y,z
1/2+x,1/2+y,z
1/2-x,1/2+y,-z
1/2-x,1/2-y,-z
1/2+x,1/2-y,z
loop_
_atom_site_type_symbol
_atom_site_label
_atom_site_fract_x
_atom_site_fract_y
_atom_site_fract_z
Si Si1 0.572977 0.334566 0.668569
Si Si2 0.458034 0.332883 0.170312
Si Si3 0.684841 0.336410 0.917916
Si Si4 0.242339 0.663005 0.431265
Si Si5 0.044213 0.336317 0.420135
Si Si6 0.855646 0.836515 0.918481
O O1 0.553363 0.500000 0.664969
O O2 0.561240 0.279734 0.748934
O O3 0.674631 0.298103 0.631080
O O4 0.500486 0.255125 0.633024
O O5 0.457668 0.500000 0.165922
O O6 0.381557 0.275054 0.130482
O O7 0.553856 0.276347 0.129658
O O8 0.707241 0.500000 0.902720
O O9 0.775959 0.250407 0.896046
O O10 0.638837 0.311573 0.999681
O O11 0.243325 0.500000 0.452806
O O12 0.250000 0.750000 0.500000
O O13 0.150136 0.699298 0.405317
O O14 0.026480 0.500000 0.406835
O O15 0.000000 0.292845 0.500000
O O16 0.840343 0.000000 0.903407
#
# Coordination Sequence:
#
# PCOD8097205 Si02
#       6
#     8   8   8   8   8   8
#     4  10  21  35  52  76 101 131 171 210 247 296
#     4   9  18  33  51  72 103 137 169 204 248 301
#     4   9  17  31  53  77 100 133 173 208 245 293
#     4  10  20  34  53  74  97 126 162 204 249 296
#     4  10  20  35  54  75 101 130 161 204 257 305
#     4   9  17  31  52  76 102 133 170 209 248 292
#
# _framework density 17.692502000000001
#
# number of rings (size 3 to 8) (size 9 to 14) (size 15 to 20)
#    0.000    2.500    1.667    0.500    0.000    4.333 
#    0.000    4.167    0.000    4.000    0.000    0.000 
#    0.000    0.000    0.000    0.000    0.000    0.000 
#
# Total GULP energy -297642.434660 kJ/mol
# GULP energy per Si atom -12401.768111 kJ/mol
# Density = 1.765223 g / cm^3
# Si number density = 17.692502 Si / 1000 Ang^3
#
#
#
# Elastic Constant Matrix: (Units=GPa)
#
#
# Indices 1 2 3 4 5 6 
#
# 1 179.6937 59.2385 103.7815 0.0000 -0.1512 0.0000
# 2 59.2385 45.8465 47.7846 0.0000 2.3395 0.0000
# 3 103.7815 47.7846 139.5700 0.0000 2.7909 0.0000
# 4 0.0000 0.0000 0.0000 18.5055 0.0000 3.0552
# 5 -0.1512 2.3395 2.7909 0.0000 21.2452 0.0000
# 6 0.0000 0.0000 0.0000 3.0552 0.0000 32.1780
#
#
#
# Elastic Compliance Matrix: (Units=1/GPa)
#
#
# Indices 1 2 3 4 5 6 
#
# 1 0.012058 -0.009784 -0.005654 0.000000 0.001906 0.000000
# 2 -0.009784 0.041957 -0.007014 0.000000 -0.003768 0.000000
# 3 -0.005654 -0.007014 0.013792 0.000000 -0.001080 0.000000
# 4 0.000000 0.000000 0.000000 0.054899 0.000000 -0.005213
# 5 0.001906 -0.003768 -0.001080 0.000000 0.047640 0.000000
# 6 0.000000 0.000000 0.000000 -0.005213 0.000000 0.031572
#
#
# Mechanical properties :
#
#
# Convention : Reuss Voigt Hill
#
# Bulk Modulus (GPa) = 43.66441 87.41329 65.53885
# Shear Modulus (GPa) = 19.64980 24.67277 22.16128
#
# Velocity S-wave (km/s) = 3.33623 3.73840 3.54302
# Velocity P-wave (km/s) = 6.29076 8.25520 7.33901
#
# Compressibility (1/GPa) = 0.02290194
#
# Stress axis : x y z
#
# Youngs Moduli (GPa) = 82.93591 23.83413 72.50380
#
# Poissons Ratio (x) = 0.23318 0.40995
# Poissons Ratio (y) = 0.81141 0.50858
# Poissons Ratio (z) = 0.46894 0.16718
#
# Static dielectric constant tensor:
#      x y z
#    x 3.470760 0.000000 -0.098780 
#    y 0.000000 3.086090 0.000000 
#    z -0.098780 0.000000 3.365090 
# 
# 
# High freq. dielectric constant tensor:
#      x y z
#    x 1.697670 0.000000 -0.004730 
#    y 0.000000 1.662170 0.000000 
#    z -0.004730 0.000000 1.683590 
# 
# From -- ./inp_files/212653.got.cif
#   From: 2010.06.25/outbox.cif.g09.slc.cpg/sg12_107_cif.got.tgz:212653.got - 2010.06.28 00:19:55.
