data_PCOD8097282
_publ_section_title
;
Structure prediction by ZEFSAII (Michael W. Deem and Ramdas Pophale) SiO2 
 PCOD8097282
Probable space group: C 2/M
;
_chemical_formula_sum "Si O2"
_cell_formula_units_Z 56
_cell_length_a 18.764793
_cell_length_b 8.693547
_cell_length_c 29.414432
_cell_angle_alpha 90.000000
_cell_angle_beta 142.583671
_cell_angle_gamma 90.000000
_cell_volume 2915.550728
_symmetry_space_group_name_H-M "C 2/M"
_symmetry_group_IT_number 12
_symmetry_cell_setting 'monoclinic'
loop_
_space_group_symop_operation_xyz
x,y,z
-x,y,-z
-x,-y,-z
x,-y,z
1/2+x,1/2+y,z
1/2-x,1/2+y,-z
1/2-x,1/2-y,-z
1/2+x,1/2-y,z
loop_
_atom_site_type_symbol
_atom_site_label
_atom_site_fract_x
_atom_site_fract_y
_atom_site_fract_z
Si Si1 0.767209 0.820014 0.870642
Si Si2 0.052169 0.681424 0.704161
Si Si3 0.367141 0.682226 0.428930
Si Si4 0.287116 0.182035 0.295078
Si Si5 0.090256 0.318834 0.135479
Si Si6 0.336002 0.681287 0.006784
Si Si7 0.791397 0.682860 0.568210
O O1 0.637152 0.767305 0.788597
O O2 0.865225 0.730180 0.891751
O O3 0.786494 0.000000 0.870431
O O4 0.780635 0.779049 0.929891
O O5 0.042681 0.500000 0.698296
O O6 0.107627 0.739253 0.684589
O O7 0.921863 0.749277 0.644804
O O8 0.500000 0.744187 0.500000
O O9 0.364838 0.500000 0.424019
O O10 0.304538 0.749767 0.353390
O O11 0.295700 0.740919 0.436588
O O12 0.164573 0.240699 0.213116
O O13 0.283146 0.000000 0.295919
O O14 0.098962 0.500000 0.145363
O O15 0.958229 0.265492 0.074686
O O16 0.352193 0.500000 0.021570
O O17 0.250000 0.750000 0.000000
O O18 0.791181 0.500000 0.565066
O O19 0.750000 0.750000 0.500000
#
# Coordination Sequence:
#
# PCOD8097282 Si02
#       7
#     8   8   8   8   8   8   8
#     4   9  19  37  59  81 108 144 186 232 281 335
#     4   8  16  33  55  77 100 133 178 222 267 319
#     4  10  21  35  52  79 114 147 180 225 280 333
#     4  10  20  36  58  81 106 139 183 231 276 330
#     4  11  22  37  59  84 112 147 186 230 282 340
#     4  11  23  38  57  83 116 151 188 233 282 332
#     4  10  20  34  53  76 106 143 181 222 268 324
#
# _framework density 19.207350000000002
#
# number of rings (size 3 to 8) (size 9 to 14) (size 15 to 20)
#    0.000    2.143    0.000    4.286    0.000    4.857 
#    0.000    5.714    0.000    0.000    0.000    0.000 
#    0.000    0.000    0.000    0.000    0.000    0.000 
#
# Total GULP energy -347235.598298 kJ/mol
# GULP energy per Si atom -12401.271368 kJ/mol
# Density = 1.916363 g / cm^3
# Si number density = 19.207350 Si / 1000 Ang^3
#
#
#
# Elastic Constant Matrix: (Units=GPa)
#
#
# Indices 1 2 3 4 5 6 
#
# 1 111.0627 -78.0755 19.4164 0.0000 1.5817 0.0003
# 2 -78.0755 -215.4596 -157.7134 0.0000 -9.2494 0.0006
# 3 19.4164 -157.7134 4.7518 0.0000 -3.0237 0.0005
# 4 0.0000 0.0000 0.0000 30.3703 0.0000 -3.8519
# 5 1.5817 -9.2494 -3.0237 0.0000 42.5562 0.0000
# 6 0.0003 0.0006 0.0005 -3.8519 0.0000 26.2520
#
#
#
# Elastic Compliance Matrix: (Units=1/GPa)
#
#
# Indices 1 2 3 4 5 6 
#
# 1 0.011058 0.001162 -0.007024 0.000000 -0.000657 0.000000
# 2 0.001162 -0.000052 -0.006814 0.000000 -0.000539 0.000000
# 3 -0.007024 -0.006814 0.012804 0.000000 -0.000310 0.000000
# 4 0.000000 0.000000 0.000000 0.033551 0.000000 0.004923
# 5 -0.000657 -0.000539 -0.000310 0.000000 0.023384 0.000000
# 6 0.000000 0.000000 0.000000 0.004923 0.000000 0.038815
#
#
# Mechanical properties :
#
#
# Convention : Reuss Voigt Hill
#
# Bulk Modulus (GPa) = -649.38268 -59.15445 -354.26856
# Shear Modulus (GPa) = 34.62683 27.61754 31.12219
#
# Velocity S-wave (km/s) = 4.25053 3.79603 4.02970
# Velocity P-wave (km/s) = 17.74078 3.41344 12.77472
#
# Compressibility (1/GPa) = -0.00153992
#
# Stress axis : x y z
#
# Youngs Moduli (GPa) = 90.42928 -19282.75607 78.10232
#
# Poissons Ratio (x) = 22.41420 0.54858
# Poissons Ratio (y) = -0.10511 0.53216
# Poissons Ratio (z) = 0.63516 -131.38534
#
# Static dielectric constant tensor:
#      x y z
#    x 3.719340 0.000000 0.176450 
#    y 0.000000 3.364550 0.000000 
#    z 0.176450 0.000000 3.815520 
# 
# 
# High freq. dielectric constant tensor:
#      x y z
#    x 1.749350 0.000000 0.003200 
#    y 0.000000 1.733230 0.000000 
#    z 0.003200 0.000000 1.763220 
# 
# From -- ./inp_files/363178.got.cif
#   From: 2010.06.25/outbox.cif.g09.slc.cpg/sg12_182_cif.got.tgz:363178.got - 2010.06.28 00:19:55.
