data_PCOD8097355
_publ_section_title
;
Structure prediction by ZEFSAII (Michael W. Deem and Ramdas Pophale) SiO2 
 PCOD8097355
Probable space group: C 2/M
;
_chemical_formula_sum "Si O2"
_cell_formula_units_Z 48
_cell_length_a 20.103388
_cell_length_b 8.783966
_cell_length_c 15.739581
_cell_angle_alpha 90.000000
_cell_angle_beta 71.082426
_cell_angle_gamma 90.000000
_cell_volume 2629.285576
_symmetry_space_group_name_H-M "C 2/M"
_symmetry_group_IT_number 12
_symmetry_cell_setting 'monoclinic'
loop_
_space_group_symop_operation_xyz
x,y,z
-x,y,-z
-x,-y,-z
x,-y,z
1/2+x,1/2+y,z
1/2-x,1/2+y,-z
1/2-x,1/2-y,-z
1/2+x,1/2-y,z
loop_
_atom_site_type_symbol
_atom_site_label
_atom_site_fract_x
_atom_site_fract_y
_atom_site_fract_z
Si Si1 0.129936 0.178908 0.261819
Si Si2 0.182992 0.680113 0.072152
Si Si3 0.033909 0.679689 0.070376
Si Si4 0.511824 0.820862 0.728554
Si Si5 0.651388 0.324208 0.604778
Si Si6 0.289074 0.324157 0.602187
O O1 0.176371 0.259058 0.170435
O O2 0.163969 0.222562 0.337463
O O3 0.050085 0.237622 0.297045
O O4 0.130494 0.000000 0.245109
O O5 0.190034 0.500000 0.072608
O O6 0.114723 0.732065 0.046524
O O7 0.250000 0.750000 0.000000
O O8 0.030806 0.500000 0.062692
O O9 0.990435 0.730893 0.171690
O O10 0.000000 0.755858 0.000000
O O11 0.585958 0.777394 0.658828
O O12 0.498830 0.000000 0.726030
O O13 0.634211 0.500000 0.628888
O O14 0.665196 0.290225 0.500294
O O15 0.718859 0.276901 0.632257
O O16 0.265991 0.500000 0.614798
#
# Coordination Sequence:
#
# PCOD8097355 Si02
#       6
#     8   8   8   8   8   8
#     4  10  20  36  56  76 103 139 178 219 262 310
#     4  10  20  34  53  78 106 136 172 215 263 313
#     4   8  16  32  52  72  96 130 170 208 247 297
#     4  10  20  34  53  78 107 137 173 216 262 315
#     4  10  20  35  55  78 105 136 173 218 265 315
#     4   9  20  37  55  76 103 138 177 216 263 317
#
# _framework density 18.25591
#
# number of rings (size 3 to 8) (size 9 to 14) (size 15 to 20)
#    0.000    2.500    0.000    3.000    0.000    4.000 
#    0.000    6.667    0.000   17.000    0.000    0.000 
#    0.000    0.000    0.000    0.000    0.000    0.000 
#
# Total GULP energy -297627.984515 kJ/mol
# GULP energy per Si atom -12401.166021 kJ/mol
# Density = 1.821436 g / cm^3
# Si number density = 18.255910 Si / 1000 Ang^3
#
#
#
# Elastic Constant Matrix: (Units=GPa)
#
#
# Indices 1 2 3 4 5 6 
#
# 1 119.7346 36.7485 89.1916 0.0000 6.4649 0.0000
# 2 36.7485 60.7875 38.3501 0.0000 1.5997 0.0000
# 3 89.1916 38.3501 109.1109 0.0000 6.4579 0.0000
# 4 0.0000 0.0000 0.0000 30.1799 0.0000 -5.1395
# 5 6.4649 1.5997 6.4579 0.0000 40.1993 0.0000
# 6 0.0000 0.0000 0.0000 -5.1395 0.0000 33.7014
#
#
#
# Elastic Compliance Matrix: (Units=1/GPa)
#
#
# Indices 1 2 3 4 5 6 
#
# 1 0.021659 -0.002482 -0.016792 0.000000 -0.000687 0.000000
# 2 -0.002482 0.021427 -0.005528 0.000000 0.000435 0.000000
# 3 -0.016792 -0.005528 0.024899 0.000000 -0.001079 0.000000
# 4 0.000000 0.000000 0.000000 0.034018 0.000000 0.005188
# 5 -0.000687 0.000435 -0.001079 0.000000 0.025143 0.000000
# 6 0.000000 0.000000 0.000000 0.005188 0.000000 0.030464
#
#
# Mechanical properties :
#
#
# Convention : Reuss Voigt Hill
#
# Bulk Modulus (GPa) = 54.40495 68.69038 61.54767
# Shear Modulus (GPa) = 23.43667 29.17231 26.30449
#
# Velocity S-wave (km/s) = 3.58688 4.00179 3.80000
# Velocity P-wave (km/s) = 6.85713 7.68508 7.28288
#
# Compressibility (1/GPa) = 0.01838068
#
# Stress axis : x y z
#
# Youngs Moduli (GPa) = 46.16951 46.66928 40.16297
#
# Poissons Ratio (x) = 0.11582 0.67443
# Poissons Ratio (y) = 0.11458 0.22203
# Poissons Ratio (z) = 0.77529 0.25800
#
# Static dielectric constant tensor:
#      x y z
#    x 3.458810 0.000000 0.135490 
#    y 0.000000 3.317220 0.000000 
#    z 0.135490 0.000000 3.474780 
# 
# 
# High freq. dielectric constant tensor:
#      x y z
#    x 1.711690 0.000000 0.000710 
#    y 0.000000 1.704440 0.000000 
#    z 0.000710 0.000000 1.709640 
# 
# From -- ./inp_files/229890.got.cif
#   From: 2010.06.25/outbox.cif.g09.slc.cpg/sg12_115_cif.got.tgz:229890.got - 2010.06.28 00:19:55.
