data_PCOD8097276
_publ_section_title
;
Structure prediction by ZEFSAII (Michael W. Deem and Ramdas Pophale) SiO2 
 PCOD8097276
Probable space group: C 2/M
;
_chemical_formula_sum "Si O2"
_cell_formula_units_Z 64
_cell_length_a 19.446089
_cell_length_b 9.007958
_cell_length_c 19.756395
_cell_angle_alpha 90.000000
_cell_angle_beta 85.730011
_cell_angle_gamma 90.000000
_cell_volume 3451.112859
_symmetry_space_group_name_H-M "C 2/M"
_symmetry_group_IT_number 12
_symmetry_cell_setting 'monoclinic'
loop_
_space_group_symop_operation_xyz
x,y,z
-x,y,-z
-x,-y,-z
x,-y,z
1/2+x,1/2+y,z
1/2-x,1/2+y,-z
1/2-x,1/2-y,-z
1/2+x,1/2-y,z
loop_
_atom_site_type_symbol
_atom_site_label
_atom_site_fract_x
_atom_site_fract_y
_atom_site_fract_z
Si Si1 0.476161 0.827581 0.192928
Si Si2 0.365785 0.826004 0.836821
Si Si3 0.774000 0.328333 0.723085
Si Si4 0.203550 0.329497 0.424576
Si Si5 0.818816 0.831045 0.974180
Si Si6 0.342960 0.169522 0.434558
Si Si7 0.554626 0.669101 0.941167
Si Si8 0.121981 0.824429 0.696054
O O1 0.557037 0.795091 0.193939
O O2 0.447087 0.772241 0.123775
O O3 0.439341 0.741687 0.255935
O O4 0.458948 0.000000 0.200542
O O5 0.313724 0.757175 0.784168
O O6 0.354693 0.743339 0.907626
O O7 0.353392 0.000000 0.849799
O O8 0.766865 0.500000 0.740467
O O9 0.820322 0.304012 0.651534
O O10 0.696305 0.265058 0.718372
O O11 0.232149 0.500000 0.428641
O O12 0.262743 0.209589 0.433379
O O13 0.142345 0.306796 0.485175
O O14 0.801748 0.000000 0.956902
O O15 0.750000 0.750000 0.000000
O O16 0.869035 0.821324 0.034548
O O17 0.388214 0.271760 0.381308
O O18 0.355936 0.000000 0.412276
O O19 0.535640 0.500000 0.922205
O O20 0.500000 0.729179 0.000000
O O21 0.117966 0.000000 0.698781
#
# Coordination Sequence:
#
# PCOD8097276 Si02
#       8
#     8   8   8   8   8   8   8   8
#     4  11  23  36  55  81 108 136 174 225 269 307
#     4  10  21  38  57  78 107 141 175 216 265 316
#     4   8  16  32  53  76 102 136 176 211 255 315
#     4   8  14  26  46  72 102 139 174 210 259 315
#     4  11  24  40  59  82 108 138 174 217 263 313
#     4   9  15  25  45  74 106 133 170 220 264 305
#     4  10  21  40  61  78 102 140 181 213 254 319
#     4  10  20  34  53  76 105 141 179 216 261 320
#
# _framework density 18.544744000000001
#
# number of rings (size 3 to 8) (size 9 to 14) (size 15 to 20)
#    0.000    2.375    1.250    2.250    1.750    2.250 
#    0.000    2.500    0.000    0.750    0.000    5.250 
#    0.000    0.000    0.000    0.000    0.000    0.000 
#
# Total GULP energy -396591.608918 kJ/mol
# GULP energy per Si atom -12393.487779 kJ/mol
# Density = 1.850254 g / cm^3
# Si number density = 18.544744 Si / 1000 Ang^3
#
#
#
# Elastic Constant Matrix: (Units=GPa)
#
#
# Indices 1 2 3 4 5 6 
#
# 1 62.2069 38.0877 22.6452 0.0000 -15.6646 0.0000
# 2 38.0877 78.7490 40.3892 0.0000 -16.4043 0.0000
# 3 22.6452 40.3892 79.3611 0.0000 -25.9240 0.0000
# 4 0.0000 0.0000 0.0000 29.7931 0.0000 -7.4106
# 5 -15.6646 -16.4043 -25.9240 0.0000 30.7308 0.0000
# 6 0.0000 0.0000 0.0000 -7.4106 0.0000 23.9888
#
#
#
# Elastic Compliance Matrix: (Units=1/GPa)
#
#
# Indices 1 2 3 4 5 6 
#
# 1 0.024081 -0.010583 0.000937 0.000000 0.007417 0.000000
# 2 -0.010583 0.021973 -0.008411 0.000000 -0.000761 0.000000
# 3 0.000937 -0.008411 0.021124 0.000000 0.013808 0.000000
# 4 0.000000 0.000000 0.000000 0.036358 0.000000 0.011232
# 5 0.007417 -0.000761 0.013808 0.000000 0.047563 0.000000
# 6 0.000000 0.000000 0.000000 0.011232 0.000000 0.045156
#
#
# Mechanical properties :
#
#
# Convention : Reuss Voigt Hill
#
# Bulk Modulus (GPa) = 32.19130 46.95125 39.57128
# Shear Modulus (GPa) = 20.59945 24.84888 22.72417
#
# Velocity S-wave (km/s) = 3.33648 3.66449 3.50433
# Velocity P-wave (km/s) = 5.67796 6.57856 6.14478
#
# Compressibility (1/GPa) = 0.03106429
#
# Stress axis : x y z
#
# Youngs Moduli (GPa) = 41.52573 45.51120 47.33840
#
# Poissons Ratio (x) = 0.48164 -0.04436
# Poissons Ratio (y) = 0.43946 0.39818
# Poissons Ratio (z) = -0.03892 0.38281
#
# Static dielectric constant tensor:
#      x y z
#    x 3.194550 0.000000 -0.023530 
#    y 0.000000 3.430070 0.000000 
#    z -0.023530 0.000000 3.774860 
# 
# 
# High freq. dielectric constant tensor:
#      x y z
#    x 1.684410 0.000000 -0.014500 
#    y 0.000000 1.713850 0.000000 
#    z -0.014500 0.000000 1.736960 
# 
# From -- ./inp_files/281350.got.cif
#   From: 2010.06.25/outbox.cif.g09.slc.cpg/sg12_141_cif.got.tgz:281350.got - 2010.06.28 00:19:55.
