data_PCOD8097949
_publ_section_title
;
Structure prediction by ZEFSAII (Michael W. Deem and Ramdas Pophale) SiO2 
 PCOD8097949
Probable space group: C 2/M
;
_chemical_formula_sum "Si O2"
_cell_formula_units_Z 64
_cell_length_a 30.427403
_cell_length_b 9.392635
_cell_length_c 14.359800
_cell_angle_alpha 90.000000
_cell_angle_beta 125.947575
_cell_angle_gamma 90.000000
_cell_volume 3322.360848
_symmetry_space_group_name_H-M "C 2/M"
_symmetry_group_IT_number 12
_symmetry_cell_setting 'monoclinic'
loop_
_space_group_symop_operation_xyz
x,y,z
-x,y,-z
-x,-y,-z
x,-y,z
1/2+x,1/2+y,z
1/2-x,1/2+y,-z
1/2-x,1/2-y,-z
1/2+x,1/2-y,z
loop_
_atom_site_type_symbol
_atom_site_label
_atom_site_fract_x
_atom_site_fract_y
_atom_site_fract_z
Si Si1 0.789304 0.335678 0.982377
Si Si2 0.747822 0.162038 0.272473
Si Si3 0.000121 0.669169 0.893654
Si Si4 0.555777 0.832227 0.615599
Si Si5 0.790622 0.163491 0.614644
Si Si6 0.411461 0.168003 0.139921
Si Si7 0.127503 0.164459 0.569310
Si Si8 0.408984 0.339070 0.678560
O O1 0.789373 0.500000 0.014038
O O2 0.766023 0.316497 0.851369
O O3 0.750000 0.250000 0.000000
O O4 0.850291 0.270284 0.062304
O O5 0.709815 0.267973 0.283357
O O6 0.809961 0.203291 0.369329
O O7 0.736549 0.000000 0.290361
O O8 0.995976 0.500000 0.884988
O O9 0.053924 0.724124 0.905796
O O10 0.948000 0.729066 0.776923
O O11 0.000000 0.724344 0.000000
O O12 0.500000 0.777379 0.500000
O O13 0.557786 0.787617 0.726638
O O14 0.605905 0.759029 0.626679
O O15 0.562358 0.000000 0.611205
O O16 0.750000 0.250000 0.500000
O O17 0.850373 0.177620 0.649848
O O18 0.771760 0.000000 0.595346
O O19 0.407103 0.000000 0.126521
O O20 0.093998 0.199095 0.434311
O O21 0.121758 0.000000 0.590743
O O22 0.430537 0.500000 0.718833
#
# Coordination Sequence:
#
# PCOD8097949 Si02
#       8
#     8   8   8   8   8   8   8   8
#     4  10  21  37  60  84 117 157 193 242 295 343
#     4  10  21  37  57  83 115 152 190 236 294 347
#     4  10  22  39  62  88 111 148 202 244 282 343
#     4  10  20  34  55  80 109 145 185 232 287 340
#     4  11  22  38  59  86 119 155 193 239 292 352
#     4   9  19  37  56  82 118 148 187 245 291 332
#     4  10  20  36  55  80 114 144 181 232 282 345
#     4  10  22  39  57  81 118 154 185 235 296 341
#
# _framework density 19.263411000000001
#
# number of rings (size 3 to 8) (size 9 to 14) (size 15 to 20)
#    0.000    2.000    1.250    1.875    1.750    4.000 
#    0.000    1.250    0.000    0.000    0.000    0.000 
#    0.000    0.000    0.000    0.000    0.000    0.000 
#
# Total GULP energy -396859.300575 kJ/mol
# GULP energy per Si atom -12401.853143 kJ/mol
# Density = 1.921957 g / cm^3
# Si number density = 19.263411 Si / 1000 Ang^3
#
#
#
# Elastic Constant Matrix: (Units=GPa)
#
#
# Indices 1 2 3 4 5 6 
#
# 1 124.1074 48.4033 50.7916 0.0000 -17.9331 0.0000
# 2 48.4033 55.7272 29.0067 0.0000 -4.3263 0.0000
# 3 50.7916 29.0067 106.7470 0.0000 2.7944 0.0000
# 4 0.0000 0.0000 0.0000 23.2156 0.0000 1.4996
# 5 -17.9331 -4.3263 2.7944 0.0000 28.0809 0.0000
# 6 0.0000 0.0000 0.0000 1.4996 0.0000 34.6530
#
#
#
# Elastic Compliance Matrix: (Units=1/GPa)
#
#
# Indices 1 2 3 4 5 6 
#
# 1 0.015135 -0.010033 -0.004700 0.000000 0.008587 0.000000
# 2 -0.010033 0.027963 -0.002777 0.000000 -0.001823 0.000000
# 3 -0.004700 -0.002777 0.012481 0.000000 -0.004671 0.000000
# 4 0.000000 0.000000 0.000000 0.043195 0.000000 -0.001869
# 5 0.008587 -0.001823 -0.004671 0.000000 0.041279 0.000000
# 6 0.000000 0.000000 0.000000 -0.001869 0.000000 0.028938
#
#
# Mechanical properties :
#
#
# Convention : Reuss Voigt Hill
#
# Bulk Modulus (GPa) = 48.63956 60.33163 54.48559
# Shear Modulus (GPa) = 23.71204 27.74859 25.73031
#
# Velocity S-wave (km/s) = 3.51228 3.79949 3.65870
# Velocity P-wave (km/s) = 6.46163 7.11585 6.79662
#
# Compressibility (1/GPa) = 0.02055940
#
# Stress axis : x y z
#
# Youngs Moduli (GPa) = 66.07364 35.76209 80.12117
#
# Poissons Ratio (x) = 0.35879 0.37656
# Poissons Ratio (y) = 0.66289 0.22250
# Poissons Ratio (z) = 0.31054 0.09931
#
# Static dielectric constant tensor:
#      x y z
#    x 3.342730 0.000000 -0.419170 
#    y 0.000000 3.897500 0.000000 
#    z -0.419170 0.000000 3.168730 
# 
# 
# High freq. dielectric constant tensor:
#      x y z
#    x 1.760340 0.000000 -0.004370 
#    y 0.000000 1.730150 0.000000 
#    z -0.004370 0.000000 1.758510 
# 
# From -- ./inp_files/250060.got.cif
#   From: 2010.06.25/outbox.cif.g09.slc.cpg/sg12_126_cif.got.tgz:250060.got - 2010.06.28 00:19:55.
