data_PCOD8097879
_publ_section_title
;
Structure prediction by ZEFSAII (Michael W. Deem and Ramdas Pophale) SiO2 
 PCOD8097879
Probable space group: C 2/M
;
_chemical_formula_sum "Si O2"
_cell_formula_units_Z 56
_cell_length_a 22.437160
_cell_length_b 8.887926
_cell_length_c 14.720330
_cell_angle_alpha 90.000000
_cell_angle_beta 76.259785
_cell_angle_gamma 90.000000
_cell_volume 2851.518558
_symmetry_space_group_name_H-M "C 2/M"
_symmetry_group_IT_number 12
_symmetry_cell_setting 'monoclinic'
loop_
_space_group_symop_operation_xyz
x,y,z
-x,y,-z
-x,-y,-z
x,-y,z
1/2+x,1/2+y,z
1/2-x,1/2+y,-z
1/2-x,1/2-y,-z
1/2+x,1/2-y,z
loop_
_atom_site_type_symbol
_atom_site_label
_atom_site_fract_x
_atom_site_fract_y
_atom_site_fract_z
Si Si1 0.890651 0.822877 0.384311
Si Si2 0.345627 0.177427 0.219302
Si Si3 0.890318 0.674798 0.847481
Si Si4 0.032124 0.176747 0.330991
Si Si5 0.778778 0.672157 0.765620
Si Si6 0.874152 0.675372 0.574734
Si Si7 0.068647 0.677930 0.971923
O O1 0.855481 0.758973 0.310603
O O2 0.859217 0.753466 0.484782
O O3 0.961471 0.774910 0.355456
O O4 0.881654 0.000000 0.389531
O O5 0.278227 0.216191 0.206801
O O6 0.395085 0.240278 0.128607
O O7 0.351722 0.000000 0.230110
O O8 0.907781 0.500000 0.826556
O O9 0.939278 0.771981 0.774444
O O10 0.821557 0.705239 0.837416
O O11 0.894460 0.724171 0.950744
O O12 0.064136 0.256463 0.404562
O O13 0.040533 0.000000 0.340401
O O14 0.755854 0.500000 0.774056
O O15 0.816801 0.707180 0.660819
O O16 0.885193 0.500000 0.556009
O O17 0.064592 0.500000 0.965605
O O18 0.000000 0.747013 0.000000
#
# Coordination Sequence:
#
# PCOD8097879 Si02
#       7
#     8   8   8   8   8   8   8
#     4  11  23  37  54  79 114 150 181 225 282 328
#     4  11  23  37  57  82 107 143 189 230 271 326
#     4   9  18  35  59  82 109 149 188 224 270 323
#     4  10  20  34  54  84 117 145 178 224 278 329
#     4   9  20  38  56  78 110 144 180 226 278 325
#     4  10  21  37  59  83 108 145 188 226 269 326
#     4   9  18  34  57  85 113 140 178 228 274 319
#
# _framework density 19.638660000000002
#
# number of rings (size 3 to 8) (size 9 to 14) (size 15 to 20)
#    0.000    2.143    0.000    3.857    0.000    9.143 
#    0.000    1.429    0.000    3.857    0.000    0.000 
#    0.000    0.000    0.000    0.000    0.000    0.000 
#
# Total GULP energy -347304.499237 kJ/mol
# GULP energy per Si atom -12403.732116 kJ/mol
# Density = 1.959396 g / cm^3
# Si number density = 19.638660 Si / 1000 Ang^3
#
#
#
# Elastic Constant Matrix: (Units=GPa)
#
#
# Indices 1 2 3 4 5 6 
#
# 1 107.0701 35.1059 48.4645 0.0000 6.0502 0.0000
# 2 35.1059 58.8254 27.0575 0.0000 0.6294 0.0000
# 3 48.4645 27.0575 126.8333 0.0000 21.7766 0.0000
# 4 0.0000 0.0000 0.0000 19.3332 0.0000 1.3485
# 5 6.0502 0.6294 21.7766 0.0000 23.2281 0.0000
# 6 0.0000 0.0000 0.0000 1.3485 0.0000 31.4244
#
#
#
# Elastic Compliance Matrix: (Units=1/GPa)
#
#
# Indices 1 2 3 4 5 6 
#
# 1 0.012990 -0.006044 -0.003720 0.000000 0.000268 0.000000
# 2 -0.006044 0.021960 -0.003031 0.000000 0.003821 0.000000
# 3 -0.003720 -0.003031 0.011647 0.000000 -0.009868 0.000000
# 4 0.000000 0.000000 0.000000 0.051880 0.000000 -0.002226
# 5 0.000268 0.003821 -0.009868 0.000000 0.052129 0.000000
# 6 0.000000 0.000000 0.000000 -0.002226 0.000000 0.031918
#
#
# Mechanical properties :
#
#
# Convention : Reuss Voigt Hill
#
# Bulk Modulus (GPa) = 47.60628 57.10941 52.35785
# Shear Modulus (GPa) = 23.24317 26.93719 25.09018
#
# Velocity S-wave (km/s) = 3.44400 3.70759 3.57822
# Velocity P-wave (km/s) = 6.33313 6.88995 6.61740
#
# Compressibility (1/GPa) = 0.02100563
#
# Stress axis : x y z
#
# Youngs Moduli (GPa) = 76.98104 45.53777 85.85974
#
# Poissons Ratio (x) = 0.27523 0.31943
# Poissons Ratio (y) = 0.46527 0.26027
# Poissons Ratio (z) = 0.28640 0.13804
#
# Static dielectric constant tensor:
#      x y z
#    x 3.565750 0.000000 0.027200 
#    y 0.000000 3.420900 0.000000 
#    z 0.027200 0.000000 3.712220 
# 
# 
# High freq. dielectric constant tensor:
#      x y z
#    x 1.764470 0.000000 0.005710 
#    y 0.000000 1.753910 0.000000 
#    z 0.005710 0.000000 1.773710 
# 
# From -- ./inp_files/230877.got.cif
#   From: 2010.06.25/outbox.cif.g09.slc.cpg/sg12_116_cif.got.tgz:230877.got - 2010.06.28 00:19:55.
