data_PCOD8097598
_publ_section_title
;
Structure prediction by ZEFSAII (Michael W. Deem and Ramdas Pophale) SiO2 
 PCOD8097598
Probable space group: C 2/M
;
_chemical_formula_sum "Si O2"
_cell_formula_units_Z 56
_cell_length_a 18.195356
_cell_length_b 19.922087
_cell_length_c 14.838081
_cell_angle_alpha 90.000000
_cell_angle_beta 149.005011
_cell_angle_gamma 90.000000
_cell_volume 2769.805306
_symmetry_space_group_name_H-M "C 2/M"
_symmetry_group_IT_number 12
_symmetry_cell_setting 'monoclinic'
loop_
_space_group_symop_operation_xyz
x,y,z
-x,y,-z
-x,-y,-z
x,-y,z
1/2+x,1/2+y,z
1/2-x,1/2+y,-z
1/2-x,1/2-y,-z
1/2+x,1/2-y,z
loop_
_atom_site_type_symbol
_atom_site_label
_atom_site_fract_x
_atom_site_fract_y
_atom_site_fract_z
Si Si1 0.072787 0.733644 0.436233
Si Si2 0.204221 0.296978 0.750833
Si Si3 0.712090 0.376343 0.577365
Si Si4 0.696392 0.157191 0.134580
Si Si5 0.277078 0.075099 0.110639
Si Si6 0.590897 0.574087 0.746037
Si Si7 0.019546 0.375212 0.243092
O O1 0.172658 0.691905 0.611422
O O2 0.142345 0.804142 0.483707
O O3 0.046996 0.697605 0.314421
O O4 0.923165 0.739781 0.330007
O O5 0.323119 0.238442 0.885253
O O6 0.242684 0.369451 0.832136
O O7 0.804676 0.372569 0.766089
O O8 0.580678 0.427688 0.440384
O O9 0.822669 0.402285 0.616618
O O10 0.847253 0.131867 0.252593
O O11 0.567909 0.128085 0.941455
O O12 0.431041 0.080671 0.222126
O O13 0.269787 0.000000 0.144821
O O14 0.146208 0.087950 0.905503
O O15 0.644725 0.500000 0.772541
#
# Coordination Sequence:
#
# PCOD8097598 Si02
#       7
#     8   8   8   8   8   8   8
#     4   9  18  32  51  81 106 132 176 222 259 314
#     4   9  17  33  57  78 104 136 180 223 267 302
#     4  11  20  33  51  78 111 140 172 216 263 316
#     4  10  20  34  54  78 106 141 180 220 257 314
#     4   9  20  37  56  80 107 136 181 224 262 319
#     4  10  21  35  55  80 105 140 181 217 259 314
#     4  10  21  33  52  76 111 139 172 213 272 315
#
# _framework density 20.218026999999999
#
# number of rings (size 3 to 8) (size 9 to 14) (size 15 to 20)
#    0.000    2.286    1.429    1.286    2.000    3.429 
#    0.000    5.714    0.000    4.286    0.000    2.000 
#    0.000    0.000    0.000    0.000    0.000    0.000 
#
# Total GULP energy -346885.473111 kJ/mol
# GULP energy per Si atom -12388.766897 kJ/mol
# Density = 2.017201 g / cm^3
# Si number density = 20.218027 Si / 1000 Ang^3
#
#
#
# Elastic Constant Matrix: (Units=GPa)
#
#
# Indices 1 2 3 4 5 6 
#
# 1 41.4901 9.2554 20.0954 0.0000 7.0908 0.0000
# 2 9.2554 92.6189 12.7453 0.0000 -11.4424 0.0000
# 3 20.0954 12.7453 44.6633 0.0000 2.4221 0.0000
# 4 0.0000 0.0000 0.0000 20.8945 0.0000 -4.1136
# 5 7.0908 -11.4424 2.4221 0.0000 25.5632 0.0000
# 6 0.0000 0.0000 0.0000 -4.1136 0.0000 9.7151
#
#
#
# Elastic Compliance Matrix: (Units=1/GPa)
#
#
# Indices 1 2 3 4 5 6 
#
# 1 0.032741 -0.002512 -0.013530 0.000000 -0.008925 0.000000
# 2 -0.002512 0.012213 -0.002703 0.000000 0.006420 0.000000
# 3 -0.013530 -0.002703 0.029261 0.000000 -0.000229 0.000000
# 4 0.000000 0.000000 0.000000 0.052212 0.000000 0.022108
# 5 -0.008925 0.006420 -0.000229 0.000000 0.044490 0.000000
# 6 0.000000 0.000000 0.000000 0.022108 0.000000 0.112293
#
#
# Mechanical properties :
#
#
# Convention : Reuss Voigt Hill
#
# Bulk Modulus (GPa) = 27.23009 29.21829 28.22419
# Shear Modulus (GPa) = 15.01760 20.34630 17.68195
#
# Velocity S-wave (km/s) = 2.72836 3.17573 2.96051
# Velocity P-wave (km/s) = 4.83970 5.28489 5.06719
#
# Compressibility (1/GPa) = 0.03672408
#
# Stress axis : x y z
#
# Youngs Moduli (GPa) = 30.54259 81.87956 34.17495
#
# Poissons Ratio (x) = 0.20572 0.46240
# Poissons Ratio (y) = 0.07674 0.09237
# Poissons Ratio (z) = 0.41325 0.22131
#
# Static dielectric constant tensor:
#      x y z
#    x 3.523040 0.000000 -0.064490 
#    y 0.000000 3.456660 0.000000 
#    z -0.064490 0.000000 3.717510 
# 
# 
# High freq. dielectric constant tensor:
#      x y z
#    x 1.764010 0.000000 -0.006790 
#    y 0.000000 1.776070 0.000000 
#    z -0.006790 0.000000 1.790380 
# 
# From -- ./inp_files/77378.got.cif
#   From: 2010.06.25/outbox.cif.g09.slc.cpg/sg12_39_cif.got.tgz:77378.got - 2010.06.28 00:19:55.
