data_PCOD8097215
_publ_section_title
;
Structure prediction by ZEFSAII (Michael W. Deem and Ramdas Pophale) SiO2 
 PCOD8097215
Probable space group: C 2/M
;
_chemical_formula_sum "Si O2"
_cell_formula_units_Z 32
_cell_length_a 8.419652
_cell_length_b 19.071049
_cell_length_c 11.172726
_cell_angle_alpha 90.000000
_cell_angle_beta 110.562773
_cell_angle_gamma 90.000000
_cell_volume 1679.721581
_symmetry_space_group_name_H-M "C 2/M"
_symmetry_group_IT_number 12
_symmetry_cell_setting 'monoclinic'
loop_
_space_group_symop_operation_xyz
x,y,z
-x,y,-z
-x,-y,-z
x,-y,z
1/2+x,1/2+y,z
1/2-x,1/2+y,-z
1/2-x,1/2-y,-z
1/2+x,1/2-y,z
loop_
_atom_site_type_symbol
_atom_site_label
_atom_site_fract_x
_atom_site_fract_y
_atom_site_fract_z
Si Si1 0.923587 0.222456 0.300333
Si Si2 0.985921 0.419953 0.663772
Si Si3 0.726459 0.840744 0.582233
Si Si4 0.571670 0.170239 0.150824
O O1 0.857030 0.266610 0.397919
O O2 0.773874 0.177067 0.202814
O O3 0.072264 0.168381 0.378679
O O4 0.987047 0.270076 0.208717
O O5 0.940647 0.500000 0.622653
O O6 0.853182 0.365478 0.565505
O O7 0.976128 0.405110 0.802718
O O8 0.174624 0.401202 0.664513
O O9 0.500000 0.173958 0.000000
#
# Coordination Sequence:
#
# PCOD8097215 Si02
#       4
#     8   8   8   8
#     4   9  19  33  54  82 102 123 160 209 262 300
#     4  10  21  35  51  71 101 139 170 201 242 291
#     4   9  18  33  54  77 103 126 159 210 258 298
#     4  10  20  34  53  75 103 134 164 203 247 297
#
# _framework density 19.050775000000002
#
# number of rings (size 3 to 8) (size 9 to 14) (size 15 to 20)
#    0.000    2.500    0.000    2.250    0.000   19.500 
#    0.000    3.750    0.000    1.500    0.000    0.000 
#    0.000    0.000    0.000    0.000    0.000    0.000 
#
# Total GULP energy -198278.079002 kJ/mol
# GULP energy per Si atom -12392.379938 kJ/mol
# Density = 1.900741 g / cm^3
# Si number density = 19.050775 Si / 1000 Ang^3
#
#
#
# Elastic Constant Matrix: (Units=GPa)
#
#
# Indices 1 2 3 4 5 6 
#
# 1 90.5057 24.8969 24.3103 0.0000 22.6803 0.0000
# 2 24.8969 86.3818 33.3575 0.0000 10.8862 0.0000
# 3 24.3103 33.3575 62.5479 0.0000 4.5262 0.0000
# 4 0.0000 0.0000 0.0000 13.4658 0.0000 -0.2011
# 5 22.6803 10.8862 4.5262 0.0000 26.8943 0.0000
# 6 0.0000 0.0000 0.0000 -0.2011 0.0000 12.4652
#
#
#
# Elastic Compliance Matrix: (Units=1/GPa)
#
#
# Indices 1 2 3 4 5 6 
#
# 1 0.015586 -0.001244 -0.004535 0.000000 -0.011877 0.000000
# 2 -0.001244 0.015276 -0.007382 0.000000 -0.003892 0.000000
# 3 -0.004535 -0.007382 0.021455 0.000000 0.003201 0.000000
# 4 0.000000 0.000000 0.000000 0.074280 0.000000 0.001199
# 5 -0.011877 -0.003892 0.003201 0.000000 0.048235 0.000000
# 6 0.000000 0.000000 0.000000 0.001199 0.000000 0.080243
#
#
# Mechanical properties :
#
#
# Convention : Reuss Voigt Hill
#
# Bulk Modulus (GPa) = 38.46756 44.95166 41.70961
# Shear Modulus (GPa) = 17.23775 21.02312 19.13043
#
# Velocity S-wave (km/s) = 3.01131 3.32555 3.17232
# Velocity P-wave (km/s) = 5.68565 6.19618 5.94639
#
# Compressibility (1/GPa) = 0.02599593
#
# Stress axis : x y z
#
# Youngs Moduli (GPa) = 64.16201 65.46157 46.60856
#
# Poissons Ratio (x) = 0.08145 0.21135
# Poissons Ratio (y) = 0.07983 0.34405
# Poissons Ratio (z) = 0.29095 0.48322
#
# Static dielectric constant tensor:
#      x y z
#    x 3.821390 0.000000 -0.033050 
#    y 0.000000 3.272980 0.000000 
#    z -0.033050 0.000000 3.358840 
# 
# 
# High freq. dielectric constant tensor:
#      x y z
#    x 1.749490 0.000000 -0.009390 
#    y 0.000000 1.711810 0.000000 
#    z -0.009390 0.000000 1.729740 
# 
# From -- ./inp_files/118112.got.cif
#   From: 2010.06.25/outbox.cif.g09.slc.cpg/sg12_60_cif.got.tgz:118112.got - 2010.06.28 00:19:55.
