data_PCOD8097551
_publ_section_title
;
Structure prediction by ZEFSAII (Michael W. Deem and Ramdas Pophale) SiO2 
 PCOD8097551
Probable space group: C 2/M
;
_chemical_formula_sum "Si O2"
_cell_formula_units_Z 64
_cell_length_a 14.454277
_cell_length_b 9.311123
_cell_length_c 26.509000
_cell_angle_alpha 90.000000
_cell_angle_beta 72.412384
_cell_angle_gamma 90.000000
_cell_volume 3400.958478
_symmetry_space_group_name_H-M "C 2/M"
_symmetry_group_IT_number 12
_symmetry_cell_setting 'monoclinic'
loop_
_space_group_symop_operation_xyz
x,y,z
-x,y,-z
-x,-y,-z
x,-y,z
1/2+x,1/2+y,z
1/2-x,1/2+y,-z
1/2-x,1/2-y,-z
1/2+x,1/2-y,z
loop_
_atom_site_type_symbol
_atom_site_label
_atom_site_fract_x
_atom_site_fract_y
_atom_site_fract_z
Si Si1 0.472104 0.666665 0.873404
Si Si2 0.393879 0.171023 0.508471
Si Si3 0.869685 0.833383 0.786440
Si Si4 0.890258 0.337176 0.397109
Si Si5 0.193492 0.834295 0.858201
Si Si6 0.733687 0.168587 0.378874
Si Si7 0.295441 0.832303 0.945974
Si Si8 0.407030 0.163024 0.683847
O O1 0.456917 0.500000 0.890989
O O2 0.445435 0.692209 0.819353
O O3 0.582741 0.714929 0.866151
O O4 0.401100 0.764761 0.918349
O O5 0.500000 0.236254 0.500000
O O6 0.361512 0.219136 0.457720
O O7 0.324527 0.232890 0.563454
O O8 0.398145 0.000000 0.511025
O O9 0.765805 0.758450 0.812107
O O10 0.919883 0.767753 0.728891
O O11 0.848991 0.000000 0.781407
O O12 0.855768 0.500000 0.395694
O O13 0.838791 0.241311 0.363027
O O14 0.004788 0.323381 0.369761
O O15 0.221301 0.809674 0.911888
O O16 0.206601 0.000000 0.840528
O O17 0.686423 0.209011 0.333250
O O18 0.744608 0.000000 0.382389
O O19 0.308972 0.000000 0.956243
O O20 0.250000 0.750000 0.000000
O O21 0.397748 0.000000 0.705483
#
# Coordination Sequence:
#
# PCOD8097551 Si02
#       8
#     8   8   8   8   8   8   8   8
#     4   9  19  37  58  79 105 140 182 223 265 313
#     4   9  15  30  55  76  98 133 174 207 247 312
#     4  10  21  36  56  80 105 133 171 226 275 307
#     4  10  20  34  54  78 103 133 170 214 259 309
#     4   9  19  37  59  80 106 145 186 218 259 320
#     4  10  20  34  54  77 101 134 172 210 255 312
#     4  10  20  34  54  82 116 150 183 221 262 307
#     4  10  21  37  54  73 102 140 175 207 256 323
#
# _framework density 18.818224000000001
#
# number of rings (size 3 to 8) (size 9 to 14) (size 15 to 20)
#    0.000    2.375    1.250    1.125    0.000    4.000 
#    0.000    6.250    0.000    0.750    0.000    0.000 
#    0.000    0.000    0.000    0.000    0.000    0.000 
#
# Total GULP energy -396783.551846 kJ/mol
# GULP energy per Si atom -12399.485995 kJ/mol
# Density = 1.877539 g / cm^3
# Si number density = 18.818224 Si / 1000 Ang^3
#
#
#
# Elastic Constant Matrix: (Units=GPa)
#
#
# Indices 1 2 3 4 5 6 
#
# 1 109.6638 35.5179 17.4309 0.0000 6.0086 0.0000
# 2 35.5179 64.3246 42.7545 0.0000 4.0333 0.0000
# 3 17.4309 42.7545 87.2060 0.0000 3.3976 0.0000
# 4 0.0000 0.0000 0.0000 32.2889 0.0000 0.2372
# 5 6.0086 4.0333 3.3976 0.0000 16.7906 0.0000
# 6 0.0000 0.0000 0.0000 0.2372 0.0000 28.7657
#
#
#
# Elastic Compliance Matrix: (Units=1/GPa)
#
#
# Indices 1 2 3 4 5 6 
#
# 1 0.011299 -0.006884 0.001219 0.000000 -0.002637 0.000000
# 2 -0.006884 0.027435 -0.012009 0.000000 -0.001697 0.000000
# 3 0.001219 -0.012009 0.017151 0.000000 -0.001022 0.000000
# 4 0.000000 0.000000 0.000000 0.030972 0.000000 -0.000255
# 5 -0.002637 -0.001697 -0.001022 0.000000 0.061115 0.000000
# 6 0.000000 0.000000 0.000000 -0.000255 0.000000 0.034766
#
#
# Mechanical properties :
#
#
# Convention : Reuss Voigt Hill
#
# Bulk Modulus (GPa) = 48.68945 50.28898 49.48922
# Shear Modulus (GPa) = 22.22902 26.60179 24.41541
#
# Velocity S-wave (km/s) = 3.44066 3.76389 3.60590
# Velocity P-wave (km/s) = 6.45863 6.75801 6.61002
#
# Compressibility (1/GPa) = 0.02053833
#
# Stress axis : x y z
#
# Youngs Moduli (GPa) = 88.50299 36.44915 58.30663
#
# Poissons Ratio (x) = 0.25092 -0.07109
# Poissons Ratio (y) = 0.60926 0.70019
# Poissons Ratio (z) = -0.10791 0.43771
#
# Static dielectric constant tensor:
#      x y z
#    x 3.488230 0.000000 0.051160 
#    y 0.000000 3.308720 0.000000 
#    z 0.051160 0.000000 3.372020 
# 
# 
# High freq. dielectric constant tensor:
#      x y z
#    x 1.735530 0.000000 0.004080 
#    y 0.000000 1.716480 0.000000 
#    z 0.004080 0.000000 1.727190 
# 
# From -- ./inp_files/359737.got.cif
#   From: 2010.06.25/outbox.cif.g09.slc.cpg/sg12_180_cif.got.tgz:359737.got - 2010.06.28 00:19:55.
