data_PCOD8097078
_publ_section_title
;
Structure prediction by ZEFSAII (Michael W. Deem and Ramdas Pophale) SiO2 
 PCOD8097078
Probable space group: C 2/M
;
_chemical_formula_sum "Si O2"
_cell_formula_units_Z 56
_cell_length_a 19.574623
_cell_length_b 9.293279
_cell_length_c 21.310290
_cell_angle_alpha 90.000000
_cell_angle_beta 53.682095
_cell_angle_gamma 90.000000
_cell_volume 3123.549634
_symmetry_space_group_name_H-M "C 2/M"
_symmetry_group_IT_number 12
_symmetry_cell_setting 'monoclinic'
loop_
_space_group_symop_operation_xyz
x,y,z
-x,y,-z
-x,-y,-z
x,-y,z
1/2+x,1/2+y,z
1/2-x,1/2+y,-z
1/2-x,1/2-y,-z
1/2+x,1/2-y,z
loop_
_atom_site_type_symbol
_atom_site_label
_atom_site_fract_x
_atom_site_fract_y
_atom_site_fract_z
Si Si1 0.760501 0.832182 0.869904
Si Si2 0.093329 0.670734 0.445326
Si Si3 0.653733 0.837377 0.282028
Si Si4 0.428723 0.168848 0.987264
Si Si5 0.578135 0.670467 0.138157
Si Si6 0.164462 0.669137 0.538070
Si Si7 0.012216 0.336909 0.707980
O O1 0.780706 0.756074 0.793423
O O2 0.827464 0.785451 0.888111
O O3 0.769248 0.000000 0.853092
O O4 0.665145 0.788010 0.938883
O O5 0.085995 0.500000 0.441750
O O6 0.146574 0.727548 0.356224
O O7 0.137467 0.720424 0.484305
O O8 0.000000 0.739001 0.500000
O O9 0.559961 0.831361 0.304989
O O10 0.688770 0.000000 0.262905
O O11 0.443795 0.257704 0.916027
O O12 0.434209 0.000000 0.968851
O O13 0.500000 0.211497 0.000000
O O14 0.569383 0.500000 0.136304
O O15 0.507758 0.728324 0.224707
O O16 0.178183 0.500000 0.533053
O O17 0.250000 0.750000 0.500000
O O18 0.097982 0.715800 0.627784
O O19 0.020689 0.500000 0.729563
#
# Coordination Sequence:
#
# PCOD8097078 Si02
#       7
#     8   8   8   8   8   8   8
#     4   9  19  35  54  78 107 135 168 212 259 305
#     4   9  15  29  54  78 100 131 177 222 254 293
#     4   9  16  29  54  82 101 128 174 222 260 297
#     4  10  21  38  57  76 104 142 174 203 249 313
#     4  10  20  34  56  82 105 131 167 219 266 300
#     4  10  20  34  52  75 106 141 176 216 259 307
#     4   9  17  32  54  77 102 137 178 213 252 310
#
# _framework density 17.928321
#
# number of rings (size 3 to 8) (size 9 to 14) (size 15 to 20)
#    0.000    2.571    1.429    0.857    0.000    2.000 
#    2.571    0.714    0.000    0.857    0.000    0.000 
#    0.000    0.000    0.000    0.000    0.000    0.000 
#
# Total GULP energy -347118.197664 kJ/mol
# GULP energy per Si atom -12397.078488 kJ/mol
# Density = 1.788751 g / cm^3
# Si number density = 17.928321 Si / 1000 Ang^3
#
#
#
# Elastic Constant Matrix: (Units=GPa)
#
#
# Indices 1 2 3 4 5 6 
#
# 1 112.7350 43.5908 85.9901 0.0000 8.4265 0.0000
# 2 43.5908 43.8609 55.9765 0.0000 5.9920 0.0001
# 3 85.9901 55.9765 155.9846 0.0000 10.5015 0.0000
# 4 0.0000 0.0000 0.0000 30.9771 0.0000 -2.1778
# 5 8.4265 5.9920 10.5015 0.0000 27.8373 0.0000
# 6 0.0000 0.0001 0.0000 -2.1778 0.0000 22.3352
#
#
#
# Elastic Compliance Matrix: (Units=1/GPa)
#
#
# Indices 1 2 3 4 5 6 
#
# 1 0.017113 -0.009080 -0.006114 0.000000 -0.000920 0.000000
# 2 -0.009080 0.047206 -0.011734 0.000000 -0.002986 0.000000
# 3 -0.006114 -0.011734 0.014055 0.000000 -0.000925 0.000000
# 4 0.000000 0.000000 0.000000 0.032505 0.000000 0.003169
# 5 -0.000920 -0.002986 -0.000925 0.000000 0.037193 0.000000
# 6 0.000000 0.000000 0.000000 0.003169 0.000000 0.045081
#
#
# Mechanical properties :
#
#
# Convention : Reuss Voigt Hill
#
# Bulk Modulus (GPa) = 40.78460 75.96614 58.37537
# Shear Modulus (GPa) = 19.59388 24.69812 22.14600
#
# Velocity S-wave (km/s) = 3.30949 3.71563 3.51843
# Velocity P-wave (km/s) = 6.11570 7.80205 7.00977
#
# Compressibility (1/GPa) = 0.02451906
#
# Stress axis : x y z
#
# Youngs Moduli (GPa) = 58.43400 21.18360 71.15148
#
# Poissons Ratio (x) = 0.19234 0.43501
# Poissons Ratio (y) = 0.53055 0.83490
# Poissons Ratio (z) = 0.35726 0.24857
#
# Static dielectric constant tensor:
#      x y z
#    x 3.224490 0.000000 0.011990 
#    y 0.000000 3.138950 0.000000 
#    z 0.011990 0.000000 3.417460 
# 
# 
# High freq. dielectric constant tensor:
#      x y z
#    x 1.680770 0.000000 0.003980 
#    y 0.000000 1.673850 0.000000 
#    z 0.003980 0.000000 1.707700 
# 
# From -- ./inp_files/275559.got.cif
#   From: 2010.06.25/outbox.cif.g09.slc.cpg/sg12_138_cif.got.tgz:275559.got - 2010.06.28 00:19:55.
