data_PCOD8097378
_publ_section_title
;
Structure prediction by ZEFSAII (Michael W. Deem and Ramdas Pophale) SiO2 
 PCOD8097378
Probable space group: C 2/M
;
_chemical_formula_sum "Si O2"
_cell_formula_units_Z 64
_cell_length_a 14.584429
_cell_length_b 8.568706
_cell_length_c 34.373536
_cell_angle_alpha 90.000000
_cell_angle_beta 131.189666
_cell_angle_gamma 90.000000
_cell_volume 3232.621342
_symmetry_space_group_name_H-M "C 2/M"
_symmetry_group_IT_number 12
_symmetry_cell_setting 'monoclinic'
loop_
_space_group_symop_operation_xyz
x,y,z
-x,y,-z
-x,-y,-z
x,-y,z
1/2+x,1/2+y,z
1/2-x,1/2+y,-z
1/2-x,1/2-y,-z
1/2+x,1/2-y,z
loop_
_atom_site_type_symbol
_atom_site_label
_atom_site_fract_x
_atom_site_fract_y
_atom_site_fract_z
Si Si1 0.066580 0.185475 0.557634
Si Si2 0.483260 0.319760 0.810122
Si Si3 0.454779 0.819583 0.251369
Si Si4 0.403087 0.681541 0.005524
Si Si5 0.280491 0.318155 0.264804
Si Si6 0.377441 0.179681 0.080875
Si Si7 0.028394 0.684562 0.626769
Si Si8 0.836827 0.318811 0.634636
O O1 0.997471 0.263059 0.574531
O O2 0.203226 0.257480 0.596732
O O3 0.000000 0.241141 0.500000
O O4 0.062664 0.000000 0.560918
O O5 0.494799 0.500000 0.802722
O O6 0.551132 0.222133 0.795473
O O7 0.343202 0.275530 0.774646
O O8 0.549712 0.286915 0.869090
O O9 0.361055 0.714831 0.249239
O O10 0.592605 0.786836 0.305140
O O11 0.419797 0.000000 0.248226
O O12 0.423124 0.500000 0.020684
O O13 0.265808 0.712814 0.952616
O O14 0.500000 0.738173 0.000000
O O15 0.423437 0.778697 0.050499
O O16 0.250332 0.500000 0.259628
O O17 0.347887 0.264225 0.323069
O O18 0.408782 0.000000 0.097621
O O19 0.043230 0.500000 0.634873
O O20 0.916981 0.748481 0.621656
O O21 0.816878 0.500000 0.621804
#
# Coordination Sequence:
#
# PCOD8097378 Si02
#       8
#     8   8   8   8   8   8   8   8
#     4  10  20  34  53  78 107 141 182 226 276 335
#     4  12  24  38  57  84 120 157 192 233 283 337
#     4  10  20  37  59  83 113 150 191 233 282 339
#     4   9  19  38  62  84 110 148 191 234 283 337
#     4  11  22  38  59  84 113 146 188 235 286 343
#     4  10  21  37  57  84 116 149 190 237 284 332
#     4  10  20  36  56  77 105 142 183 227 279 338
#     4   8  17  34  54  75 104 141 176 218 272 328
#
# _framework density 19.798172999999998
#
# number of rings (size 3 to 8) (size 9 to 14) (size 15 to 20)
#    0.000    2.000    0.000    4.875    0.000    3.500 
#    0.000    6.875    0.000    0.000    0.000    0.000 
#    0.000    0.000    0.000    0.000    0.000    0.000 
#
# Total GULP energy -396877.323164 kJ/mol
# GULP energy per Si atom -12402.416349 kJ/mol
# Density = 1.975311 g / cm^3
# Si number density = 19.798173 Si / 1000 Ang^3
#
#
#
# Elastic Constant Matrix: (Units=GPa)
#
#
# Indices 1 2 3 4 5 6 
#
# 1 77.9110 15.7392 34.2470 0.0000 -13.1365 0.0000
# 2 15.7392 59.8991 24.1931 0.0000 -2.3717 0.0000
# 3 34.2470 24.1931 99.9697 0.0000 -13.8659 0.0000
# 4 0.0000 0.0000 0.0000 31.1567 0.0000 -5.7899
# 5 -13.1365 -2.3717 -13.8659 0.0000 22.9943 0.0000
# 6 0.0000 0.0000 0.0000 -5.7899 0.0000 28.0891
#
#
#
# Elastic Compliance Matrix: (Units=1/GPa)
#
#
# Indices 1 2 3 4 5 6 
#
# 1 0.016207 -0.002354 -0.004072 0.000000 0.006560 0.000000
# 2 -0.002354 0.018861 -0.004010 0.000000 -0.001818 0.000000
# 3 -0.004072 -0.004010 0.013083 0.000000 0.005149 0.000000
# 4 0.000000 0.000000 0.000000 0.033374 0.000000 0.006879
# 5 0.006560 -0.001818 0.005149 0.000000 0.050154 0.000000
# 6 0.000000 0.000000 0.000000 0.006879 0.000000 0.037019
#
#
# Mechanical properties :
#
#
# Convention : Reuss Voigt Hill
#
# Bulk Modulus (GPa) = 36.66014 42.90427 39.78221
# Shear Modulus (GPa) = 25.16815 27.35473 26.26144
#
# Velocity S-wave (km/s) = 3.56931 3.72113 3.64601
# Velocity P-wave (km/s) = 5.96186 6.33879 6.15321
#
# Compressibility (1/GPa) = 0.02727758
#
# Stress axis : x y z
#
# Youngs Moduli (GPa) = 61.70192 53.01956 76.43635
#
# Poissons Ratio (x) = 0.12481 0.31129
# Poissons Ratio (y) = 0.14524 0.30652
# Poissons Ratio (z) = 0.25128 0.21261
#
# Static dielectric constant tensor:
#      x y z
#    x 3.742880 0.000000 0.023030 
#    y 0.000000 3.433190 0.000000 
#    z 0.023030 0.000000 3.602820 
# 
# 
# High freq. dielectric constant tensor:
#      x y z
#    x 1.777720 0.000000 -0.006480 
#    y 0.000000 1.763570 0.000000 
#    z -0.006480 0.000000 1.769990 
# 
# From -- ./inp_files/375111.got.cif
#   From: 2010.06.25/outbox.cif.g09.slc.cpg/sg12_188_cif.got.tgz:375111.got - 2010.06.28 00:19:55.
