data_PCOD8097916
_publ_section_title
;
Structure prediction by ZEFSAII (Michael W. Deem and Ramdas Pophale) SiO2 
 PCOD8097916
Probable space group: C 2/M
;
_chemical_formula_sum "Si O2"
_cell_formula_units_Z 44
_cell_length_a 27.385702
_cell_length_b 7.717801
_cell_length_c 28.898019
_cell_angle_alpha 90.000000
_cell_angle_beta 21.870057
_cell_angle_gamma 90.000000
_cell_volume 2275.176617
_symmetry_space_group_name_H-M "C 2/M"
_symmetry_group_IT_number 12
_symmetry_cell_setting 'monoclinic'
loop_
_space_group_symop_operation_xyz
x,y,z
-x,y,-z
-x,-y,-z
x,-y,z
1/2+x,1/2+y,z
1/2-x,1/2+y,-z
1/2-x,1/2-y,-z
1/2+x,1/2-y,z
loop_
_atom_site_type_symbol
_atom_site_label
_atom_site_fract_x
_atom_site_fract_y
_atom_site_fract_z
Si Si1 0.717212 0.305954 0.387232
Si Si2 0.752529 0.000000 0.227808
Si Si3 0.426350 0.308076 0.626447
Si Si4 0.872416 0.192736 0.781883
Si Si5 0.152914 0.701839 0.544730
Si Si6 0.309843 0.500000 0.069337
Si Si7 0.610977 0.500000 0.801196
O O1 0.764244 0.500000 0.333138
O O2 0.579224 0.265277 0.482477
O O3 0.697436 0.301583 0.459743
O O4 0.826304 0.171364 0.275564
O O5 0.666193 0.831555 0.316447
O O6 0.802687 0.000000 0.131317
O O7 0.874152 0.000000 0.156139
O O8 0.390981 0.500000 0.638645
O O9 0.403967 0.298620 0.700392
O O10 0.758092 0.330333 0.893157
O O11 0.007254 0.241600 0.689319
O O12 0.825773 0.000000 0.837830
O O13 0.154069 0.500000 0.532210
O O14 0.250000 0.750000 0.500000
O O15 0.458969 0.500000 0.921977
#
# Coordination Sequence:
#
# PCOD8097916 Si02
#       7
#     8   4   8   8   8   4   4
#     4  10  21  37  53  80 117 148 180 223 286 346
#     4  10  20  34  55  79 104 142 200 245 273 316
#     4   8  16  31  53  77 109 140 174 230 290 337
#     4   9  17  33  55  82 110 140 182 228 278 327
#     4  11  19  33  60  95 117 135 169 224 281 337
#     4  10  21  38  56  74 108 156 200 234 266 318
#     4  12  24  36  53  77 110 156 198 233 273 320
#
# _framework density 19.339157
#
# number of rings (size 3 to 8) (size 9 to 14) (size 15 to 20)
#    0.000    2.182    1.818    3.545    2.545    2.909 
#    0.000    1.818    0.000    6.545    0.000    0.000 
#    0.000    0.000    0.000    0.000    0.000    0.000 
#
# Total GULP energy -272774.542945 kJ/mol
# GULP energy per Si atom -12398.842861 kJ/mol
# Density = 1.929514 g / cm^3
# Si number density = 19.339157 Si / 1000 Ang^3
#
#
#
# Elastic Constant Matrix: (Units=GPa)
#
#
# Indices 1 2 3 4 5 6 
#
# 1 32.4897 10.9455 15.3217 -0.0143 -19.4459 0.0025
# 2 10.9455 157.7065 68.3833 0.0436 -18.5109 -0.0031
# 3 15.3217 68.3833 121.6169 0.0435 -26.7709 0.0015
# 4 -0.0143 0.0436 0.0435 21.4923 -0.0102 -2.0953
# 5 -19.4459 -18.5109 -26.7709 -0.0102 27.7127 -0.0049
# 6 0.0025 -0.0031 0.0015 -2.0953 -0.0049 7.2318
#
#
#
# Elastic Compliance Matrix: (Units=1/GPa)
#
#
# Indices 1 2 3 4 5 6 
#
# 1 0.053422 0.000098 0.001881 0.000052 0.039368 0.000023
# 2 0.000098 0.008424 -0.004439 -0.000007 0.001407 0.000003
# 3 0.001881 -0.004439 0.012853 -0.000011 0.010770 -0.000001
# 4 0.000052 -0.000007 -0.000011 0.047881 0.000042 0.013873
# 5 0.039368 0.001407 0.010770 0.000042 0.075053 0.000048
# 6 0.000023 0.000003 -0.000001 0.013873 0.000048 0.142298
#
#
# Mechanical properties :
#
#
# Convention : Reuss Voigt Hill
#
# Bulk Modulus (GPa) = 14.33141 55.67933 35.00537
# Shear Modulus (GPa) = 13.58284 25.76488 19.67386
#
# Velocity S-wave (km/s) = 2.65306 3.65398 3.19299
# Velocity P-wave (km/s) = 4.10020 6.83049 5.63326
#
# Compressibility (1/GPa) = 0.06977679
#
# Stress axis : x y z
#
# Youngs Moduli (GPa) = 18.71884 118.70516 77.80529
#
# Poissons Ratio (x) = -0.01159 -0.14633
# Poissons Ratio (y) = -0.00183 0.34541
# Poissons Ratio (z) = -0.03520 0.52698
#
# Static dielectric constant tensor:
#      x y z
#    x 3.279750 -0.000030 -0.225910 
#    y -0.000030 3.982510 0.000020 
#    z -0.225910 0.000020 3.268680 
# 
# 
# High freq. dielectric constant tensor:
#      x y z
#    x 1.733750 0.000000 -0.017050 
#    y 0.000000 1.774670 0.000000 
#    z -0.017050 0.000000 1.721120 
# 
# From -- ./inp_files/369027.got.cif
#   From: 2010.06.25/outbox.cif.g09.slc.cpg/sg12_185_cif.got.tgz:369027.got - 2010.06.28 00:19:55.
