data_PCOD8097833
_publ_section_title
;
Structure prediction by ZEFSAII (Michael W. Deem and Ramdas Pophale) SiO2 
 PCOD8097833
Probable space group: C 2/M
;
_chemical_formula_sum "Si O2"
_cell_formula_units_Z 48
_cell_length_a 19.825373
_cell_length_b 9.072237
_cell_length_c 20.687259
_cell_angle_alpha 90.000000
_cell_angle_beta 38.881751
_cell_angle_gamma 90.000000
_cell_volume 2335.615331
_symmetry_space_group_name_H-M "C 2/M"
_symmetry_group_IT_number 12
_symmetry_cell_setting 'monoclinic'
loop_
_space_group_symop_operation_xyz
x,y,z
-x,y,-z
-x,-y,-z
x,-y,z
1/2+x,1/2+y,z
1/2-x,1/2+y,-z
1/2-x,1/2-y,-z
1/2+x,1/2-y,z
loop_
_atom_site_type_symbol
_atom_site_label
_atom_site_fract_x
_atom_site_fract_y
_atom_site_fract_z
Si Si1 0.674216 0.666885 0.638762
Si Si2 0.688186 0.326835 0.987419
Si Si3 0.094081 0.668360 0.578985
Si Si4 0.064565 0.825991 0.389083
Si Si5 0.547126 0.669642 0.861324
Si Si6 0.231591 0.172436 0.810849
O O1 0.647196 0.500000 0.635996
O O2 0.802311 0.690371 0.543990
O O3 0.620142 0.784922 0.632260
O O4 0.630906 0.699176 0.741732
O O5 0.684920 0.500000 0.005700
O O6 0.748197 0.295619 0.874606
O O7 0.750000 0.250000 0.000000
O O8 0.568110 0.256213 0.068701
O O9 0.054081 0.500000 0.608791
O O10 0.999291 0.772708 0.626036
O O11 0.183123 0.758765 0.296580
O O12 0.000000 0.768268 0.500000
O O13 0.074870 0.000000 0.381781
O O14 0.517684 0.500000 0.892573
O O15 0.610797 0.723268 0.878429
O O16 0.245323 0.000000 0.785048
#
# Coordination Sequence:
#
# PCOD8097833 Si02
#       6
#     8   8   8   8   8   8
#     4   9  18  33  55  83 114 153 195 239 295 348
#     4  10  22  39  61  90 121 155 197 245 296 351
#     4  10  20  34  54  82 117 154 197 244 288 345
#     4  11  24  39  57  83 118 156 196 242 299 355
#     4   9  18  36  62  86 113 154 198 241 290 348
#     4  10  21  39  63  89 118 155 203 247 291 349
#
# _framework density 20.551328999999999
#
# number of rings (size 3 to 8) (size 9 to 14) (size 15 to 20)
#    0.000    2.167    0.000    2.500    2.333    6.000 
#    0.000    1.667    0.000    2.000    0.000    0.000 
#    0.000    0.000    0.000    0.000    0.000    0.000 
#
# Total GULP energy -297535.207875 kJ/mol
# GULP energy per Si atom -12397.300328 kJ/mol
# Density = 2.050455 g / cm^3
# Si number density = 20.551329 Si / 1000 Ang^3
#
#
#
# Elastic Constant Matrix: (Units=GPa)
#
#
# Indices 1 2 3 4 5 6 
#
# 1 139.6565 41.8088 53.3842 0.0000 -9.8488 0.0000
# 2 41.8088 57.7009 38.4892 0.0001 -1.7496 0.0000
# 3 53.3842 38.4892 72.2403 0.0001 -9.4499 0.0000
# 4 0.0000 0.0001 0.0001 25.5478 0.0000 1.9230
# 5 -9.8488 -1.7496 -9.4499 0.0000 28.4381 0.0000
# 6 0.0000 0.0000 0.0000 1.9230 0.0000 29.9346
#
#
#
# Elastic Compliance Matrix: (Units=1/GPa)
#
#
# Indices 1 2 3 4 5 6 
#
# 1 0.010549 -0.003931 -0.005494 0.000000 0.001586 0.000000
# 2 -0.003931 0.028641 -0.012861 0.000000 -0.003873 0.000000
# 3 -0.005494 -0.012861 0.025511 0.000000 0.005783 0.000000
# 4 0.000000 0.000000 0.000000 0.039332 0.000000 -0.002527
# 5 0.001586 -0.003873 0.005783 0.000000 0.037397 0.000000
# 6 0.000000 0.000000 0.000000 -0.002527 0.000000 0.033569
#
#
# Mechanical properties :
#
#
# Convention : Reuss Voigt Hill
#
# Bulk Modulus (GPa) = 49.67907 59.66244 54.67075
# Shear Modulus (GPa) = 22.09644 25.84513 23.97079
#
# Velocity S-wave (km/s) = 3.28256 3.55010 3.41894
# Velocity P-wave (km/s) = 6.21229 6.77482 6.49964
#
# Compressibility (1/GPa) = 0.02012920
#
# Stress axis : x y z
#
# Youngs Moduli (GPa) = 94.79515 34.91534 39.19816
#
# Poissons Ratio (x) = 0.13725 0.21534
# Poissons Ratio (y) = 0.37264 0.50414
# Poissons Ratio (z) = 0.52077 0.44906
#
# Static dielectric constant tensor:
#      x y z
#    x 3.746460 0.000000 -0.087380 
#    y 0.000000 3.427800 0.000000 
#    z -0.087380 0.000000 3.788740 
# 
# 
# High freq. dielectric constant tensor:
#      x y z
#    x 1.813740 0.000000 -0.003250 
#    y 0.000000 1.771390 0.000000 
#    z -0.003250 0.000000 1.809370 
# 
# From -- ./inp_files/319558.got.cif
#   From: 2010.06.25/outbox.cif.g09.slc.cpg/sg12_160_cif.got.tgz:319558.got - 2010.06.28 00:19:55.
