data_PCOD8097766
_publ_section_title
;
Structure prediction by ZEFSAII (Michael W. Deem and Ramdas Pophale) SiO2 
 PCOD8097766
Probable space group: C 2/M
;
_chemical_formula_sum "Si O2"
_cell_formula_units_Z 48
_cell_length_a 15.997697
_cell_length_b 9.211181
_cell_length_c 26.534936
_cell_angle_alpha 90.000000
_cell_angle_beta 138.046461
_cell_angle_gamma 90.000000
_cell_volume 2614.028277
_symmetry_space_group_name_H-M "C 2/M"
_symmetry_group_IT_number 12
_symmetry_cell_setting 'monoclinic'
loop_
_space_group_symop_operation_xyz
x,y,z
-x,y,-z
-x,-y,-z
x,-y,z
1/2+x,1/2+y,z
1/2-x,1/2+y,-z
1/2-x,1/2-y,-z
1/2+x,1/2-y,z
loop_
_atom_site_type_symbol
_atom_site_label
_atom_site_fract_x
_atom_site_fract_y
_atom_site_fract_z
Si Si1 0.854272 0.846062 0.929008
Si Si2 0.553700 0.670123 0.418656
Si Si3 0.252140 0.831424 0.425874
Si Si4 0.299580 0.830210 0.331589
Si Si5 0.141756 0.668557 0.977791
Si Si6 0.898058 0.166340 0.839837
O O1 0.815509 0.816971 0.853747
O O2 0.789913 0.000000 0.917982
O O3 0.827956 0.704206 0.950223
O O4 0.000000 0.874485 0.000000
O O5 0.536321 0.500000 0.420214
O O6 0.643861 0.732505 0.501853
O O7 0.616663 0.699126 0.391523
O O8 0.419758 0.744840 0.365056
O O9 0.254652 0.789827 0.367934
O O10 0.288286 0.000000 0.449748
O O11 0.184408 0.785425 0.244467
O O12 0.330985 0.000000 0.341306
O O13 0.147324 0.500000 0.971432
O O14 0.013865 0.726296 0.896887
O O15 0.250000 0.750000 0.000000
O O16 0.944859 0.000000 0.854702
#
# Coordination Sequence:
#
# PCOD8097766 Si02
#       6
#     8   8   8   8   8   8
#     4   8  15  31  53  73  98 130 166 209 255 308
#     4  10  20  34  54  81 111 142 184 233 273 314
#     4   9  19  36  56  78 108 146 186 224 267 327
#     4  10  20  36  57  79 110 149 182 217 274 335
#     4  11  21  34  54  78 104 136 177 220 263 315
#     4   9  19  36  55  76 106 139 173 216 269 325
#
# _framework density 18.362463000000002
#
# number of rings (size 3 to 8) (size 9 to 14) (size 15 to 20)
#    0.000    2.500    0.000    3.500    0.000    7.000 
#    3.000    0.000    0.000    0.000    0.000    0.000 
#    0.000    0.000    0.000    0.000    0.000    0.000 
#
# Total GULP energy -297319.349458 kJ/mol
# GULP energy per Si atom -12388.306227 kJ/mol
# Density = 1.832067 g / cm^3
# Si number density = 18.362463 Si / 1000 Ang^3
#
#
#
# Elastic Constant Matrix: (Units=GPa)
#
#
# Indices 1 2 3 4 5 6 
#
# 1 124.7278 68.0449 69.1807 0.0000 -8.8574 0.0000
# 2 68.0449 125.5966 59.9046 0.0000 3.4279 0.0000
# 3 69.1807 59.9046 97.2211 0.0000 -20.5988 0.0000
# 4 0.0000 0.0000 0.0000 36.7726 0.0000 -1.6671
# 5 -8.8574 3.4279 -20.5988 0.0000 23.8353 0.0000
# 6 0.0000 0.0000 0.0000 -1.6671 0.0000 33.9719
#
#
#
# Elastic Compliance Matrix: (Units=1/GPa)
#
#
# Indices 1 2 3 4 5 6 
#
# 1 0.014678 -0.004016 -0.008191 0.000000 -0.001047 0.000000
# 2 -0.004016 0.014372 -0.008265 0.000000 -0.010703 0.000000
# 3 -0.008191 -0.008265 0.025480 0.000000 0.020165 0.000000
# 4 0.000000 0.000000 0.000000 0.027255 0.000000 0.001337
# 5 -0.001047 -0.010703 0.020165 0.000000 0.060532 0.000000
# 6 0.000000 0.000000 0.000000 0.001337 0.000000 0.029502
#
#
# Mechanical properties :
#
#
# Convention : Reuss Voigt Hill
#
# Bulk Modulus (GPa) = 73.61843 82.42287 78.02065
# Shear Modulus (GPa) = 23.01045 28.94364 25.97705
#
# Velocity S-wave (km/s) = 3.54379 3.97450 3.76531
# Velocity P-wave (km/s) = 7.54476 8.12688 7.84123
#
# Compressibility (1/GPa) = 0.01358356
#
# Stress axis : x y z
#
# Youngs Moduli (GPa) = 68.13094 69.57794 39.24632
#
# Poissons Ratio (x) = 0.27945 0.32148
# Poissons Ratio (y) = 0.27364 0.32439
# Poissons Ratio (z) = 0.55809 0.57509
#
# Static dielectric constant tensor:
#      x y z
#    x 3.528670 0.000000 -0.162030 
#    y 0.000000 1.919840 0.000000 
#    z -0.162030 0.000000 3.229800 
# 
# 
# High freq. dielectric constant tensor:
#      x y z
#    x 1.715720 0.000000 -0.014570 
#    y 0.000000 1.714960 0.000000 
#    z -0.014570 0.000000 1.692930 
# 
# From -- ./inp_files/360333.got.cif
#   From: 2010.06.25/outbox.cif.g09.slc.cpg/sg12_181_cif.got.tgz:360333.got - 2010.06.28 00:19:55.
