data_PCOD8097892
_publ_section_title
;
Structure prediction by ZEFSAII (Michael W. Deem and Ramdas Pophale) SiO2 
 PCOD8097892
Probable space group: C 2/M
;
_chemical_formula_sum "Si O2"
_cell_formula_units_Z 48
_cell_length_a 24.535961
_cell_length_b 8.990967
_cell_length_c 11.524789
_cell_angle_alpha 90.000000
_cell_angle_beta 74.075214
_cell_angle_gamma 90.000000
_cell_volume 2444.821569
_symmetry_space_group_name_H-M "C 2/M"
_symmetry_group_IT_number 12
_symmetry_cell_setting 'monoclinic'
loop_
_space_group_symop_operation_xyz
x,y,z
-x,y,-z
-x,-y,-z
x,-y,z
1/2+x,1/2+y,z
1/2-x,1/2+y,-z
1/2-x,1/2-y,-z
1/2+x,1/2-y,z
loop_
_atom_site_type_symbol
_atom_site_label
_atom_site_fract_x
_atom_site_fract_y
_atom_site_fract_z
Si Si1 0.152703 0.824572 0.516562
Si Si2 0.611808 0.323069 0.184047
Si Si3 0.281371 0.326273 0.745424
Si Si4 0.935591 0.326169 0.015157
Si Si5 0.563912 0.166415 0.425995
Si Si6 0.338584 0.826715 0.247903
O O1 0.199811 0.774411 0.394656
O O2 0.094457 0.746311 0.515150
O O3 0.169500 0.769905 0.633314
O O4 0.143744 0.000000 0.524312
O O5 0.607904 0.500000 0.183062
O O6 0.675494 0.263463 0.181169
O O7 0.593234 0.261772 0.071619
O O8 0.568988 0.262066 0.305903
O O9 0.289755 0.500000 0.747206
O O10 0.215364 0.282878 0.803284
O O11 0.934818 0.500000 0.984948
O O12 0.897761 0.290837 0.150433
O O13 0.000000 0.271758 0.000000
O O14 0.500000 0.156086 0.500000
O O15 0.588369 0.000000 0.391555
O O16 0.335052 0.000000 0.283612
#
# Coordination Sequence:
#
# PCOD8097892 Si02
#       6
#     8   8   8   8   8   8
#     4  10  20  34  54  85 120 144 178 233 285 333
#     4  10  21  38  59  83 112 143 182 236 287 330
#     4   8  17  35  57  83 113 144 182 231 284 335
#     4  10  23  40  56  78 111 151 194 235 274 328
#     4  10  21  36  57  82 110 148 189 225 271 334
#     4  10  20  36  58  80 110 155 195 228 274 331
#
# _framework density 19.633334000000001
#
# number of rings (size 3 to 8) (size 9 to 14) (size 15 to 20)
#    0.000    2.333    0.000    3.000    2.333    3.000 
#    0.000    4.167    0.000    0.000    0.000    0.000 
#    0.000    0.000    0.000    0.000    0.000    0.000 
#
# Total GULP energy -297479.785255 kJ/mol
# GULP energy per Si atom -12394.991052 kJ/mol
# Density = 1.958865 g / cm^3
# Si number density = 19.633334 Si / 1000 Ang^3
#
#
#
# Elastic Constant Matrix: (Units=GPa)
#
#
# Indices 1 2 3 4 5 6 
#
# 1 136.4555 45.6905 52.8431 0.0000 -4.2737 0.0000
# 2 45.6905 71.7263 34.0232 0.0000 8.4142 0.0000
# 3 52.8431 34.0232 70.6978 0.0000 13.6150 0.0000
# 4 0.0000 0.0000 0.0000 32.8212 0.0000 8.2356
# 5 -4.2737 8.4142 13.6150 0.0000 30.2246 0.0000
# 6 0.0000 0.0000 0.0000 8.2356 0.0000 24.2897
#
#
#
# Elastic Compliance Matrix: (Units=1/GPa)
#
#
# Indices 1 2 3 4 5 6 
#
# 1 0.012311 -0.004734 -0.008226 0.000000 0.006764 0.000000
# 2 -0.004734 0.019927 -0.005316 0.000000 -0.003822 0.000000
# 3 -0.008226 -0.005316 0.024956 0.000000 -0.010925 0.000000
# 4 0.000000 0.000000 0.000000 0.033301 0.000000 -0.011291
# 5 0.006764 -0.003822 -0.010925 0.000000 0.040027 0.000000
# 6 0.000000 0.000000 0.000000 -0.011291 0.000000 0.044998
#
#
# Mechanical properties :
#
#
# Convention : Reuss Voigt Hill
#
# Bulk Modulus (GPa) = 48.44415 60.44367 54.44391
# Shear Modulus (GPa) = 22.83600 27.22196 25.02898
#
# Velocity S-wave (km/s) = 3.41416 3.72764 3.57434
# Velocity P-wave (km/s) = 6.34586 7.02710 6.69515
#
# Compressibility (1/GPa) = 0.02064233
#
# Stress axis : x y z
#
# Youngs Moduli (GPa) = 81.22847 50.18297 40.07101
#
# Poissons Ratio (x) = 0.23754 0.32964
# Poissons Ratio (y) = 0.38450 0.21301
# Poissons Ratio (z) = 0.66822 0.26676
#
# Static dielectric constant tensor:
#      x y z
#    x 3.868080 0.000000 0.032300 
#    y 0.000000 3.551130 0.000000 
#    z 0.032300 0.000000 3.421940 
# 
# 
# High freq. dielectric constant tensor:
#      x y z
#    x 1.777890 0.000000 0.004040 
#    y 0.000000 1.755350 0.000000 
#    z 0.004040 0.000000 1.752970 
# 
# From -- ./inp_files/172028.got.cif
#   From: 2010.06.25/outbox.cif.g09.slc.cpg/sg12_87_cif.got.tgz:172028.got - 2010.06.28 00:19:55.
