data_PCOD8097420
_publ_section_title
;
Structure prediction by ZEFSAII (Michael W. Deem and Ramdas Pophale) SiO2 
 PCOD8097420
Probable space group: C 2/M
;
_chemical_formula_sum "Si O2"
_cell_formula_units_Z 64
_cell_length_a 34.149651
_cell_length_b 13.181539
_cell_length_c 9.234390
_cell_angle_alpha 90.000000
_cell_angle_beta 127.305584
_cell_angle_gamma 90.000000
_cell_volume 3306.389856
_symmetry_space_group_name_H-M "C 2/M"
_symmetry_group_IT_number 12
_symmetry_cell_setting 'monoclinic'
loop_
_space_group_symop_operation_xyz
x,y,z
-x,y,-z
-x,-y,-z
x,-y,z
1/2+x,1/2+y,z
1/2-x,1/2+y,-z
1/2-x,1/2-y,-z
1/2+x,1/2-y,z
loop_
_atom_site_type_symbol
_atom_site_label
_atom_site_fract_x
_atom_site_fract_y
_atom_site_fract_z
Si Si1 0.684601 0.673683 0.050682
Si Si2 0.818739 0.816627 0.274359
Si Si3 0.718006 0.111404 0.159003
Si Si4 0.588965 0.383644 0.355458
Si Si5 0.791354 0.613710 0.310135
Si Si6 0.402396 0.695169 0.942377
Si Si7 0.846448 0.612119 0.722825
Si Si8 0.508270 0.618610 0.686781
O O1 0.687446 0.794796 0.025259
O O2 0.734315 0.626358 0.227975
O O3 0.642776 0.643730 0.071786
O O4 0.673806 0.629576 0.865290
O O5 0.776366 0.873736 0.269953
O O6 0.868002 0.817937 0.478062
O O7 0.802923 0.698059 0.214275
O O8 0.703757 0.113609 0.296395
O O9 0.703317 0.000000 0.060647
O O10 0.601306 0.500000 0.412485
O O11 0.584815 0.365503 0.174598
O O12 0.539021 0.352848 0.324118
O O13 0.800280 0.500000 0.270887
O O14 0.827872 0.640241 0.522392
O O15 0.388594 0.810965 0.871730
O O16 0.448608 0.689794 0.154037
O O17 0.870612 0.500000 0.780546
O O18 0.500000 0.646086 0.500000
O O19 0.522203 0.500000 0.735202
#
# Coordination Sequence:
#
# PCOD8097420 Si02
#       8
#     8   8   8   8   8   8   8   8
#     4  10  23  33  52  81 113 148 190 227 271 323
#     4  11  21  35  51  81 113 148 188 229 274 321
#     4   9  18  32  52  75 109 149 187 227 270 316
#     4  11  23  37  58  84 111 142 182 226 273 330
#     4  10  20  34  53  78 113 152 191 229 267 317
#     4  11  21  38  60  82 112 145 183 227 275 329
#     4   9  19  35  56  83 111 146 188 229 271 317
#     4  10  22  41  63  86 113 142 175 221 279 336
#
# _framework density 19.356459999999998
#
# number of rings (size 3 to 8) (size 9 to 14) (size 15 to 20)
#    0.000    1.875    1.250    3.375    1.750    6.000 
#    0.000    0.000    0.000    2.625    0.000    0.000 
#    0.000    0.000    0.000    0.000    0.000    0.000 
#
# Total GULP energy -396574.379567 kJ/mol
# GULP energy per Si atom -12392.949361 kJ/mol
# Density = 1.931240 g / cm^3
# Si number density = 19.356460 Si / 1000 Ang^3
#
#
#
# Elastic Constant Matrix: (Units=GPa)
#
#
# Indices 1 2 3 4 5 6 
#
# 1 117.3206 33.2405 56.9928 0.0000 0.2409 0.0000
# 2 33.2405 76.3268 19.9669 0.0000 2.4564 0.0000
# 3 56.9928 19.9669 89.4004 0.0000 0.5122 0.0000
# 4 0.0000 0.0000 0.0000 19.9962 0.0000 3.1157
# 5 0.2409 2.4564 0.5122 0.0000 29.7710 0.0000
# 6 0.0000 0.0000 0.0000 3.1157 0.0000 18.6958
#
#
#
# Elastic Compliance Matrix: (Units=1/GPa)
#
#
# Indices 1 2 3 4 5 6 
#
# 1 0.013313 -0.003811 -0.007638 0.000000 0.000338 0.000000
# 2 -0.003811 0.015041 -0.000923 0.000000 -0.001194 0.000000
# 3 -0.007638 -0.000923 0.016262 0.000000 -0.000142 0.000000
# 4 0.000000 0.000000 0.000000 0.051343 0.000000 -0.008556
# 5 0.000338 -0.001194 -0.000142 0.000000 0.033688 0.000000
# 6 0.000000 0.000000 0.000000 -0.008556 0.000000 0.054914
#
#
# Mechanical properties :
#
#
# Convention : Reuss Voigt Hill
#
# Bulk Modulus (GPa) = 50.32108 55.93868 53.12988
# Shear Modulus (GPa) = 23.15585 25.21576 24.18581
#
# Velocity S-wave (km/s) = 3.46249 3.61322 3.53865
# Velocity P-wave (km/s) = 6.48372 6.80948 6.64860
#
# Compressibility (1/GPa) = 0.01987239
#
# Stress axis : x y z
#
# Youngs Moduli (GPa) = 75.11435 66.48476 61.49377
#
# Poissons Ratio (x) = 0.25335 0.46968
# Poissons Ratio (y) = 0.28624 0.05677
# Poissons Ratio (z) = 0.57372 0.06138
#
# Static dielectric constant tensor:
#      x y z
#    x 3.599130 0.000000 -0.144150 
#    y 0.000000 3.606920 0.000000 
#    z -0.144150 0.000000 3.304640 
# 
# 
# High freq. dielectric constant tensor:
#      x y z
#    x 1.752000 0.000000 -0.019100 
#    y 0.000000 1.749270 0.000000 
#    z -0.019100 0.000000 1.743340 
# 
# From -- ./inp_files/112051.got.cif
#   From: 2010.06.25/outbox.cif.g09.slc.cpg/sg12_57_cif.got.tgz:112051.got - 2010.06.28 00:19:55.
