data_PCOD8097957
_publ_section_title
;
Structure prediction by ZEFSAII (Michael W. Deem and Ramdas Pophale) SiO2 
 PCOD8097957
Probable space group: C 2/M
;
_chemical_formula_sum "Si O2"
_cell_formula_units_Z 48
_cell_length_a 21.593238
_cell_length_b 27.616413
_cell_length_c 9.113465
_cell_angle_alpha 90.000000
_cell_angle_beta 152.588182
_cell_angle_gamma 90.000000
_cell_volume 2502.002581
_symmetry_space_group_name_H-M "C 2/M"
_symmetry_group_IT_number 12
_symmetry_cell_setting 'monoclinic'
loop_
_space_group_symop_operation_xyz
x,y,z
-x,y,-z
-x,-y,-z
x,-y,z
1/2+x,1/2+y,z
1/2-x,1/2+y,-z
1/2-x,1/2-y,-z
1/2+x,1/2-y,z
loop_
_atom_site_type_symbol
_atom_site_label
_atom_site_fract_x
_atom_site_fract_y
_atom_site_fract_z
Si Si1 0.540772 0.650918 0.915748
Si Si2 0.205513 0.192866 0.762479
Si Si3 0.528579 0.860389 0.727509
Si Si4 0.729657 0.197897 0.767776
Si Si5 0.394028 0.054829 0.904185
Si Si6 0.370456 0.552429 0.823209
O O1 0.410391 0.658172 0.541735
O O2 0.500000 0.656889 0.000000
O O3 0.658451 0.688596 0.121552
O O4 0.599150 0.596847 0.002456
O O5 0.177165 0.247219 0.648104
O O6 0.349631 0.177422 0.001946
O O7 0.201876 0.188826 0.930535
O O8 0.500000 0.872670 0.500000
O O9 0.397903 0.836793 0.528501
O O10 0.567744 0.910850 0.882072
O O11 0.248641 0.068659 0.535422
O O12 0.396062 0.000000 0.968285
O O13 0.500000 0.062744 0.000000
O O14 0.335652 0.500000 0.827735
O O15 0.500000 0.543580 0.000000
#
# Coordination Sequence:
#
# PCOD8097957 Si02
#       6
#     8   8   8   8   8   8
#     4  11  21  34  56  84 110 137 176 226 268 307
#     4  10  21  38  57  77 105 147 185 213 262 323
#     4  10  20  34  55  81 106 137 181 227 263 304
#     4  10  21  38  57  76 107 147 182 215 260 324
#     4  10  20  35  55  77 105 142 177 212 265 327
#     4   9  18  33  53  76 104 139 174 209 259 321
#
# _framework density 19.184633000000002
#
# number of rings (size 3 to 8) (size 9 to 14) (size 15 to 20)
#    0.000    2.000    0.000    4.500    0.000    3.667 
#    0.000    3.333    0.000    4.000    0.000    0.000 
#    0.000    0.000    0.000    0.000    0.000    0.000 
#
# Total GULP energy -297561.843685 kJ/mol
# GULP energy per Si atom -12398.410154 kJ/mol
# Density = 1.914097 g / cm^3
# Si number density = 19.184633 Si / 1000 Ang^3
#
#
#
# Elastic Constant Matrix: (Units=GPa)
#
#
# Indices 1 2 3 4 5 6 
#
# 1 72.1116 36.5422 37.8202 0.0000 16.0815 0.0000
# 2 36.5422 130.9343 68.9045 0.0000 -11.7720 0.0000
# 3 37.8202 68.9045 139.2523 0.0000 11.8738 0.0000
# 4 0.0000 0.0000 0.0000 39.8908 0.0000 -2.2432
# 5 16.0815 -11.7720 11.8738 0.0000 23.1014 0.0000
# 6 0.0000 0.0000 0.0000 -2.2432 0.0000 25.2656
#
#
#
# Elastic Compliance Matrix: (Units=1/GPa)
#
#
# Indices 1 2 3 4 5 6 
#
# 1 0.022315 -0.007578 -0.000687 0.000000 -0.019042 0.000000
# 2 -0.007578 0.014660 -0.006570 0.000000 0.016123 0.000000
# 3 -0.000687 -0.006570 0.011362 0.000000 -0.008710 0.000000
# 4 0.000000 0.000000 0.000000 0.025194 0.000000 0.002237
# 5 -0.019042 0.016123 -0.008710 0.000000 0.069236 0.000000
# 6 0.000000 0.000000 0.000000 0.002237 0.000000 0.039778
#
#
# Mechanical properties :
#
#
# Convention : Reuss Voigt Hill
#
# Bulk Modulus (GPa) = 53.57745 69.87020 61.72383
# Shear Modulus (GPa) = 22.88994 30.92034 26.90514
#
# Velocity S-wave (km/s) = 3.45793 4.01898 3.74897
# Velocity P-wave (km/s) = 6.62804 7.61809 7.14025
#
# Compressibility (1/GPa) = 0.01866457
#
# Stress axis : x y z
#
# Youngs Moduli (GPa) = 44.81383 68.21432 88.01591
#
# Poissons Ratio (x) = 0.51695 0.06046
# Poissons Ratio (y) = 0.33961 0.57830
# Poissons Ratio (z) = 0.03078 0.44820
#
# Static dielectric constant tensor:
#      x y z
#    x 3.367880 0.000000 0.206010 
#    y 0.000000 3.868130 0.000000 
#    z 0.206010 0.000000 3.587850 
# 
# 
# High freq. dielectric constant tensor:
#      x y z
#    x 1.722530 0.000000 0.024360 
#    y 0.000000 1.757540 0.000000 
#    z 0.024360 0.000000 1.758470 
# 
# From -- ./inp_files/51931.got.cif
#   From: 2010.06.25/outbox.cif.g09.slc.cpg/sg12_26_cif.got.tgz:51931.got - 2010.06.28 00:19:55.
