data_PCOD8097720
_publ_section_title
;
Structure prediction by ZEFSAII (Michael W. Deem and Ramdas Pophale) SiO2 
 PCOD8097720
Probable space group: C 2/M
;
_chemical_formula_sum "Si O2"
_cell_formula_units_Z 56
_cell_length_a 10.516931
_cell_length_b 13.283092
_cell_length_c 21.647501
_cell_angle_alpha 90.000000
_cell_angle_beta 75.630260
_cell_angle_gamma 90.000000
_cell_volume 2929.487943
_symmetry_space_group_name_H-M "C 2/M"
_symmetry_group_IT_number 12
_symmetry_cell_setting 'monoclinic'
loop_
_space_group_symop_operation_xyz
x,y,z
-x,y,-z
-x,-y,-z
x,-y,z
1/2+x,1/2+y,z
1/2-x,1/2+y,-z
1/2-x,1/2-y,-z
1/2+x,1/2-y,z
loop_
_atom_site_type_symbol
_atom_site_label
_atom_site_fract_x
_atom_site_fract_y
_atom_site_fract_z
Si Si1 0.965496 0.886778 0.294509
Si Si2 0.694971 0.245618 0.606379
Si Si3 0.759820 0.614411 0.282906
Si Si4 0.303712 0.236941 0.893610
Si Si5 0.901847 0.767908 0.187484
Si Si6 0.147630 0.617895 0.994254
Si Si7 0.351790 0.110098 0.505003
O O1 0.928480 0.809586 0.353697
O O2 0.894600 0.855840 0.239414
O O3 0.120993 0.881822 0.264913
O O4 0.921103 0.000000 0.317378
O O5 0.756597 0.177497 0.652479
O O6 0.654977 0.171388 0.557143
O O7 0.798075 0.326916 0.569194
O O8 0.802306 0.500000 0.293006
O O9 0.867514 0.661314 0.223921
O O10 0.208236 0.203316 0.849582
O O11 0.452134 0.259644 0.856221
O O12 0.244791 0.337012 0.931472
O O13 0.304683 0.147005 0.943125
O O14 0.154930 0.500000 0.985141
O O15 0.000000 0.658189 0.000000
O O16 0.500000 0.087420 0.500000
O O17 0.280601 0.000000 0.507621
#
# Coordination Sequence:
#
# PCOD8097720 Si02
#       7
#     8   8   8   8   8   8   8
#     4  10  21  37  57  83 114 149 190 240 291 338
#     4  10  20  35  56  80 111 148 191 239 284 341
#     4  10  21  37  58  83 112 151 193 235 287 348
#     4  11  22  40  61  90 119 152 191 243 284 339
#     4  11  22  38  61  85 119 152 192 237 288 344
#     4  10  22  39  63  89 118 157 195 236 289 345
#     4  10  20  34  54  80 111 149 188 233 289 345
#
# _framework density 19.115969
#
# number of rings (size 3 to 8) (size 9 to 14) (size 15 to 20)
#    0.000    1.714    2.857    1.714    0.000    2.286 
#    0.000    0.714    0.000    6.857    0.000    0.000 
#    0.000    0.000    0.000    0.000    0.000    0.000 
#
# Total GULP energy -347164.644988 kJ/mol
# GULP energy per Si atom -12398.737321 kJ/mol
# Density = 1.907246 g / cm^3
# Si number density = 19.115969 Si / 1000 Ang^3
#
#
#
# Elastic Constant Matrix: (Units=GPa)
#
#
# Indices 1 2 3 4 5 6 
#
# 1 103.3181 45.5291 47.3118 0.0000 -1.9005 0.0000
# 2 45.5291 138.8074 56.2254 0.0000 -2.0491 0.0000
# 3 47.3118 56.2254 112.3494 0.0000 -1.0794 0.0000
# 4 0.0000 0.0000 0.0000 17.0277 0.0000 -2.9486
# 5 -1.9005 -2.0491 -1.0794 0.0000 29.3814 0.0000
# 6 0.0000 0.0000 0.0000 -2.9486 0.0000 27.5315
#
#
#
# Elastic Compliance Matrix: (Units=1/GPa)
#
#
# Indices 1 2 3 4 5 6 
#
# 1 0.012653 -0.002492 -0.004077 0.000000 0.000495 0.000000
# 2 -0.002492 0.009533 -0.003718 0.000000 0.000367 0.000000
# 3 -0.004077 -0.003718 0.012478 0.000000 -0.000065 0.000000
# 4 0.000000 0.000000 0.000000 0.059837 0.000000 0.006408
# 5 0.000495 0.000367 -0.000065 0.000000 0.034090 0.000000
# 6 0.000000 0.000000 0.000000 0.006408 0.000000 0.037008
#
#
# Mechanical properties :
#
#
# Convention : Reuss Voigt Hill
#
# Bulk Modulus (GPa) = 70.96772 72.51194 71.73983
# Shear Modulus (GPa) = 26.19607 28.48204 27.33905
#
# Velocity S-wave (km/s) = 3.70588 3.86419 3.78586
# Velocity P-wave (km/s) = 7.45096 7.61080 7.53130
#
# Compressibility (1/GPa) = 0.01409091
#
# Stress axis : x y z
#
# Youngs Moduli (GPa) = 79.03489 104.89996 80.14399
#
# Poissons Ratio (x) = 0.26136 0.32671
# Poissons Ratio (y) = 0.19692 0.29798
# Poissons Ratio (z) = 0.32219 0.39002
#
# Static dielectric constant tensor:
#      x y z
#    x 3.493430 0.000000 0.045950 
#    y 0.000000 3.607640 0.000000 
#    z 0.045950 0.000000 3.660770 
# 
# 
# High freq. dielectric constant tensor:
#      x y z
#    x 1.738940 0.000000 0.000060 
#    y 0.000000 1.748280 0.000000 
#    z 0.000060 0.000000 1.754830 
# 
# From -- ./inp_files/304695.got.cif
#   From: 2010.06.25/outbox.cif.g09.slc.cpg/sg12_153_cif.got.tgz:304695.got - 2010.06.28 00:19:55.
