data_PCOD8097913
_publ_section_title
;
Structure prediction by ZEFSAII (Michael W. Deem and Ramdas Pophale) SiO2 
 PCOD8097913
Probable space group: C 2/M
;
_chemical_formula_sum "Si O2"
_cell_formula_units_Z 64
_cell_length_a 27.928428
_cell_length_b 8.957930
_cell_length_c 34.397779
_cell_angle_alpha 90.000000
_cell_angle_beta 156.376538
_cell_angle_gamma 90.000000
_cell_volume 3448.499530
_symmetry_space_group_name_H-M "C 2/M"
_symmetry_group_IT_number 12
_symmetry_cell_setting 'monoclinic'
loop_
_space_group_symop_operation_xyz
x,y,z
-x,y,-z
-x,-y,-z
x,-y,z
1/2+x,1/2+y,z
1/2-x,1/2+y,-z
1/2-x,1/2-y,-z
1/2+x,1/2-y,z
loop_
_atom_site_type_symbol
_atom_site_label
_atom_site_fract_x
_atom_site_fract_y
_atom_site_fract_z
Si Si1 0.475226 0.175138 0.391324
Si Si2 0.352271 0.824764 0.148275
Si Si3 0.362159 0.322593 0.235890
Si Si4 0.872131 0.832737 0.384924
Si Si5 0.958507 0.672636 0.776693
Si Si6 0.407365 0.175226 0.961812
Si Si7 0.605680 0.826091 0.960872
Si Si8 0.723775 0.174214 0.615434
O O1 0.455217 0.253265 0.335284
O O2 0.379105 0.239539 0.350402
O O3 0.609543 0.214835 0.504217
O O4 0.454498 0.000000 0.372302
O O5 0.397559 0.737699 0.219922
O O6 0.442061 0.784184 0.180542
O O7 0.348844 0.000000 0.154481
O O8 0.222208 0.770701 0.038145
O O9 0.373026 0.500000 0.244184
O O10 0.227619 0.267740 0.146156
O O11 0.779511 0.756271 0.345343
O O12 0.000000 0.835103 0.500000
O O13 0.827456 0.000000 0.342122
O O14 0.922846 0.500000 0.747085
O O15 0.841427 0.770444 0.680592
O O16 0.005837 0.712158 0.854933
O O17 0.409000 0.000000 0.956482
O O18 0.500000 0.250536 0.000000
O O19 0.445596 0.214938 0.034482
O O20 0.643190 0.000000 0.987210
O O21 0.729050 0.000000 0.627670
#
# Coordination Sequence:
#
# PCOD8097913 Si02
#       8
#     8   8   8   8   8   8   8   8
#     4  10  20  35  54  77 107 141 177 218 264 313
#     4  10  20  35  54  76 103 135 173 221 273 320
#     4  10  20  34  55  79 101 136 182 219 261 319
#     4   9  17  31  52  75 101 136 175 212 252 303
#     4  10  21  35  53  77 104 137 177 222 271 319
#     4   8  15  29  49  75 106 134 163 204 252 303
#     4   9  18  33  53  77 104 136 174 214 259 316
#     4  10  21  35  52  77 109 141 174 218 269 314
#
# _framework density 18.558796000000001
#
# number of rings (size 3 to 8) (size 9 to 14) (size 15 to 20)
#    0.000    2.500    0.000    3.000    0.000    5.500 
#    0.000    3.125    0.000    9.375    0.000    0.000 
#    0.000    0.000    0.000    0.000    0.000    0.000 
#
# Total GULP energy -396823.782091 kJ/mol
# GULP energy per Si atom -12400.743190 kJ/mol
# Density = 1.851656 g / cm^3
# Si number density = 18.558796 Si / 1000 Ang^3
#
#
#
# Elastic Constant Matrix: (Units=GPa)
#
#
# Indices 1 2 3 4 5 6 
#
# 1 118.3380 43.6068 57.7591 0.0004 1.0103 -0.0004
# 2 43.6068 81.5370 43.3322 0.0033 -3.2581 -0.0017
# 3 57.7591 43.3322 81.2409 0.0010 -6.9074 0.0003
# 4 0.0004 0.0033 0.0010 27.9201 0.0002 0.5763
# 5 1.0103 -3.2581 -6.9074 0.0002 28.4166 0.0001
# 6 -0.0004 -0.0017 0.0003 0.5763 0.0001 31.9979
#
#
#
# Elastic Compliance Matrix: (Units=1/GPa)
#
#
# Indices 1 2 3 4 5 6 
#
# 1 0.013652 -0.002970 -0.008365 0.000000 -0.002859 0.000000
# 2 -0.002970 0.017764 -0.007333 -0.000002 0.000360 0.000001
# 3 -0.008365 -0.007333 0.022588 0.000000 0.004947 -0.000001
# 4 0.000000 -0.000002 0.000000 0.035830 0.000000 -0.000645
# 5 -0.002859 0.000360 0.004947 0.000000 0.036536 0.000000
# 6 0.000000 0.000001 -0.000001 -0.000645 0.000000 0.031264
#
#
# Mechanical properties :
#
#
# Convention : Reuss Voigt Hill
#
# Bulk Modulus (GPa) = 59.99338 63.39024 61.69181
# Shear Modulus (GPa) = 24.93442 26.76145 25.84794
#
# Velocity S-wave (km/s) = 3.66940 3.80146 3.73602
# Velocity P-wave (km/s) = 7.09570 7.31428 7.20582
#
# Compressibility (1/GPa) = 0.01666851
#
# Stress axis : x y z
#
# Youngs Moduli (GPa) = 73.24894 56.29328 44.27095
#
# Poissons Ratio (x) = 0.16719 0.37033
# Poissons Ratio (y) = 0.21755 0.32463
# Poissons Ratio (z) = 0.61273 0.41279
#
# Static dielectric constant tensor:
#      x y z
#    x 3.543790 0.000000 -0.022340 
#    y 0.000000 3.353230 0.000000 
#    z -0.022340 0.000000 3.276620 
# 
# 
# High freq. dielectric constant tensor:
#      x y z
#    x 1.721560 0.000000 -0.004420 
#    y 0.000000 1.715650 0.000000 
#    z -0.004420 0.000000 1.706940 
# 
# From -- ./inp_files/243896.got.cif
#   From: 2010.06.25/outbox.cif.g09.slc.cpg/sg12_122_cif.got.tgz:243896.got - 2010.06.28 00:19:55.
