data_PCOD8097783
_publ_section_title
;
Structure prediction by ZEFSAII (Michael W. Deem and Ramdas Pophale) SiO2 
 PCOD8097783
Probable space group: C 2/M
;
_chemical_formula_sum "Si O2"
_cell_formula_units_Z 56
_cell_length_a 14.184345
_cell_length_b 9.063216
_cell_length_c 24.522841
_cell_angle_alpha 90.000000
_cell_angle_beta 107.893828
_cell_angle_gamma 90.000000
_cell_volume 3000.056168
_symmetry_space_group_name_H-M "C 2/M"
_symmetry_group_IT_number 12
_symmetry_cell_setting 'monoclinic'
loop_
_space_group_symop_operation_xyz
x,y,z
-x,y,-z
-x,-y,-z
x,-y,z
1/2+x,1/2+y,z
1/2-x,1/2+y,-z
1/2-x,1/2-y,-z
1/2+x,1/2-y,z
loop_
_atom_site_type_symbol
_atom_site_label
_atom_site_fract_x
_atom_site_fract_y
_atom_site_fract_z
Si Si1 0.367145 0.328565 0.237688
Si Si2 0.667676 0.829213 0.139511
Si Si3 0.463041 0.171221 0.157360
Si Si4 0.157162 0.669725 0.546963
Si Si5 0.236262 0.328537 0.940591
Si Si6 0.616161 0.328821 0.433364
Si Si7 0.437856 0.826421 0.355751
O O1 0.389769 0.500000 0.250412
O O2 0.255666 0.300120 0.197734
O O3 0.446457 0.265891 0.208756
O O4 0.376334 0.243365 0.295834
O O5 0.565462 0.776465 0.148517
O O6 0.684584 0.735544 0.088045
O O7 0.662370 0.000000 0.121521
O O8 0.375333 0.201762 0.099097
O O9 0.467266 0.000000 0.174970
O O10 0.133749 0.500000 0.529266
O O11 0.273433 0.702155 0.567217
O O12 0.100799 0.765525 0.491498
O O13 0.119158 0.715889 0.599257
O O14 0.258357 0.500000 0.951640
O O15 0.250000 0.250000 0.000000
O O16 0.588662 0.500000 0.428745
O O17 0.546876 0.244093 0.378095
O O18 0.446692 0.000000 0.348217
#
# Coordination Sequence:
#
# PCOD8097783 Si02
#       7
#     8   8   8   8   8   8   8
#     4  10  21  36  54  78 105 132 171 222 264 304
#     4   9  19  37  58  78 104 139 178 218 261 309
#     4   9  19  37  58  78 104 142 179 212 260 315
#     4   9  20  37  54  75 105 139 171 208 261 319
#     4  10  20  34  54  81 113 144 177 217 259 307
#     4  10  20  35  55  79 105 133 171 217 261 309
#     4  11  22  36  54  75 104 140 174 210 258 316
#
# _framework density 18.666315999999998
#
# number of rings (size 3 to 8) (size 9 to 14) (size 15 to 20)
#    0.000    2.286    0.000    2.143    0.000    6.857 
#    0.000    5.714    0.000    0.000    0.000    0.000 
#    0.000    0.000    0.000    0.000    0.000    0.000 
#
# Total GULP energy -347337.195025 kJ/mol
# GULP energy per Si atom -12404.899822 kJ/mol
# Density = 1.862383 g / cm^3
# Si number density = 18.666316 Si / 1000 Ang^3
#
#
#
# Elastic Constant Matrix: (Units=GPa)
#
#
# Indices 1 2 3 4 5 6 
#
# 1 110.8264 41.1369 39.5700 0.0000 -4.9818 0.0000
# 2 41.1369 91.8128 54.5312 0.0000 -5.7258 0.0000
# 3 39.5700 54.5312 103.5454 0.0000 -9.2668 0.0000
# 4 0.0000 0.0000 0.0000 40.7374 0.0000 -3.1298
# 5 -4.9818 -5.7258 -9.2668 0.0000 16.8116 0.0000
# 6 0.0000 0.0000 0.0000 -3.1298 0.0000 28.2387
#
#
#
# Elastic Compliance Matrix: (Units=1/GPa)
#
#
# Indices 1 2 3 4 5 6 
#
# 1 0.011225 -0.003600 -0.002320 0.000000 0.000821 0.000000
# 2 -0.003600 0.017015 -0.007534 0.000000 0.000576 0.000000
# 3 -0.002320 -0.007534 0.014958 0.000000 0.004992 0.000000
# 4 0.000000 0.000000 0.000000 0.024758 0.000000 0.002744
# 5 0.000821 0.000576 0.004992 0.000000 0.062674 0.000000
# 6 0.000000 0.000000 0.000000 0.002744 0.000000 0.035717
#
#
# Mechanical properties :
#
#
# Convention : Reuss Voigt Hill
#
# Bulk Modulus (GPa) = 61.38412 64.07342 62.72877
# Shear Modulus (GPa) = 25.16552 28.55397 26.85975
#
# Velocity S-wave (km/s) = 3.67574 3.91539 3.79745
# Velocity P-wave (km/s) = 7.13940 7.40544 7.27364
#
# Compressibility (1/GPa) = 0.01629086
#
# Stress axis : x y z
#
# Youngs Moduli (GPa) = 89.08929 58.77130 66.85176
#
# Poissons Ratio (x) = 0.21158 0.15510
# Poissons Ratio (y) = 0.32072 0.50363
# Poissons Ratio (z) = 0.20670 0.44276
#
# Static dielectric constant tensor:
#      x y z
#    x 3.507270 0.000000 0.030730 
#    y 0.000000 3.495160 0.000000 
#    z 0.030730 0.000000 3.379780 
# 
# 
# High freq. dielectric constant tensor:
#      x y z
#    x 1.728580 0.000000 0.001370 
#    y 0.000000 1.732120 0.000000 
#    z 0.001370 0.000000 1.723440 
# 
# From -- ./inp_files/337863.got.cif
#   From: 2010.06.25/outbox.cif.g09.slc.cpg/sg12_169_cif.got.tgz:337863.got - 2010.06.28 00:19:55.
