data_PCOD8097049
_publ_section_title
;
Structure prediction by ZEFSAII (Michael W. Deem and Ramdas Pophale) SiO2 
 PCOD8097049
Probable space group: C 2/M
;
_chemical_formula_sum "Si O2"
_cell_formula_units_Z 56
_cell_length_a 8.354945
_cell_length_b 12.152830
_cell_length_c 31.540614
_cell_angle_alpha 90.000000
_cell_angle_beta 65.416238
_cell_angle_gamma 90.000000
_cell_volume 2912.219909
_symmetry_space_group_name_H-M "C 2/M"
_symmetry_group_IT_number 12
_symmetry_cell_setting 'monoclinic'
loop_
_space_group_symop_operation_xyz
x,y,z
-x,y,-z
-x,-y,-z
x,-y,z
1/2+x,1/2+y,z
1/2-x,1/2+y,-z
1/2-x,1/2-y,-z
1/2+x,1/2-y,z
loop_
_atom_site_type_symbol
_atom_site_label
_atom_site_fract_x
_atom_site_fract_y
_atom_site_fract_z
Si Si1 0.618901 0.200221 0.607348
Si Si2 0.742649 0.699921 0.324013
Si Si3 0.243170 0.373454 0.835383
Si Si4 0.371529 0.373140 0.051692
Si Si5 0.436173 0.277102 0.891738
Si Si6 0.957938 0.875781 0.729849
Si Si7 0.081441 0.624669 0.446682
O O1 0.437302 0.248235 0.642120
O O2 0.689667 0.133365 0.641302
O O3 0.754899 0.297862 0.581839
O O4 0.577948 0.127648 0.570424
O O5 0.700412 0.626046 0.287701
O O6 0.881148 0.795691 0.297626
O O7 0.186225 0.500000 0.837109
O O8 0.334993 0.355646 0.870471
O O9 0.375901 0.339089 0.783518
O O10 0.069933 0.299156 0.850660
O O11 0.317364 0.500000 0.052622
O O12 0.463395 0.355899 0.086846
O O13 0.196693 0.300199 0.067440
O O14 0.500000 0.335555 0.000000
O O15 0.031979 0.000000 0.723884
O O16 0.152443 0.500000 0.441694
O O17 0.000000 0.663828 0.500000
#
# Coordination Sequence:
#
# PCOD8097049 Si02
#       7
#     8   8   8   8   8   8   8
#     4   9  19  34  53  76 104 132 167 209 247 295
#     4   9  19  34  52  76 101 132 169 204 248 301
#     4  10  20  34  53  76 101 133 169 207 254 302
#     4  10  20  34  52  75 103 135 171 210 254 303
#     4  10  20  34  53  75 103 134 169 212 253 301
#     4  10  20  35  54  75 103 134 166 209 254 298
#     4  10  20  35  55  77 103 136 170 207 253 299
#
# _framework density 19.229315
#
# number of rings (size 3 to 8) (size 9 to 14) (size 15 to 20)
#    0.000    2.286    0.000    2.571    0.000    5.714 
#    0.000    4.286    0.000   26.571    0.000    0.000 
#    0.000    0.000    0.000    0.000    0.000    0.000 
#
# Total GULP energy -347023.006463 kJ/mol
# GULP energy per Si atom -12393.678802 kJ/mol
# Density = 1.918555 g / cm^3
# Si number density = 19.229315 Si / 1000 Ang^3
#
#
#
# Elastic Constant Matrix: (Units=GPa)
#
#
# Indices 1 2 3 4 5 6 
#
# 1 64.1200 9.9662 22.5576 0.0000 -5.0668 0.0000
# 2 9.9662 55.5792 28.9180 0.0000 -13.2859 0.0000
# 3 22.5576 28.9180 103.8109 0.0000 -6.4991 0.0000
# 4 0.0000 0.0000 0.0000 -3.1548 0.0000 9.9038
# 5 -5.0668 -13.2859 -6.4991 0.0000 33.4555 0.0000
# 6 0.0000 0.0000 0.0000 9.9038 0.0000 17.0394
#
#
#
# Elastic Compliance Matrix: (Units=1/GPa)
#
#
# Indices 1 2 3 4 5 6 
#
# 1 0.017041 -0.000945 -0.003342 0.000000 0.001556 0.000000
# 2 -0.000945 0.023020 -0.005713 0.000000 0.007889 0.000000
# 3 -0.003342 -0.005713 0.011922 0.000000 -0.000459 0.000000
# 4 0.000000 0.000000 0.000000 -0.112218 0.000000 0.065225
# 5 0.001556 0.007889 -0.000459 0.000000 0.033170 0.000000
# 6 0.000000 0.000000 0.000000 0.065225 0.000000 0.020777
#
#
# Mechanical properties :
#
#
# Convention : Reuss Voigt Hill
#
# Bulk Modulus (GPa) = 31.26697 38.48820 34.87758
# Shear Modulus (GPa) = 205.13383 20.27258 112.70321
#
# Velocity S-wave (km/s) = 10.33969 3.25045 7.66403
# Velocity P-wave (km/s) = 12.60321 5.84346 9.82311
#
# Compressibility (1/GPa) = 0.03198263
#
# Stress axis : x y z
#
# Youngs Moduli (GPa) = 58.68043 43.43997 83.87841
#
# Poissons Ratio (x) = 0.04104 0.28036
# Poissons Ratio (y) = 0.05543 0.47924
# Poissons Ratio (z) = 0.19614 0.24819
#
# Static dielectric constant tensor:
#      x y z
#    x 4.064720 0.000000 0.423840 
#    y 0.000000 3.243080 0.000000 
#    z 0.423840 0.000000 3.988960 
# 
# 
# High freq. dielectric constant tensor:
#      x y z
#    x 1.755230 0.000000 0.006460 
#    y 0.000000 1.727160 0.000000 
#    z 0.006460 0.000000 1.767270 
# 
# From -- ./inp_files/355743.got.cif
#   From: 2010.06.25/outbox.cif.g09.slc.cpg/sg12_178_cif.got.tgz:355743.got - 2010.06.28 00:19:55.
