data_PCOD8097458
_publ_section_title
;
Structure prediction by ZEFSAII (Michael W. Deem and Ramdas Pophale) SiO2 
 PCOD8097458
Probable space group: C 2/M
;
_chemical_formula_sum "Si O2"
_cell_formula_units_Z 64
_cell_length_a 9.649027
_cell_length_b 18.652707
_cell_length_c 21.089541
_cell_angle_alpha 90.000000
_cell_angle_beta 117.048866
_cell_angle_gamma 90.000000
_cell_volume 3380.527519
_symmetry_space_group_name_H-M "C 2/M"
_symmetry_group_IT_number 12
_symmetry_cell_setting 'monoclinic'
loop_
_space_group_symop_operation_xyz
x,y,z
-x,y,-z
-x,-y,-z
x,-y,z
1/2+x,1/2+y,z
1/2-x,1/2+y,-z
1/2-x,1/2-y,-z
1/2+x,1/2-y,z
loop_
_atom_site_type_symbol
_atom_site_label
_atom_site_fract_x
_atom_site_fract_y
_atom_site_fract_z
Si Si1 0.108451 0.415015 0.075822
Si Si2 0.018385 0.914647 0.681670
Si Si3 0.950589 0.414936 0.166892
Si Si4 0.756030 0.680682 0.415503
Si Si5 0.556093 0.415231 0.831522
Si Si6 0.108381 0.914484 0.079443
Si Si7 0.579200 0.181343 0.416653
Si Si8 0.665754 0.914898 0.322113
O O1 0.089763 0.500000 0.068054
O O2 0.283882 0.390247 0.102392
O O3 0.065058 0.388029 0.136324
O O4 0.000000 0.378708 0.000000
O O5 0.855040 0.887009 0.620048
O O6 0.031650 0.882900 0.756208
O O7 0.166282 0.888741 0.670187
O O8 0.011566 0.000000 0.680491
O O9 0.938995 0.500000 0.168431
O O10 0.782864 0.384178 0.111519
O O11 0.025141 0.386641 0.247814
O O12 0.643553 0.749683 0.392437
O O13 0.832706 0.669765 0.499450
O O14 0.892948 0.687359 0.390916
O O15 0.554161 0.500000 0.822765
O O16 0.434241 0.388534 0.858362
O O17 0.100010 0.000000 0.073237
O O18 0.000000 0.882863 0.000000
O O19 0.626001 0.113800 0.383423
O O20 0.667061 0.000000 0.326161
#
# Coordination Sequence:
#
# PCOD8097458 Si02
#       8
#     8   8   8   8   8   8   8   8
#     4   9  14  22  38  58  88 133 178 214 251 301
#     4  10  20  34  53  79 113 149 181 218 266 318
#     4   9  16  26  39  62  97 136 175 215 259 308
#     4  10  22  40  61  83 107 137 175 220 267 317
#     4   9  16  26  39  62  97 136 175 215 259 308
#     4   9  16  24  36  58  92 135 178 218 263 311
#     4  10  22  40  61  83 107 137 175 220 267 317
#     4  10  20  34  53  79 113 149 181 218 266 318
#
# _framework density 18.931956
#
# number of rings (size 3 to 8) (size 9 to 14) (size 15 to 20)
#    0.000    2.500    1.250    1.500    1.750    5.500 
#    0.000    2.500    0.000    0.000    0.000    0.000 
#    0.000    6.000    0.000    0.000    0.000    0.000 
#
# Total GULP energy -396493.382673 kJ/mol
# GULP energy per Si atom -12390.418209 kJ/mol
# Density = 1.888887 g / cm^3
# Si number density = 18.931956 Si / 1000 Ang^3
#
#
#
# Elastic Constant Matrix: (Units=GPa)
#
#
# Indices 1 2 3 4 5 6 
#
# 1 109.9935 20.9309 38.4556 0.0000 15.8627 0.0000
# 2 20.9309 21.9050 21.4320 0.0000 1.6381 0.0000
# 3 38.4556 21.4320 67.6651 0.0000 4.9634 0.0000
# 4 0.0000 0.0000 0.0000 2.0992 0.0000 1.0234
# 5 15.8627 1.6381 4.9634 0.0000 18.8328 0.0000
# 6 0.0000 0.0000 0.0000 1.0234 0.0000 21.0108
#
#
#
# Elastic Compliance Matrix: (Units=1/GPa)
#
#
# Indices 1 2 3 4 5 6 
#
# 1 0.013529 -0.007790 -0.004523 0.000000 -0.009526 0.000000
# 2 -0.007790 0.070638 -0.018332 0.000000 0.005248 0.000000
# 3 -0.004523 -0.018332 0.023207 0.000000 -0.000712 0.000000
# 4 0.000000 0.000000 0.000000 0.487967 0.000000 -0.023767
# 5 -0.009526 0.005248 -0.000712 0.000000 0.060853 0.000000
# 6 0.000000 0.000000 0.000000 -0.023767 0.000000 0.048752
#
#
# Mechanical properties :
#
#
# Convention : Reuss Voigt Hill
#
# Bulk Modulus (GPa) = 21.69833 40.13341 30.91587
# Shear Modulus (GPa) = 6.39715 16.30490 11.35103
#
# Velocity S-wave (km/s) = 1.84021 2.93787 2.45127
# Velocity P-wave (km/s) = 4.00016 5.72301 4.93731
#
# Compressibility (1/GPa) = 0.04608650
#
# Stress axis : x y z
#
# Youngs Moduli (GPa) = 73.91690 14.15663 43.08953
#
# Poissons Ratio (x) = 0.11028 0.19488
# Poissons Ratio (y) = 0.57580 0.78990
# Poissons Ratio (z) = 0.33430 0.25951
#
# Static dielectric constant tensor:
#      x y z
#    x 3.759000 0.000000 0.024710 
#    y 0.000000 2.816610 0.000000 
#    z 0.024710 0.000000 3.595610 
# 
# 
# High freq. dielectric constant tensor:
#      x y z
#    x 1.754820 0.000000 0.000990 
#    y 0.000000 1.660080 0.000000 
#    z 0.000990 0.000000 1.748390 
# 
# From -- ./inp_files/301772.got.cif
#   From: 2010.06.25/outbox.cif.g09.slc.cpg/sg12_151_cif.got.tgz:301772.got - 2010.06.28 00:19:55.
