data_PCOD8097523
_publ_section_title
;
Structure prediction by ZEFSAII (Michael W. Deem and Ramdas Pophale) SiO2 
 PCOD8097523
Probable space group: C 2/M
;
_chemical_formula_sum "Si O2"
_cell_formula_units_Z 56
_cell_length_a 17.939350
_cell_length_b 14.517837
_cell_length_c 18.914298
_cell_angle_alpha 90.000000
_cell_angle_beta 36.722595
_cell_angle_gamma 90.000000
_cell_volume 2945.488882
_symmetry_space_group_name_H-M "C 2/M"
_symmetry_group_IT_number 12
_symmetry_cell_setting 'monoclinic'
loop_
_space_group_symop_operation_xyz
x,y,z
-x,y,-z
-x,-y,-z
x,-y,z
1/2+x,1/2+y,z
1/2-x,1/2+y,-z
1/2-x,1/2-y,-z
1/2+x,1/2-y,z
loop_
_atom_site_type_symbol
_atom_site_label
_atom_site_fract_x
_atom_site_fract_y
_atom_site_fract_z
Si Si1 0.357574 0.788110 0.132930
Si Si2 0.171279 0.394972 0.702147
Si Si3 0.624267 0.290305 0.223789
Si Si4 0.136473 0.097906 0.919304
Si Si5 0.565565 0.104274 0.206035
Si Si6 0.678823 0.603175 0.046946
Si Si7 0.952950 0.105601 0.459034
O O1 0.337835 0.830264 0.223776
O O2 0.255218 0.828337 0.156118
O O3 0.318874 0.679871 0.165997
O O4 0.500000 0.803953 0.000000
O O5 0.150402 0.500000 0.743232
O O6 0.304872 0.382745 0.564370
O O7 0.067104 0.365831 0.724861
O O8 0.606908 0.178495 0.234895
O O9 0.616961 0.326604 0.148935
O O10 0.511521 0.330951 0.354552
O O11 0.213346 0.000000 0.855341
O O12 0.137557 0.133950 0.999539
O O13 0.000000 0.072561 0.000000
O O14 0.558230 0.000000 0.243494
O O15 0.670212 0.106771 0.064733
O O16 0.630901 0.500000 0.100233
O O17 0.000000 0.138930 0.500000
O O18 0.994294 0.000000 0.415480
#
# Coordination Sequence:
#
# PCOD8097523 Si02
#       7
#     8   8   8   8   8   8   8
#     4  11  22  33  57  87 113 148 187 228 277 339
#     4  10  22  40  59  81 115 150 186 232 284 340
#     4  12  22  34  61  86 112 148 192 237 274 330
#     4   9  19  34  52  77 114 154 184 224 277 331
#     4  10  22  38  57  82 119 156 180 224 289 342
#     4  10  20  34  53  84 118 146 184 230 283 335
#     4  10  21  40  61  82 110 146 189 236 285 333
#
# _framework density 19.012125000000001
#
# number of rings (size 3 to 8) (size 9 to 14) (size 15 to 20)
#    0.000    1.714    2.857    1.714    4.000    1.429 
#    0.000    0.000    0.000    1.286    0.000    0.000 
#    0.000    0.000    0.000    0.000    0.000    0.000 
#
# Total GULP energy -346974.266672 kJ/mol
# GULP energy per Si atom -12391.938095 kJ/mol
# Density = 1.896885 g / cm^3
# Si number density = 19.012125 Si / 1000 Ang^3
#
#
#
# Elastic Constant Matrix: (Units=GPa)
#
#
# Indices 1 2 3 4 5 6 
#
# 1 118.0241 27.4939 42.0580 0.0000 -18.4906 0.0000
# 2 27.4939 94.7000 50.9374 0.0000 10.3745 0.0000
# 3 42.0580 50.9374 89.6985 -0.0001 0.4613 0.0000
# 4 0.0000 0.0000 -0.0001 30.2896 0.0001 3.9904
# 5 -18.4906 10.3745 0.4613 0.0001 19.5900 0.0000
# 6 0.0000 0.0000 0.0000 3.9904 0.0000 28.2470
#
#
#
# Elastic Compliance Matrix: (Units=1/GPa)
#
#
# Indices 1 2 3 4 5 6 
#
# 1 0.012898 -0.002826 -0.004514 0.000000 0.013777 0.000000
# 2 -0.002826 0.017134 -0.008345 0.000000 -0.011545 0.000000
# 3 -0.004514 -0.008345 0.018005 0.000000 -0.000265 0.000000
# 4 0.000000 0.000000 0.000000 0.033641 0.000000 -0.004752
# 5 0.013777 -0.011545 -0.000265 0.000000 0.070171 0.000000
# 6 0.000000 0.000000 0.000000 -0.004752 0.000000 0.036073
#
#
# Mechanical properties :
#
#
# Convention : Reuss Voigt Hill
#
# Bulk Modulus (GPa) = 59.99916 60.37791 60.18853
# Shear Modulus (GPa) = 22.23732 27.75423 24.99578
#
# Velocity S-wave (km/s) = 3.42371 3.82490 3.62985
# Velocity P-wave (km/s) = 6.87429 7.16471 7.02100
#
# Compressibility (1/GPa) = 0.01666690
#
# Stress axis : x y z
#
# Youngs Moduli (GPa) = 77.53082 58.36463 55.53939
#
# Poissons Ratio (x) = 0.16495 0.25068
# Poissons Ratio (y) = 0.21911 0.46349
# Poissons Ratio (z) = 0.34995 0.48707
#
# Static dielectric constant tensor:
#      x y z
#    x 3.660520 0.000000 -0.270070 
#    y 0.000000 3.711040 0.000000 
#    z -0.270070 0.000000 3.183860 
# 
# 
# High freq. dielectric constant tensor:
#      x y z
#    x 1.750750 0.000000 -0.020490 
#    y 0.000000 1.751450 0.000000 
#    z -0.020490 0.000000 1.697770 
# 
# From -- ./inp_files/277804.got.cif
#   From: 2010.06.25/outbox.cif.g09.slc.cpg/sg12_139_cif.got.tgz:277804.got - 2010.06.28 00:19:55.
