data_PCOD8097884
_publ_section_title
;
Structure prediction by ZEFSAII (Michael W. Deem and Ramdas Pophale) SiO2 
 PCOD8097884
Probable space group: C 2/M
;
_chemical_formula_sum "Si O2"
_cell_formula_units_Z 64
_cell_length_a 29.343510
_cell_length_b 8.940103
_cell_length_c 15.152220
_cell_angle_alpha 90.000000
_cell_angle_beta 130.820129
_cell_angle_gamma 90.000000
_cell_volume 3008.099160
_symmetry_space_group_name_H-M "C 2/M"
_symmetry_group_IT_number 12
_symmetry_cell_setting 'monoclinic'
loop_
_space_group_symop_operation_xyz
x,y,z
-x,y,-z
-x,-y,-z
x,-y,z
1/2+x,1/2+y,z
1/2-x,1/2+y,-z
1/2-x,1/2-y,-z
1/2+x,1/2-y,z
loop_
_atom_site_type_symbol
_atom_site_label
_atom_site_fract_x
_atom_site_fract_y
_atom_site_fract_z
Si Si1 0.565966 0.676778 0.608910
Si Si2 0.701260 0.828097 0.090513
Si Si3 0.979520 0.331905 0.115731
Si Si4 0.114215 0.170149 0.107581
Si Si5 0.611169 0.833268 0.836960
Si Si6 0.601526 0.670337 0.291120
Si Si7 0.294915 0.176041 0.487325
Si Si8 0.684369 0.327274 0.664759
O O1 0.500000 0.744547 0.500000
O O2 0.562107 0.500000 0.603221
O O3 0.587089 0.722648 0.732610
O O4 0.617135 0.730577 0.604159
O O5 0.671782 0.724547 0.127172
O O6 0.773303 0.808028 0.194023
O O7 0.681792 0.000000 0.083998
O O8 0.676734 0.784899 0.961115
O O9 0.002738 0.500000 0.126513
O O10 0.934396 0.327555 0.139910
O O11 0.033052 0.220863 0.206010
O O12 0.944606 0.270902 0.985585
O O13 0.130482 0.183451 0.230900
O O14 0.099080 0.000000 0.062103
O O15 0.614755 0.000000 0.800806
O O16 0.605256 0.500000 0.330453
O O17 0.637311 0.778970 0.401586
O O18 0.250000 0.250000 0.500000
O O19 0.285678 0.232919 0.375950
O O20 0.285008 0.000000 0.477790
O O21 0.682452 0.500000 0.633011
#
# Coordination Sequence:
#
# PCOD8097884 Si02
#       8
#     8   8   8   8   8   8   8   8
#     4  10  23  41  62  91 124 162 206 255 312 371
#     4   9  19  37  61  86 117 157 200 251 309 371
#     4  10  21  36  56  85 120 159 203 251 306 369
#     4  10  20  34  54  84 119 156 199 250 306 364
#     4   9  20  38  59  87 120 155 199 250 307 366
#     4  11  23  37  56  83 118 159 206 258 308 365
#     4  12  26  43  63  90 123 161 207 255 311 372
#     4  10  22  42  65  90 123 164 209 258 314 372
#
# _framework density 21.275894000000001
#
# number of rings (size 3 to 8) (size 9 to 14) (size 15 to 20)
#    0.000    1.875    0.000    4.125    1.750    9.750 
#    0.000    0.000    0.000    0.000    0.000    0.000 
#    0.000    0.000    0.000    0.000    0.000    0.000 
#
# Total GULP energy -396769.269559 kJ/mol
# GULP energy per Si atom -12399.039674 kJ/mol
# Density = 2.122747 g / cm^3
# Si number density = 21.275894 Si / 1000 Ang^3
#
#
#
# Elastic Constant Matrix: (Units=GPa)
#
#
# Indices 1 2 3 4 5 6 
#
# 1 68.4064 30.0644 44.0434 0.0000 13.8132 0.0000
# 2 30.0644 87.1340 32.8892 0.0000 -3.2590 0.0000
# 3 44.0434 32.8892 129.2106 0.0000 7.7424 0.0000
# 4 0.0000 0.0000 0.0000 35.7808 0.0000 -3.4449
# 5 13.8132 -3.2590 7.7424 0.0000 30.6604 0.0000
# 6 0.0000 0.0000 0.0000 -3.4449 0.0000 26.2504
#
#
#
# Elastic Compliance Matrix: (Units=1/GPa)
#
#
# Indices 1 2 3 4 5 6 
#
# 1 0.022879 -0.006109 -0.005673 0.000000 -0.009524 0.000000
# 2 -0.006109 0.014475 -0.001888 0.000000 0.004768 0.000000
# 3 -0.005673 -0.001888 0.010166 0.000000 -0.000212 0.000000
# 4 0.000000 0.000000 0.000000 0.028306 0.000000 0.003715
# 5 -0.009524 0.004768 -0.000212 0.000000 0.037467 0.000000
# 6 0.000000 0.000000 0.000000 0.003715 0.000000 0.038582
#
#
# Mechanical properties :
#
#
# Convention : Reuss Voigt Hill
#
# Bulk Modulus (GPa) = 49.55171 55.41610 52.48390
# Shear Modulus (GPa) = 26.89005 30.38858 28.63932
#
# Velocity S-wave (km/s) = 3.55896 3.78340 3.67289
# Velocity P-wave (km/s) = 6.34262 6.72224 6.53519
#
# Compressibility (1/GPa) = 0.02018094
#
# Stress axis : x y z
#
# Youngs Moduli (GPa) = 43.70763 69.08297 98.36446
#
# Poissons Ratio (x) = 0.42204 0.55802
# Poissons Ratio (y) = 0.26702 0.18570
# Poissons Ratio (z) = 0.24795 0.13042
#
# Static dielectric constant tensor:
#      x y z
#    x 3.692560 0.000000 0.205140 
#    y 0.000000 3.892970 0.000000 
#    z 0.205140 0.000000 4.080680 
# 
# 
# High freq. dielectric constant tensor:
#      x y z
#    x 1.822960 0.000000 0.011940 
#    y 0.000000 1.828970 0.000000 
#    z 0.011940 0.000000 1.846070 
# 
# From -- ./inp_files/250128.got.cif
#   From: 2010.06.25/outbox.cif.g09.slc.cpg/sg12_126_cif.got.tgz:250128.got - 2010.06.28 00:19:55.
