data_PCOD8097348
_publ_section_title
;
Structure prediction by ZEFSAII (Michael W. Deem and Ramdas Pophale) SiO2 
 PCOD8097348
Probable space group: C 2/M
;
_chemical_formula_sum "Si O2"
_cell_formula_units_Z 64
_cell_length_a 21.411069
_cell_length_b 18.768187
_cell_length_c 8.745114
_cell_angle_alpha 90.000000
_cell_angle_beta 117.584428
_cell_angle_gamma 90.000000
_cell_volume 3114.736657
_symmetry_space_group_name_H-M "C 2/M"
_symmetry_group_IT_number 12
_symmetry_cell_setting 'monoclinic'
loop_
_space_group_symop_operation_xyz
x,y,z
-x,y,-z
-x,-y,-z
x,-y,z
1/2+x,1/2+y,z
1/2-x,1/2+y,-z
1/2-x,1/2-y,-z
1/2+x,1/2-y,z
loop_
_atom_site_type_symbol
_atom_site_label
_atom_site_fract_x
_atom_site_fract_y
_atom_site_fract_z
Si Si1 0.203779 0.672499 0.089905
Si Si2 0.965606 0.419618 0.812979
Si Si3 0.688101 0.415285 0.286442
Si Si4 0.800078 0.194816 0.465242
Si Si5 0.421002 0.725063 0.371147
Si Si6 0.153876 0.419449 0.525642
Si Si7 0.590542 0.881046 0.766910
Si Si8 0.170120 0.826102 0.987456
O O1 0.248381 0.652027 0.290039
O O2 0.252222 0.668611 0.994456
O O3 0.141561 0.617354 0.975655
O O4 0.169750 0.750865 0.076588
O O5 0.947300 0.500000 0.841465
O O6 0.895647 0.381693 0.661294
O O7 0.020098 0.421270 0.734493
O O8 0.000000 0.379148 0.000000
O O9 0.676575 0.500000 0.297572
O O10 0.658322 0.365975 0.389214
O O11 0.768785 0.386545 0.381340
O O12 0.655025 0.391338 0.087049
O O13 0.750000 0.250000 0.500000
O O14 0.864708 0.233420 0.447658
O O15 0.500000 0.698307 0.500000
O O16 0.427734 0.800741 0.298833
O O17 0.389389 0.669617 0.211629
O O18 0.161668 0.500000 0.480313
O O19 0.122387 0.420924 0.659062
#
# Coordination Sequence:
#
# PCOD8097348 Si02
#       8
#     8   8   8   8   8   8   8   8
#     4   9  18  32  56  85 109 153 199 232 289 348
#     4  10  22  36  48  73 119 166 200 238 287 341
#     4  11  22  37  60  91 117 147 198 252 301 357
#     4  11  21  37  64  88 123 157 189 246 308 352
#     4  10  22  39  60  88 116 150 195 246 298 364
#     4  10  20  34  53  77 113 159 199 235 283 346
#     4  11  19  34  56  81 114 151 205 238 277 348
#     4   9  17  37  58  82 116 148 189 242 293 357
#
# _framework density 20.547483
#
# number of rings (size 3 to 8) (size 9 to 14) (size 15 to 20)
#    0.000    1.875    2.500    3.000    1.750    1.000 
#    0.000    3.750    0.000    2.250    0.000    0.000 
#    0.000    0.000    0.000    0.000    0.000    0.000 
#
# Total GULP energy -396430.955799 kJ/mol
# GULP energy per Si atom -12388.467369 kJ/mol
# Density = 2.050072 g / cm^3
# Si number density = 20.547483 Si / 1000 Ang^3
#
#
#
# Elastic Constant Matrix: (Units=GPa)
#
#
# Indices 1 2 3 4 5 6 
#
# 1 58.2883 1.5740 27.1958 0.0000 8.6649 0.0000
# 2 1.5740 62.3246 26.3976 0.0000 -5.8194 0.0000
# 3 27.1958 26.3976 118.6100 0.0000 5.0138 0.0000
# 4 0.0000 0.0000 0.0000 26.6031 0.0000 -2.4207
# 5 8.6649 -5.8194 5.0138 0.0000 34.0510 0.0000
# 6 0.0000 0.0000 0.0000 -2.4207 0.0000 19.4684
#
#
#
# Elastic Compliance Matrix: (Units=1/GPa)
#
#
# Indices 1 2 3 4 5 6 
#
# 1 0.019910 0.001063 -0.004624 0.000000 -0.004204 0.000000
# 2 0.001063 0.018229 -0.004449 0.000000 0.003500 0.000000
# 3 -0.004624 -0.004449 0.010529 0.000000 -0.001134 0.000000
# 4 0.000000 0.000000 0.000000 0.038020 0.000000 0.004727
# 5 -0.004204 0.003500 -0.001134 0.000000 0.031203 0.000000
# 6 0.000000 0.000000 0.000000 0.004727 0.000000 0.051953
#
#
# Mechanical properties :
#
#
# Convention : Reuss Voigt Hill
#
# Bulk Modulus (GPa) = 30.62879 38.83976 34.73427
# Shear Modulus (GPa) = 25.41345 28.29484 26.85415
#
# Velocity S-wave (km/s) = 3.52065 3.71488 3.61907
# Velocity P-wave (km/s) = 5.60940 6.11097 5.86555
#
# Compressibility (1/GPa) = 0.03264902
#
# Stress axis : x y z
#
# Youngs Moduli (GPa) = 50.22671 54.85686 94.97346
#
# Poissons Ratio (x) = -0.05832 0.43915
# Poissons Ratio (y) = -0.05340 0.42252
# Poissons Ratio (z) = 0.23225 0.24405
#
# Static dielectric constant tensor:
#      x y z
#    x 3.593650 0.000000 0.113140 
#    y 0.000000 3.317540 0.000000 
#    z 0.113140 0.000000 4.147460 
# 
# 
# High freq. dielectric constant tensor:
#      x y z
#    x 1.779490 0.000000 -0.005250 
#    y 0.000000 1.763190 0.000000 
#    z -0.005250 0.000000 1.823630 
# 
# From -- ./inp_files/89614.got.cif
#   From: 2010.06.25/outbox.cif.g09.slc.cpg/sg12_45_cif.got.tgz:89614.got - 2010.06.28 00:19:55.
