data_PCOD8097435
_publ_section_title
;
Structure prediction by ZEFSAII (Michael W. Deem and Ramdas Pophale) SiO2 
 PCOD8097435
Probable space group: C 2/M
;
_chemical_formula_sum "Si O2"
_cell_formula_units_Z 48
_cell_length_a 18.036202
_cell_length_b 8.978634
_cell_length_c 27.407682
_cell_angle_alpha 90.000000
_cell_angle_beta 34.433884
_cell_angle_gamma 90.000000
_cell_volume 2509.721966
_symmetry_space_group_name_H-M "C 2/M"
_symmetry_group_IT_number 12
_symmetry_cell_setting 'monoclinic'
loop_
_space_group_symop_operation_xyz
x,y,z
-x,y,-z
-x,-y,-z
x,-y,z
1/2+x,1/2+y,z
1/2-x,1/2+y,-z
1/2-x,1/2-y,-z
1/2+x,1/2-y,z
loop_
_atom_site_type_symbol
_atom_site_label
_atom_site_fract_x
_atom_site_fract_y
_atom_site_fract_z
Si Si1 0.728771 0.675147 0.585311
Si Si2 0.652824 0.327664 0.918612
Si Si3 0.947288 0.174522 0.410437
Si Si4 0.600129 0.323647 0.753735
Si Si5 0.775547 0.674194 0.748048
Si Si6 0.304777 0.676702 0.921939
O O1 0.755097 0.500000 0.572619
O O2 0.866081 0.754219 0.498992
O O3 0.620238 0.717297 0.604009
O O4 0.676922 0.738586 0.664893
O O5 0.676061 0.500000 0.919782
O O6 0.714983 0.286933 0.833050
O O7 0.718352 0.223265 0.922947
O O8 0.500000 0.290336 0.000000
O O9 0.092338 0.236939 0.331763
O O10 0.952421 0.000000 0.415966
O O11 0.595740 0.500000 0.752789
O O12 0.672426 0.270659 0.763452
O O13 0.452153 0.262505 0.834116
O O14 0.805273 0.500000 0.726459
O O15 0.301388 0.500000 0.929718
O O16 0.250000 0.750000 0.000000
#
# Coordination Sequence:
#
# PCOD8097435 Si02
#       6
#     8   8   8   8   8   8
#     4   9  18  35  57  77 101 139 184 223 265 323
#     4  10  21  38  59  83 113 147 184 228 277 328
#     4  10  20  34  53  79 110 140 175 225 278 322
#     4   9  19  36  57  79 105 142 185 226 268 321
#     4  10  20  35  56  79 106 143 183 221 268 327
#     4  11  22  38  60  85 114 146 184 228 275 327
#
# _framework density 19.125623999999998
#
# number of rings (size 3 to 8) (size 9 to 14) (size 15 to 20)
#    0.000    2.167    0.000    3.000    0.000    6.333 
#    0.000    9.167    0.000    0.000    0.000    0.000 
#    0.000    0.000    0.000    0.000    0.000    0.000 
#
# Total GULP energy -297685.533832 kJ/mol
# GULP energy per Si atom -12403.563910 kJ/mol
# Density = 1.908209 g / cm^3
# Si number density = 19.125624 Si / 1000 Ang^3
#
#
#
# Elastic Constant Matrix: (Units=GPa)
#
#
# Indices 1 2 3 4 5 6 
#
# 1 122.3050 42.7729 77.5114 -0.0024 8.4534 -0.0027
# 2 42.7729 53.8478 50.7186 -0.0037 -0.0314 -0.0003
# 3 77.5114 50.7186 177.2113 -0.0022 2.9023 0.0024
# 4 -0.0024 -0.0037 -0.0022 22.9341 0.0012 -1.5288
# 5 8.4534 -0.0314 2.9023 0.0012 39.0305 -0.0002
# 6 -0.0027 -0.0003 0.0024 -1.5288 -0.0002 30.0058
#
#
#
# Elastic Compliance Matrix: (Units=1/GPa)
#
#
# Indices 1 2 3 4 5 6 
#
# 1 0.013136 -0.006932 -0.003719 0.000000 -0.002574 0.000001
# 2 -0.006932 0.029096 -0.005327 0.000003 0.001921 0.000000
# 3 -0.003719 -0.005327 0.008792 0.000000 0.000147 -0.000001
# 4 0.000000 0.000003 0.000000 0.043752 -0.000001 0.002229
# 5 -0.002574 0.001921 0.000147 -0.000001 0.026169 0.000000
# 6 0.000001 0.000000 -0.000001 0.002229 0.000000 0.033441
#
#
# Mechanical properties :
#
#
# Convention : Reuss Voigt Hill
#
# Bulk Modulus (GPa) = 52.44749 77.26333 64.85541
# Shear Modulus (GPa) = 25.94751 30.55147 28.24949
#
# Velocity S-wave (km/s) = 3.68732 4.00110 3.84741
# Velocity P-wave (km/s) = 6.75356 7.86324 7.32943
#
# Compressibility (1/GPa) = 0.01906669
#
# Stress axis : x y z
#
# Youngs Moduli (GPa) = 76.12830 34.36941 113.74209
#
# Poissons Ratio (x) = 0.23827 0.42303
# Poissons Ratio (y) = 0.52776 0.60585
# Poissons Ratio (z) = 0.28314 0.18307
#
# Static dielectric constant tensor:
#      x y z
#    x 3.699470 0.000060 0.057570 
#    y 0.000060 3.306260 -0.000010 
#    z 0.057570 -0.000010 3.747810 
# 
# 
# High freq. dielectric constant tensor:
#      x y z
#    x 1.749790 0.000000 0.003130 
#    y 0.000000 1.724470 0.000000 
#    z 0.003130 0.000000 1.763270 
# 
# From -- ./inp_files/281806.got.cif
#   From: 2010.06.25/outbox.cif.g09.slc.cpg/sg12_141_cif.got.tgz:281806.got - 2010.06.28 00:19:55.
