data_PCOD8097362
_publ_section_title
;
Structure prediction by ZEFSAII (Michael W. Deem and Ramdas Pophale) SiO2 
 PCOD8097362
Probable space group: C 2/M
;
_chemical_formula_sum "Si O2"
_cell_formula_units_Z 56
_cell_length_a 18.263227
_cell_length_b 8.996138
_cell_length_c 18.580136
_cell_angle_alpha 90.000000
_cell_angle_beta 75.624327
_cell_angle_gamma 90.000000
_cell_volume 2957.104908
_symmetry_space_group_name_H-M "C 2/M"
_symmetry_group_IT_number 12
_symmetry_cell_setting 'monoclinic'
loop_
_space_group_symop_operation_xyz
x,y,z
-x,y,-z
-x,-y,-z
x,-y,z
1/2+x,1/2+y,z
1/2-x,1/2+y,-z
1/2-x,1/2-y,-z
1/2+x,1/2-y,z
loop_
_atom_site_type_symbol
_atom_site_label
_atom_site_fract_x
_atom_site_fract_y
_atom_site_fract_z
Si Si1 0.976670 0.829972 0.427217
Si Si2 0.304259 0.330023 0.431546
Si Si3 0.083378 0.674120 0.007403
Si Si4 0.515780 0.173354 0.277974
Si Si5 0.127651 0.823695 0.143378
Si Si6 0.295705 0.176214 0.137479
Si Si7 0.654497 0.174277 0.719343
O O1 0.887469 0.813390 0.442704
O O2 0.000000 0.773171 0.500000
O O3 0.018641 0.725163 0.359891
O O4 0.002467 0.000000 0.408173
O O5 0.279198 0.500000 0.430034
O O6 0.250000 0.250000 0.500000
O O7 0.298673 0.255912 0.354400
O O8 0.094636 0.500000 0.019597
O O9 0.143022 0.735845 0.934548
O O10 0.095019 0.760688 0.077944
O O11 0.000000 0.709126 0.000000
O O12 0.578776 0.265003 0.221146
O O13 0.434386 0.210493 0.263603
O O14 0.534496 0.000000 0.268353
O O15 0.213455 0.767514 0.133441
O O16 0.123603 0.000000 0.142760
O O17 0.315768 0.237366 0.211838
O O18 0.300255 0.000000 0.138877
O O19 0.669538 0.000000 0.706848
#
# Coordination Sequence:
#
# PCOD8097362 Si02
#       7
#     8   8   8   8   8   8   8
#     4   9  19  36  56  77 104 140 179 219 265 315
#     4  10  20  34  53  78 107 138 174 217 263 312
#     4  10  20  37  60  81 104 138 179 218 257 307
#     4  10  20  35  56  79 104 138 179 221 263 310
#     4  11  22  35  53  79 111 141 171 213 263 314
#     4   9  19  35  55  79 106 138 174 213 261 313
#     4   9  18  36  58  76  99 136 180 219 258 309
#
# _framework density 18.937442000000001
#
# number of rings (size 3 to 8) (size 9 to 14) (size 15 to 20)
#    0.000    2.286    0.000    2.571    0.000    5.143 
#    0.000    8.571    0.000    0.000    0.000    0.000 
#    0.000    0.000    0.000    0.000    0.000    0.000 
#
# Total GULP energy -347296.960937 kJ/mol
# GULP energy per Si atom -12403.462891 kJ/mol
# Density = 1.889434 g / cm^3
# Si number density = 18.937442 Si / 1000 Ang^3
#
#
#
# Elastic Constant Matrix: (Units=GPa)
#
#
# Indices 1 2 3 4 5 6 
#
# 1 98.3488 48.7248 75.5856 0.0000 -1.9368 0.0000
# 2 48.7248 64.5679 52.1519 0.0000 -3.2300 0.0000
# 3 75.5856 52.1519 152.5639 0.0000 -2.0481 0.0000
# 4 0.0000 0.0000 0.0000 37.4783 0.0000 -1.4080
# 5 -1.9368 -3.2300 -2.0481 0.0000 38.4053 0.0000
# 6 0.0000 0.0000 0.0000 -1.4080 0.0000 23.1783
#
#
#
# Elastic Compliance Matrix: (Units=1/GPa)
#
#
# Indices 1 2 3 4 5 6 
#
# 1 0.020124 -0.009863 -0.006601 0.000000 -0.000167 0.000000
# 2 -0.009863 0.026305 -0.004086 0.000000 0.001497 0.000000
# 3 -0.006601 -0.004086 0.011220 0.000000 -0.000078 0.000000
# 4 0.000000 0.000000 0.000000 0.026743 0.000000 0.001624
# 5 -0.000167 0.001497 -0.000078 0.000000 0.026151 0.000000
# 6 0.000000 0.000000 0.000000 0.001624 0.000000 0.043242
#
#
# Mechanical properties :
#
#
# Convention : Reuss Voigt Hill
#
# Bulk Modulus (GPa) = 60.41926 74.26725 67.34326
# Shear Modulus (GPa) = 24.94977 29.08029 27.01503
#
# Velocity S-wave (km/s) = 3.63365 3.92292 3.78105
# Velocity P-wave (km/s) = 7.04120 7.73443 7.39594
#
# Compressibility (1/GPa) = 0.01655101
#
# Stress axis : x y z
#
# Youngs Moduli (GPa) = 49.69164 38.01523 89.12265
#
# Poissons Ratio (x) = 0.37494 0.58829
# Poissons Ratio (y) = 0.49011 0.36411
# Poissons Ratio (z) = 0.32801 0.15531
#
# Static dielectric constant tensor:
#      x y z
#    x 3.550370 0.000000 0.028790 
#    y 0.000000 3.384740 0.000000 
#    z 0.028790 0.000000 3.640090 
# 
# 
# High freq. dielectric constant tensor:
#      x y z
#    x 1.736120 0.000000 0.000380 
#    y 0.000000 1.723310 0.000000 
#    z 0.000380 0.000000 1.752270 
# 
# From -- ./inp_files/275343.got.cif
#   From: 2010.06.25/outbox.cif.g09.slc.cpg/sg12_138_cif.got.tgz:275343.got - 2010.06.28 00:19:55.
