data_PCOD8097335
_publ_section_title
;
Structure prediction by ZEFSAII (Michael W. Deem and Ramdas Pophale) SiO2 
 PCOD8097335
Probable space group: C 2/M
;
_chemical_formula_sum "Si O2"
_cell_formula_units_Z 64
_cell_length_a 29.619249
_cell_length_b 9.553429
_cell_length_c 23.595749
_cell_angle_alpha 90.000000
_cell_angle_beta 149.962100
_cell_angle_gamma 90.000000
_cell_volume 3342.214305
_symmetry_space_group_name_H-M "C 2/M"
_symmetry_group_IT_number 12
_symmetry_cell_setting 'monoclinic'
loop_
_space_group_symop_operation_xyz
x,y,z
-x,y,-z
-x,-y,-z
x,-y,z
1/2+x,1/2+y,z
1/2-x,1/2+y,-z
1/2-x,1/2-y,-z
1/2+x,1/2-y,z
loop_
_atom_site_type_symbol
_atom_site_label
_atom_site_fract_x
_atom_site_fract_y
_atom_site_fract_z
Si Si1 0.884397 0.161024 0.069331
Si Si2 0.234457 0.836179 0.734258
Si Si3 0.952656 0.165480 0.265776
Si Si4 0.135761 0.837608 0.517696
Si Si5 0.598137 0.656548 0.118496
Si Si6 0.214034 0.338439 0.410358
Si Si7 0.434640 0.346966 0.788337
Si Si8 0.783609 0.163114 0.155869
O O1 0.929640 0.217082 0.177086
O O2 0.957811 0.178091 0.098692
O O3 0.853021 0.000000 0.041972
O O4 0.799059 0.252602 0.960209
O O5 0.159407 0.782191 0.607068
O O6 0.327953 0.755918 0.828369
O O7 0.199485 0.805750 0.759443
O O8 0.254028 0.000000 0.745370
O O9 0.873373 0.213198 0.221596
O O10 0.046624 0.232621 0.392182
O O11 0.962746 0.000000 0.275165
O O12 0.224427 0.808442 0.577197
O O13 0.114037 0.000000 0.498607
O O14 0.606827 0.500000 0.101252
O O15 0.606820 0.647157 0.194819
O O16 0.500000 0.721810 0.000000
O O17 0.211002 0.500000 0.423281
O O18 0.250000 0.250000 0.500000
O O19 0.112758 0.283446 0.292873
O O20 0.414531 0.500000 0.737379
O O21 0.763621 0.000000 0.123829
#
# Coordination Sequence:
#
# PCOD8097335 Si02
#       8
#     8   8   8   8   8   8   8   8
#     4  10  20  36  58  80 109 146 184 225 276 334
#     4  10  20  35  54  80 111 142 179 225 274 326
#     4   9  18  34  56  81 107 141 182 228 277 326
#     4   9  18  34  55  78 108 143 181 222 273 329
#     4  10  20  34  53  77 107 143 182 221 263 320
#     4  11  21  34  54  79 110 145 181 220 267 321
#     4  10  20  34  53  79 107 140 182 219 263 321
#     4  10  21  35  55  83 111 139 180 232 279 323
#
# _framework density 19.148980999999999
#
# number of rings (size 3 to 8) (size 9 to 14) (size 15 to 20)
#    0.000    2.125    1.250    2.250    0.000    4.750 
#    0.000    2.500    0.000    3.000    0.000    1.750 
#    0.000    0.000    0.000    0.000    0.000    0.000 
#
# Total GULP energy -396627.640820 kJ/mol
# GULP energy per Si atom -12394.613776 kJ/mol
# Density = 1.910540 g / cm^3
# Si number density = 19.148981 Si / 1000 Ang^3
#
#
#
# Elastic Constant Matrix: (Units=GPa)
#
#
# Indices 1 2 3 4 5 6 
#
# 1 62.9212 29.1247 10.6832 0.0000 -1.2165 0.0000
# 2 29.1247 60.9385 40.4131 0.0000 5.2869 0.0000
# 3 10.6832 40.4131 109.4700 0.0000 -2.0409 0.0000
# 4 0.0000 0.0000 0.0000 31.5603 0.0000 0.4532
# 5 -1.2165 5.2869 -2.0409 0.0000 30.6031 0.0000
# 6 0.0000 0.0000 0.0000 0.4532 0.0000 20.7740
#
#
#
# Elastic Compliance Matrix: (Units=1/GPa)
#
#
# Indices 1 2 3 4 5 6 
#
# 1 0.021065 -0.011928 0.002405 0.000000 0.003058 0.000000
# 2 -0.011928 0.029063 -0.009680 0.000000 -0.006140 0.000000
# 3 0.002405 -0.009680 0.012522 0.000000 0.002603 0.000000
# 4 0.000000 0.000000 0.000000 0.031695 0.000000 -0.000691
# 5 0.003058 -0.006140 0.002603 0.000000 0.034032 0.000000
# 6 0.000000 0.000000 0.000000 -0.000691 0.000000 0.048152
#
#
# Mechanical properties :
#
#
# Convention : Reuss Voigt Hill
#
# Bulk Modulus (GPa) = 41.24649 43.75244 42.49946
# Shear Modulus (GPa) = 22.41989 26.79470 24.60729
#
# Velocity S-wave (km/s) = 3.42543 3.74475 3.58864
# Velocity P-wave (km/s) = 6.10174 6.44946 6.27801
#
# Compressibility (1/GPa) = 0.02424449
#
# Stress axis : x y z
#
# Youngs Moduli (GPa) = 47.47262 34.40841 79.85827
#
# Poissons Ratio (x) = 0.41041 -0.19203
# Poissons Ratio (y) = 0.56624 0.77299
# Poissons Ratio (z) = -0.11415 0.33306
#
# Static dielectric constant tensor:
#      x y z
#    x 3.557210 0.000000 -0.029960 
#    y 0.000000 3.222360 0.000000 
#    z -0.029960 0.000000 3.386170 
# 
# 
# High freq. dielectric constant tensor:
#      x y z
#    x 1.750820 0.000000 -0.007170 
#    y 0.000000 1.712000 0.000000 
#    z -0.007170 0.000000 1.751740 
# 
# From -- ./inp_files/353526.got.cif
#   From: 2010.06.25/outbox.cif.g09.slc.cpg/sg12_177_cif.got.tgz:353526.got - 2010.06.28 00:19:55.
