data_PCOD8097767
_publ_section_title
;
Structure prediction by ZEFSAII (Michael W. Deem and Ramdas Pophale) SiO2 
 PCOD8097767
Probable space group: C 2/M
;
_chemical_formula_sum "Si O2"
_cell_formula_units_Z 64
_cell_length_a 28.863128
_cell_length_b 17.993499
_cell_length_c 14.179231
_cell_angle_alpha 90.000000
_cell_angle_beta 152.697679
_cell_angle_gamma 90.000000
_cell_volume 3377.744202
_symmetry_space_group_name_H-M "C 2/M"
_symmetry_group_IT_number 12
_symmetry_cell_setting 'monoclinic'
loop_
_space_group_symop_operation_xyz
x,y,z
-x,y,-z
-x,-y,-z
x,-y,z
1/2+x,1/2+y,z
1/2-x,1/2+y,-z
1/2-x,1/2-y,-z
1/2+x,1/2-y,z
loop_
_atom_site_type_symbol
_atom_site_label
_atom_site_fract_x
_atom_site_fract_y
_atom_site_fract_z
Si Si1 0.049199 0.919349 0.284445
Si Si2 0.604427 0.202575 0.967632
Si Si3 0.223342 0.081465 0.454368
Si Si4 0.901887 0.918084 0.259727
Si Si5 0.586877 0.087209 0.086174
Si Si6 0.589720 0.328353 0.087489
Si Si7 0.715216 0.696429 0.852953
Si Si8 0.531059 0.696695 0.393412
O O1 0.125383 0.931427 0.338627
O O2 0.093942 0.858363 0.438111
O O3 0.030220 0.000000 0.299832
O O4 0.945460 0.890105 0.051258
O O5 0.510165 0.230102 0.733587
O O6 0.575513 0.124001 0.962380
O O7 0.623564 0.256024 0.091310
O O8 0.703177 0.193941 0.081928
O O9 0.311067 0.114223 0.678313
O O10 0.193309 0.140862 0.320437
O O11 0.255038 0.000000 0.469689
O O12 0.805070 0.886454 0.142510
O O13 0.000000 0.928908 0.500000
O O14 0.932250 0.853973 0.239916
O O15 0.872531 0.000000 0.165118
O O16 0.586000 0.000000 0.065356
O O17 0.500000 0.112756 0.000000
O O18 0.500000 0.309408 0.000000
O O19 0.605375 0.722640 0.612179
O O20 0.750000 0.750000 0.000000
#
# Coordination Sequence:
#
# PCOD8097767 Si02
#       8
#     8   8   8   8   8   8   8   8
#     4   9  16  28  50  82 113 138 169 211 268 337
#     4  11  22  35  55  80 107 143 183 226 279 327
#     4   9  17  31  51  75 109 145 174 216 267 317
#     4   9  18  34  57  82 107 137 172 220 279 334
#     4  10  22  38  54  74 103 144 194 237 267 306
#     4   9  18  31  50  80 112 140 174 212 270 338
#     4  11  22  37  56  80 112 143 181 225 281 337
#     4  10  20  34  54  81 111 143 175 225 279 333
#
# _framework density 18.947557
#
# number of rings (size 3 to 8) (size 9 to 14) (size 15 to 20)
#    0.000    2.250    1.250    1.875    0.000    4.000 
#    0.000    0.000    0.000    0.750    0.000    1.750 
#    0.000    0.000    0.000    0.000    0.000    0.000 
#
# Total GULP energy -396504.818089 kJ/mol
# GULP energy per Si atom -12390.775565 kJ/mol
# Density = 1.890443 g / cm^3
# Si number density = 18.947557 Si / 1000 Ang^3
#
#
#
# Elastic Constant Matrix: (Units=GPa)
#
#
# Indices 1 2 3 4 5 6 
#
# 1 99.3110 48.0774 31.2526 0.0000 -0.7676 0.0000
# 2 48.0774 90.1476 54.1079 0.0000 -2.7110 0.0000
# 3 31.2526 54.1079 82.6829 0.0000 -13.9193 0.0000
# 4 0.0000 0.0000 0.0000 17.4389 0.0000 -6.5414
# 5 -0.7676 -2.7110 -13.9193 0.0000 25.2614 0.0000
# 6 0.0000 0.0000 0.0000 -6.5414 0.0000 28.4558
#
#
#
# Elastic Compliance Matrix: (Units=1/GPa)
#
#
# Indices 1 2 3 4 5 6 
#
# 1 0.013608 -0.006777 -0.000839 0.000000 -0.000776 0.000000
# 2 -0.006777 0.022260 -0.012828 0.000000 -0.004885 0.000000
# 3 -0.000839 -0.012828 0.022673 0.000000 0.011091 0.000000
# 4 0.000000 0.000000 0.000000 0.062754 0.000000 0.014426
# 5 -0.000776 -0.004885 0.011091 0.000000 0.045150 0.000000
# 6 0.000000 0.000000 0.000000 0.014426 0.000000 0.038458
#
#
# Mechanical properties :
#
#
# Convention : Reuss Voigt Hill
#
# Bulk Modulus (GPa) = 56.64749 59.89081 58.26915
# Shear Modulus (GPa) = 19.86679 23.47812 21.67245
#
# Velocity S-wave (km/s) = 3.24159 3.52392 3.38570
# Velocity P-wave (km/s) = 6.63117 6.94512 6.78996
#
# Compressibility (1/GPa) = 0.01765303
#
# Stress axis : x y z
#
# Youngs Moduli (GPa) = 73.48397 44.92441 44.10492
#
# Poissons Ratio (x) = 0.30446 0.03702
# Poissons Ratio (y) = 0.49801 0.56576
# Poissons Ratio (z) = 0.06169 0.57627
#
# Static dielectric constant tensor:
#      x y z
#    x 3.571990 0.000000 -0.079230 
#    y 0.000000 3.760530 0.000000 
#    z -0.079230 0.000000 3.418590 
# 
# 
# High freq. dielectric constant tensor:
#      x y z
#    x 1.734940 0.000000 -0.007110 
#    y 0.000000 1.733640 0.000000 
#    z -0.007110 0.000000 1.715250 
# 
# From -- ./inp_files/251669.got.cif
#   From: 2010.06.25/outbox.cif.g09.slc.cpg/sg12_126_cif.got.tgz:251669.got - 2010.06.28 00:19:55.
