data_PCOD8097806
_publ_section_title
;
Structure prediction by ZEFSAII (Michael W. Deem and Ramdas Pophale) SiO2 
 PCOD8097806
Probable space group: C 2/M
;
_chemical_formula_sum "Si O2"
_cell_formula_units_Z 64
_cell_length_a 27.746171
_cell_length_b 18.199815
_cell_length_c 21.334432
_cell_angle_alpha 90.000000
_cell_angle_beta 18.893138
_cell_angle_gamma 90.000000
_cell_volume 3488.457783
_symmetry_space_group_name_H-M "C 2/M"
_symmetry_group_IT_number 12
_symmetry_cell_setting 'monoclinic'
loop_
_space_group_symop_operation_xyz
x,y,z
-x,y,-z
-x,-y,-z
x,-y,z
1/2+x,1/2+y,z
1/2-x,1/2+y,-z
1/2-x,1/2-y,-z
1/2+x,1/2-y,z
loop_
_atom_site_type_symbol
_atom_site_label
_atom_site_fract_x
_atom_site_fract_y
_atom_site_fract_z
Si Si1 0.962832 0.414417 0.326311
Si Si2 0.845992 0.814323 0.072871
Si Si3 0.816243 0.314305 0.602613
Si Si4 0.920550 0.772743 0.658906
Si Si5 0.083067 0.709186 0.833835
Si Si6 0.225332 0.834023 0.049223
Si Si7 0.459085 0.414427 0.830047
Si Si8 0.195168 0.415763 0.609517
O O1 0.988592 0.500000 0.306085
O O2 0.856520 0.385327 0.512338
O O3 0.884232 0.397302 0.357742
O O4 0.119516 0.374160 0.133908
O O5 0.789989 0.840560 0.210015
O O6 0.714297 0.778878 0.195296
O O7 0.905712 0.885362 0.963168
O O8 0.976933 0.754954 0.918333
O O9 0.732438 0.254981 0.662818
O O10 0.966440 0.278807 0.443134
O O11 0.861292 0.836985 0.777367
O O12 0.000000 0.808639 0.500000
O O13 0.124663 0.632838 0.750702
O O14 0.000000 0.688884 0.000000
O O15 0.125646 0.873990 0.121109
O O16 0.250000 0.750000 0.000000
O O17 0.422040 0.500000 0.872546
O O18 0.632104 0.397416 0.610046
O O19 0.169896 0.500000 0.660008
#
# Coordination Sequence:
#
# PCOD8097806 Si02
#       8
#     8   8   8   8   8   8   8   8
#     4  11  23  38  56  84 117 150 188 234 282 341
#     4  10  20  35  55  83 112 146 186 229 278 336
#     4  10  20  35  55  83 112 146 186 229 278 336
#     4  10  20  34  54  82 113 139 184 236 277 327
#     4  10  21  36  58  84 110 144 192 236 277 335
#     4  12  21  36  61  86 109 151 192 233 285 329
#     4  11  23  38  56  84 117 150 188 234 282 341
#     4  10  23  38  56  82 116 150 187 235 285 331
#
# _framework density 18.346215999999998
#
# number of rings (size 3 to 8) (size 9 to 14) (size 15 to 20)
#    0.000    1.500    2.500    2.625    0.000    1.750 
#    0.000    0.000    0.000   11.250    0.000    0.000 
#    0.000    0.000    0.000    0.000    0.000    0.000 
#
# Total GULP energy -396909.203746 kJ/mol
# GULP energy per Si atom -12403.412617 kJ/mol
# Density = 1.830446 g / cm^3
# Si number density = 18.346216 Si / 1000 Ang^3
#
#
#
# Elastic Constant Matrix: (Units=GPa)
#
#
# Indices 1 2 3 4 5 6 
#
# 1 130.6278 78.2146 60.1342 0.0014 -4.9024 -0.0004
# 2 78.2146 123.5836 79.4045 0.0056 7.5874 -0.0034
# 3 60.1342 79.4045 129.7525 0.0169 -2.5357 -0.0069
# 4 0.0014 0.0056 0.0169 33.7133 -0.0098 0.3684
# 5 -4.9024 7.5874 -2.5357 -0.0098 49.9051 0.0040
# 6 -0.0004 -0.0034 -0.0069 0.3684 0.0040 33.5263
#
#
#
# Elastic Compliance Matrix: (Units=1/GPa)
#
#
# Indices 1 2 3 4 5 6 
#
# 1 0.012770 -0.007333 -0.001386 0.000002 0.002299 -0.000001
# 2 -0.007333 0.017850 -0.007600 0.000000 -0.003820 0.000001
# 3 -0.001386 -0.007600 0.013033 -0.000005 0.001682 0.000002
# 4 0.000002 0.000000 -0.000005 0.029665 0.000006 -0.000326
# 5 0.002299 -0.003820 0.001682 0.000006 0.020930 -0.000003
# 6 -0.000001 0.000001 0.000002 -0.000326 -0.000003 0.029831
#
#
# Mechanical properties :
#
#
# Convention : Reuss Voigt Hill
#
# Bulk Modulus (GPa) = 90.77743 91.05228 90.91485
# Shear Modulus (GPa) = 31.17407 34.50963 32.84185
#
# Velocity S-wave (km/s) = 4.12662 4.34178 4.23557
# Velocity P-wave (km/s) = 8.50252 8.65289 8.57804
#
# Compressibility (1/GPa) = 0.01101595
#
# Stress axis : x y z
#
# Youngs Moduli (GPa) = 78.30731 56.02199 76.72690
#
# Poissons Ratio (x) = 0.41079 0.10635
# Poissons Ratio (y) = 0.57420 0.58313
# Poissons Ratio (z) = 0.10854 0.42577
#
# Static dielectric constant tensor:
#      x y z
#    x 3.630960 -0.000010 0.038200 
#    y -0.000010 3.247180 0.000010 
#    z 0.038200 0.000010 3.637140 
# 
# 
# High freq. dielectric constant tensor:
#      x y z
#    x 1.731230 0.000000 -0.006800 
#    y 0.000000 1.692350 0.000000 
#    z -0.006800 0.000000 1.730180 
# 
# From -- ./inp_files/87980.got.cif
#   From: 2010.06.25/outbox.cif.g09.slc.cpg/sg12_44_cif.got.tgz:87980.got - 2010.06.28 00:19:55.
