data_PCOD8097719
_publ_section_title
;
Structure prediction by ZEFSAII (Michael W. Deem and Ramdas Pophale) SiO2 
 PCOD8097719
Probable space group: C 2/M
;
_chemical_formula_sum "Si O2"
_cell_formula_units_Z 48
_cell_length_a 30.849167
_cell_length_b 8.694885
_cell_length_c 17.998281
_cell_angle_alpha 90.000000
_cell_angle_beta 31.175057
_cell_angle_gamma 90.000000
_cell_volume 2499.069761
_symmetry_space_group_name_H-M "C 2/M"
_symmetry_group_IT_number 12
_symmetry_cell_setting 'monoclinic'
loop_
_space_group_symop_operation_xyz
x,y,z
-x,y,-z
-x,-y,-z
x,-y,z
1/2+x,1/2+y,z
1/2-x,1/2+y,-z
1/2-x,1/2-y,-z
1/2+x,1/2-y,z
loop_
_atom_site_type_symbol
_atom_site_label
_atom_site_fract_x
_atom_site_fract_y
_atom_site_fract_z
Si Si1 0.745730 0.680739 0.587643
Si Si2 0.409925 0.178895 0.101536
Si Si3 0.991084 0.181120 0.594169
Si Si4 0.588655 0.318432 0.592102
Si Si5 0.331711 0.317538 0.916616
Si Si6 0.428501 0.819839 0.902679
O O1 0.751724 0.500000 0.571429
O O2 0.750000 0.750000 0.500000
O O3 0.659913 0.724396 0.753667
O O4 0.823402 0.740092 0.521567
O O5 0.393357 0.000000 0.142056
O O6 0.500000 0.229790 0.000000
O O7 0.406193 0.216546 0.020103
O O8 0.066705 0.224740 0.538794
O O9 0.000000 0.259702 0.500000
O O10 0.905398 0.240300 0.755081
O O11 0.986528 0.000000 0.591419
O O12 0.596337 0.500000 0.592149
O O13 0.516147 0.260349 0.753592
O O14 0.326135 0.500000 0.931957
O O15 0.350503 0.247040 0.970072
O O16 0.250000 0.250000 0.000000
O O17 0.438524 0.000000 0.873380
#
# Coordination Sequence:
#
# PCOD8097719 Si02
#       6
#     8   8   8   8   8   8
#     4  12  25  40  60  85 115 149 187 232 282 337
#     4  10  22  40  61  85 113 147 188 232 281 338
#     4   8  16  32  54  79 107 143 185 227 273 326
#     4  10  20  36  59  85 115 150 190 235 281 334
#     4  10  20  34  54  80 111 148 191 239 289 340
#     4  10  20  36  59  84 114 152 191 234 285 339
#
# _framework density 19.207148
#
# number of rings (size 3 to 8) (size 9 to 14) (size 15 to 20)
#    0.000    2.000    0.000    5.000    0.000    4.333 
#    0.000    3.333    0.000   17.000    0.000    0.000 
#    0.000    0.000    0.000    0.000    0.000    0.000 
#
# Total GULP energy -297614.255001 kJ/mol
# GULP energy per Si atom -12400.593958 kJ/mol
# Density = 1.916343 g / cm^3
# Si number density = 19.207148 Si / 1000 Ang^3
#
#
#
# Elastic Constant Matrix: (Units=GPa)
#
#
# Indices 1 2 3 4 5 6 
#
# 1 165.4728 67.8745 82.2963 -0.0032 -6.8117 0.0029
# 2 67.8745 115.4385 60.0422 -0.0096 0.1830 0.0068
# 3 82.2963 60.0422 105.5834 -0.0133 -6.3827 0.0058
# 4 -0.0032 -0.0096 -0.0133 33.0724 0.0053 -3.6149
# 5 -6.8117 0.1830 -6.3827 0.0053 39.6541 -0.0014
# 6 0.0029 0.0068 0.0058 -3.6149 -0.0014 30.9431
#
#
#
# Elastic Compliance Matrix: (Units=1/GPa)
#
#
# Indices 1 2 3 4 5 6 
#
# 1 0.010454 -0.002745 -0.006541 -0.000002 0.000756 0.000001
# 2 -0.002745 0.013078 -0.005382 0.000001 -0.001398 -0.000001
# 3 -0.006541 -0.005382 0.017736 0.000005 0.001756 -0.000001
# 4 -0.000002 0.000001 0.000005 0.030628 -0.000004 0.003578
# 5 0.000756 -0.001398 0.001756 -0.000004 0.025637 0.000001
# 6 0.000001 -0.000001 -0.000001 0.003578 0.000001 0.032735
#
#
# Mechanical properties :
#
#
# Convention : Reuss Voigt Hill
#
# Bulk Modulus (GPa) = 83.81237 89.65785 86.73511
# Shear Modulus (GPa) = 30.56563 32.48604 31.52584
#
# Velocity S-wave (km/s) = 3.99352 4.11707 4.05576
# Velocity P-wave (km/s) = 8.06195 8.32953 8.19683
#
# Compressibility (1/GPa) = 0.01193141
#
# Stress axis : x y z
#
# Youngs Moduli (GPa) = 95.65980 76.46249 56.38166
#
# Poissons Ratio (x) = 0.20993 0.36880
# Poissons Ratio (y) = 0.26263 0.30344
# Poissons Ratio (z) = 0.62572 0.41151
#
# Static dielectric constant tensor:
#      x y z
#    x 3.927770 0.000010 0.005000 
#    y 0.000010 3.478610 0.000010 
#    z 0.005000 0.000010 3.558260 
# 
# 
# High freq. dielectric constant tensor:
#      x y z
#    x 1.767520 0.000000 -0.001220 
#    y 0.000000 1.743390 0.000000 
#    z -0.001220 0.000000 1.744470 
# 
# From -- ./inp_files/295352.got.cif
#   From: 2010.06.25/outbox.cif.g09.slc.cpg/sg12_148_cif.got.tgz:295352.got - 2010.06.28 00:19:55.
