data_PCOD8097436
_publ_section_title
;
Structure prediction by ZEFSAII (Michael W. Deem and Ramdas Pophale) SiO2 
 PCOD8097436
Probable space group: C 2/M
;
_chemical_formula_sum "Si O2"
_cell_formula_units_Z 64
_cell_length_a 18.857523
_cell_length_b 8.698733
_cell_length_c 31.041056
_cell_angle_alpha 90.000000
_cell_angle_beta 40.940993
_cell_angle_gamma 90.000000
_cell_volume 3336.606531
_symmetry_space_group_name_H-M "C 2/M"
_symmetry_group_IT_number 12
_symmetry_cell_setting 'monoclinic'
loop_
_space_group_symop_operation_xyz
x,y,z
-x,y,-z
-x,-y,-z
x,-y,z
1/2+x,1/2+y,z
1/2-x,1/2+y,-z
1/2-x,1/2-y,-z
1/2+x,1/2-y,z
loop_
_atom_site_type_symbol
_atom_site_label
_atom_site_fract_x
_atom_site_fract_y
_atom_site_fract_z
Si Si1 0.987411 0.178543 0.068628
Si Si2 0.931605 0.180214 0.316184
Si Si3 0.029985 0.182469 0.439177
Si Si4 0.225346 0.680270 0.678057
Si Si5 0.951273 0.673486 0.173667
Si Si6 0.632196 0.318816 0.559021
Si Si7 0.888353 0.324938 0.822008
Si Si8 0.840070 0.679270 0.066266
O O1 0.973061 0.208030 0.125611
O O2 0.897503 0.274058 0.084272
O O3 0.971525 0.000000 0.066101
O O4 0.106620 0.230292 0.998369
O O5 0.824594 0.228214 0.339145
O O6 0.916649 0.227500 0.372551
O O7 0.036851 0.269973 0.251487
O O8 0.951309 0.000000 0.301324
O O9 0.151597 0.234190 0.371568
O O10 0.000000 0.248816 0.500000
O O11 0.947175 0.248862 0.441548
O O12 0.022137 0.000000 0.443085
O O13 0.215697 0.500000 0.671392
O O14 0.161162 0.717819 0.751435
O O15 0.945582 0.500000 0.158067
O O16 0.048279 0.690136 0.162581
O O17 0.642392 0.500000 0.549767
O O18 0.750000 0.250000 0.500000
O O19 0.852791 0.500000 0.829558
O O20 0.785346 0.216700 0.872626
O O21 0.855829 0.500000 0.050812
#
# Coordination Sequence:
#
# PCOD8097436 Si02
#       8
#     8   8   8   8   8   8   8   8
#     4  11  22  37  57  81 111 145 185 229 274 330
#     4  10  20  34  53  79 110 141 175 220 274 328
#     4   9  17  31  53  78 102 134 179 223 264 314
#     4   9  18  34  56  78 104 141 181 222 267 321
#     4   9  19  35  55  80 109 142 181 225 275 329
#     4  10  21  35  53  79 108 140 180 224 270 322
#     4  10  21  38  59  83 111 144 184 226 271 328
#     4  11  22  38  59  81 110 146 184 228 278 327
#
# _framework density 19.181165
#
# number of rings (size 3 to 8) (size 9 to 14) (size 15 to 20)
#    0.000    2.125    0.000    5.250    0.000    6.000 
#    0.000    3.125    0.000    2.250    0.000    0.000 
#    0.000    0.000    0.000    0.000    0.000    0.000 
#
# Total GULP energy -396890.220139 kJ/mol
# GULP energy per Si atom -12402.819379 kJ/mol
# Density = 1.913751 g / cm^3
# Si number density = 19.181165 Si / 1000 Ang^3
#
#
#
# Elastic Constant Matrix: (Units=GPa)
#
#
# Indices 1 2 3 4 5 6 
#
# 1 106.4999 24.4892 81.6891 -0.0005 0.6213 -0.0030
# 2 24.4892 63.4490 31.6489 0.0000 6.8533 0.0051
# 3 81.6891 31.6489 129.1700 0.0003 -1.2025 0.0005
# 4 -0.0005 0.0000 0.0003 30.1880 -0.0005 -1.0420
# 5 0.6213 6.8533 -1.2025 -0.0005 40.3990 -0.0014
# 6 -0.0030 0.0051 0.0005 -1.0420 -0.0014 28.6477
#
#
#
# Elastic Compliance Matrix: (Units=1/GPa)
#
#
# Indices 1 2 3 4 5 6 
#
# 1 0.018361 -0.001427 -0.011266 0.000000 -0.000376 0.000002
# 2 -0.001427 0.018483 -0.003656 0.000000 -0.003222 -0.000004
# 3 -0.011266 -0.003656 0.015774 0.000000 0.001263 -0.000001
# 4 0.000000 0.000000 0.000000 0.033167 0.000000 0.001206
# 5 -0.000376 -0.003222 0.001263 0.000000 0.025343 0.000002
# 6 0.000002 -0.000004 -0.000001 0.001206 0.000002 0.034951
#
#
# Mechanical properties :
#
#
# Convention : Reuss Voigt Hill
#
# Bulk Modulus (GPa) = 50.19941 63.86370 57.03155
# Shear Modulus (GPa) = 26.96610 30.59973 28.78292
#
# Velocity S-wave (km/s) = 3.75355 3.99846 3.87794
# Velocity P-wave (km/s) = 6.70921 7.39487 7.06037
#
# Compressibility (1/GPa) = 0.01992055
#
# Stress axis : x y z
#
# Youngs Moduli (GPa) = 54.46253 54.10297 63.39512
#
# Poissons Ratio (x) = 0.07719 0.71420
# Poissons Ratio (y) = 0.07770 0.23180
# Poissons Ratio (z) = 0.61357 0.19782
#
# Static dielectric constant tensor:
#      x y z
#    x 3.516000 -0.000010 -0.028070 
#    y -0.000010 3.406890 0.000000 
#    z -0.028070 0.000000 3.602830 
# 
# 
# High freq. dielectric constant tensor:
#      x y z
#    x 1.742550 0.000000 -0.001200 
#    y 0.000000 1.736390 0.000000 
#    z -0.001200 0.000000 1.758450 
# 
# From -- ./inp_files/378122.got.cif
#   From: 2010.06.25/outbox.cif.g09.slc.cpg/sg12_190_cif.got.tgz:378122.got - 2010.06.28 00:19:55.
