data_PCOD8097275
_publ_section_title
;
Structure prediction by ZEFSAII (Michael W. Deem and Ramdas Pophale) SiO2 
 PCOD8097275
Probable space group: C 2/M
;
_chemical_formula_sum "Si O2"
_cell_formula_units_Z 56
_cell_length_a 22.592352
_cell_length_b 15.426071
_cell_length_c 8.331764
_cell_angle_alpha 90.000000
_cell_angle_beta 105.856288
_cell_angle_gamma 90.000000
_cell_volume 2793.227107
_symmetry_space_group_name_H-M "C 2/M"
_symmetry_group_IT_number 12
_symmetry_cell_setting 'monoclinic'
loop_
_space_group_symop_operation_xyz
x,y,z
-x,y,-z
-x,-y,-z
x,-y,z
1/2+x,1/2+y,z
1/2-x,1/2+y,-z
1/2-x,1/2-y,-z
1/2+x,1/2-y,z
loop_
_atom_site_type_symbol
_atom_site_label
_atom_site_fract_x
_atom_site_fract_y
_atom_site_fract_z
Si Si1 0.835481 0.402471 0.652464
Si Si2 0.091210 0.757139 0.765062
Si Si3 0.101625 0.096658 0.507644
Si Si4 0.072079 0.402615 0.548954
Si Si5 0.151113 0.240952 0.136131
Si Si6 0.715079 0.597901 0.367920
Si Si7 0.027534 0.173610 0.181552
O O1 0.829448 0.500000 0.717703
O O2 0.900858 0.390402 0.610293
O O3 0.826545 0.336307 0.793010
O O4 0.783376 0.384569 0.480967
O O5 0.095382 0.836664 0.646774
O O6 0.104109 0.665869 0.689955
O O7 0.023089 0.758935 0.790788
O O8 0.143353 0.764952 0.939474
O O9 0.168012 0.112179 0.478935
O O10 0.047062 0.106252 0.334671
O O11 0.096227 0.000000 0.574671
O O12 0.086313 0.500000 0.621360
O O13 0.000000 0.383440 0.500000
O O14 0.200450 0.166809 0.217509
O O15 0.087264 0.228192 0.181032
O O16 0.708260 0.500000 0.294125
O O17 0.000000 0.126443 0.000000
#
# Coordination Sequence:
#
# PCOD8097275 Si02
#       7
#     8   8   8   8   8   8   8
#     4  10  20  36  58  78  99 134 178 218 257 307
#     4  11  21  33  51  78 112 140 168 213 263 311
#     4  10  20  34  53  76 105 140 175 214 259 305
#     4  10  20  35  56  79 103 134 171 213 262 311
#     4  10  20  34  54  77 105 140 174 213 258 309
#     4   9  19  37  57  75  99 136 180 219 254 302
#     4   9  19  34  52  76 106 141 178 214 252 299
#
# _framework density 20.048494999999999
#
# number of rings (size 3 to 8) (size 9 to 14) (size 15 to 20)
#    0.000    2.143    0.000    4.286    0.000    2.571 
#    0.000    5.714    0.000   10.286    0.000    0.000 
#    0.000    0.000    0.000    0.000    0.000    0.000 
#
# Total GULP energy -347138.259770 kJ/mol
# GULP energy per Si atom -12397.794992 kJ/mol
# Density = 2.000286 g / cm^3
# Si number density = 20.048495 Si / 1000 Ang^3
#
#
#
# Elastic Constant Matrix: (Units=GPa)
#
#
# Indices 1 2 3 4 5 6 
#
# 1 40.6507 17.7396 20.4997 0.0000 11.8360 0.0000
# 2 17.7396 147.4626 89.5517 0.0000 -0.5771 0.0000
# 3 20.4997 89.5517 136.8242 0.0000 0.4053 0.0000
# 4 0.0000 0.0000 0.0000 12.5169 0.0000 6.0433
# 5 11.8360 -0.5771 0.4053 0.0000 21.2542 0.0000
# 6 0.0000 0.0000 0.0000 6.0433 0.0000 19.1342
#
#
#
# Elastic Compliance Matrix: (Units=1/GPa)
#
#
# Indices 1 2 3 4 5 6 
#
# 1 0.032471 -0.001751 -0.003665 0.000000 -0.018060 0.000000
# 2 -0.001751 0.011353 -0.007173 0.000000 0.001420 0.000000
# 3 -0.003665 -0.007173 0.012548 0.000000 0.001607 0.000000
# 4 0.000000 0.000000 0.000000 0.094267 0.000000 -0.029773
# 5 -0.018060 0.001420 0.001607 0.000000 0.057115 0.000000
# 6 0.000000 0.000000 0.000000 -0.029773 0.000000 0.061666
#
#
# Mechanical properties :
#
#
# Convention : Reuss Voigt Hill
#
# Bulk Modulus (GPa) = 32.05783 64.50218 48.28001
# Shear Modulus (GPa) = 16.39370 23.72416 20.05893
#
# Velocity S-wave (km/s) = 2.86265 3.44370 3.16653
# Velocity P-wave (km/s) = 5.19146 6.93217 6.12398
#
# Compressibility (1/GPa) = 0.03119363
#
# Stress axis : x y z
#
# Youngs Moduli (GPa) = 30.79695 88.07884 79.69620
#
# Poissons Ratio (x) = 0.15422 0.29213
# Poissons Ratio (y) = 0.05392 0.57164
# Poissons Ratio (z) = 0.11289 0.63177
#
# Static dielectric constant tensor:
#      x y z
#    x 3.656500 0.000000 0.114550 
#    y 0.000000 3.685310 0.000000 
#    z 0.114550 0.000000 3.585220 
# 
# 
# High freq. dielectric constant tensor:
#      x y z
#    x 1.780220 0.000000 0.008920 
#    y 0.000000 1.785140 0.000000 
#    z 0.008920 0.000000 1.764750 
# 
# From -- ./inp_files/104710.got.cif
#   From: 2010.06.25/outbox.cif.g09.slc.cpg/sg12_53_cif.got.tgz:104710.got - 2010.06.28 00:19:55.
