data_PCOD8097298
_publ_section_title
;
Structure prediction by ZEFSAII (Michael W. Deem and Ramdas Pophale) SiO2 
 PCOD8097298
Probable space group: C 2/M
;
_chemical_formula_sum "Si O2"
_cell_formula_units_Z 40
_cell_length_a 18.590420
_cell_length_b 9.255183
_cell_length_c 26.626094
_cell_angle_alpha 90.000000
_cell_angle_beta 151.227338
_cell_angle_gamma 90.000000
_cell_volume 2205.106484
_symmetry_space_group_name_H-M "C 2/M"
_symmetry_group_IT_number 12
_symmetry_cell_setting 'monoclinic'
loop_
_space_group_symop_operation_xyz
x,y,z
-x,y,-z
-x,-y,-z
x,-y,z
1/2+x,1/2+y,z
1/2-x,1/2+y,-z
1/2-x,1/2-y,-z
1/2+x,1/2-y,z
loop_
_atom_site_type_symbol
_atom_site_label
_atom_site_fract_x
_atom_site_fract_y
_atom_site_fract_z
Si Si1 0.904664 0.667861 0.092470
Si Si2 0.836409 0.331886 0.304173
Si Si3 0.919005 0.333379 0.900922
Si Si4 0.324344 0.829950 0.499395
Si Si5 0.664068 0.331949 0.298738
O O1 0.881692 0.500000 0.091241
O O2 0.969983 0.691551 0.077220
O O3 0.015617 0.736811 0.201318
O O4 0.750000 0.750000 0.000000
O O5 0.822880 0.500000 0.284179
O O6 0.735501 0.250638 0.201548
O O7 0.783007 0.296560 0.327878
O O8 0.005391 0.277129 0.401989
O O9 0.876681 0.500000 0.882139
O O10 0.000000 0.272050 0.000000
O O11 0.250000 0.750000 0.500000
O O12 0.237551 0.786294 0.395949
O O13 0.316511 0.000000 0.503924
O O14 0.618682 0.500000 0.269942
#
# Coordination Sequence:
#
# PCOD8097298 Si02
#       5
#     8   8   8   8   8
#     4  10  20  34  53  77 104 134 170 210 252 300
#     4   9  18  34  55  76  98 130 173 212 247 294
#     4   9  19  35  53  74 101 133 168 206 251 301
#     4  10  21  35  52  77 106 134 166 208 257 304
#     4   9  18  35  56  74  98 135 174 210 250 297
#
# _framework density 18.139713
#
# number of rings (size 3 to 8) (size 9 to 14) (size 15 to 20)
#    0.000    2.600    0.000    1.200    0.000    6.800 
#    0.000    6.000    0.000    6.000    0.000    0.000 
#    0.000    0.000    0.000    0.000    0.000    0.000 
#
# Total GULP energy -248059.617500 kJ/mol
# GULP energy per Si atom -12402.980875 kJ/mol
# Density = 1.809843 g / cm^3
# Si number density = 18.139713 Si / 1000 Ang^3
#
#
#
# Elastic Constant Matrix: (Units=GPa)
#
#
# Indices 1 2 3 4 5 6 
#
# 1 89.4892 49.7626 91.8880 -0.0001 -5.2045 0.0000
# 2 49.7626 74.4167 84.5243 0.0002 3.8807 0.0000
# 3 91.8880 84.5243 200.1151 0.0002 -1.7920 0.0002
# 4 -0.0001 0.0002 0.0002 35.7106 0.0001 -0.5192
# 5 -5.2045 3.8807 -1.7920 0.0001 38.8892 0.0000
# 6 0.0000 0.0000 0.0002 -0.5192 0.0000 29.7626
#
#
#
# Elastic Compliance Matrix: (Units=1/GPa)
#
#
# Indices 1 2 3 4 5 6 
#
# 1 0.023067 -0.006935 -0.007632 0.000000 0.003427 0.000000
# 2 -0.006935 0.028289 -0.008801 0.000000 -0.004157 0.000000
# 3 -0.007632 -0.008801 0.012223 0.000000 0.000420 0.000000
# 4 0.000000 0.000000 0.000000 0.028010 0.000000 0.000489
# 5 0.003427 -0.004157 0.000420 0.000000 0.026607 0.000000
# 6 0.000000 0.000000 0.000000 0.000489 0.000000 0.033608
#
#
# Mechanical properties :
#
#
# Convention : Reuss Voigt Hill
#
# Bulk Modulus (GPa) = 59.37617 90.70787 75.04202
# Shear Modulus (GPa) = 24.49137 30.06221 27.27679
#
# Velocity S-wave (km/s) = 3.67843 4.07536 3.88197
# Velocity P-wave (km/s) = 7.13056 8.50050 7.84549
#
# Compressibility (1/GPa) = 0.01684177
#
# Stress axis : x y z
#
# Youngs Moduli (GPa) = 43.35278 35.34930 81.81504
#
# Poissons Ratio (x) = 0.24515 0.62438
# Poissons Ratio (y) = 0.30066 0.72009
# Poissons Ratio (z) = 0.33085 0.31113
#
# Static dielectric constant tensor:
#      x y z
#    x 3.309350 0.000000 -0.037420 
#    y 0.000000 3.334200 0.000000 
#    z -0.037420 0.000000 3.544020 
# 
# 
# High freq. dielectric constant tensor:
#      x y z
#    x 1.697290 0.000000 -0.001100 
#    y 0.000000 1.698650 0.000000 
#    z -0.001100 0.000000 1.715820 
# 
# From -- ./inp_files/141107.got.cif
#   From: 2010.06.25/outbox.cif.g09.slc.cpg/sg12_71_cif.got.tgz:141107.got - 2010.06.28 00:19:55.
