data_PCOD8097019
_publ_section_title
;
Structure prediction by ZEFSAII (Michael W. Deem and Ramdas Pophale) SiO2 
 PCOD8097019
Probable space group: C 2/M
;
_chemical_formula_sum "Si O2"
_cell_formula_units_Z 64
_cell_length_a 14.661114
_cell_length_b 9.531856
_cell_length_c 28.485687
_cell_angle_alpha 90.000000
_cell_angle_beta 118.897715
_cell_angle_gamma 90.000000
_cell_volume 3485.132192
_symmetry_space_group_name_H-M "C 2/M"
_symmetry_group_IT_number 12
_symmetry_cell_setting 'monoclinic'
loop_
_space_group_symop_operation_xyz
x,y,z
-x,y,-z
-x,-y,-z
x,-y,z
1/2+x,1/2+y,z
1/2-x,1/2+y,-z
1/2-x,1/2-y,-z
1/2+x,1/2-y,z
loop_
_atom_site_type_symbol
_atom_site_label
_atom_site_fract_x
_atom_site_fract_y
_atom_site_fract_z
Si Si1 0.667168 0.836343 0.421403
Si Si2 0.323134 0.337775 0.051587
Si Si3 0.098626 0.837793 0.491919
Si Si4 0.938863 0.838968 0.682363
Si Si5 0.741248 0.837777 0.131550
Si Si6 0.174895 0.161703 0.747987
Si Si7 0.057745 0.837447 0.116347
Si Si8 0.856561 0.839581 0.762896
O O1 0.791930 0.815967 0.454124
O O2 0.603435 0.759574 0.447144
O O3 0.632911 0.767035 0.364248
O O4 0.637357 0.000000 0.415414
O O5 0.299590 0.500000 0.036176
O O6 0.305781 0.299572 0.101530
O O7 0.442320 0.299596 0.070579
O O8 0.250000 0.250000 0.000000
O O9 0.000000 0.793230 0.500000
O O10 0.085462 0.000000 0.473032
O O11 0.923607 0.810444 0.733514
O O12 0.058976 0.806249 0.701550
O O13 0.910664 0.000000 0.662469
O O14 0.810747 0.795168 0.193860
O O15 0.634680 0.751024 0.103114
O O16 0.710573 0.000000 0.125596
O O17 0.251485 0.249474 0.734127
O O18 0.202968 0.000000 0.748094
O O19 0.072908 0.797313 0.174912
O O20 0.082138 0.000000 0.114405
O O21 0.821206 0.000000 0.757432
#
# Coordination Sequence:
#
# PCOD8097019 Si02
#       8
#     8   8   8   8   8   8   8   8
#     4  10  21  35  53  80 108 133 169 214 253 293
#     4  10  21  35  51  72  99 130 165 206 253 305
#     4   9  19  38  60  77  99 136 176 211 252 301
#     4  10  20  34  52  74 106 142 168 199 248 303
#     4   9  18  34  54  74  97 128 167 208 248 295
#     4   9  18  33  53  75  99 132 171 205 244 298
#     4   9  18  34  54  74  98 130 167 207 251 299
#     4   9  18  33  53  76 101 132 170 208 248 296
#
# _framework density 18.363723
#
# number of rings (size 3 to 8) (size 9 to 14) (size 15 to 20)
#    0.000    2.625    0.000    1.125    0.000    7.250 
#    0.000    6.250    0.000    7.500    0.000    0.000 
#    0.000    0.000    0.000    0.000    0.000    0.000 
#
# Total GULP energy -396812.014531 kJ/mol
# GULP energy per Si atom -12400.375454 kJ/mol
# Density = 1.832193 g / cm^3
# Si number density = 18.363723 Si / 1000 Ang^3
#
#
#
# Elastic Constant Matrix: (Units=GPa)
#
#
# Indices 1 2 3 4 5 6 
#
# 1 83.8665 38.0700 14.1173 0.0000 11.1144 0.0000
# 2 38.0700 64.7511 31.7222 0.0000 8.4266 0.0000
# 3 14.1173 31.7222 53.8613 0.0000 15.0091 0.0000
# 4 0.0000 0.0000 0.0000 34.1717 0.0000 0.0640
# 5 11.1144 8.4266 15.0091 0.0000 17.9022 0.0000
# 6 0.0000 0.0000 0.0000 0.0640 0.0000 32.2121
#
#
#
# Elastic Compliance Matrix: (Units=1/GPa)
#
#
# Indices 1 2 3 4 5 6 
#
# 1 0.017574 -0.011436 0.004788 0.000000 -0.009542 0.000000
# 2 -0.011436 0.029155 -0.016086 0.000000 0.006863 0.000000
# 3 0.004788 -0.016086 0.033279 0.000000 -0.023301 0.000000
# 4 0.000000 0.000000 0.000000 0.029264 0.000000 -0.000058
# 5 -0.009542 0.006863 -0.023301 0.000000 0.078088 0.000000
# 6 0.000000 0.000000 0.000000 -0.000058 0.000000 0.031044
#
#
# Mechanical properties :
#
#
# Convention : Reuss Voigt Hill
#
# Bulk Modulus (GPa) = 28.95296 41.14421 35.04859
# Shear Modulus (GPa) = 18.15635 24.76183 21.45909
#
# Velocity S-wave (km/s) = 3.14778 3.67605 3.42213
# Velocity P-wave (km/s) = 5.38628 6.36173 5.89422
#
# Compressibility (1/GPa) = 0.03453878
#
# Stress axis : x y z
#
# Youngs Moduli (GPa) = 56.90352 34.29897 30.04938
#
# Poissons Ratio (x) = 0.39226 -0.14389
# Poissons Ratio (y) = 0.65077 0.48339
# Poissons Ratio (z) = -0.27248 0.55175
#
# Static dielectric constant tensor:
#      x y z
#    x 3.477090 0.000000 0.119680 
#    y 0.000000 3.390240 0.000000 
#    z 0.119680 0.000000 3.387450 
# 
# 
# High freq. dielectric constant tensor:
#      x y z
#    x 1.713750 0.000000 0.003080 
#    y 0.000000 1.708660 0.000000 
#    z 0.003080 0.000000 1.706010 
# 
# From -- ./inp_files/338919.got.cif
#   From: 2010.06.25/outbox.cif.g09.slc.cpg/sg12_170_cif.got.tgz:338919.got - 2010.06.28 00:19:55.
