data_PCOD8097710
_publ_section_title
;
Structure prediction by ZEFSAII (Michael W. Deem and Ramdas Pophale) SiO2 
 PCOD8097710
Probable space group: C 2/M
;
_chemical_formula_sum "Si O2"
_cell_formula_units_Z 64
_cell_length_a 16.817489
_cell_length_b 12.397380
_cell_length_c 27.025654
_cell_angle_alpha 90.000000
_cell_angle_beta 38.821027
_cell_angle_gamma 90.000000
_cell_volume 3532.307201
_symmetry_space_group_name_H-M "C 2/M"
_symmetry_group_IT_number 12
_symmetry_cell_setting 'monoclinic'
loop_
_space_group_symop_operation_xyz
x,y,z
-x,y,-z
-x,-y,-z
x,-y,z
1/2+x,1/2+y,z
1/2-x,1/2+y,-z
1/2-x,1/2-y,-z
1/2+x,1/2-y,z
loop_
_atom_site_type_symbol
_atom_site_label
_atom_site_fract_x
_atom_site_fract_y
_atom_site_fract_z
Si Si1 0.405008 0.875648 0.295267
Si Si2 0.510376 0.624922 0.135669
Si Si3 0.906800 0.874693 0.713565
Si Si4 0.378983 0.622520 0.025028
Si Si5 0.858113 0.766001 0.836885
Si Si6 0.772132 0.259016 0.276524
Si Si7 0.814618 0.215677 0.418114
Si Si8 0.639076 0.876117 0.424335
O O1 0.545274 0.828933 0.222838
O O2 0.331157 0.856742 0.279670
O O3 0.332529 0.822091 0.376343
O O4 0.414685 0.000000 0.302601
O O5 0.475900 0.500000 0.161528
O O6 0.586676 0.641268 0.048438
O O7 0.600409 0.666837 0.135510
O O8 0.381225 0.693160 0.195137
O O9 0.854269 0.850183 0.793666
O O10 0.827088 0.804574 0.713975
O O11 0.053916 0.845196 0.635967
O O12 0.887422 0.000000 0.711442
O O13 0.328608 0.500000 0.057405
O O14 0.500000 0.643969 0.000000
O O15 0.276694 0.711027 0.089751
O O16 0.703434 0.178075 0.346467
O O17 0.750000 0.250000 0.500000
O O18 0.722356 0.135131 0.433452
O O19 0.500000 0.824316 0.500000
O O20 0.624994 0.000000 0.417094
#
# Coordination Sequence:
#
# PCOD8097710 Si02
#       8
#     8   8   8   8   8   8   8   8
#     4   9  19  34  53  75 101 136 173 212 259 310
#     4  10  20  35  57  81 106 141 180 219 267 319
#     4  11  22  36  56  79 106 141 176 217 270 322
#     4  10  20  34  54  80 110 143 179 221 269 318
#     4  10  20  35  55  78 108 139 177 221 263 317
#     4  10  20  35  54  77 106 137 176 220 262 317
#     4  10  21  36  54  79 109 138 176 220 264 316
#     4  10  20  35  55  77 105 141 179 220 264 311
#
# _framework density 18.118469000000001
#
# number of rings (size 3 to 8) (size 9 to 14) (size 15 to 20)
#    0.000    2.000    0.000    4.500    0.000    1.000 
#    0.000    6.875    0.000   13.125    0.000    0.000 
#    0.000    0.000    0.000    0.000    0.000    0.000 
#
# Total GULP energy -396881.199295 kJ/mol
# GULP energy per Si atom -12402.537478 kJ/mol
# Density = 1.807723 g / cm^3
# Si number density = 18.118469 Si / 1000 Ang^3
#
#
#
# Elastic Constant Matrix: (Units=GPa)
#
#
# Indices 1 2 3 4 5 6 
#
# 1 118.5276 32.1855 43.7655 0.0000 -2.7921 0.0000
# 2 32.1855 84.9995 33.0719 0.0000 -0.5788 0.0000
# 3 43.7655 33.0719 101.7986 -0.0001 -1.2028 0.0000
# 4 0.0000 0.0000 -0.0001 14.2019 0.0000 -9.0752
# 5 -2.7921 -0.5788 -1.2028 0.0000 29.9597 0.0000
# 6 0.0000 0.0000 0.0000 -9.0752 0.0000 12.6003
#
#
#
# Elastic Compliance Matrix: (Units=1/GPa)
#
#
# Indices 1 2 3 4 5 6 
#
# 1 0.010504 -0.002540 -0.003682 0.000000 0.000782 0.000000
# 2 -0.002540 0.014081 -0.003484 0.000000 -0.000105 0.000000
# 3 -0.003682 -0.003484 0.012539 0.000000 0.000093 0.000000
# 4 0.000000 0.000000 0.000000 0.130453 0.000000 0.093958
# 5 0.000782 -0.000105 0.000093 0.000000 0.033453 0.000000
# 6 0.000000 0.000000 0.000000 0.093958 0.000000 0.147036
#
#
# Mechanical properties :
#
#
# Convention : Reuss Voigt Hill
#
# Bulk Modulus (GPa) = 56.45290 58.15240 57.30265
# Shear Modulus (GPa) = 13.39111 24.43923 18.91517
#
# Velocity S-wave (km/s) = 2.72156 3.67666 3.23456
# Velocity P-wave (km/s) = 6.41102 7.08443 6.75612
#
# Compressibility (1/GPa) = 0.01771388
#
# Stress axis : x y z
#
# Youngs Moduli (GPa) = 95.19849 71.01612 79.75022
#
# Poissons Ratio (x) = 0.18036 0.29362
# Poissons Ratio (y) = 0.24178 0.27785
# Poissons Ratio (z) = 0.35050 0.24742
#
# Static dielectric constant tensor:
#      x y z
#    x 2.520750 0.000000 0.037890 
#    y 0.000000 3.274690 0.000000 
#    z 0.037890 0.000000 3.428720 
# 
# 
# High freq. dielectric constant tensor:
#      x y z
#    x 1.713220 0.000000 0.001400 
#    y 0.000000 1.701470 0.000000 
#    z 0.001400 0.000000 1.709020 
# 
# From -- ./inp_files/361024.got.cif
#   From: 2010.06.25/outbox.cif.g09.slc.cpg/sg12_181_cif.got.tgz:361024.got - 2010.06.28 00:19:55.
