data_PCOD8097511
_publ_section_title
;
Structure prediction by ZEFSAII (Michael W. Deem and Ramdas Pophale) SiO2 
 PCOD8097511
Probable space group: C 2/M
;
_chemical_formula_sum "Si O2"
_cell_formula_units_Z 40
_cell_length_a 30.428948
_cell_length_b 9.034061
_cell_length_c 15.279963
_cell_angle_alpha 90.000000
_cell_angle_beta 28.270468
_cell_angle_gamma 90.000000
_cell_volume 1989.460975
_symmetry_space_group_name_H-M "C 2/M"
_symmetry_group_IT_number 12
_symmetry_cell_setting 'monoclinic'
loop_
_space_group_symop_operation_xyz
x,y,z
-x,y,-z
-x,-y,-z
x,-y,z
1/2+x,1/2+y,z
1/2-x,1/2+y,-z
1/2-x,1/2-y,-z
1/2+x,1/2-y,z
loop_
_atom_site_type_symbol
_atom_site_label
_atom_site_fract_x
_atom_site_fract_y
_atom_site_fract_z
Si Si1 0.290828 0.165240 0.510671
Si Si2 0.833804 0.175447 0.604154
Si Si3 0.539861 0.670286 0.189340
Si Si4 0.998682 0.663178 0.906897
Si Si5 0.269399 0.325254 0.057566
O O1 0.250000 0.250000 0.500000
O O2 0.273332 0.259215 0.629544
O O3 0.399396 0.151049 0.309093
O O4 0.246961 0.000000 0.595692
O O5 0.799642 0.252253 0.752036
O O6 0.942669 0.217281 0.404005
O O7 0.818200 0.000000 0.636113
O O8 0.536442 0.500000 0.170993
O O9 0.561313 0.748753 0.058874
O O10 0.623365 0.708878 0.108106
O O11 0.953779 0.500000 0.996737
O O12 0.000000 0.742767 0.000000
O O13 0.250111 0.500000 0.087140
O O14 0.250000 0.250000 0.000000
#
# Coordination Sequence:
#
# PCOD8097511 Si02
#       5
#     8   8   8   8   8
#     4  10  20  34  53  82 118 155 194 238 289 349
#     4  10  21  40  62  85 117 157 196 243 297 350
#     4   9  21  40  60  84 117 155 195 240 293 352
#     4   9  19  34  53  81 114 150 192 237 287 342
#     4  11  24  42  63  91 119 152 198 246 299 355
#
# _framework density 20.105948999999999
#
# number of rings (size 3 to 8) (size 9 to 14) (size 15 to 20)
#    0.000    2.200    0.000    1.800    2.800    4.400 
#    0.000    4.000    0.000    0.000    0.000    0.000 
#    0.000    0.000    0.000    0.000    0.000    0.000 
#
# Total GULP energy -247970.207035 kJ/mol
# GULP energy per Si atom -12398.510352 kJ/mol
# Density = 2.006019 g / cm^3
# Si number density = 20.105949 Si / 1000 Ang^3
#
#
#
# Elastic Constant Matrix: (Units=GPa)
#
#
# Indices 1 2 3 4 5 6 
#
# 1 186.2874 92.8818 65.6667 0.0000 27.2885 0.0000
# 2 92.8818 129.5692 56.3906 -0.0001 10.8478 0.0000
# 3 65.6667 56.3906 82.8504 -0.0001 19.2254 0.0000
# 4 0.0000 -0.0001 -0.0001 27.3589 0.0000 5.1640
# 5 27.2885 10.8478 19.2254 0.0000 37.0999 0.0000
# 6 0.0000 0.0000 0.0000 5.1640 0.0000 38.8739
#
#
#
# Elastic Compliance Matrix: (Units=1/GPa)
#
#
# Indices 1 2 3 4 5 6 
#
# 1 0.009671 -0.005207 -0.003210 0.000000 -0.003928 0.000000
# 2 -0.005207 0.013788 -0.005923 0.000000 0.002868 0.000000
# 3 -0.003210 -0.005923 0.020115 0.000000 -0.006331 0.000000
# 4 0.000000 0.000000 0.000000 0.037491 0.000000 -0.004980
# 5 -0.003928 0.002868 -0.006331 0.000000 0.032285 0.000000
# 6 0.000000 0.000000 0.000000 -0.004980 0.000000 0.026386
#
#
# Mechanical properties :
#
#
# Convention : Reuss Voigt Hill
#
# Bulk Modulus (GPa) = 67.14116 92.06503 79.60309
# Shear Modulus (GPa) = 28.83829 32.91770 30.87800
#
# Velocity S-wave (km/s) = 3.79135 4.05064 3.92313
# Velocity P-wave (km/s) = 7.25479 8.23202 7.75881
#
# Compressibility (1/GPa) = 0.01489399
#
# Stress axis : x y z
#
# Youngs Moduli (GPa) = 103.40241 72.52566 49.71522
#
# Poissons Ratio (x) = 0.37763 0.15958
# Poissons Ratio (y) = 0.53840 0.29447
# Poissons Ratio (z) = 0.33190 0.42959
#
# Static dielectric constant tensor:
#      x y z
#    x 3.757450 0.000000 -0.032160 
#    y 0.000000 4.262980 0.000000 
#    z -0.032160 0.000000 3.625740 
# 
# 
# High freq. dielectric constant tensor:
#      x y z
#    x 1.786350 0.000000 0.004590 
#    y 0.000000 1.791090 0.000000 
#    z 0.004590 0.000000 1.782370 
# 
# From -- ./inp_files/211234.got.cif
#   From: 2010.06.25/outbox.cif.g09.slc.cpg/sg12_106_cif.got.tgz:211234.got - 2010.06.28 00:19:55.
