data_PCOD8097809
_publ_section_title
;
Structure prediction by ZEFSAII (Michael W. Deem and Ramdas Pophale) SiO2 
 PCOD8097809
Probable space group: C 2/M
;
_chemical_formula_sum "Si O2"
_cell_formula_units_Z 56
_cell_length_a 18.639636
_cell_length_b 8.858906
_cell_length_c 22.486771
_cell_angle_alpha 90.000000
_cell_angle_beta 52.248893
_cell_angle_gamma 90.000000
_cell_volume 2935.919428
_symmetry_space_group_name_H-M "C 2/M"
_symmetry_group_IT_number 12
_symmetry_cell_setting 'monoclinic'
loop_
_space_group_symop_operation_xyz
x,y,z
-x,y,-z
-x,-y,-z
x,-y,z
1/2+x,1/2+y,z
1/2-x,1/2+y,-z
1/2-x,1/2-y,-z
1/2+x,1/2-y,z
loop_
_atom_site_type_symbol
_atom_site_label
_atom_site_fract_x
_atom_site_fract_y
_atom_site_fract_z
Si Si1 0.359768 0.176779 0.788073
Si Si2 0.515063 0.324386 0.368447
Si Si3 0.993486 0.320939 0.070023
Si Si4 0.823721 0.172068 0.624626
Si Si5 0.794892 0.675617 0.204378
Si Si6 0.843143 0.322513 0.932947
Si Si7 0.671419 0.177120 0.501650
O O1 0.440214 0.266095 0.714893
O O2 0.261960 0.227283 0.813639
O O3 0.366049 0.219440 0.853796
O O4 0.372623 0.000000 0.770043
O O5 0.492639 0.500000 0.372839
O O6 0.582514 0.295217 0.389092
O O7 0.424211 0.234238 0.426176
O O8 0.999959 0.500000 0.065201
O O9 0.898751 0.270949 0.147829
O O10 0.075908 0.255740 0.067410
O O11 0.000000 0.254879 0.000000
O O12 0.739491 0.203818 0.711209
O O13 0.814780 0.283712 0.574269
O O14 0.822079 0.000000 0.602175
O O15 0.782491 0.500000 0.193462
O O16 0.833704 0.500000 0.946264
O O17 0.750000 0.250000 0.000000
O O18 0.750000 0.250000 0.500000
O O19 0.676021 0.000000 0.507613
#
# Coordination Sequence:
#
# PCOD8097809 Si02
#       7
#     8   8   8   8   8   8   8
#     4  10  20  34  54  82 113 142 177 225 277 329
#     4  10  21  39  62  85 111 146 186 226 275 337
#     4   9  17  31  53  78 103 137 183 226 265 317
#     4   9  19  36  58  83 111 144 183 227 277 336
#     4   9  18  34  57  81 107 143 182 223 272 327
#     4  10  21  35  53  79 109 143 183 227 275 327
#     4  12  25  39  57  82 114 149 187 233 281 330
#
# _framework density 19.074093000000001
#
# number of rings (size 3 to 8) (size 9 to 14) (size 15 to 20)
#    0.000    2.143    0.000    4.286    0.000    8.000 
#    0.000    3.571    0.000    2.571    0.000    0.000 
#    0.000    0.000    0.000    0.000    0.000    0.000 
#
# Total GULP energy -347285.173886 kJ/mol
# GULP energy per Si atom -12403.041925 kJ/mol
# Density = 1.903068 g / cm^3
# Si number density = 19.074093 Si / 1000 Ang^3
#
#
#
# Elastic Constant Matrix: (Units=GPa)
#
#
# Indices 1 2 3 4 5 6 
#
# 1 144.8234 53.5805 99.8514 0.0000 -6.4188 0.0000
# 2 53.5805 92.3661 60.2887 0.0000 4.6088 -0.0001
# 3 99.8514 60.2887 141.1220 0.0000 -5.2080 0.0001
# 4 0.0000 0.0000 0.0000 31.9253 0.0000 -1.1338
# 5 -6.4188 4.6088 -5.2080 0.0000 36.9327 0.0000
# 6 0.0000 -0.0001 0.0001 -1.1338 0.0000 29.6195
#
#
#
# Elastic Compliance Matrix: (Units=1/GPa)
#
#
# Indices 1 2 3 4 5 6 
#
# 1 0.013895 -0.002431 -0.008738 0.000000 0.001486 0.000000
# 2 -0.002431 0.015730 -0.005115 0.000000 -0.003107 0.000000
# 3 -0.008738 -0.005115 0.015502 0.000000 0.001306 0.000000
# 4 0.000000 0.000000 0.000000 0.031366 0.000000 0.001201
# 5 0.001486 -0.003107 0.001306 0.000000 0.027906 0.000000
# 6 0.000000 0.000000 0.000000 0.001201 0.000000 0.033808
#
#
# Mechanical properties :
#
#
# Convention : Reuss Voigt Hill
#
# Bulk Modulus (GPa) = 79.62043 89.52806 84.57425
# Shear Modulus (GPa) = 28.57800 30.66823 29.62312
#
# Velocity S-wave (km/s) = 3.87494 4.01415 3.94516
# Velocity P-wave (km/s) = 7.86470 8.27789 8.07394
#
# Compressibility (1/GPa) = 0.01255959
#
# Stress axis : x y z
#
# Youngs Moduli (GPa) = 71.96979 63.57247 64.50860
#
# Poissons Ratio (x) = 0.15454 0.56367
# Poissons Ratio (y) = 0.17496 0.32994
# Poissons Ratio (z) = 0.62886 0.32515
#
# Static dielectric constant tensor:
#      x y z
#    x 3.675670 0.000000 -0.038740 
#    y 0.000000 3.379240 0.000000 
#    z -0.038740 0.000000 3.603810 
# 
# 
# High freq. dielectric constant tensor:
#      x y z
#    x 1.743550 0.000000 -0.003940 
#    y 0.000000 1.727640 0.000000 
#    z -0.003940 0.000000 1.756940 
# 
# From -- ./inp_files/313696.got.cif
#   From: 2010.06.25/outbox.cif.g09.slc.cpg/sg12_157_cif.got.tgz:313696.got - 2010.06.28 00:19:55.
