data_PCOD8097825
_publ_section_title
;
Structure prediction by ZEFSAII (Michael W. Deem and Ramdas Pophale) SiO2 
 PCOD8097825
Probable space group: C 2/M
;
_chemical_formula_sum "Si O2"
_cell_formula_units_Z 64
_cell_length_a 30.092487
_cell_length_b 9.359211
_cell_length_c 23.756706
_cell_angle_alpha 90.000000
_cell_angle_beta 29.196557
_cell_angle_gamma 90.000000
_cell_volume 3263.861729
_symmetry_space_group_name_H-M "C 2/M"
_symmetry_group_IT_number 12
_symmetry_cell_setting 'monoclinic'
loop_
_space_group_symop_operation_xyz
x,y,z
-x,y,-z
-x,-y,-z
x,-y,z
1/2+x,1/2+y,z
1/2-x,1/2+y,-z
1/2-x,1/2-y,-z
1/2+x,1/2-y,z
loop_
_atom_site_type_symbol
_atom_site_label
_atom_site_fract_x
_atom_site_fract_y
_atom_site_fract_z
Si Si1 0.403877 0.155118 0.134490
Si Si2 0.697746 0.170558 0.186610
Si Si3 0.763493 0.157888 0.430965
Si Si4 0.956944 0.155543 0.177333
Si Si5 0.147189 0.164303 0.475689
Si Si6 0.725436 0.665082 0.269908
Si Si7 0.614700 0.669127 0.078843
Si Si8 0.058649 0.831573 0.264808
O O1 0.415799 0.261250 0.171437
O O2 0.327619 0.210441 0.175412
O O3 0.370637 0.000000 0.193900
O O4 0.500000 0.138217 0.000000
O O5 0.700263 0.230878 0.246870
O O6 0.611086 0.240383 0.253175
O O7 0.688177 0.000000 0.199552
O O8 0.786302 0.217131 0.052262
O O9 0.750000 0.250000 0.500000
O O10 0.871821 0.138458 0.312219
O O11 0.722555 0.237072 0.421793
O O12 0.718294 0.000000 0.485158
O O13 0.039526 0.234216 0.118847
O O14 0.990877 0.000000 0.118522
O O15 0.155331 0.189511 0.399315
O O16 0.047409 0.204286 0.608963
O O17 0.169195 0.000000 0.465796
O O18 0.722008 0.500000 0.253429
O O19 0.602921 0.500000 0.091837
O O20 0.593527 0.723815 0.165260
O O21 0.077935 0.000000 0.251896
#
# Coordination Sequence:
#
# PCOD8097825 Si02
#       8
#     8   8   8   8   8   8   8   8
#     4  10  20  34  54  82 116 151 188 233 281 332
#     4  11  23  38  59  86 115 148 192 245 298 344
#     4  11  22  35  56  85 118 155 193 235 285 340
#     4  10  20  35  56  83 113 149 190 227 276 339
#     4  10  21  39  62  85 114 154 196 242 290 345
#     4  10  21  38  58  82 117 155 194 236 286 349
#     4   9  19  37  59  85 116 149 189 239 289 350
#     4  10  21  40  64  84 110 150 195 242 298 355
#
# _framework density 19.608673
#
# number of rings (size 3 to 8) (size 9 to 14) (size 15 to 20)
#    0.000    1.875    1.250    2.625    0.000    4.750 
#    0.000    4.375    0.000    0.000    0.000    0.000 
#    0.000    0.000    0.000    0.000    0.000    0.000 
#
# Total GULP energy -396683.095624 kJ/mol
# GULP energy per Si atom -12396.346738 kJ/mol
# Density = 1.956404 g / cm^3
# Si number density = 19.608673 Si / 1000 Ang^3
#
#
#
# Elastic Constant Matrix: (Units=GPa)
#
#
# Indices 1 2 3 4 5 6 
#
# 1 107.2639 47.1333 22.5546 -0.0052 -0.8094 -0.0023
# 2 47.1333 79.8971 22.6855 -0.0209 0.1397 0.0045
# 3 22.5546 22.6855 87.9039 0.0098 0.5950 -0.0058
# 4 -0.0052 -0.0209 0.0098 23.7868 -0.0161 1.3028
# 5 -0.8094 0.1397 0.5950 -0.0161 33.5692 0.0053
# 6 -0.0023 0.0045 -0.0058 1.3028 0.0053 37.3406
#
#
#
# Elastic Compliance Matrix: (Units=1/GPa)
#
#
# Indices 1 2 3 4 5 6 
#
# 1 0.012755 -0.007117 -0.001439 -0.000003 0.000363 0.000001
# 2 -0.007117 0.017477 -0.002683 0.000015 -0.000197 -0.000003
# 3 -0.001439 -0.002683 0.012439 -0.000008 -0.000244 0.000002
# 4 -0.000003 0.000015 -0.000008 0.042121 0.000020 -0.001470
# 5 0.000363 -0.000197 -0.000244 0.000020 0.029803 -0.000005
# 6 0.000001 -0.000003 0.000002 -0.001470 -0.000005 0.026832
#
#
# Mechanical properties :
#
#
# Convention : Reuss Voigt Hill
#
# Bulk Modulus (GPa) = 49.51824 51.09018 50.30421
# Shear Modulus (GPa) = 29.30237 31.11875 30.21056
#
# Velocity S-wave (km/s) = 3.86989 3.98802 3.92940
# Velocity P-wave (km/s) = 6.72875 6.87875 6.80417
#
# Compressibility (1/GPa) = 0.02019458
#
# Stress axis : x y z
#
# Youngs Moduli (GPa) = 78.39897 57.21938 80.39111
#
# Poissons Ratio (x) = 0.40722 0.11565
# Poissons Ratio (y) = 0.55795 0.21568
# Poissons Ratio (z) = 0.11278 0.15351
#
# Static dielectric constant tensor:
#      x y z
#    x 3.603860 -0.000180 0.033500 
#    y -0.000180 3.628860 -0.000160 
#    z 0.033500 -0.000160 3.618470 
# 
# 
# High freq. dielectric constant tensor:
#      x y z
#    x 1.766190 0.000000 -0.001920 
#    y 0.000000 1.751170 0.000000 
#    z -0.001920 0.000000 1.773210 
# 
# From -- ./inp_files/249719.got.cif
#   From: 2010.06.25/outbox.cif.g09.slc.cpg/sg12_125_cif.got.tgz:249719.got - 2010.06.28 00:19:55.
