data_PCOD8097663
_publ_section_title
;
Structure prediction by ZEFSAII (Michael W. Deem and Ramdas Pophale) SiO2 
 PCOD8097663
Probable space group: C 2/M
;
_chemical_formula_sum "Si O2"
_cell_formula_units_Z 56
_cell_length_a 20.641513
_cell_length_b 8.628526
_cell_length_c 21.018660
_cell_angle_alpha 90.000000
_cell_angle_beta 48.115431
_cell_angle_gamma 90.000000
_cell_volume 2787.037671
_symmetry_space_group_name_H-M "C 2/M"
_symmetry_group_IT_number 12
_symmetry_cell_setting 'monoclinic'
loop_
_space_group_symop_operation_xyz
x,y,z
-x,y,-z
-x,-y,-z
x,-y,z
1/2+x,1/2+y,z
1/2-x,1/2+y,-z
1/2-x,1/2-y,-z
1/2+x,1/2-y,z
loop_
_atom_site_type_symbol
_atom_site_label
_atom_site_fract_x
_atom_site_fract_y
_atom_site_fract_z
Si Si1 0.670333 0.317700 0.730419
Si Si2 0.518710 0.183322 0.589501
Si Si3 0.298119 0.821783 0.062861
Si Si4 0.864398 0.316618 0.603489
Si Si5 0.464439 0.319675 0.284562
Si Si6 0.367000 0.179041 0.881235
Si Si7 0.086366 0.818870 0.911982
O O1 0.679938 0.500000 0.735108
O O2 0.767417 0.243413 0.670348
O O3 0.626934 0.281285 0.690586
O O4 0.609265 0.249645 0.827159
O O5 0.588892 0.239859 0.491619
O O6 0.422269 0.230446 0.627169
O O7 0.541843 0.274646 0.637997
O O8 0.523742 0.000000 0.599026
O O9 0.197165 0.783410 0.118759
O O10 0.331541 0.713780 0.097243
O O11 0.308215 0.000000 0.075724
O O12 0.354057 0.780808 0.963646
O O13 0.859862 0.500000 0.603258
O O14 0.487733 0.500000 0.262172
O O15 0.535772 0.218027 0.201979
O O16 0.345947 0.000000 0.881655
O O17 0.069761 0.000000 0.916473
O O18 0.000000 0.740315 0.000000
#
# Coordination Sequence:
#
# PCOD8097663 Si02
#       7
#     8   8   8   8   8   8   8
#     4   9  19  34  53  78 111 152 192 230 275 333
#     4   9  18  34  59  84 107 140 187 237 280 336
#     4  10  21  36  55  81 109 141 185 239 290 328
#     4   8  16  34  57  81 107 142 191 234 273 336
#     4  11  22  35  54  82 115 146 182 233 283 330
#     4  10  21  37  56  77 108 148 187 225 275 341
#     4  10  20  34  54  79 109 151 198 232 270 331
#
# _framework density 20.093019000000002
#
# number of rings (size 3 to 8) (size 9 to 14) (size 15 to 20)
#    0.000    2.429    0.000    3.000    2.000    3.714 
#    0.000    2.857    0.000    3.429    0.000    0.000 
#    0.000    0.000    0.000    0.000    0.000    0.000 
#
# Total GULP energy -347157.769357 kJ/mol
# GULP energy per Si atom -12398.491763 kJ/mol
# Density = 2.004729 g / cm^3
# Si number density = 20.093019 Si / 1000 Ang^3
#
#
#
# Elastic Constant Matrix: (Units=GPa)
#
#
# Indices 1 2 3 4 5 6 
#
# 1 136.0162 12.8074 75.7037 0.0001 6.8273 0.0001
# 2 12.8074 20.6857 17.0223 0.0000 5.3679 0.0001
# 3 75.7037 17.0223 112.1052 0.0000 -4.1960 0.0000
# 4 0.0001 0.0000 0.0000 20.3818 0.0000 5.3706
# 5 6.8273 5.3679 -4.1960 0.0000 35.6178 0.0000
# 6 0.0001 0.0001 0.0000 5.3706 0.0000 27.0017
#
#
#
# Elastic Compliance Matrix: (Units=1/GPa)
#
#
# Indices 1 2 3 4 5 6 
#
# 1 0.012157 0.000230 -0.008370 0.000000 -0.003351 0.000000
# 2 0.000230 0.058538 -0.009418 0.000000 -0.009976 0.000000
# 3 -0.008370 -0.009418 0.016187 0.000000 0.004931 0.000000
# 4 0.000000 0.000000 0.000000 0.051777 0.000000 -0.010298
# 5 -0.003351 -0.009976 0.004931 0.000000 0.030803 0.000000
# 6 0.000000 0.000000 0.000000 -0.010298 0.000000 0.039083
#
#
# Mechanical properties :
#
#
# Convention : Reuss Voigt Hill
#
# Bulk Modulus (GPa) = 19.31694 53.31932 36.31813
# Shear Modulus (GPa) = 19.16330 27.48517 23.32423
#
# Velocity S-wave (km/s) = 3.09160 3.70252 3.41077
# Velocity P-wave (km/s) = 4.73060 6.69866 5.79874
#
# Compressibility (1/GPa) = 0.05176804
#
# Stress axis : x y z
#
# Youngs Moduli (GPa) = 82.25606 17.08280 61.77829
#
# Poissons Ratio (x) = -0.00393 0.51709
# Poissons Ratio (y) = -0.01894 0.58180
# Poissons Ratio (z) = 0.68849 0.16088
#
# Static dielectric constant tensor:
#      x y z
#    x 3.739520 0.000000 -0.124990 
#    y 0.000000 3.254160 0.000000 
#    z -0.124990 0.000000 3.873290 
# 
# 
# High freq. dielectric constant tensor:
#      x y z
#    x 1.792460 0.000000 0.000710 
#    y 0.000000 1.747550 0.000000 
#    z 0.000710 0.000000 1.785380 
# 
# From -- ./inp_files/319691.got.cif
#   From: 2010.06.25/outbox.cif.g09.slc.cpg/sg12_160_cif.got.tgz:319691.got - 2010.06.28 00:19:55.
