data_PCOD8097644
_publ_section_title
;
Structure prediction by ZEFSAII (Michael W. Deem and Ramdas Pophale) SiO2 
 PCOD8097644
Probable space group: C 2/M
;
_chemical_formula_sum "Si O2"
_cell_formula_units_Z 64
_cell_length_a 24.497282
_cell_length_b 9.370829
_cell_length_c 15.040600
_cell_angle_alpha 90.000000
_cell_angle_beta 91.647004
_cell_angle_gamma 90.000000
_cell_volume 3451.291326
_symmetry_space_group_name_H-M "C 2/M"
_symmetry_group_IT_number 12
_symmetry_cell_setting 'monoclinic'
loop_
_space_group_symop_operation_xyz
x,y,z
-x,y,-z
-x,-y,-z
x,-y,z
1/2+x,1/2+y,z
1/2-x,1/2+y,-z
1/2-x,1/2-y,-z
1/2+x,1/2-y,z
loop_
_atom_site_type_symbol
_atom_site_label
_atom_site_fract_x
_atom_site_fract_y
_atom_site_fract_z
Si Si1 0.370327 0.666410 0.934993
Si Si2 0.332046 0.332685 0.468975
Si Si3 0.758529 0.164173 0.628205
Si Si4 0.547700 0.668849 0.564454
Si Si5 0.047533 0.165098 0.767532
Si Si6 0.975576 0.668369 0.903043
Si Si7 0.156854 0.161475 0.867653
Si Si8 0.263313 0.334875 0.829398
O O1 0.380704 0.500000 0.913923
O O2 0.416672 0.759567 0.890373
O O3 0.312836 0.719455 0.892460
O O4 0.371237 0.697468 0.039765
O O5 0.330575 0.500000 0.447876
O O6 0.294870 0.257653 0.393247
O O7 0.308602 0.296162 0.565492
O O8 0.393591 0.272063 0.465517
O O9 0.778873 0.197284 0.728189
O O10 0.741547 0.000000 0.614949
O O11 0.500000 0.734766 0.500000
O O12 0.548246 0.500000 0.554448
O O13 0.536435 0.711813 0.665759
O O14 0.111879 0.186401 0.789313
O O15 0.013421 0.268426 0.828325
O O16 0.031025 0.000000 0.784055
O O17 0.970320 0.500000 0.889060
O O18 0.000000 0.707646 0.000000
O O19 0.208057 0.260127 0.854680
O O20 0.178448 0.000000 0.868540
O O21 0.252693 0.500000 0.845605
#
# Coordination Sequence:
#
# PCOD8097644 Si02
#       8
#     8   8   8   8   8   8   8   8
#     4  10  21  37  56  78 107 142 179 221 268 321
#     4   9  17  32  54  75 101 135 175 218 260 309
#     4   9  18  32  51  77 105 135 172 215 262 313
#     4   9  18  32  53  82 109 137 178 225 268 313
#     4  10  20  35  58  83 108 143 185 226 272 323
#     4  11  23  38  57  81 108 140 182 228 273 322
#     4  10  20  34  54  79 107 141 181 221 264 316
#     4  10  21  34  51  79 111 142 176 215 267 322
#
# _framework density 18.543783999999999
#
# number of rings (size 3 to 8) (size 9 to 14) (size 15 to 20)
#    0.000    2.250    1.250    1.500    0.000    4.500 
#    0.000    4.375    0.000    4.500    0.000    0.000 
#    0.000    0.000    0.000    0.000    0.000    0.000 
#
# Total GULP energy -396873.444156 kJ/mol
# GULP energy per Si atom -12402.295130 kJ/mol
# Density = 1.850158 g / cm^3
# Si number density = 18.543784 Si / 1000 Ang^3
#
#
#
# Elastic Constant Matrix: (Units=GPa)
#
#
# Indices 1 2 3 4 5 6 
#
# 1 123.1588 49.7669 61.4183 0.0000 -2.0173 0.0000
# 2 49.7669 54.0809 36.9730 0.0000 -3.6872 0.0000
# 3 61.4183 36.9730 97.9723 0.0000 12.1424 0.0000
# 4 0.0000 0.0000 0.0000 19.7245 0.0000 -2.6557
# 5 -2.0173 -3.6872 12.1424 0.0000 29.6260 0.0000
# 6 0.0000 0.0000 0.0000 -2.6557 0.0000 32.9212
#
#
#
# Elastic Compliance Matrix: (Units=1/GPa)
#
#
# Indices 1 2 3 4 5 6 
#
# 1 0.015063 -0.009493 -0.006154 0.000000 0.002366 0.000000
# 2 -0.009493 0.032511 -0.007100 0.000000 0.006310 0.000000
# 3 -0.006154 -0.007100 0.017810 0.000000 -0.008602 0.000000
# 4 0.000000 0.000000 0.000000 0.051255 0.000000 0.004135
# 5 0.002366 0.006310 -0.008602 0.000000 0.038226 0.000000
# 6 0.000000 0.000000 0.000000 0.004135 0.000000 0.030709
#
#
# Mechanical properties :
#
#
# Convention : Reuss Voigt Hill
#
# Bulk Modulus (GPa) = 50.27464 63.50316 56.88890
# Shear Modulus (GPa) = 21.03502 24.92457 22.97979
#
# Velocity S-wave (km/s) = 3.37166 3.67016 3.52407
# Velocity P-wave (km/s) = 6.50597 7.23045 6.87776
#
# Compressibility (1/GPa) = 0.01989075
#
# Stress axis : x y z
#
# Youngs Moduli (GPa) = 66.38630 30.75897 56.14762
#
# Poissons Ratio (x) = 0.29200 0.34552
# Poissons Ratio (y) = 0.63023 0.39863
# Poissons Ratio (z) = 0.40853 0.21838
#
# Static dielectric constant tensor:
#      x y z
#    x 3.483960 0.000000 0.088580 
#    y 0.000000 3.229980 0.000000 
#    z 0.088580 0.000000 3.567860 
# 
# 
# High freq. dielectric constant tensor:
#      x y z
#    x 1.723080 0.000000 -0.001760 
#    y 0.000000 1.698420 0.000000 
#    z -0.001760 0.000000 1.727000 
# 
# From -- ./inp_files/238622.got.cif
#   From: 2010.06.25/outbox.cif.g09.slc.cpg/sg12_120_cif.got.tgz:238622.got - 2010.06.28 00:19:55.
