data_PCOD8097640
_publ_section_title
;
Structure prediction by ZEFSAII (Michael W. Deem and Ramdas Pophale) SiO2 
 PCOD8097640
Probable space group: C 2/M
;
_chemical_formula_sum "Si O2"
_cell_formula_units_Z 56
_cell_length_a 17.923419
_cell_length_b 8.948822
_cell_length_c 22.638669
_cell_angle_alpha 90.000000
_cell_angle_beta 126.725320
_cell_angle_gamma 90.000000
_cell_volume 2910.364309
_symmetry_space_group_name_H-M "C 2/M"
_symmetry_group_IT_number 12
_symmetry_cell_setting 'monoclinic'
loop_
_space_group_symop_operation_xyz
x,y,z
-x,y,-z
-x,-y,-z
x,-y,z
1/2+x,1/2+y,z
1/2-x,1/2+y,-z
1/2-x,1/2-y,-z
1/2+x,1/2-y,z
loop_
_atom_site_type_symbol
_atom_site_label
_atom_site_fract_x
_atom_site_fract_y
_atom_site_fract_z
Si Si1 0.473434 0.177034 0.855451
Si Si2 0.668104 0.822843 0.997895
Si Si3 0.595692 0.177544 0.572015
Si Si4 0.236344 0.176835 0.430583
Si Si5 0.694686 0.176841 0.144798
Si Si6 0.442160 0.173989 0.707038
Si Si7 0.875286 0.325922 0.281998
O O1 0.570465 0.239561 0.926668
O O2 0.388080 0.241731 0.853501
O O3 0.462037 0.228883 0.782719
O O4 0.474651 0.000000 0.860918
O O5 0.674994 0.000000 0.994486
O O6 0.750000 0.750000 0.000000
O O7 0.675570 0.771579 0.069099
O O8 0.500000 0.243731 0.500000
O O9 0.680919 0.233682 0.572497
O O10 0.609889 0.237900 0.645065
O O11 0.589984 0.000000 0.570450
O O12 0.250000 0.250000 0.500000
O O13 0.139761 0.226198 0.357022
O O14 0.238667 0.000000 0.438955
O O15 0.792103 0.240499 0.211794
O O16 0.699003 0.000000 0.151811
O O17 0.532321 0.206010 0.710962
O O18 0.413718 0.000000 0.691274
O O19 0.850385 0.500000 0.271339
#
# Coordination Sequence:
#
# PCOD8097640 Si02
#       7
#     8   8   8   8   8   8   8
#     4   9  18  34  55  78 106 141 178 215 261 317
#     4  10  20  35  55  78 105 140 180 220 264 313
#     4   9  18  34  55  77 102 135 174 212 253 306
#     4  11  22  36  56  80 107 139 175 217 262 310
#     4  10  20  34  54  79 107 139 176 219 263 311
#     4  10  20  35  56  79 105 139 176 215 260 312
#     4  10  20  35  56  80 107 140 175 213 262 317
#
# _framework density 19.241576999999999
#
# number of rings (size 3 to 8) (size 9 to 14) (size 15 to 20)
#    0.000    2.143    0.000    3.429    0.000    6.286 
#    0.000    2.143    0.000    4.714    0.000    0.000 
#    0.000    0.000    0.000    0.000    0.000    0.000 
#
# Total GULP energy -347282.298917 kJ/mol
# GULP energy per Si atom -12402.939247 kJ/mol
# Density = 1.919778 g / cm^3
# Si number density = 19.241577 Si / 1000 Ang^3
#
#
#
# Elastic Constant Matrix: (Units=GPa)
#
#
# Indices 1 2 3 4 5 6 
#
# 1 161.6319 36.6022 86.0242 0.0000 -17.8295 0.0000
# 2 36.6022 25.7939 37.9262 0.0000 -3.3284 0.0000
# 3 86.0242 37.9262 186.5096 0.0000 -10.1817 0.0000
# 4 0.0000 0.0000 0.0000 30.8146 0.0000 1.6567
# 5 -17.8295 -3.3284 -10.1817 0.0000 42.1617 0.0000
# 6 0.0000 0.0000 0.0000 1.6567 0.0000 23.7982
#
#
#
# Elastic Compliance Matrix: (Units=1/GPa)
#
#
# Indices 1 2 3 4 5 6 
#
# 1 0.010162 -0.010539 -0.002386 0.000000 0.002889 0.000000
# 2 -0.010539 0.066351 -0.008703 0.000000 -0.001321 0.000000
# 3 -0.002386 -0.008703 0.008248 0.000000 0.000296 0.000000
# 4 0.000000 0.000000 0.000000 0.032574 0.000000 -0.002268
# 5 0.002889 -0.001321 0.000296 0.000000 0.024907 0.000000
# 6 0.000000 0.000000 0.000000 -0.002268 0.000000 0.042178
#
#
# Mechanical properties :
#
#
# Convention : Reuss Voigt Hill
#
# Bulk Modulus (GPa) = 24.09417 77.22672 50.66045
# Shear Modulus (GPa) = 20.70287 33.58042 27.14165
#
# Velocity S-wave (km/s) = 3.28372 4.18209 3.75983
# Velocity P-wave (km/s) = 5.18905 7.97134 6.72564
#
# Compressibility (1/GPa) = 0.04150381
#
# Stress axis : x y z
#
# Youngs Moduli (GPa) = 98.40316 15.07143 121.23725
#
# Poissons Ratio (x) = 0.15884 0.28932
# Poissons Ratio (y) = 1.03706 1.05518
# Poissons Ratio (z) = 0.23483 0.13117
#
# Static dielectric constant tensor:
#      x y z
#    x 3.752370 0.000000 -0.045300 
#    y 0.000000 3.159490 0.000000 
#    z -0.045300 0.000000 3.724840 
# 
# 
# High freq. dielectric constant tensor:
#      x y z
#    x 1.769940 0.000000 -0.002530 
#    y 0.000000 1.710380 0.000000 
#    z -0.002530 0.000000 1.769730 
# 
# From -- ./inp_files/275065.got.cif
#   From: 2010.06.25/outbox.cif.g09.slc.cpg/sg12_138_cif.got.tgz:275065.got - 2010.06.28 00:19:55.
