data_PCOD8097509
_publ_section_title
;
Structure prediction by ZEFSAII (Michael W. Deem and Ramdas Pophale) SiO2 
 PCOD8097509
Probable space group: C 2/M
;
_chemical_formula_sum "Si O2"
_cell_formula_units_Z 56
_cell_length_a 25.284525
_cell_length_b 10.361103
_cell_length_c 11.207415
_cell_angle_alpha 90.000000
_cell_angle_beta 107.056686
_cell_angle_gamma 90.000000
_cell_volume 2806.925999
_symmetry_space_group_name_H-M "C 2/M"
_symmetry_group_IT_number 12
_symmetry_cell_setting 'monoclinic'
loop_
_space_group_symop_operation_xyz
x,y,z
-x,y,-z
-x,-y,-z
x,-y,z
1/2+x,1/2+y,z
1/2-x,1/2+y,-z
1/2-x,1/2-y,-z
1/2+x,1/2-y,z
loop_
_atom_site_type_symbol
_atom_site_label
_atom_site_fract_x
_atom_site_fract_y
_atom_site_fract_z
Si Si1 0.564879 0.650482 0.774317
Si Si2 0.944898 0.147885 0.713807
Si Si3 0.263232 0.733233 0.314189
Si Si4 0.326807 0.353511 0.573772
Si Si5 0.182055 0.642626 0.080494
Si Si6 0.403528 0.355791 0.938016
Si Si7 0.156073 0.644099 0.796638
O O1 0.575934 0.500000 0.744637
O O2 0.503002 0.700959 0.698143
O O3 0.609281 0.746426 0.744347
O O4 0.566045 0.665696 0.917573
O O5 0.888676 0.210497 0.621321
O O6 0.946425 0.163925 0.858387
O O7 0.944788 0.000000 0.676265
O O8 0.304177 0.650293 0.424317
O O9 0.213078 0.781160 0.361671
O O10 0.240772 0.647770 0.188484
O O11 0.299165 0.848159 0.279810
O O12 0.330778 0.500000 0.620974
O O13 0.156261 0.500000 0.083958
O O14 0.144615 0.752449 0.114126
O O15 0.188087 0.667903 0.942952
O O16 0.377452 0.500000 0.915203
O O17 0.129857 0.500000 0.776257
#
# Coordination Sequence:
#
# PCOD8097509 Si02
#       7
#     8   8   8   8   8   8   8
#     4   9  18  32  55  83 110 141 181 227 275 323
#     4   9  16  31  54  80 109 139 182 230 273 320
#     4  11  21  36  56  77 110 150 185 224 271 328
#     4  10  21  35  56  83 107 140 186 232 273 319
#     4  10  20  34  53  82 116 146 180 225 273 326
#     4   9  16  29  52  81 111 143 180 224 273 325
#     4  10  22  38  57  81 113 148 183 222 275 334
#
# _framework density 19.950648999999999
#
# number of rings (size 3 to 8) (size 9 to 14) (size 15 to 20)
#    0.000    2.286    1.429    1.714    0.000    3.429 
#    0.000    4.286    0.000    6.857    0.000    0.000 
#    0.000    0.000    0.000    0.000    0.000    0.000 
#
# Total GULP energy -346901.503218 kJ/mol
# GULP energy per Si atom -12389.339401 kJ/mol
# Density = 1.990524 g / cm^3
# Si number density = 19.950649 Si / 1000 Ang^3
#
#
#
# Elastic Constant Matrix: (Units=GPa)
#
#
# Indices 1 2 3 4 5 6 
#
# 1 107.7603 44.0148 50.6352 0.0000 16.6556 0.0000
# 2 44.0148 90.2129 19.3719 0.0000 5.9689 0.0000
# 3 50.6352 19.3719 61.3056 0.0000 12.3764 0.0000
# 4 0.0000 0.0000 0.0000 13.1446 0.0000 3.6026
# 5 16.6556 5.9689 12.3764 0.0000 24.1539 0.0000
# 6 0.0000 0.0000 0.0000 3.6026 0.0000 21.1665
#
#
#
# Elastic Compliance Matrix: (Units=1/GPa)
#
#
# Indices 1 2 3 4 5 6 
#
# 1 0.018157 -0.005931 -0.012147 0.000000 -0.004830 0.000000
# 2 -0.005931 0.013857 0.000430 0.000000 0.000445 0.000000
# 3 -0.012147 0.000430 0.027371 0.000000 -0.005755 0.000000
# 4 0.000000 0.000000 0.000000 0.079800 0.000000 -0.013582
# 5 -0.004830 0.000445 -0.005755 0.000000 0.047571 0.000000
# 6 0.000000 0.000000 0.000000 -0.013582 0.000000 0.049556
#
#
# Mechanical properties :
#
#
# Convention : Reuss Voigt Hill
#
# Bulk Modulus (GPa) = 41.51427 54.14698 47.83062
# Shear Modulus (GPa) = 17.88042 21.37678 19.62860
#
# Velocity S-wave (km/s) = 2.99696 3.27690 3.14005
# Velocity P-wave (km/s) = 5.72969 6.44336 6.09697
#
# Compressibility (1/GPa) = 0.02408810
#
# Stress axis : x y z
#
# Youngs Moduli (GPa) = 55.07622 72.16755 36.53553
#
# Poissons Ratio (x) = 0.42799 0.44381
# Poissons Ratio (y) = 0.32663 -0.01571
# Poissons Ratio (z) = 0.66903 -0.03103
#
# Static dielectric constant tensor:
#      x y z
#    x 3.654350 0.000000 0.283260 
#    y 0.000000 3.428740 0.000000 
#    z 0.283260 0.000000 3.768490 
# 
# 
# High freq. dielectric constant tensor:
#      x y z
#    x 1.769130 0.000000 0.008810 
#    y 0.000000 1.750650 0.000000 
#    z 0.008810 0.000000 1.778140 
# 
# From -- ./inp_files/181066.got.cif
#   From: 2010.06.25/outbox.cif.g09.slc.cpg/sg12_91_cif.got.tgz:181066.got - 2010.06.28 00:19:55.
