data_PCOD8097331
_publ_section_title
;
Structure prediction by ZEFSAII (Michael W. Deem and Ramdas Pophale) SiO2 
 PCOD8097331
Probable space group: C 2/M
;
_chemical_formula_sum "Si O2"
_cell_formula_units_Z 64
_cell_length_a 8.736455
_cell_length_b 10.830747
_cell_length_c 33.297117
_cell_angle_alpha 90.000000
_cell_angle_beta 93.261637
_cell_angle_gamma 90.000000
_cell_volume 3145.547291
_symmetry_space_group_name_H-M "C 2/M"
_symmetry_group_IT_number 12
_symmetry_cell_setting 'monoclinic'
loop_
_space_group_symop_operation_xyz
x,y,z
-x,y,-z
-x,-y,-z
x,-y,z
1/2+x,1/2+y,z
1/2-x,1/2+y,-z
1/2-x,1/2-y,-z
1/2+x,1/2-y,z
loop_
_atom_site_type_symbol
_atom_site_label
_atom_site_fract_x
_atom_site_fract_y
_atom_site_fract_z
Si Si1 0.246213 0.859410 0.467389
Si Si2 0.984468 0.707914 0.224386
Si Si3 0.160968 0.139260 0.082889
Si Si4 0.303511 0.365929 0.826301
Si Si5 0.694374 0.860337 0.362008
Si Si6 0.230568 0.137061 0.723301
Si Si7 0.027309 0.360986 0.954026
Si Si8 0.467166 0.270242 0.414427
O O1 0.250000 0.750000 0.500000
O O2 0.390309 0.837925 0.440064
O O3 0.084338 0.851957 0.442043
O O4 0.260029 0.000000 0.485335
O O5 0.854375 0.628042 0.201019
O O6 0.904683 0.794811 0.255775
O O7 0.069206 0.778075 0.189945
O O8 0.111424 0.628315 0.249290
O O9 0.231235 0.167204 0.127940
O O10 0.292442 0.144011 0.051523
O O11 0.044157 0.249967 0.072679
O O12 0.086019 0.000000 0.080400
O O13 0.379071 0.500000 0.824802
O O14 0.739666 0.799720 0.319741
O O15 0.550057 0.788438 0.377448
O O16 0.834047 0.858178 0.395685
O O17 0.641970 0.000000 0.354034
O O18 0.168242 0.000000 0.715184
O O19 0.965028 0.500000 0.941819
O O20 0.000000 0.333389 0.000000
#
# Coordination Sequence:
#
# PCOD8097331 Si02
#       8
#     8   8   8   8   8   8   8   8
#     4  11  24  40  60  86 115 148 187 229 275 328
#     4  10  20  34  53  77 107 140 177 219 268 319
#     4  10  21  36  55  80 108 142 185 227 272 328
#     4  10  20  35  53  75 106 141 177 221 269 319
#     4  10  20  36  57  80 109 143 179 223 270 319
#     4  10  20  34  54  80 107 139 180 221 265 318
#     4  10  21  37  56  80 110 142 179 226 278 331
#     4  10  22  38  58  82 112 145 183 224 273 325
#
# _framework density 20.346219999999999
#
# number of rings (size 3 to 8) (size 9 to 14) (size 15 to 20)
#    0.000    1.875    0.000    3.750    0.000    4.750 
#    0.000    3.125    0.000   12.000    0.000    0.000 
#    0.000    0.000    0.000    0.000    0.000    0.000 
#
# Total GULP energy -396648.744458 kJ/mol
# GULP energy per Si atom -12395.273264 kJ/mol
# Density = 2.029991 g / cm^3
# Si number density = 20.346220 Si / 1000 Ang^3
#
#
#
# Elastic Constant Matrix: (Units=GPa)
#
#
# Indices 1 2 3 4 5 6 
#
# 1 65.2905 19.4438 11.4040 0.0000 -12.3315 0.0000
# 2 19.4438 110.2060 33.0140 0.0000 -2.1615 0.0000
# 3 11.4040 33.0140 90.9390 0.0000 -14.1945 0.0000
# 4 0.0000 0.0000 0.0000 26.5508 0.0000 1.3488
# 5 -12.3315 -2.1615 -14.1945 0.0000 31.1531 0.0000
# 6 0.0000 0.0000 0.0000 1.3488 0.0000 4.5771
#
#
#
# Elastic Compliance Matrix: (Units=1/GPa)
#
#
# Indices 1 2 3 4 5 6 
#
# 1 0.017462 -0.002924 -0.000087 0.000000 0.006669 0.000000
# 2 -0.002924 0.010703 -0.003858 0.000000 -0.002173 0.000000
# 3 -0.000087 -0.003858 0.013307 0.000000 0.005761 0.000000
# 4 0.000000 0.000000 0.000000 0.038236 0.000000 -0.011268
# 5 0.006669 -0.002173 0.005761 0.000000 0.037214 0.000000
# 6 0.000000 0.000000 0.000000 -0.011268 0.000000 0.221799
#
#
# Mechanical properties :
#
#
# Convention : Reuss Voigt Hill
#
# Bulk Modulus (GPa) = 36.05735 43.79547 39.92641
# Shear Modulus (GPa) = 13.82350 25.96112 19.89231
#
# Velocity S-wave (km/s) = 2.60938 3.57594 3.13020
# Velocity P-wave (km/s) = 5.18063 6.21463 5.72104
#
# Compressibility (1/GPa) = 0.02773360
#
# Stress axis : x y z
#
# Youngs Moduli (GPa) = 57.26781 93.43275 75.14769
#
# Poissons Ratio (x) = 0.27318 0.00656
# Poissons Ratio (y) = 0.16744 0.28992
# Poissons Ratio (z) = 0.00500 0.36046
#
# Static dielectric constant tensor:
#      x y z
#    x 3.605180 0.000000 -0.137690 
#    y 0.000000 3.595320 0.000000 
#    z -0.137690 0.000000 3.818570 
# 
# 
# High freq. dielectric constant tensor:
#      x y z
#    x 1.790660 0.000000 -0.012300 
#    y 0.000000 1.791240 0.000000 
#    z -0.012300 0.000000 1.806650 
# 
# From -- ./inp_files/372158.got.cif
#   From: 2010.06.25/outbox.cif.g09.slc.cpg/sg12_187_cif.got.tgz:372158.got - 2010.06.28 00:19:55.
