data_PCOD8097686
_publ_section_title
;
Structure prediction by ZEFSAII (Michael W. Deem and Ramdas Pophale) SiO2 
 PCOD8097686
Probable space group: C 2/M
;
_chemical_formula_sum "Si O2"
_cell_formula_units_Z 64
_cell_length_a 19.608758
_cell_length_b 9.326074
_cell_length_c 21.458877
_cell_angle_alpha 90.000000
_cell_angle_beta 61.971123
_cell_angle_gamma 90.000000
_cell_volume 3463.972279
_symmetry_space_group_name_H-M "C 2/M"
_symmetry_group_IT_number 12
_symmetry_cell_setting 'monoclinic'
loop_
_space_group_symop_operation_xyz
x,y,z
-x,y,-z
-x,-y,-z
x,-y,z
1/2+x,1/2+y,z
1/2-x,1/2+y,-z
1/2-x,1/2-y,-z
1/2+x,1/2-y,z
loop_
_atom_site_type_symbol
_atom_site_label
_atom_site_fract_x
_atom_site_fract_y
_atom_site_fract_z
Si Si1 0.972471 0.669890 0.696973
Si Si2 0.362614 0.166756 0.429411
Si Si3 0.725839 0.835481 0.846820
Si Si4 0.336587 0.664860 0.688492
Si Si5 0.950546 0.670790 0.079440
Si Si6 0.206221 0.832251 0.431130
Si Si7 0.289544 0.838440 0.929289
Si Si8 0.465138 0.838882 0.838470
O O1 0.956954 0.500000 0.703460
O O2 0.907339 0.741494 0.682648
O O3 0.968564 0.735338 0.768980
O O4 0.056007 0.711238 0.634827
O O5 0.294878 0.207173 0.409645
O O6 0.352471 0.252157 0.497836
O O7 0.360264 0.000000 0.447016
O O8 0.759783 0.817809 0.763199
O O9 0.637933 0.781394 0.888133
O O10 0.776348 0.734802 0.868784
O O11 0.731560 0.000000 0.867318
O O12 0.363763 0.500000 0.675745
O O13 0.312121 0.719386 0.630775
O O14 0.959270 0.500000 0.077726
O O15 0.982053 0.736505 0.131346
O O16 0.000000 0.732348 0.000000
O O17 0.191540 0.000000 0.445130
O O18 0.380002 0.839074 0.903779
O O19 0.256630 0.000000 0.942652
O O20 0.250000 0.750000 0.000000
O O21 0.495788 0.000000 0.814897
#
# Coordination Sequence:
#
# PCOD8097686 Si02
#       8
#     8   8   8   8   8   8   8   8
#     4  10  20  35  55  79 107 140 180 224 265 310
#     4   9  19  35  57  82 107 138 180 224 264 309
#     4  10  20  34  54  80 108 137 175 221 267 317
#     4  10  21  35  53  79 110 143 176 215 265 321
#     4   9  17  30  51  78 104 131 172 222 264 309
#     4   9  19  36  56  80 110 142 177 217 266 318
#     4  11  21  35  56  79 106 141 179 218 265 315
#     4   9  18  32  52  78 105 136 176 221 264 308
#
# _framework density 18.475898999999998
#
# number of rings (size 3 to 8) (size 9 to 14) (size 15 to 20)
#    0.000    2.375    1.250    1.125    1.750    3.500 
#    0.000    2.500    0.000    4.875    0.000    0.000 
#    0.000    0.000    0.000    0.000    0.000    0.000 
#
# Total GULP energy -396785.324417 kJ/mol
# GULP energy per Si atom -12399.541388 kJ/mol
# Density = 1.843385 g / cm^3
# Si number density = 18.475899 Si / 1000 Ang^3
#
#
#
# Elastic Constant Matrix: (Units=GPa)
#
#
# Indices 1 2 3 4 5 6 
#
# 1 100.1350 28.8021 52.9090 0.0000 5.8169 0.0000
# 2 28.8021 45.8644 34.7662 -0.0002 2.3931 -0.0003
# 3 52.9090 34.7662 127.9132 0.0001 6.0866 0.0000
# 4 0.0000 -0.0002 0.0001 26.2548 0.0000 -0.4308
# 5 5.8169 2.3931 6.0866 0.0000 40.1016 0.0000
# 6 0.0000 -0.0003 0.0000 -0.4308 0.0000 24.4105
#
#
#
# Elastic Compliance Matrix: (Units=1/GPa)
#
#
# Indices 1 2 3 4 5 6 
#
# 1 0.013829 -0.005456 -0.004188 0.000000 -0.001045 0.000000
# 2 -0.005456 0.029624 -0.005790 0.000000 -0.000098 0.000000
# 3 -0.004188 -0.005790 0.011159 0.000000 -0.000741 0.000000
# 4 0.000000 0.000000 0.000000 0.038099 0.000000 0.000672
# 5 -0.001045 -0.000098 -0.000741 0.000000 0.025206 0.000000
# 6 0.000000 0.000000 0.000000 0.000672 0.000000 0.040978
#
#
# Mechanical properties :
#
#
# Convention : Reuss Voigt Hill
#
# Bulk Modulus (GPa) = 42.11478 56.31857 49.21668
# Shear Modulus (GPa) = 25.29374 28.64906 26.97140
#
# Velocity S-wave (km/s) = 3.70403 3.94206 3.82490
# Velocity P-wave (km/s) = 6.41382 7.16018 6.79725
#
# Compressibility (1/GPa) = 0.02374463
#
# Stress axis : x y z
#
# Youngs Moduli (GPa) = 72.31146 33.75676 89.61407
#
# Poissons Ratio (x) = 0.18416 0.37527
# Poissons Ratio (y) = 0.39450 0.51889
# Poissons Ratio (z) = 0.30281 0.19546
#
# Static dielectric constant tensor:
#      x y z
#    x 3.502390 0.000000 0.114240 
#    y 0.000000 3.257010 0.000000 
#    z 0.114240 0.000000 3.552430 
# 
# 
# High freq. dielectric constant tensor:
#      x y z
#    x 1.722720 0.000000 0.002620 
#    y 0.000000 1.682660 0.000000 
#    z 0.002620 0.000000 1.729280 
# 
# From -- ./inp_files/319813.got.cif
#   From: 2010.06.25/outbox.cif.g09.slc.cpg/sg12_160_cif.got.tgz:319813.got - 2010.06.28 00:19:55.
