data_PCOD8097838
_publ_section_title
;
Structure prediction by ZEFSAII (Michael W. Deem and Ramdas Pophale) SiO2 
 PCOD8097838
Probable space group: C 2/M
;
_chemical_formula_sum "Si O2"
_cell_formula_units_Z 56
_cell_length_a 14.385569
_cell_length_b 8.546666
_cell_length_c 25.542632
_cell_angle_alpha 90.000000
_cell_angle_beta 113.136451
_cell_angle_gamma 90.000000
_cell_volume 2887.852619
_symmetry_space_group_name_H-M "C 2/M"
_symmetry_group_IT_number 12
_symmetry_cell_setting 'monoclinic'
loop_
_space_group_symop_operation_xyz
x,y,z
-x,y,-z
-x,-y,-z
x,-y,z
1/2+x,1/2+y,z
1/2-x,1/2+y,-z
1/2-x,1/2-y,-z
1/2+x,1/2-y,z
loop_
_atom_site_type_symbol
_atom_site_label
_atom_site_fract_x
_atom_site_fract_y
_atom_site_fract_z
Si Si1 0.071031 0.317281 0.760133
Si Si2 0.727869 0.818168 0.438313
Si Si3 0.007590 0.683373 0.143731
Si Si4 0.522094 0.681193 0.362406
Si Si5 0.419699 0.180267 0.437820
Si Si6 0.272079 0.814763 0.843149
Si Si7 0.806569 0.817026 0.062010
O O1 0.060391 0.500000 0.745050
O O2 0.188954 0.271734 0.789207
O O3 0.012943 0.271666 0.800618
O O4 0.018798 0.215474 0.704106
O O5 0.750000 0.750000 0.500000
O O6 0.639525 0.723439 0.390563
O O7 0.825062 0.794613 0.423585
O O8 0.699135 0.000000 0.436501
O O9 0.000506 0.500000 0.133235
O O10 0.117749 0.745135 0.150650
O O11 0.922243 0.759478 0.088324
O O12 0.506168 0.500000 0.372799
O O13 0.464466 0.789826 0.390834
O O14 0.500000 0.224556 0.500000
O O15 0.386258 0.000000 0.435572
O O16 0.253826 0.764652 0.899254
O O17 0.260342 0.000000 0.832637
O O18 0.807753 0.000000 0.057106
O O19 0.750000 0.750000 0.000000
#
# Coordination Sequence:
#
# PCOD8097838 Si02
#       7
#     8   8   8   8   8   8   8
#     4  10  21  38  59  84 114 146 188 243 294 344
#     4  12  24  40  62  88 118 152 191 234 288 351
#     4   9  19  37  60  82 110 150 193 237 287 340
#     4  12  25  41  62  87 119 157 196 240 291 352
#     4  11  23  40  63  88 116 149 189 238 289 347
#     4   9  19  37  59  82 111 151 195 238 289 346
#     4  10  20  34  54  82 118 154 192 238 285 340
#
# _framework density 19.391570999999999
#
# number of rings (size 3 to 8) (size 9 to 14) (size 15 to 20)
#    0.000    1.571    1.429    3.857    0.000    4.000 
#    0.000    7.143    0.000    0.000    0.000    0.000 
#    0.000    0.000    0.000    0.000    0.000    0.000 
#
# Total GULP energy -347339.966505 kJ/mol
# GULP energy per Si atom -12404.998804 kJ/mol
# Density = 1.934743 g / cm^3
# Si number density = 19.391571 Si / 1000 Ang^3
#
#
#
# Elastic Constant Matrix: (Units=GPa)
#
#
# Indices 1 2 3 4 5 6 
#
# 1 141.6979 25.0493 57.2928 0.0000 15.4662 0.0000
# 2 25.0493 60.5402 37.9019 0.0000 7.6427 0.0000
# 3 57.2928 37.9019 140.3487 0.0000 16.8261 0.0000
# 4 0.0000 0.0000 0.0000 34.0772 0.0000 2.1956
# 5 15.4662 7.6427 16.8261 0.0000 23.3060 0.0000
# 6 0.0000 0.0000 0.0000 2.1956 0.0000 30.8236
#
#
#
# Elastic Compliance Matrix: (Units=1/GPa)
#
#
# Indices 1 2 3 4 5 6 
#
# 1 0.008815 -0.001472 -0.002800 0.000000 -0.003346 0.000000
# 2 -0.001472 0.020305 -0.004599 0.000000 -0.002361 0.000000
# 3 -0.002800 -0.004599 0.009969 0.000000 -0.003831 0.000000
# 4 0.000000 0.000000 0.000000 0.029480 0.000000 -0.002100
# 5 -0.003346 -0.002361 -0.003831 0.000000 0.048668 0.000000
# 6 0.000000 0.000000 0.000000 -0.002100 0.000000 0.032592
#
#
# Mechanical properties :
#
#
# Convention : Reuss Voigt Hill
#
# Bulk Modulus (GPa) = 46.84628 64.78608 55.81618
# Shear Modulus (GPa) = 28.62263 32.46421 30.54342
#
# Velocity S-wave (km/s) = 3.84609 4.09606 3.97304
# Velocity P-wave (km/s) = 6.62825 7.47344 7.06350
#
# Compressibility (1/GPa) = 0.02134641
#
# Stress axis : x y z
#
# Youngs Moduli (GPa) = 113.44746 49.24998 100.30677
#
# Poissons Ratio (x) = 0.07250 0.28083
# Poissons Ratio (y) = 0.16700 0.46135
# Poissons Ratio (z) = 0.31762 0.22652
#
# Static dielectric constant tensor:
#      x y z
#    x 3.742360 0.000000 0.073430 
#    y 0.000000 3.029490 0.000000 
#    z 0.073430 0.000000 3.619810 
# 
# 
# High freq. dielectric constant tensor:
#      x y z
#    x 1.761760 0.000000 0.004740 
#    y 0.000000 1.761020 0.000000 
#    z 0.004740 0.000000 1.754200 
# 
# From -- ./inp_files/339013.got.cif
#   From: 2010.06.25/outbox.cif.g09.slc.cpg/sg12_170_cif.got.tgz:339013.got - 2010.06.28 00:19:55.
