data_PCOD8097765
_publ_section_title
;
Structure prediction by ZEFSAII (Michael W. Deem and Ramdas Pophale) SiO2 
 PCOD8097765
Probable space group: C 2/M
;
_chemical_formula_sum "Si O2"
_cell_formula_units_Z 56
_cell_length_a 25.023777
_cell_length_b 8.796435
_cell_length_c 14.844657
_cell_angle_alpha 90.000000
_cell_angle_beta 74.895446
_cell_angle_gamma 90.000000
_cell_volume 3154.716795
_symmetry_space_group_name_H-M "C 2/M"
_symmetry_group_IT_number 12
_symmetry_cell_setting 'monoclinic'
loop_
_space_group_symop_operation_xyz
x,y,z
-x,y,-z
-x,-y,-z
x,-y,z
1/2+x,1/2+y,z
1/2-x,1/2+y,-z
1/2-x,1/2-y,-z
1/2+x,1/2-y,z
loop_
_atom_site_type_symbol
_atom_site_label
_atom_site_fract_x
_atom_site_fract_y
_atom_site_fract_z
Si Si1 0.169671 0.823343 0.091013
Si Si2 0.618559 0.323349 0.592834
Si Si3 0.684571 0.320178 0.390214
Si Si4 0.297447 0.322279 0.288574
Si Si5 0.493193 0.822778 0.402470
Si Si6 0.207392 0.676955 0.899431
Si Si7 0.110705 0.677404 0.271893
O O1 0.228128 0.788890 0.112929
O O2 0.123001 0.727847 0.164256
O O3 0.154453 0.000000 0.099881
O O4 0.170502 0.767277 0.987838
O O5 0.609480 0.500000 0.581915
O O6 0.652884 0.259711 0.492531
O O7 0.650599 0.287617 0.670521
O O8 0.558757 0.247779 0.625906
O O9 0.694923 0.500000 0.386767
O O10 0.743151 0.236761 0.362859
O O11 0.649351 0.277781 0.318481
O O12 0.290536 0.500000 0.271203
O O13 0.309130 0.233677 0.191588
O O14 0.500000 0.753148 0.500000
O O15 0.547067 0.785117 0.320153
O O16 0.481994 0.000000 0.415795
O O17 0.194169 0.500000 0.914938
O O18 0.123883 0.500000 0.280622
#
# Coordination Sequence:
#
# PCOD8097765 Si02
#       7
#     8   8   8   8   8   8   8
#     4  10  20  34  54  81 111 142 179 220 271 326
#     4  10  23  38  54  78 109 148 189 226 269 321
#     4  11  21  34  52  79 111 146 185 222 268 322
#     4  11  22  36  54  79 112 148 183 222 272 325
#     4  10  21  37  56  80 107 143 187 228 272 318
#     4  10  20  34  54  81 111 142 179 219 270 327
#     4  11  21  34  55  81 112 144 179 225 274 320
#
# _framework density 17.751197999999999
#
# number of rings (size 3 to 8) (size 9 to 14) (size 15 to 20)
#    0.000    1.571    2.857    2.571    0.000    4.286 
#    0.000    0.000    0.000    0.857    0.000    6.000 
#    0.000    0.000    0.000    0.000    0.000    0.000 
#
# Total GULP energy -347346.582340 kJ/mol
# GULP energy per Si atom -12405.235084 kJ/mol
# Density = 1.771080 g / cm^3
# Si number density = 17.751198 Si / 1000 Ang^3
#
#
#
# Elastic Constant Matrix: (Units=GPa)
#
#
# Indices 1 2 3 4 5 6 
#
# 1 98.4620 36.7373 40.7425 0.0000 -4.0098 0.0000
# 2 36.7373 46.3333 27.8313 0.0000 -3.9668 0.0000
# 3 40.7425 27.8313 104.0179 0.0000 -19.3281 0.0000
# 4 0.0000 0.0000 0.0000 32.1315 0.0000 -1.9186
# 5 -4.0098 -3.9668 -19.3281 0.0000 19.8188 0.0000
# 6 0.0000 0.0000 0.0000 -1.9186 0.0000 28.9291
#
#
#
# Elastic Compliance Matrix: (Units=1/GPa)
#
#
# Indices 1 2 3 4 5 6 
#
# 1 0.015416 -0.010161 -0.003808 0.000000 -0.002628 0.000000
# 2 -0.010161 0.032472 -0.004742 0.000000 -0.000181 0.000000
# 3 -0.003808 -0.004742 0.014722 0.000000 0.012638 0.000000
# 4 0.000000 0.000000 0.000000 0.031246 0.000000 0.002072
# 5 -0.002628 -0.000181 0.012638 0.000000 0.062215 0.000000
# 6 0.000000 0.000000 0.000000 0.002072 0.000000 0.034705
#
#
# Mechanical properties :
#
#
# Convention : Reuss Voigt Hill
#
# Bulk Modulus (GPa) = 39.70030 51.04836 45.37433
# Shear Modulus (GPa) = 21.13326 25.74268 23.43797
#
# Velocity S-wave (km/s) = 3.45414 3.81227 3.63762
# Velocity P-wave (km/s) = 6.19044 6.94248 6.57722
#
# Compressibility (1/GPa) = 0.02518873
#
# Stress axis : x y z
#
# Youngs Moduli (GPa) = 64.86769 30.79562 67.92344
#
# Poissons Ratio (x) = 0.31291 0.25865
# Poissons Ratio (y) = 0.65911 0.32210
# Poissons Ratio (z) = 0.24701 0.14604
#
# Static dielectric constant tensor:
#      x y z
#    x 3.196160 0.000000 -0.142330 
#    y 0.000000 3.311140 0.000000 
#    z -0.142330 0.000000 3.365560 
# 
# 
# High freq. dielectric constant tensor:
#      x y z
#    x 1.664870 0.000000 -0.009340 
#    y 0.000000 1.696790 0.000000 
#    z -0.009340 0.000000 1.690950 
# 
# From -- ./inp_files/230867.got.cif
#   From: 2010.06.25/outbox.cif.g09.slc.cpg/sg12_116_cif.got.tgz:230867.got - 2010.06.28 00:19:55.
