data_PCOD8097414
_publ_section_title
;
Structure prediction by ZEFSAII (Michael W. Deem and Ramdas Pophale) SiO2 
 PCOD8097414
Probable space group: C 2/M
;
_chemical_formula_sum "Si O2"
_cell_formula_units_Z 64
_cell_length_a 17.766907
_cell_length_b 13.877074
_cell_length_c 15.068445
_cell_angle_alpha 90.000000
_cell_angle_beta 60.025518
_cell_angle_gamma 90.000000
_cell_volume 3218.254741
_symmetry_space_group_name_H-M "C 2/M"
_symmetry_group_IT_number 12
_symmetry_cell_setting 'monoclinic'
loop_
_space_group_symop_operation_xyz
x,y,z
-x,y,-z
-x,-y,-z
x,-y,z
1/2+x,1/2+y,z
1/2-x,1/2+y,-z
1/2-x,1/2-y,-z
1/2+x,1/2-y,z
loop_
_atom_site_type_symbol
_atom_site_label
_atom_site_fract_x
_atom_site_fract_y
_atom_site_fract_z
Si Si1 0.387609 0.394240 0.932407
Si Si2 0.466609 0.105011 0.619013
Si Si3 0.771859 0.611986 0.088926
Si Si4 0.582707 0.695922 0.387373
Si Si5 0.017361 0.896179 0.702741
Si Si6 0.760393 0.385373 0.296291
Si Si7 0.553989 0.798802 0.052190
Si Si8 0.573666 0.804790 0.706528
O O1 0.365789 0.500000 0.988707
O O2 0.307223 0.348989 0.924230
O O3 0.472146 0.408071 0.823358
O O4 0.413164 0.310986 0.987454
O O5 0.500000 0.095516 0.500000
O O6 0.399346 0.195297 0.661409
O O7 0.545141 0.128655 0.640913
O O8 0.425660 0.000000 0.669686
O O9 0.756424 0.500000 0.106951
O O10 0.771393 0.654425 0.189251
O O11 0.862320 0.633492 0.987052
O O12 0.500000 0.699432 0.500000
O O13 0.560210 0.623496 0.321107
O O14 0.667680 0.654407 0.386540
O O15 0.084104 0.806229 0.666285
O O16 0.062899 0.000000 0.652976
O O17 0.765504 0.500000 0.300395
O O18 0.833936 0.339983 0.314296
O O19 0.499075 0.810593 0.174053
O O20 0.500000 0.835841 0.000000
#
# Coordination Sequence:
#
# PCOD8097414 Si02
#       8
#     8   8   8   8   8   8   8   8
#     4   9  18  34  54  75 105 153 195 224 271 330
#     4   9  19  39  63  84 111 149 187 225 277 341
#     4  10  20  34  53  78 110 149 189 229 277 329
#     4  10  20  35  59  87 108 136 185 236 281 335
#     4   9  17  33  55  78 109 147 186 231 282 331
#     4  11  21  35  56  82 115 148 182 232 290 339
#     4  11  21  34  54  82 117 148 185 235 276 322
#     4  10  21  36  57  84 114 152 192 229 281 341
#
# _framework density 19.886555000000001
#
# number of rings (size 3 to 8) (size 9 to 14) (size 15 to 20)
#    0.000    2.125    2.500    1.125    0.000    2.500 
#    0.000    6.250    0.000    3.000    0.000    0.000 
#    0.000    0.000    0.000    0.000    0.000    0.000 
#
# Total GULP energy -396505.426008 kJ/mol
# GULP energy per Si atom -12390.794563 kJ/mol
# Density = 1.984129 g / cm^3
# Si number density = 19.886555 Si / 1000 Ang^3
#
#
#
# Elastic Constant Matrix: (Units=GPa)
#
#
# Indices 1 2 3 4 5 6 
#
# 1 115.6272 43.9105 26.5904 0.0000 -8.9813 0.0000
# 2 43.9105 114.7475 17.9893 0.0000 -5.6549 0.0000
# 3 26.5904 17.9893 49.4287 0.0000 -0.8412 0.0000
# 4 0.0000 0.0000 0.0000 11.6732 0.0000 -8.9904
# 5 -8.9813 -5.6549 -0.8412 0.0000 24.8772 0.0000
# 6 0.0000 0.0000 0.0000 -8.9904 0.0000 14.2333
#
#
#
# Elastic Compliance Matrix: (Units=1/GPa)
#
#
# Indices 1 2 3 4 5 6 
#
# 1 0.011288 -0.003416 -0.004776 0.000000 0.003137 0.000000
# 2 -0.003416 0.010375 -0.001920 0.000000 0.001060 0.000000
# 3 -0.004776 -0.001920 0.023476 0.000000 -0.001367 0.000000
# 4 0.000000 0.000000 0.000000 0.166823 0.000000 0.105374
# 5 0.003137 0.001060 -0.001367 0.000000 0.041525 0.000000
# 6 0.000000 0.000000 0.000000 0.105374 0.000000 0.136817
#
#
# Mechanical properties :
#
#
# Convention : Reuss Voigt Hill
#
# Bulk Modulus (GPa) = 40.13673 50.75375 45.44524
# Shear Modulus (GPa) = 11.93793 22.91095 17.42444
#
# Velocity S-wave (km/s) = 2.45276 3.39792 2.96327
# Velocity P-wave (km/s) = 5.31489 6.40090 5.88301
#
# Compressibility (1/GPa) = 0.02491483
#
# Stress axis : x y z
#
# Youngs Moduli (GPa) = 88.59190 96.38223 42.59699
#
# Poissons Ratio (x) = 0.32926 0.20343
# Poissons Ratio (y) = 0.30265 0.08180
# Poissons Ratio (z) = 0.42308 0.18508
#
# Static dielectric constant tensor:
#      x y z
#    x 3.537700 0.000000 0.188800 
#    y 0.000000 4.267090 0.000000 
#    z 0.188800 0.000000 3.359550 
# 
# 
# High freq. dielectric constant tensor:
#      x y z
#    x 1.762170 0.000000 0.014650 
#    y 0.000000 1.791090 0.000000 
#    z 0.014650 0.000000 1.745010 
# 
# From -- ./inp_files/225239.got.cif
#   From: 2010.06.25/outbox.cif.g09.slc.cpg/sg12_113_cif.got.tgz:225239.got - 2010.06.28 00:19:55.
