data_PCOD8097402
_publ_section_title
;
Structure prediction by ZEFSAII (Michael W. Deem and Ramdas Pophale) SiO2 
 PCOD8097402
Probable space group: C 2/M
;
_chemical_formula_sum "Si O2"
_cell_formula_units_Z 56
_cell_length_a 19.434607
_cell_length_b 17.827467
_cell_length_c 17.424119
_cell_angle_alpha 90.000000
_cell_angle_beta 28.790435
_cell_angle_gamma 90.000000
_cell_volume 2907.430636
_symmetry_space_group_name_H-M "C 2/M"
_symmetry_group_IT_number 12
_symmetry_cell_setting 'monoclinic'
loop_
_space_group_symop_operation_xyz
x,y,z
-x,y,-z
-x,-y,-z
x,-y,z
1/2+x,1/2+y,z
1/2-x,1/2+y,-z
1/2-x,1/2-y,-z
1/2+x,1/2-y,z
loop_
_atom_site_type_symbol
_atom_site_label
_atom_site_fract_x
_atom_site_fract_y
_atom_site_fract_z
Si Si1 0.125908 0.586493 0.427381
Si Si2 0.844253 0.163947 0.122051
Si Si3 0.572803 0.412040 0.109822
Si Si4 0.245169 0.910674 0.547642
Si Si5 0.287307 0.584267 0.586971
Si Si6 0.122961 0.082425 0.229864
Si Si7 0.832236 0.812824 0.680386
O O1 0.088408 0.500000 0.472514
O O2 0.277927 0.596045 0.236554
O O3 0.140371 0.619578 0.500643
O O4 0.000000 0.625850 0.500000
O O5 0.739824 0.233242 0.238323
O O6 0.845832 0.138029 0.032427
O O7 0.000000 0.184159 0.000000
O O8 0.577332 0.500000 0.082912
O O9 0.411100 0.381565 0.274895
O O10 0.654732 0.397994 0.110121
O O11 0.286340 0.885500 0.420477
O O12 0.238177 0.000000 0.554926
O O13 0.233018 0.500000 0.661243
O O14 0.454647 0.580468 0.407908
O O15 0.254363 0.642083 0.687495
O O16 0.197433 0.141955 0.212436
O O17 0.185145 0.000000 0.188546
O O18 0.000000 0.802996 0.500000
#
# Coordination Sequence:
#
# PCOD8097402 Si02
#       7
#     8   8   8   8   8   8   8
#     4  10  20  34  54  78 104 133 173 226 272 303
#     4  12  23  34  51  72 109 150 183 203 245 313
#     4   9  17  31  54  81 102 131 177 219 256 304
#     4   8  14  28  52  80 103 124 163 220 267 305
#     4   8  14  28  55  83 102 127 170 221 268 310
#     4   8  15  30  56  84 104 126 169 225 270 307
#     4  10  20  34  53  78 110 136 172 216 263 304
#
# _framework density 19.260992999999999
#
# number of rings (size 3 to 8) (size 9 to 14) (size 15 to 20)
#    0.000    2.714    1.429    3.000    0.000    2.857 
#    0.000    0.714    6.286    1.714    0.000    0.000 
#    0.000    0.000    0.000    0.000    0.000    0.000 
#
# Total GULP energy -346949.316128 kJ/mol
# GULP energy per Si atom -12391.047005 kJ/mol
# Density = 1.921715 g / cm^3
# Si number density = 19.260993 Si / 1000 Ang^3
#
#
#
# Elastic Constant Matrix: (Units=GPa)
#
#
# Indices 1 2 3 4 5 6 
#
# 1 157.5420 42.0400 45.9668 -0.0068 25.2291 0.0015
# 2 42.0400 54.2635 33.1462 -0.0029 15.4313 0.0026
# 3 45.9668 33.1462 49.9000 -0.0020 13.7135 0.0003
# 4 -0.0068 -0.0029 -0.0020 24.1730 0.0018 5.4500
# 5 25.2291 15.4313 13.7135 0.0018 31.7710 -0.0012
# 6 0.0015 0.0026 0.0003 5.4500 -0.0012 10.3021
#
#
#
# Elastic Compliance Matrix: (Units=1/GPa)
#
#
# Indices 1 2 3 4 5 6 
#
# 1 0.009337 -0.002625 -0.005867 0.000003 -0.003608 -0.000002
# 2 -0.002625 0.033185 -0.017891 0.000005 -0.006312 -0.000011
# 3 -0.005867 -0.017891 0.038190 -0.000001 -0.003136 0.000005
# 4 0.000003 0.000005 -0.000001 0.046971 -0.000007 -0.024849
# 5 -0.003608 -0.006312 -0.003136 -0.000007 0.038759 0.000010
# 6 -0.000002 -0.000011 0.000005 -0.024849 0.000010 0.110213
#
#
# Mechanical properties :
#
#
# Convention : Reuss Voigt Hill
#
# Bulk Modulus (GPa) = 35.78015 56.00126 45.89071
# Shear Modulus (GPa) = 14.76070 22.61938 18.69004
#
# Velocity S-wave (km/s) = 2.77131 3.43061 3.11843
# Velocity P-wave (km/s) = 5.37187 6.69554 6.06990
#
# Compressibility (1/GPa) = 0.02794846
#
# Stress axis : x y z
#
# Youngs Moduli (GPa) = 107.09707 30.13364 26.18460
#
# Poissons Ratio (x) = 0.07909 0.15361
# Poissons Ratio (y) = 0.28108 0.46848
# Poissons Ratio (z) = 0.62829 0.53913
#
# Static dielectric constant tensor:
#      x y z
#    x 4.128580 -0.000010 0.286200 
#    y -0.000010 3.289710 0.000010 
#    z 0.286200 0.000010 3.162210 
# 
# 
# High freq. dielectric constant tensor:
#      x y z
#    x 1.765050 0.000000 0.024570 
#    y 0.000000 1.725280 0.000000 
#    z 0.024570 0.000000 1.706510 
# 
# From -- ./inp_files/284977.got.cif
#   From: 2010.06.25/outbox.cif.g09.slc.cpg/sg12_143_cif.got.tgz:284977.got - 2010.06.28 00:19:55.
