data_PCOD8097795
_publ_section_title
;
Structure prediction by ZEFSAII (Michael W. Deem and Ramdas Pophale) SiO2 
 PCOD8097795
Probable space group: C 2/M
;
_chemical_formula_sum "Si O2"
_cell_formula_units_Z 40
_cell_length_a 17.520156
_cell_length_b 25.398901
_cell_length_c 8.512290
_cell_angle_alpha 90.000000
_cell_angle_beta 144.998841
_cell_angle_gamma 90.000000
_cell_volume 2172.716950
_symmetry_space_group_name_H-M "C 2/M"
_symmetry_group_IT_number 12
_symmetry_cell_setting 'monoclinic'
loop_
_space_group_symop_operation_xyz
x,y,z
-x,y,-z
-x,-y,-z
x,-y,z
1/2+x,1/2+y,z
1/2-x,1/2+y,-z
1/2-x,1/2-y,-z
1/2+x,1/2-y,z
loop_
_atom_site_type_symbol
_atom_site_label
_atom_site_fract_x
_atom_site_fract_y
_atom_site_fract_z
Si Si1 0.351467 0.560612 0.312063
Si Si2 0.644897 0.126788 0.785191
Si Si3 0.118662 0.850085 0.412973
Si Si4 0.283759 0.219201 0.900750
Si Si5 0.171172 0.175500 0.158901
O O1 0.500000 0.570349 0.500000
O O2 0.324370 0.500000 0.304521
O O3 0.333973 0.593141 0.443685
O O4 0.243078 0.579833 0.001757
O O5 0.500000 0.103359 0.500000
O O6 0.704456 0.155260 0.731693
O O7 0.624908 0.169646 0.892709
O O8 0.151912 0.804829 0.596692
O O9 0.197063 0.838183 0.384200
O O10 0.961354 0.852803 0.124271
O O11 0.351047 0.261075 0.895607
O O12 0.250000 0.250000 0.000000
#
# Coordination Sequence:
#
# PCOD8097795 Si02
#       5
#     8   8   8   8   8
#     4  10  20  39  62  81 107 147 194 240 282 330
#     4  10  21  36  56  83 113 147 188 230 275 340
#     4  10  20  36  55  82 112 145 190 238 274 338
#     4   9  20  31  53  76 111 154 185 219 269 337
#     4  10  20  34  54  81 117 146 183 230 284 329
#
# _framework density 18.410129999999999
#
# number of rings (size 3 to 8) (size 9 to 14) (size 15 to 20)
#    0.000    2.200    2.000    0.600    5.600    0.400 
#    0.000    6.000    0.000    1.200    0.000    0.000 
#    0.000    0.000    0.000    0.000    0.000    0.000 
#
# Total GULP energy -247895.119708 kJ/mol
# GULP energy per Si atom -12394.755985 kJ/mol
# Density = 1.836823 g / cm^3
# Si number density = 18.410130 Si / 1000 Ang^3
#
#
#
# Elastic Constant Matrix: (Units=GPa)
#
#
# Indices 1 2 3 4 5 6 
#
# 1 92.2801 48.6105 42.3195 0.0000 -13.7143 0.0000
# 2 48.6105 129.2339 49.5066 0.0000 -13.8660 0.0000
# 3 42.3195 49.5066 123.1015 0.0000 -3.3680 0.0000
# 4 0.0000 0.0000 0.0000 20.7576 0.0000 0.7314
# 5 -13.7143 -13.8660 -3.3680 0.0000 30.8010 0.0000
# 6 0.0000 0.0000 0.0000 0.7314 0.0000 22.6284
#
#
#
# Elastic Compliance Matrix: (Units=1/GPa)
#
#
# Indices 1 2 3 4 5 6 
#
# 1 0.015181 -0.003856 -0.003541 0.000000 0.004636 0.000000
# 2 -0.003856 0.010574 -0.002852 0.000000 0.002731 0.000000
# 3 -0.003541 -0.002852 0.010441 0.000000 -0.001719 0.000000
# 4 0.000000 0.000000 0.000000 0.048230 0.000000 -0.001559
# 5 0.004636 0.002731 -0.001719 0.000000 0.035572 0.000000
# 6 0.000000 0.000000 0.000000 -0.001559 0.000000 0.044243
#
#
# Mechanical properties :
#
#
# Convention : Reuss Voigt Hill
#
# Bulk Modulus (GPa) = 63.70754 69.49874 66.60314
# Shear Modulus (GPa) = 26.31969 28.44932 27.38450
#
# Velocity S-wave (km/s) = 3.78515 3.93531 3.86096
# Velocity P-wave (km/s) = 7.33368 7.64729 7.49213
#
# Compressibility (1/GPa) = 0.01569673
#
# Stress axis : x y z
#
# Youngs Moduli (GPa) = 65.87217 94.57147 95.77893
#
# Poissons Ratio (x) = 0.36469 0.33917
# Poissons Ratio (y) = 0.25402 0.27317
# Poissons Ratio (z) = 0.23327 0.26972
#
# Static dielectric constant tensor:
#      x y z
#    x 3.308540 0.000000 -0.256390 
#    y 0.000000 3.448660 0.000000 
#    z -0.256390 0.000000 3.389470 
# 
# 
# High freq. dielectric constant tensor:
#      x y z
#    x 1.693290 0.000000 -0.018450 
#    y 0.000000 1.703700 0.000000 
#    z -0.018450 0.000000 1.717130 
# 
# From -- ./inp_files/39433.got.cif
#   From: 2010.06.25/outbox.cif.g09.slc.cpg/sg12_20_cif.got.tgz:39433.got - 2010.06.28 00:19:55.
