data_PCOD8097385
_publ_section_title
;
Structure prediction by ZEFSAII (Michael W. Deem and Ramdas Pophale) SiO2 
 PCOD8097385
Probable space group: C 2/M
;
_chemical_formula_sum "Si O2"
_cell_formula_units_Z 64
_cell_length_a 17.766609
_cell_length_b 9.046301
_cell_length_c 27.180608
_cell_angle_alpha 90.000000
_cell_angle_beta 131.376983
_cell_angle_gamma 90.000000
_cell_volume 3278.038655
_symmetry_space_group_name_H-M "C 2/M"
_symmetry_group_IT_number 12
_symmetry_cell_setting 'monoclinic'
loop_
_space_group_symop_operation_xyz
x,y,z
-x,y,-z
-x,-y,-z
x,-y,z
1/2+x,1/2+y,z
1/2-x,1/2+y,-z
1/2-x,1/2-y,-z
1/2+x,1/2-y,z
loop_
_atom_site_type_symbol
_atom_site_label
_atom_site_fract_x
_atom_site_fract_y
_atom_site_fract_z
Si Si1 0.537157 0.828555 0.612681
Si Si2 0.207467 0.827308 0.625810
Si Si3 0.688935 0.828336 0.516000
Si Si4 0.461529 0.326467 0.876122
Si Si5 0.077566 0.672268 0.241490
Si Si6 0.219033 0.176084 0.135042
Si Si7 0.678822 0.673600 0.008184
Si Si8 0.567139 0.824617 0.736058
O O1 0.611803 0.730839 0.613270
O O2 0.428500 0.804200 0.543002
O O3 0.538953 0.769229 0.669385
O O4 0.570000 0.000000 0.623871
O O5 0.221521 0.742623 0.581101
O O6 0.305082 0.795529 0.700900
O O7 0.194887 0.000000 0.609003
O O8 0.750000 0.750000 0.500000
O O9 0.716928 0.000000 0.528397
O O10 0.449299 0.500000 0.863189
O O11 0.463095 0.253409 0.823707
O O12 0.370180 0.262393 0.869195
O O13 0.563730 0.286240 0.948050
O O14 0.055547 0.500000 0.225224
O O15 0.016414 0.734423 0.262107
O O16 0.205053 0.235143 0.073623
O O17 0.323869 0.237300 0.201556
O O18 0.215957 0.000000 0.133495
O O19 0.697925 0.500000 0.013044
O O20 0.750000 0.750000 0.000000
O O21 0.567940 0.000000 0.736966
#
# Coordination Sequence:
#
# PCOD8097385 Si02
#       8
#     8   8   8   8   8   8   8   8
#     4  10  21  38  59  83 111 145 187 231 276 330
#     4  11  23  38  57  83 115 149 187 232 280 332
#     4  11  23  39  60  85 115 151 189 232 281 333
#     4  10  20  34  54  80 107 138 181 230 273 321
#     4  10  21  37  56  80 111 145 180 223 278 334
#     4   9  17  31  53  78 104 138 178 219 266 319
#     4  10  20  34  53  78 108 141 179 224 272 325
#     4   9  17  32  55  78 103 140 182 221 266 326
#
# _framework density 19.523869999999999
#
# number of rings (size 3 to 8) (size 9 to 14) (size 15 to 20)
#    0.000    2.000    0.000    3.750    0.000    9.500 
#    0.000    1.250    0.000    6.000    0.000    0.000 
#    0.000    0.000    0.000    0.000    0.000    0.000 
#
# Total GULP energy -396915.918861 kJ/mol
# GULP energy per Si atom -12403.622464 kJ/mol
# Density = 1.947943 g / cm^3
# Si number density = 19.523870 Si / 1000 Ang^3
#
#
#
# Elastic Constant Matrix: (Units=GPa)
#
#
# Indices 1 2 3 4 5 6 
#
# 1 103.0712 28.4403 1.6861 0.0000 -3.6117 0.0000
# 2 28.4403 50.9110 29.1409 0.0000 3.0454 0.0000
# 3 1.6861 29.1409 67.0225 0.0000 -8.8228 0.0000
# 4 0.0000 0.0000 0.0000 24.5188 0.0000 -4.6820
# 5 -3.6117 3.0454 -8.8228 0.0000 41.6946 0.0000
# 6 0.0000 0.0000 0.0000 -4.6820 0.0000 34.6210
#
#
#
# Elastic Compliance Matrix: (Units=1/GPa)
#
#
# Indices 1 2 3 4 5 6 
#
# 1 0.012320 -0.009399 0.004122 0.000000 0.002626 0.000000
# 2 -0.009399 0.034145 -0.015476 0.000000 -0.006583 0.000000
# 3 0.004122 -0.015476 0.022364 0.000000 0.006220 0.000000
# 4 0.000000 0.000000 0.000000 0.041866 0.000000 0.005662
# 5 0.002626 -0.006583 0.006220 0.000000 0.026008 0.000000
# 6 0.000000 0.000000 0.000000 0.005662 0.000000 0.029650
#
#
# Mechanical properties :
#
#
# Convention : Reuss Voigt Hill
#
# Bulk Modulus (GPa) = 36.59811 37.72658 37.16235
# Shear Modulus (GPa) = 23.04498 30.94938 26.99718
#
# Velocity S-wave (km/s) = 3.43935 3.98579 3.72261
# Velocity P-wave (km/s) = 5.87862 6.36767 6.12803
#
# Compressibility (1/GPa) = 0.02732381
#
# Stress axis : x y z
#
# Youngs Moduli (GPa) = 81.16836 29.28702 44.71405
#
# Poissons Ratio (x) = 0.27527 -0.18433
# Poissons Ratio (y) = 0.76290 0.69200
# Poissons Ratio (z) = -0.33461 0.45325
#
# Static dielectric constant tensor:
#      x y z
#    x 3.568770 0.000000 0.168820 
#    y 0.000000 3.192780 0.000000 
#    z 0.168820 0.000000 3.634300 
# 
# 
# High freq. dielectric constant tensor:
#      x y z
#    x 1.778550 0.000000 -0.000590 
#    y 0.000000 1.728190 0.000000 
#    z -0.000590 0.000000 1.778140 
# 
# From -- ./inp_files/378307.got.cif
#   From: 2010.06.25/outbox.cif.g09.slc.cpg/sg12_190_cif.got.tgz:378307.got - 2010.06.28 00:19:55.
