data_PCOD8097074
_publ_section_title
;
Structure prediction by ZEFSAII (Michael W. Deem and Ramdas Pophale) SiO2 
 PCOD8097074
Probable space group: C 2/M
;
_chemical_formula_sum "Si O2"
_cell_formula_units_Z 48
_cell_length_a 18.841875
_cell_length_b 8.784378
_cell_length_c 15.500927
_cell_angle_alpha 90.000000
_cell_angle_beta 90.153423
_cell_angle_gamma 90.000000
_cell_volume 2565.613593
_symmetry_space_group_name_H-M "C 2/M"
_symmetry_group_IT_number 12
_symmetry_cell_setting 'monoclinic'
loop_
_space_group_symop_operation_xyz
x,y,z
-x,y,-z
-x,-y,-z
x,-y,z
1/2+x,1/2+y,z
1/2-x,1/2+y,-z
1/2-x,1/2-y,-z
1/2+x,1/2-y,z
loop_
_atom_site_type_symbol
_atom_site_label
_atom_site_fract_x
_atom_site_fract_y
_atom_site_fract_z
Si Si1 0.707813 0.819473 0.078267
Si Si2 0.793769 0.679455 0.422622
Si Si3 0.796662 0.179313 0.742889
Si Si4 0.545656 0.818994 0.580285
Si Si5 0.448810 0.820331 0.734784
Si Si6 0.951835 0.320929 0.925666
O O1 0.734105 0.755745 0.170304
O O2 0.627792 0.761574 0.064230
O O3 0.714987 0.000000 0.078989
O O4 0.750000 0.750000 0.000000
O O5 0.794439 0.500000 0.435848
O O6 0.750000 0.750000 0.500000
O O7 0.757746 0.725036 0.332475
O O8 0.874208 0.745063 0.423316
O O9 0.874141 0.239404 0.716856
O O10 0.800445 0.000000 0.756951
O O11 0.500000 0.755512 0.500000
O O12 0.507235 0.762044 0.667293
O O13 0.547743 0.000000 0.578655
O O14 0.479202 0.778791 0.829832
O O15 0.434408 0.000000 0.726622
O O16 0.952869 0.500000 0.939057
O O17 0.000000 0.242572 0.000000
#
# Coordination Sequence:
#
# PCOD8097074 Si02
#       6
#     8   8   8   8   8   8
#     4  10  20  34  54  78 104 136 172 211 255 302
#     4  10  21  35  53  78 104 134 172 212 256 304
#     4  10  20  34  52  75 105 137 169 208 254 307
#     4   9  17  30  50  74  97 125 166 212 252 295
#     4   9  17  31  52  73  95 128 168 209 252 298
#     4   8  15  28  48  73  96 123 163 207 248 290
#
# _framework density 18.708974999999999
#
# number of rings (size 3 to 8) (size 9 to 14) (size 15 to 20)
#    0.000    2.667    0.000    3.000    0.000    4.000 
#    0.000    5.833    0.000   19.500    0.000    0.000 
#    0.000    0.000    0.000    0.000    0.000    0.000 
#
# Total GULP energy -297541.652866 kJ/mol
# GULP energy per Si atom -12397.568869 kJ/mol
# Density = 1.866639 g / cm^3
# Si number density = 18.708975 Si / 1000 Ang^3
#
#
#
# Elastic Constant Matrix: (Units=GPa)
#
#
# Indices 1 2 3 4 5 6 
#
# 1 125.6729 24.7508 103.7643 0.0000 -2.1834 0.0000
# 2 24.7508 43.3660 39.7515 0.0000 0.7819 0.0000
# 3 103.7643 39.7515 191.3136 0.0000 -6.2759 0.0000
# 4 0.0000 0.0000 0.0000 26.8456 0.0000 -3.3988
# 5 -2.1834 0.7819 -6.2759 0.0000 43.9323 0.0000
# 6 0.0000 0.0000 0.0000 -3.3988 0.0000 23.8372
#
#
#
# Elastic Compliance Matrix: (Units=1/GPa)
#
#
# Indices 1 2 3 4 5 6 
#
# 1 0.014476 -0.001295 -0.007594 0.000000 -0.000342 0.000000
# 2 -0.001295 0.028682 -0.005301 0.000000 -0.001332 0.000000
# 3 -0.007594 -0.005301 0.010487 0.000000 0.001215 0.000000
# 4 0.000000 0.000000 0.000000 0.037935 0.000000 0.005409
# 5 -0.000342 -0.001332 0.001215 0.000000 0.022943 0.000000
# 6 0.000000 0.000000 0.000000 0.005409 0.000000 0.042722
#
#
# Mechanical properties :
#
#
# Convention : Reuss Voigt Hill
#
# Bulk Modulus (GPa) = 39.57957 77.43173 58.50565
# Shear Modulus (GPa) = 25.76712 31.72875 28.74793
#
# Velocity S-wave (km/s) = 3.71517 4.12261 3.92418
# Velocity P-wave (km/s) = 6.29322 8.00865 7.20219
#
# Compressibility (1/GPa) = 0.02526556
#
# Stress axis : x y z
#
# Youngs Moduli (GPa) = 69.07915 34.86535 95.35706
#
# Poissons Ratio (x) = 0.04516 0.72411
# Poissons Ratio (y) = 0.08947 0.50546
# Poissons Ratio (z) = 0.52456 0.18481
#
# Static dielectric constant tensor:
#      x y z
#    x 3.693270 0.000000 0.082460 
#    y 0.000000 3.120920 0.000000 
#    z 0.082460 0.000000 3.639190 
# 
# 
# High freq. dielectric constant tensor:
#      x y z
#    x 1.725320 0.000000 0.000110 
#    y 0.000000 1.693020 0.000000 
#    z 0.000110 0.000000 1.745570 
# 
# From -- ./inp_files/221580.got.cif
#   From: 2010.06.25/outbox.cif.g09.slc.cpg/sg12_111_cif.got.tgz:221580.got - 2010.06.28 00:19:55.
