data_PCOD8097107
_publ_section_title
;
Structure prediction by ZEFSAII (Michael W. Deem and Ramdas Pophale) SiO2 
 PCOD8097107
Probable space group: C 2/M
;
_chemical_formula_sum "Si O2"
_cell_formula_units_Z 56
_cell_length_a 23.668666
_cell_length_b 8.966372
_cell_length_c 14.745686
_cell_angle_alpha 90.000000
_cell_angle_beta 71.295590
_cell_angle_gamma 90.000000
_cell_volume 2964.084646
_symmetry_space_group_name_H-M "C 2/M"
_symmetry_group_IT_number 12
_symmetry_cell_setting 'monoclinic'
loop_
_space_group_symop_operation_xyz
x,y,z
-x,y,-z
-x,-y,-z
x,-y,z
1/2+x,1/2+y,z
1/2-x,1/2+y,-z
1/2-x,1/2-y,-z
1/2+x,1/2-y,z
loop_
_atom_site_type_symbol
_atom_site_label
_atom_site_fract_x
_atom_site_fract_y
_atom_site_fract_z
Si Si1 0.441011 0.176354 0.914435
Si Si2 0.686295 0.826000 0.704961
Si Si3 0.602588 0.323699 0.235998
Si Si4 0.073313 0.675650 0.874033
Si Si5 0.512843 0.324453 0.593747
Si Si6 0.634048 0.827485 0.542558
Si Si7 0.808711 0.677097 0.673942
O O1 0.399413 0.264168 0.865408
O O2 0.509378 0.235804 0.871440
O O3 0.436692 0.000000 0.898418
O O4 0.416229 0.218647 0.026523
O O5 0.627331 0.762245 0.785489
O O6 0.680410 0.800111 0.600187
O O7 0.741041 0.731307 0.713903
O O8 0.696292 0.000000 0.722272
O O9 0.611990 0.500000 0.233128
O O10 0.541286 0.273834 0.315086
O O11 0.657392 0.247434 0.258732
O O12 0.069895 0.500000 0.866513
O O13 0.500000 0.262200 0.500000
O O14 0.521061 0.500000 0.588053
O O15 0.573282 0.254569 0.600270
O O16 0.661950 0.764351 0.435073
O O17 0.618520 0.000000 0.540075
O O18 0.810728 0.500000 0.679060
#
# Coordination Sequence:
#
# PCOD8097107 Si02
#       7
#     8   8   8   8   8   8   8
#     4   9  17  34  60  86 110 138 172 216 266 321
#     4  10  20  36  56  79 107 141 180 221 265 316
#     4  11  22  36  54  79 110 145 179 217 268 319
#     4   8  16  33  59  86 110 137 173 216 267 319
#     4  10  20  34  52  76 108 142 174 213 263 315
#     4  10  21  35  55  81 107 139 181 224 266 313
#     4  11  23  37  52  76 108 145 185 223 262 312
#
# _framework density 18.892847
#
# number of rings (size 3 to 8) (size 9 to 14) (size 15 to 20)
#    0.000    2.143    1.429    3.000    0.000    3.714 
#    0.000    3.571    0.000    0.000    0.000    0.000 
#    0.000    0.000    0.000    0.000    0.000    0.000 
#
# Total GULP energy -347255.553049 kJ/mol
# GULP energy per Si atom -12401.984037 kJ/mol
# Density = 1.884985 g / cm^3
# Si number density = 18.892847 Si / 1000 Ang^3
#
#
#
# Elastic Constant Matrix: (Units=GPa)
#
#
# Indices 1 2 3 4 5 6 
#
# 1 116.2563 35.8510 42.4977 0.0000 13.0009 0.0000
# 2 35.8510 45.0424 21.3862 0.0000 7.6264 0.0000
# 3 42.4977 21.3862 86.9137 0.0000 15.6656 0.0000
# 4 0.0000 0.0000 0.0000 20.7029 0.0000 1.1277
# 5 13.0009 7.6264 15.6656 0.0000 30.2080 0.0000
# 6 0.0000 0.0000 0.0000 1.1277 0.0000 34.4141
#
#
#
# Elastic Compliance Matrix: (Units=1/GPa)
#
#
# Indices 1 2 3 4 5 6 
#
# 1 0.012667 -0.007956 -0.003988 0.000000 -0.001375 0.000000
# 2 -0.007956 0.030467 -0.003130 0.000000 -0.002645 0.000000
# 3 -0.003988 -0.003130 0.015194 0.000000 -0.005373 0.000000
# 4 0.000000 0.000000 0.000000 0.048389 0.000000 -0.001586
# 5 -0.001375 -0.002645 -0.005373 0.000000 0.037150 0.000000
# 6 0.000000 0.000000 0.000000 -0.001586 0.000000 0.029110
#
#
# Mechanical properties :
#
#
# Convention : Reuss Voigt Hill
#
# Bulk Modulus (GPa) = 35.48537 49.74246 42.61391
# Shear Modulus (GPa) = 23.52740 26.96349 25.24545
#
# Velocity S-wave (km/s) = 3.53272 3.78190 3.65943
# Velocity P-wave (km/s) = 5.95511 6.74213 6.36080
#
# Compressibility (1/GPa) = 0.02818063
#
# Stress axis : x y z
#
# Youngs Moduli (GPa) = 78.94760 32.82191 65.81356
#
# Poissons Ratio (x) = 0.26111 0.26248
# Poissons Ratio (y) = 0.62807 0.20601
# Poissons Ratio (z) = 0.31486 0.10274
#
# Static dielectric constant tensor:
#      x y z
#    x 3.463710 0.000000 -0.065420 
#    y 0.000000 3.185520 0.000000 
#    z -0.065420 0.000000 3.670100 
# 
# 
# High freq. dielectric constant tensor:
#      x y z
#    x 1.734060 0.000000 0.008040 
#    y 0.000000 1.714010 0.000000 
#    z 0.008040 0.000000 1.734300 
# 
# From -- ./inp_files/237352.got.cif
#   From: 2010.06.25/outbox.cif.g09.slc.cpg/sg12_119_cif.got.tgz:237352.got - 2010.06.28 00:19:55.
