data_PCOD8097797
_publ_section_title
;
Structure prediction by ZEFSAII (Michael W. Deem and Ramdas Pophale) SiO2 
 PCOD8097797
Probable space group: C 2/M
;
_chemical_formula_sum "Si O2"
_cell_formula_units_Z 64
_cell_length_a 12.440725
_cell_length_b 12.520032
_cell_length_c 25.478677
_cell_angle_alpha 90.000000
_cell_angle_beta 61.883597
_cell_angle_gamma 90.000000
_cell_volume 3500.198232
_symmetry_space_group_name_H-M "C 2/M"
_symmetry_group_IT_number 12
_symmetry_cell_setting 'monoclinic'
loop_
_space_group_symop_operation_xyz
x,y,z
-x,y,-z
-x,-y,-z
x,-y,z
1/2+x,1/2+y,z
1/2-x,1/2+y,-z
1/2-x,1/2-y,-z
1/2+x,1/2-y,z
loop_
_atom_site_type_symbol
_atom_site_label
_atom_site_fract_x
_atom_site_fract_y
_atom_site_fract_z
Si Si1 0.938805 0.122841 0.139882
Si Si2 0.004207 0.261381 0.215493
Si Si3 0.791440 0.623904 0.318826
Si Si4 0.219640 0.376227 0.110904
Si Si5 0.436769 0.624691 0.701030
Si Si6 0.603805 0.626610 0.012850
Si Si7 0.885466 0.624666 0.490480
Si Si8 0.838942 0.766866 0.404383
O O1 0.826390 0.147036 0.127803
O O2 0.920942 0.187094 0.197747
O O3 0.068003 0.155106 0.081220
O O4 0.941759 0.000000 0.155429
O O5 0.100387 0.314458 0.154890
O O6 0.073118 0.190837 0.243002
O O7 0.919699 0.350590 0.261506
O O8 0.789299 0.500000 0.335094
O O9 0.680651 0.653709 0.306298
O O10 0.776607 0.693970 0.374400
O O11 0.185139 0.500000 0.117736
O O12 0.264944 0.337025 0.041778
O O13 0.441019 0.500000 0.713755
O O14 0.558142 0.656192 0.642124
O O15 0.598625 0.500000 0.006964
O O16 0.500000 0.678242 0.000000
O O17 0.882633 0.500000 0.477224
O O18 0.899166 0.690168 0.433716
O O19 0.762000 0.655734 0.548337
O O20 0.000000 0.654336 0.500000
#
# Coordination Sequence:
#
# PCOD8097797 Si02
#       8
#     8   8   8   8   8   8   8   8
#     4   9  17  30  47  67  92 121 154 194 240 291
#     4  11  20  30  48  72  94 121 160 202 244 283
#     4  10  21  36  51  69  97 131 165 200 234 272
#     4   9  17  30  47  67  92 121 154 194 240 291
#     4  10  21  36  51  69  97 131 165 200 234 272
#     4   7  12  25  44  64  88 118 150 188 236 288
#     4  10  20  34  54  82 110 128 150 194 242 276
#     4  10  20  35  56  77  98 132 168 190 224 282
#
# _framework density 18.284679000000001
#
# number of rings (size 3 to 8) (size 9 to 14) (size 15 to 20)
#    0.000    2.500    0.000    4.500    0.000    0.500 
#    0.000    0.000    0.000   18.000    0.000    0.000 
#    0.000   16.000    0.000    0.000    0.000    0.000 
#
# Total GULP energy -396632.011366 kJ/mol
# GULP energy per Si atom -12394.750355 kJ/mol
# Density = 1.824306 g / cm^3
# Si number density = 18.284679 Si / 1000 Ang^3
#
#
#
# Elastic Constant Matrix: (Units=GPa)
#
#
# Indices 1 2 3 4 5 6 
#
# 1 59.3978 22.3382 2.5711 0.0000 4.3925 0.0000
# 2 22.3382 40.2544 0.6794 0.0000 8.1052 0.0000
# 3 2.5711 0.6794 42.5502 0.0000 2.1504 0.0000
# 4 0.0000 0.0000 0.0000 4.6175 0.0000 1.3031
# 5 4.3925 8.1052 2.1504 0.0000 25.9643 0.0000
# 6 0.0000 0.0000 0.0000 1.3031 0.0000 13.8849
#
#
#
# Elastic Compliance Matrix: (Units=1/GPa)
#
#
# Indices 1 2 3 4 5 6 
#
# 1 0.021328 -0.011854 -0.001109 0.000000 0.000184 0.000000
# 2 -0.011854 0.033096 0.000611 0.000000 -0.008377 0.000000
# 3 -0.001109 0.000611 0.023658 0.000000 -0.001963 0.000000
# 4 0.000000 0.000000 0.000000 0.222458 0.000000 -0.020878
# 5 0.000184 -0.008377 -0.001963 0.000000 0.041261 0.000000
# 6 0.000000 0.000000 0.000000 -0.020878 0.000000 0.073980
#
#
# Mechanical properties :
#
#
# Convention : Reuss Voigt Hill
#
# Bulk Modulus (GPa) = 18.73375 21.48665 20.11020
# Shear Modulus (GPa) = 10.91042 16.66758 13.78900
#
# Velocity S-wave (km/s) = 2.44539 3.02248 2.74912
# Velocity P-wave (km/s) = 4.27096 4.89461 4.59338
#
# Compressibility (1/GPa) = 0.05337959
#
# Stress axis : x y z
#
# Youngs Moduli (GPa) = 46.88669 30.21475 42.26882
#
# Poissons Ratio (x) = 0.35816 0.04687
# Poissons Ratio (y) = 0.55579 -0.02583
# Poissons Ratio (z) = 0.05199 -0.01847
#
# Static dielectric constant tensor:
#      x y z
#    x 3.209610 0.000000 -0.026520 
#    y 0.000000 3.206670 0.000000 
#    z -0.026520 0.000000 3.528970 
# 
# 
# High freq. dielectric constant tensor:
#      x y z
#    x 1.698570 0.000000 -0.003160 
#    y 0.000000 1.701370 0.000000 
#    z -0.003160 0.000000 1.722340 
# 
# From -- ./inp_files/335183.got.cif
#   From: 2010.06.25/outbox.cif.g09.slc.cpg/sg12_168_cif.got.tgz:335183.got - 2010.06.28 00:19:55.
