data_PCOD8097075
_publ_section_title
;
Structure prediction by ZEFSAII (Michael W. Deem and Ramdas Pophale) SiO2 
 PCOD8097075
Probable space group: C 2/M
;
_chemical_formula_sum "Si O2"
_cell_formula_units_Z 56
_cell_length_a 29.817420
_cell_length_b 8.642634
_cell_length_c 18.879997
_cell_angle_alpha 90.000000
_cell_angle_beta 141.724237
_cell_angle_gamma 90.000000
_cell_volume 3013.854362
_symmetry_space_group_name_H-M "C 2/M"
_symmetry_group_IT_number 12
_symmetry_cell_setting 'monoclinic'
loop_
_space_group_symop_operation_xyz
x,y,z
-x,y,-z
-x,-y,-z
x,-y,z
1/2+x,1/2+y,z
1/2-x,1/2+y,-z
1/2-x,1/2-y,-z
1/2+x,1/2-y,z
loop_
_atom_site_type_symbol
_atom_site_label
_atom_site_fract_x
_atom_site_fract_y
_atom_site_fract_z
Si Si1 0.011199 0.171349 0.722855
Si Si2 0.539799 0.820480 0.476400
Si Si3 0.047732 0.318135 0.909314
Si Si4 0.898765 0.815265 0.773009
Si Si5 0.309448 0.315291 0.371368
Si Si6 0.346546 0.669309 0.565811
Si Si7 0.337213 0.682505 0.846819
O O1 0.013788 0.265408 0.652649
O O2 0.929757 0.155482 0.647663
O O3 0.056162 0.259794 0.839173
O O4 0.044437 0.000000 0.752546
O O5 0.500000 0.785868 0.500000
O O6 0.614576 0.726062 0.570335
O O7 0.557794 0.000000 0.488203
O O8 0.037925 0.500000 0.896906
O O9 0.980140 0.245503 0.867273
O O10 0.120483 0.270072 0.039410
O O11 0.846921 0.748495 0.644106
O O12 0.866648 0.759405 0.807348
O O13 0.901612 0.000000 0.770446
O O14 0.300307 0.500000 0.359537
O O15 0.306703 0.248418 0.449900
O O16 0.246300 0.231712 0.249622
O O17 0.311777 0.500000 0.531359
O O18 0.346433 0.500000 0.867597
#
# Coordination Sequence:
#
# PCOD8097075 Si02
#       7
#     8   8   8   8   8   8   8
#     4   9  17  32  54  78 104 134 170 210 254 304
#     4  10  20  35  58  87 113 134 162 203 250 305
#     4  11  21  33  51  74 102 137 180 224 262 304
#     4   9  18  33  51  71  98 137 182 223 263 305
#     4  10  20  34  52  75 105 139 175 213 258 313
#     4   7  13  28  48  69  95 128 166 209 253 297
#     4  11  22  34  49  70 102 143 182 221 264 308
#
# _framework density 18.580859
#
# number of rings (size 3 to 8) (size 9 to 14) (size 15 to 20)
#    0.000    2.429    0.000    5.143    0.000    4.571 
#    0.000    0.714    0.000    0.857    0.000    0.000 
#    0.000    0.000    0.000    0.000    0.000    0.000 
#
# Total GULP energy -347029.453810 kJ/mol
# GULP energy per Si atom -12393.909065 kJ/mol
# Density = 1.853857 g / cm^3
# Si number density = 18.580859 Si / 1000 Ang^3
#
#
#
# Elastic Constant Matrix: (Units=GPa)
#
#
# Indices 1 2 3 4 5 6 
#
# 1 68.2048 22.0790 40.0516 0.0000 -19.3724 0.0000
# 2 22.0790 59.1425 22.3254 0.0000 -10.2514 0.0000
# 3 40.0516 22.3254 94.1077 0.0000 -10.6101 0.0000
# 4 0.0000 0.0000 0.0000 30.5236 0.0000 -2.1204
# 5 -19.3724 -10.2514 -10.6101 0.0000 24.7964 0.0000
# 6 0.0000 0.0000 0.0000 -2.1204 0.0000 20.4917
#
#
#
# Elastic Compliance Matrix: (Units=1/GPa)
#
#
# Indices 1 2 3 4 5 6 
#
# 1 0.024601 -0.003696 -0.007984 0.000000 0.014276 0.000000
# 2 -0.003696 0.020044 -0.002704 0.000000 0.004242 0.000000
# 3 -0.007984 -0.002704 0.014537 0.000000 -0.001135 0.000000
# 4 0.000000 0.000000 0.000000 0.032999 0.000000 0.003415
# 5 0.014276 0.004242 -0.001135 0.000000 0.052750 0.000000
# 6 0.000000 0.000000 0.000000 0.003415 0.000000 0.049154
#
#
# Mechanical properties :
#
#
# Convention : Reuss Voigt Hill
#
# Bulk Modulus (GPa) = 32.87782 43.37411 38.12596
# Shear Modulus (GPa) = 21.46008 24.29559 22.87784
#
# Velocity S-wave (km/s) = 3.40215 3.61994 3.51274
# Velocity P-wave (km/s) = 5.75897 6.39266 6.08407
#
# Compressibility (1/GPa) = 0.03041565
#
# Stress axis : x y z
#
# Youngs Moduli (GPa) = 40.64831 49.89009 68.78770
#
# Poissons Ratio (x) = 0.18439 0.54919
# Poissons Ratio (y) = 0.15023 0.18599
# Poissons Ratio (z) = 0.32453 0.13490
#
# Static dielectric constant tensor:
#      x y z
#    x 3.157300 0.000000 -0.322200 
#    y 0.000000 3.365470 0.000000 
#    z -0.322200 0.000000 3.669250 
# 
# 
# High freq. dielectric constant tensor:
#      x y z
#    x 1.685400 0.000000 -0.019370 
#    y 0.000000 1.717900 0.000000 
#    z -0.019370 0.000000 1.727320 
# 
# From -- ./inp_files/295172.got.cif
#   From: 2010.06.25/outbox.cif.g09.slc.cpg/sg12_148_cif.got.tgz:295172.got - 2010.06.28 00:19:55.
