data_PCOD8097008
_publ_section_title
;
Structure prediction by ZEFSAII (Michael W. Deem and Ramdas Pophale) SiO2 
 PCOD8097008
Probable space group: C 2/M
;
_chemical_formula_sum "Si O2"
_cell_formula_units_Z 48
_cell_length_a 22.599327
_cell_length_b 8.624335
_cell_length_c 13.873204
_cell_angle_alpha 90.000000
_cell_angle_beta 77.037089
_cell_angle_gamma 90.000000
_cell_volume 2635.036512
_symmetry_space_group_name_H-M "C 2/M"
_symmetry_group_IT_number 12
_symmetry_cell_setting 'monoclinic'
loop_
_space_group_symop_operation_xyz
x,y,z
-x,y,-z
-x,-y,-z
x,-y,z
1/2+x,1/2+y,z
1/2-x,1/2+y,-z
1/2-x,1/2-y,-z
1/2+x,1/2-y,z
loop_
_atom_site_type_symbol
_atom_site_label
_atom_site_fract_x
_atom_site_fract_y
_atom_site_fract_z
Si Si1 0.891421 0.679381 0.690810
Si Si2 0.168470 0.178946 0.946022
Si Si3 0.485566 0.681840 0.280733
Si Si4 0.550335 0.819900 0.904900
Si Si5 0.931156 0.829425 0.491757
Si Si6 0.708050 0.679424 0.144400
O O1 0.878506 0.500000 0.712733
O O2 0.895140 0.712436 0.574558
O O3 0.835540 0.777194 0.752018
O O4 0.952607 0.724879 0.724239
O O5 0.116189 0.287413 0.923752
O O6 0.231127 0.219243 0.869488
O O7 0.152275 0.000000 0.933414
O O8 0.173708 0.216728 0.057260
O O9 0.500824 0.500000 0.283805
O O10 0.458412 0.719589 0.187367
O O11 0.434181 0.728288 0.379367
O O12 0.543873 0.000000 0.881482
O O13 0.500000 0.767092 0.000000
O O14 0.000000 0.840890 0.500000
O O15 0.900723 0.000000 0.510034
O O16 0.726279 0.500000 0.143234
#
# Coordination Sequence:
#
# PCOD8097008 Si02
#       6
#     8   8   8   8   8   8
#     4  11  20  30  50  79 107 134 169 211 254 303
#     4  10  21  36  54  76 102 134 172 211 253 300
#     4  10  20  34  52  74 103 138 173 211 255 302
#     4  11  23  36  52  76 106 138 171 207 249 302
#     4   8  16  31  49  71 100 133 169 209 254 301
#     4  10  20  35  55  76 102 135 170 211 254 298
#
# _framework density 18.216066000000001
#
# number of rings (size 3 to 8) (size 9 to 14) (size 15 to 20)
#    0.000    2.000    0.000    5.500    0.000    9.667 
#    0.000    0.000    0.000    1.000    0.000    0.000 
#    0.000    0.000    0.000    0.000    0.000    0.000 
#
# Total GULP energy -297637.055059 kJ/mol
# GULP energy per Si atom -12401.543961 kJ/mol
# Density = 1.817461 g / cm^3
# Si number density = 18.216066 Si / 1000 Ang^3
#
#
#
# Elastic Constant Matrix: (Units=GPa)
#
#
# Indices 1 2 3 4 5 6 
#
# 1 61.8186 11.8970 40.9828 0.0000 -6.5705 0.0000
# 2 11.8970 53.6500 26.6938 0.0000 -0.7348 0.0000
# 3 40.9828 26.6938 121.7861 0.0000 -9.9327 0.0000
# 4 0.0000 0.0000 0.0000 27.8835 0.0000 -1.3125
# 5 -6.5705 -0.7348 -9.9327 0.0000 24.0969 0.0000
# 6 0.0000 0.0000 0.0000 -1.3125 0.0000 27.7142
#
#
#
# Elastic Compliance Matrix: (Units=1/GPa)
#
#
# Indices 1 2 3 4 5 6 
#
# 1 0.021107 -0.001378 -0.006555 0.000000 0.003011 0.000000
# 2 -0.001378 0.021050 -0.004272 0.000000 -0.001495 0.000000
# 3 -0.006555 -0.004272 0.011587 0.000000 0.002858 0.000000
# 4 0.000000 0.000000 0.000000 0.035944 0.000000 0.001702
# 5 0.003011 -0.001495 0.002858 0.000000 0.043453 0.000000
# 6 0.000000 0.000000 0.000000 0.001702 0.000000 0.036163
#
#
# Mechanical properties :
#
#
# Convention : Reuss Voigt Hill
#
# Bulk Modulus (GPa) = 34.09065 44.04466 39.06765
# Shear Modulus (GPa) = 24.57100 26.45101 25.51101
#
# Velocity S-wave (km/s) = 3.67667 3.81474 3.74634
# Velocity P-wave (km/s) = 6.06458 6.60564 6.34088
#
# Compressibility (1/GPa) = 0.02933355
#
# Stress axis : x y z
#
# Youngs Moduli (GPa) = 47.37662 47.50600 86.30649
#
# Poissons Ratio (x) = 0.06545 0.56577
# Poissons Ratio (y) = 0.06527 0.36871
# Poissons Ratio (z) = 0.31057 0.20295
#
# Static dielectric constant tensor:
#      x y z
#    x 3.039550 0.000000 -0.131290 
#    y 0.000000 3.335500 0.000000 
#    z -0.131290 0.000000 3.674610 
# 
# 
# High freq. dielectric constant tensor:
#      x y z
#    x 1.672930 0.000000 -0.014090 
#    y 0.000000 1.715010 0.000000 
#    z -0.014090 0.000000 1.712850 
# 
# From -- ./inp_files/172039.got.cif
#   From: 2010.06.25/outbox.cif.g09.slc.cpg/sg12_87_cif.got.tgz:172039.got - 2010.06.28 00:19:55.
