data_PCOD8097059
_publ_section_title
;
Structure prediction by ZEFSAII (Michael W. Deem and Ramdas Pophale) SiO2 
 PCOD8097059
Probable space group: C 2/M
;
_chemical_formula_sum "Si O2"
_cell_formula_units_Z 64
_cell_length_a 33.026184
_cell_length_b 13.844142
_cell_length_c 21.962726
_cell_angle_alpha 90.000000
_cell_angle_beta 20.647018
_cell_angle_gamma 90.000000
_cell_volume 3540.828669
_symmetry_space_group_name_H-M "C 2/M"
_symmetry_group_IT_number 12
_symmetry_cell_setting 'monoclinic'
loop_
_space_group_symop_operation_xyz
x,y,z
-x,y,-z
-x,-y,-z
x,-y,z
1/2+x,1/2+y,z
1/2-x,1/2+y,-z
1/2-x,1/2-y,-z
1/2+x,1/2-y,z
loop_
_atom_site_type_symbol
_atom_site_label
_atom_site_fract_x
_atom_site_fract_y
_atom_site_fract_z
Si Si1 0.326490 0.609334 0.020078
Si Si2 0.907663 0.762221 0.463914
Si Si3 0.381797 0.787351 0.630641
Si Si4 0.524229 0.210225 0.179911
Si Si5 0.738414 0.612231 0.145695
Si Si6 0.877388 0.109189 0.814448
Si Si7 0.029068 0.389127 0.861734
Si Si8 0.685744 0.111152 0.754330
O O1 0.363636 0.500000 0.984289
O O2 0.207175 0.634089 0.219548
O O3 0.428992 0.680803 0.896143
O O4 0.305099 0.621917 0.978012
O O5 0.891530 0.691678 0.544602
O O6 0.792671 0.819092 0.610137
O O7 0.946150 0.702506 0.350174
O O8 0.004778 0.834795 0.348931
O O9 0.500000 0.801950 0.500000
O O10 0.334508 0.677615 0.704986
O O11 0.449437 0.179908 0.226527
O O12 0.627054 0.133398 0.039859
O O13 0.714937 0.500000 0.193644
O O14 0.701349 0.644977 0.130156
O O15 0.913634 0.000000 0.751858
O O16 0.045449 0.500000 0.819235
O O17 0.121423 0.360793 0.782620
O O18 0.900126 0.373050 0.068313
O O19 0.726638 0.000000 0.694767
#
# Coordination Sequence:
#
# PCOD8097059 Si02
#       8
#     8   8   8   8   8   8   8   8
#     4   9  20  36  51  67  95 139 185 220 252 302
#     4  11  21  32  48  78 109 139 174 218 262 305
#     4  11  22  33  50  74 106 140 178 222 262 301
#     4  10  21  33  55  75 103 139 175 219 261 309
#     4  10  20  34  52  75 103 139 171 212 271 322
#     4   9  18  32  51  72  98 133 176 217 260 312
#     4   9  18  36  58  84 108 135 169 208 265 329
#     4   9  18  33  58  83 109 136 166 211 265 324
#
# _framework density 18.074866
#
# number of rings (size 3 to 8) (size 9 to 14) (size 15 to 20)
#    0.000    2.250    1.250    3.000    1.750    5.000 
#    0.000    1.250    0.000    0.000    0.000    7.000 
#    0.000    0.000    0.000    0.000    0.000    0.000 
#
# Total GULP energy -396782.325108 kJ/mol
# GULP energy per Si atom -12399.447660 kJ/mol
# Density = 1.803373 g / cm^3
# Si number density = 18.074866 Si / 1000 Ang^3
#
#
#
# Elastic Constant Matrix: (Units=GPa)
#
#
# Indices 1 2 3 4 5 6 
#
# 1 106.0562 31.4319 33.1169 0.0000 14.8799 0.0000
# 2 31.4319 65.0987 13.6586 0.0000 6.3352 0.0000
# 3 33.1169 13.6586 69.1288 0.0000 10.4436 0.0000
# 4 0.0000 0.0000 0.0000 16.7071 0.0000 1.5091
# 5 14.8799 6.3352 10.4436 0.0000 29.3494 0.0000
# 6 0.0000 0.0000 0.0000 1.5091 0.0000 30.2064
#
#
#
# Elastic Compliance Matrix: (Units=1/GPa)
#
#
# Indices 1 2 3 4 5 6 
#
# 1 0.012848 -0.004863 -0.004617 0.000000 -0.003821 0.000000
# 2 -0.004863 0.018037 -0.001076 0.000000 -0.001045 0.000000
# 3 -0.004617 -0.001076 0.017439 0.000000 -0.003632 0.000000
# 4 0.000000 0.000000 0.000000 0.060126 0.000000 -0.003004
# 5 -0.003821 -0.001045 -0.003632 0.000000 0.037528 0.000000
# 6 0.000000 0.000000 0.000000 -0.003004 0.000000 0.033256
#
#
# Mechanical properties :
#
#
# Convention : Reuss Voigt Hill
#
# Bulk Modulus (GPa) = 36.74893 44.07760 40.41326
# Shear Modulus (GPa) = 23.87596 26.05767 24.96682
#
# Velocity S-wave (km/s) = 3.63843 3.80103 3.72062
# Velocity P-wave (km/s) = 6.16656 6.61081 6.39255
#
# Compressibility (1/GPa) = 0.02721168
#
# Stress axis : x y z
#
# Youngs Moduli (GPa) = 77.83337 55.44237 57.34301
#
# Poissons Ratio (x) = 0.26961 0.26474
# Poissons Ratio (y) = 0.37849 0.06172
# Poissons Ratio (z) = 0.35934 0.05967
#
# Static dielectric constant tensor:
#      x y z
#    x 3.491660 0.000000 0.113400 
#    y 0.000000 3.181930 0.000000 
#    z 0.113400 0.000000 3.266510 
# 
# 
# High freq. dielectric constant tensor:
#      x y z
#    x 1.706770 0.000000 0.006510 
#    y 0.000000 1.680740 0.000000 
#    z 0.006510 0.000000 1.692520 
# 
# From -- ./inp_files/224739.got.cif
#   From: 2010.06.25/outbox.cif.g09.slc.cpg/sg12_113_cif.got.tgz:224739.got - 2010.06.28 00:19:55.
