data_PCOD8097472
_publ_section_title
;
Structure prediction by ZEFSAII (Michael W. Deem and Ramdas Pophale) SiO2 
 PCOD8097472
Probable space group: C 2/M
;
_chemical_formula_sum "Si O2"
_cell_formula_units_Z 48
_cell_length_a 18.968829
_cell_length_b 8.903069
_cell_length_c 29.269463
_cell_angle_alpha 90.000000
_cell_angle_beta 31.410401
_cell_angle_gamma 90.000000
_cell_volume 2576.142597
_symmetry_space_group_name_H-M "C 2/M"
_symmetry_group_IT_number 12
_symmetry_cell_setting 'monoclinic'
loop_
_space_group_symop_operation_xyz
x,y,z
-x,y,-z
-x,-y,-z
x,-y,z
1/2+x,1/2+y,z
1/2-x,1/2+y,-z
1/2-x,1/2-y,-z
1/2+x,1/2-y,z
loop_
_atom_site_type_symbol
_atom_site_label
_atom_site_fract_x
_atom_site_fract_y
_atom_site_fract_z
Si Si1 0.828018 0.171624 0.225323
Si Si2 0.110114 0.175958 0.475613
Si Si3 0.475691 0.175715 0.631439
Si Si4 0.411490 0.322863 0.759078
Si Si5 0.599788 0.824765 0.725213
Si Si6 0.131043 0.826086 0.899767
O O1 0.670329 0.214095 0.308807
O O2 0.898973 0.280508 0.222239
O O3 0.898821 0.198664 0.137320
O O4 0.844884 0.000000 0.232115
O O5 0.257280 0.218854 0.376114
O O6 0.000000 0.233701 0.500000
O O7 0.089856 0.260946 0.534650
O O8 0.092598 0.000000 0.494050
O O9 0.490833 0.251866 0.672375
O O10 0.496761 0.000000 0.627039
O O11 0.419098 0.500000 0.750907
O O12 0.482117 0.268404 0.766238
O O13 0.256034 0.272953 0.847181
O O14 0.568684 0.000000 0.737873
O O15 0.167208 0.000000 0.889051
O O16 0.000000 0.773538 0.000000
#
# Coordination Sequence:
#
# PCOD8097472 Si02
#       6
#     8   8   8   8   8   8
#     4   9  18  33  55  83 111 142 181 223 271 328
#     4  10  20  34  53  80 111 146 192 237 277 322
#     4  10  20  35  56  80 109 148 192 232 276 329
#     4  11  23  38  57  81 114 147 184 231 278 329
#     4  11  22  36  55  79 113 151 186 229 280 329
#     4   9  19  39  65  89 113 142 178 222 274 336
#
# _framework density 18.63251
#
# number of rings (size 3 to 8) (size 9 to 14) (size 15 to 20)
#    0.000    2.000    1.667    3.500    0.000    5.333 
#    0.000    0.833    0.000    0.000    0.000    0.000 
#    0.000    0.000    0.000    0.000    0.000    0.000 
#
# Total GULP energy -297718.213548 kJ/mol
# GULP energy per Si atom -12404.925564 kJ/mol
# Density = 1.859010 g / cm^3
# Si number density = 18.632510 Si / 1000 Ang^3
#
#
#
# Elastic Constant Matrix: (Units=GPa)
#
#
# Indices 1 2 3 4 5 6 
#
# 1 104.2109 47.3400 39.0035 0.0005 3.3806 -0.0007
# 2 47.3400 86.3511 34.7839 0.0010 0.3010 -0.0006
# 3 39.0035 34.7839 90.7588 0.0002 16.6953 -0.0004
# 4 0.0005 0.0010 0.0002 24.5042 -0.0001 3.0031
# 5 3.3806 0.3010 16.6953 -0.0001 22.5590 0.0003
# 6 -0.0007 -0.0006 -0.0004 3.0031 0.0003 34.6314
#
#
#
# Elastic Compliance Matrix: (Units=1/GPa)
#
#
# Indices 1 2 3 4 5 6 
#
# 1 0.013695 -0.006010 -0.003727 0.000000 0.000786 0.000000
# 2 -0.006010 0.016699 -0.004563 -0.000001 0.004055 0.000000
# 3 -0.003727 -0.004563 0.016501 0.000000 -0.011593 0.000000
# 4 0.000000 -0.000001 0.000000 0.041248 0.000000 -0.003577
# 5 0.000786 0.004055 -0.011593 0.000000 0.052736 -0.000001
# 6 0.000000 0.000000 0.000000 -0.003577 -0.000001 0.029186
#
#
# Mechanical properties :
#
#
# Convention : Reuss Voigt Hill
#
# Bulk Modulus (GPa) = 54.65654 58.17506 56.41580
# Shear Modulus (GPa) = 24.41838 27.01849 25.71844
#
# Velocity S-wave (km/s) = 3.62405 3.81211 3.71927
# Velocity P-wave (km/s) = 6.84903 7.11803 6.98483
#
# Compressibility (1/GPa) = 0.01829607
#
# Stress axis : x y z
#
# Youngs Moduli (GPa) = 73.01773 59.88248 60.60113
#
# Poissons Ratio (x) = 0.35987 0.22585
# Poissons Ratio (y) = 0.43881 0.27655
# Poissons Ratio (z) = 0.27213 0.27327
#
# Static dielectric constant tensor:
#      x y z
#    x 3.385910 0.000000 0.106510 
#    y 0.000000 3.347310 0.000000 
#    z 0.106510 0.000000 3.324060 
# 
# 
# High freq. dielectric constant tensor:
#      x y z
#    x 1.723780 0.000000 0.009860 
#    y 0.000000 1.725340 0.000000 
#    z 0.009860 0.000000 1.708040 
# 
# From -- ./inp_files/274050.got.cif
#   From: 2010.06.25/outbox.cif.g09.slc.cpg/sg12_138_cif.got.tgz:274050.got - 2010.06.28 00:19:55.
