data_PCOD8097219
_publ_section_title
;
Structure prediction by ZEFSAII (Michael W. Deem and Ramdas Pophale) SiO2 
 PCOD8097219
Probable space group: C 2/M
;
_chemical_formula_sum "Si O2"
_cell_formula_units_Z 56
_cell_length_a 21.923026
_cell_length_b 8.851673
_cell_length_c 20.388485
_cell_angle_alpha 90.000000
_cell_angle_beta 48.545512
_cell_angle_gamma 90.000000
_cell_volume 2965.322433
_symmetry_space_group_name_H-M "C 2/M"
_symmetry_group_IT_number 12
_symmetry_cell_setting 'monoclinic'
loop_
_space_group_symop_operation_xyz
x,y,z
-x,y,-z
-x,-y,-z
x,-y,z
1/2+x,1/2+y,z
1/2-x,1/2+y,-z
1/2-x,1/2-y,-z
1/2+x,1/2-y,z
loop_
_atom_site_type_symbol
_atom_site_label
_atom_site_fract_x
_atom_site_fract_y
_atom_site_fract_z
Si Si1 0.589641 0.323718 0.457562
Si Si2 0.195403 0.321822 0.127605
Si Si3 0.316662 0.830420 0.718351
Si Si4 0.777010 0.320651 0.550220
Si Si5 0.660047 0.331741 0.753138
Si Si6 0.993438 0.327634 0.081987
Si Si7 0.636723 0.675895 0.049192
O O1 0.500000 0.262863 0.500000
O O2 0.586194 0.500000 0.477358
O O3 0.642505 0.294281 0.355807
O O4 0.634296 0.240782 0.487670
O O5 0.194634 0.500000 0.124307
O O6 0.171593 0.268735 0.216893
O O7 0.128806 0.254248 0.125786
O O8 0.284588 0.258860 0.044963
O O9 0.221369 0.838321 0.770488
O O10 0.353828 0.000000 0.681817
O O11 0.785530 0.500000 0.536662
O O12 0.750000 0.250000 0.500000
O O13 0.707465 0.279087 0.653259
O O14 0.622953 0.500000 0.768436
O O15 0.592143 0.212874 0.823359
O O16 0.013545 0.500000 0.086213
O O17 0.057763 0.212283 0.064664
O O18 0.000000 0.303391 0.000000
O O19 0.644540 0.500000 0.055031
#
# Coordination Sequence:
#
# PCOD8097219 Si02
#       7
#     8   8   8   8   8   8   8
#     4  10  21  37  57  84 116 148 186 233 279 333
#     4   9  18  34  54  77 105 138 178 221 269 323
#     4   9  18  34  57  81 106 139 178 222 272 325
#     4  10  21  39  63  88 115 150 191 236 289 347
#     4   9  19  36  57  82 110 142 182 225 269 329
#     4  11  23  36  52  78 110 143 182 227 272 320
#     4  10  20  34  53  75 104 142 179 220 268 319
#
# _framework density 18.884962000000002
#
# number of rings (size 3 to 8) (size 9 to 14) (size 15 to 20)
#    0.000    2.286    0.000    3.429    0.000    7.429 
#    2.571    0.000    0.000    0.000    0.000    0.000 
#    0.000    0.000    0.000    0.000    0.000    0.000 
#
# Total GULP energy -347054.128624 kJ/mol
# GULP energy per Si atom -12394.790308 kJ/mol
# Density = 1.884198 g / cm^3
# Si number density = 18.884962 Si / 1000 Ang^3
#
#
#
# Elastic Constant Matrix: (Units=GPa)
#
#
# Indices 1 2 3 4 5 6 
#
# 1 116.8136 32.5176 45.8527 0.0003 14.3689 -0.0001
# 2 32.5176 38.6470 32.3583 0.0004 8.9945 0.0000
# 3 45.8527 32.3583 67.3456 0.0000 9.7973 0.0000
# 4 0.0003 0.0004 0.0000 15.7997 -0.0001 -18.5918
# 5 14.3689 8.9945 9.7973 -0.0001 33.6550 0.0001
# 6 -0.0001 0.0000 0.0000 -18.5918 0.0001 6.4783
#
#
#
# Elastic Compliance Matrix: (Units=1/GPa)
#
#
# Indices 1 2 3 4 5 6 
#
# 1 0.012534 -0.005264 -0.005671 0.000000 -0.002294 0.000000
# 2 -0.005264 0.046598 -0.018086 0.000000 -0.004941 0.000001
# 3 -0.005671 -0.018086 0.027510 0.000000 -0.000753 -0.000001
# 4 0.000000 0.000000 0.000000 -0.026627 0.000000 -0.076415
# 5 -0.002294 -0.004941 -0.000753 0.000000 0.032232 0.000000
# 6 0.000000 0.000001 -0.000001 -0.076415 0.000000 -0.064939
#
#
# Mechanical properties :
#
#
# Convention : Reuss Voigt Hill
#
# Bulk Modulus (GPa) = 34.96691 49.36260 42.16475
# Shear Modulus (GPa) = 52.69547 18.65842 35.67695
#
# Velocity S-wave (km/s) = 5.28810 3.14666 4.35118
# Velocity P-wave (km/s) = 7.47270 6.27673 6.90067
#
# Compressibility (1/GPa) = 0.02859846
#
# Stress axis : x y z
#
# Youngs Moduli (GPa) = 79.78154 21.46021 36.35088
#
# Poissons Ratio (x) = 0.11297 0.20614
# Poissons Ratio (y) = 0.42000 0.65746
# Poissons Ratio (z) = 0.45243 0.38814
#
# Static dielectric constant tensor:
#      x y z
#    x 3.582110 0.000000 0.086010 
#    y 0.000000 3.404280 0.000000 
#    z 0.086010 0.000000 3.406390 
# 
# 
# High freq. dielectric constant tensor:
#      x y z
#    x 1.737220 0.000000 0.009540 
#    y 0.000000 1.734660 0.000000 
#    z 0.009540 0.000000 1.721370 
# 
# From -- ./inp_files/319726.got.cif
#   From: 2010.06.25/outbox.cif.g09.slc.cpg/sg12_160_cif.got.tgz:319726.got - 2010.06.28 00:19:55.
