data_PCOD8097945
_publ_section_title
;
Structure prediction by ZEFSAII (Michael W. Deem and Ramdas Pophale) SiO2 
 PCOD8097945
Probable space group: C 2/M
;
_chemical_formula_sum "Si O2"
_cell_formula_units_Z 64
_cell_length_a 20.476889
_cell_length_b 9.203158
_cell_length_c 22.692333
_cell_angle_alpha 90.000000
_cell_angle_beta 49.795725
_cell_angle_gamma 90.000000
_cell_volume 3266.104023
_symmetry_space_group_name_H-M "C 2/M"
_symmetry_group_IT_number 12
_symmetry_cell_setting 'monoclinic'
loop_
_space_group_symop_operation_xyz
x,y,z
-x,y,-z
-x,-y,-z
x,-y,z
1/2+x,1/2+y,z
1/2-x,1/2+y,-z
1/2-x,1/2-y,-z
1/2+x,1/2-y,z
loop_
_atom_site_type_symbol
_atom_site_label
_atom_site_fract_x
_atom_site_fract_y
_atom_site_fract_z
Si Si1 0.466334 0.668742 0.857564
Si Si2 0.928902 0.660631 0.993008
Si Si3 0.451533 0.837070 0.360471
Si Si4 0.266274 0.832585 0.160435
Si Si5 0.266128 0.332053 0.690316
Si Si6 0.879564 0.339186 0.813182
Si Si7 0.136790 0.170535 0.686347
Si Si8 0.538127 0.333657 0.413414
O O1 0.445719 0.500000 0.868957
O O2 0.390194 0.747257 0.866529
O O3 0.558667 0.702622 0.776224
O O4 0.462419 0.726049 0.925976
O O5 0.912888 0.500000 0.974405
O O6 0.844253 0.720431 0.074532
O O7 0.000000 0.644902 0.000000
O O8 0.531162 0.847072 0.271263
O O9 0.378868 0.745408 0.368194
O O10 0.478725 0.760388 0.405084
O O11 0.417509 0.000000 0.394191
O O12 0.286062 0.810552 0.218245
O O13 0.185141 0.736729 0.192936
O O14 0.243973 0.000000 0.161159
O O15 0.264343 0.500000 0.671091
O O16 0.222414 0.236335 0.665065
O O17 0.363753 0.279106 0.642908
O O18 0.846604 0.500000 0.848709
O O19 0.149570 0.000000 0.668405
O O20 0.500000 0.316596 0.500000
O O21 0.535245 0.500000 0.392873
#
# Coordination Sequence:
#
# PCOD8097945 Si02
#       8
#     8   8   8   8   8   8   8   8
#     4  10  21  36  54  77 108 145 185 231 283 332
#     4  10  21  36  53  74 104 142 185 230 279 335
#     4  10  20  36  59  86 116 151 190 231 280 336
#     4  10  20  34  55  80 107 144 185 230 281 331
#     4  10  20  36  59  86 116 148 187 233 280 337
#     4  10  20  34  55  81 107 141 184 231 277 329
#     4  10  21  36  58  85 114 150 193 239 281 331
#     4  10  21  38  62  90 119 151 185 226 279 337
#
# _framework density 19.595210999999999
#
# number of rings (size 3 to 8) (size 9 to 14) (size 15 to 20)
#    0.000    2.000    1.250    2.250    0.000    6.000 
#    0.000    0.625    0.000    0.000    0.000    0.000 
#    0.000    0.000    0.000    0.000    0.000    0.000 
#
# Total GULP energy -396822.812171 kJ/mol
# GULP energy per Si atom -12400.712880 kJ/mol
# Density = 1.955061 g / cm^3
# Si number density = 19.595211 Si / 1000 Ang^3
#
#
#
# Elastic Constant Matrix: (Units=GPa)
#
#
# Indices 1 2 3 4 5 6 
#
# 1 117.5966 63.8822 21.2783 0.0000 16.9750 -0.0001
# 2 63.8822 108.8117 30.1895 0.0000 12.6766 -0.0001
# 3 21.2783 30.1895 52.9791 0.0000 10.6271 0.0000
# 4 0.0000 0.0000 0.0000 25.7204 0.0000 7.8520
# 5 16.9750 12.6766 10.6271 0.0000 21.5133 0.0000
# 6 -0.0001 -0.0001 0.0000 7.8520 0.0000 41.9389
#
#
#
# Elastic Compliance Matrix: (Units=1/GPa)
#
#
# Indices 1 2 3 4 5 6 
#
# 1 0.013235 -0.007024 -0.000054 0.000000 -0.006278 0.000000
# 2 -0.007024 0.014920 -0.005582 0.000000 -0.000492 0.000000
# 3 -0.000054 -0.005582 0.023764 0.000000 -0.008407 0.000000
# 4 0.000000 0.000000 0.000000 0.041236 0.000000 -0.007720
# 5 -0.006278 -0.000492 -0.008407 0.000000 0.055879 0.000000
# 6 0.000000 0.000000 0.000000 -0.007720 0.000000 0.025290
#
#
# Mechanical properties :
#
#
# Convention : Reuss Voigt Hill
#
# Bulk Modulus (GPa) = 37.59496 56.67636 47.13566
# Shear Modulus (GPa) = 23.97950 28.77037 26.37494
#
# Velocity S-wave (km/s) = 3.50200 3.83591 3.67275
# Velocity P-wave (km/s) = 5.96485 6.97175 6.48786
#
# Compressibility (1/GPa) = 0.02659931
#
# Stress axis : x y z
#
# Youngs Moduli (GPa) = 75.55603 67.02456 42.07968
#
# Poissons Ratio (x) = 0.47077 0.00227
# Poissons Ratio (y) = 0.53070 0.23490
# Poissons Ratio (z) = 0.00408 0.37415
#
# Static dielectric constant tensor:
#      x y z
#    x 3.698700 0.000000 -0.204000 
#    y 0.000000 3.715930 0.000000 
#    z -0.204000 0.000000 3.727860 
# 
# 
# High freq. dielectric constant tensor:
#      x y z
#    x 1.766560 0.000000 0.007990 
#    y 0.000000 1.765910 0.000000 
#    z 0.007990 0.000000 1.744830 
# 
# From -- ./inp_files/345949.got.cif
#   From: 2010.06.25/outbox.cif.g09.slc.cpg/sg12_173_cif.got.tgz:345949.got - 2010.06.28 00:19:55.
