data_PCOD8097919
_publ_section_title
;
Structure prediction by ZEFSAII (Michael W. Deem and Ramdas Pophale) SiO2 
 PCOD8097919
Probable space group: C 2/M
;
_chemical_formula_sum "Si O2"
_cell_formula_units_Z 64
_cell_length_a 20.032166
_cell_length_b 21.765203
_cell_length_c 17.789904
_cell_angle_alpha 90.000000
_cell_angle_beta 152.269911
_cell_angle_gamma 90.000000
_cell_volume 3609.140379
_symmetry_space_group_name_H-M "C 2/M"
_symmetry_group_IT_number 12
_symmetry_cell_setting 'monoclinic'
loop_
_space_group_symop_operation_xyz
x,y,z
-x,y,-z
-x,-y,-z
x,-y,z
1/2+x,1/2+y,z
1/2-x,1/2+y,-z
1/2-x,1/2-y,-z
1/2+x,1/2-y,z
loop_
_atom_site_type_symbol
_atom_site_label
_atom_site_fract_x
_atom_site_fract_y
_atom_site_fract_z
Si Si1 0.920072 0.698125 0.708736
Si Si2 0.062526 0.931967 0.237443
Si Si3 0.691981 0.929890 0.632520
Si Si4 0.571184 0.714922 0.646593
Si Si5 0.101392 0.826560 0.390426
Si Si6 0.594632 0.770210 0.023257
Si Si7 0.168406 0.868477 0.085512
Si Si8 0.467348 0.847935 0.332840
O O1 0.915395 0.769242 0.681724
O O2 0.765690 0.673654 0.583354
O O3 0.968855 0.656043 0.687334
O O4 0.031405 0.694514 0.887982
O O5 0.216016 0.927995 0.351221
O O6 0.059193 0.887283 0.304267
O O7 0.034411 0.000000 0.240693
O O8 0.941928 0.918107 0.055138
O O9 0.772640 0.889391 0.775046
O O10 0.541097 0.899455 0.458725
O O11 0.666968 0.000000 0.635351
O O12 0.500000 0.690314 0.500000
O O13 0.512247 0.673473 0.655392
O O14 0.741293 0.708543 0.806755
O O15 0.516444 0.783856 0.607340
O O16 0.587049 0.696503 0.009929
O O17 0.500000 0.791386 0.000000
O O18 0.299913 0.864041 0.157961
#
# Coordination Sequence:
#
# PCOD8097919 Si02
#       8
#     8   8   8   8   8   8   8   8
#     4  10  20  34  55  79 106 146 183 227 280 328
#     4  11  22  36  53  77 107 146 189 229 272 320
#     4  11  22  37  53  75 110 155 196 225 262 316
#     4  10  21  34  55  84 111 139 176 225 281 332
#     4  10  20  35  56  76 108 141 184 229 277 326
#     4  11  21  33  55  82 115 143 178 219 280 333
#     4  11  22  32  54  77 111 147 187 227 266 316
#     4  10  21  35  53  77 113 146 187 226 271 321
#
# _framework density 17.732755000000001
#
# number of rings (size 3 to 8) (size 9 to 14) (size 15 to 20)
#    0.000    1.500    2.500    4.125    1.750    4.000 
#    0.000    0.000    0.000    0.375    0.000    0.000 
#    0.000    2.500    0.000    0.000    0.000    0.000 
#
# Total GULP energy -396861.944982 kJ/mol
# GULP energy per Si atom -12401.935781 kJ/mol
# Density = 1.769239 g / cm^3
# Si number density = 17.732755 Si / 1000 Ang^3
#
#
#
# Elastic Constant Matrix: (Units=GPa)
#
#
# Indices 1 2 3 4 5 6 
#
# 1 105.6871 28.2619 41.5171 0.0000 7.9701 0.0000
# 2 28.2619 50.1666 19.9323 0.0000 -8.2411 0.0000
# 3 41.5171 19.9323 106.6635 0.0000 -5.3291 -0.0001
# 4 0.0000 0.0000 0.0000 22.5113 0.0000 -2.3030
# 5 7.9701 -8.2411 -5.3291 0.0000 29.0051 0.0000
# 6 0.0000 0.0000 -0.0001 -2.3030 0.0000 20.0823
#
#
#
# Elastic Compliance Matrix: (Units=1/GPa)
#
#
# Indices 1 2 3 4 5 6 
#
# 1 0.013491 -0.006966 -0.004273 0.000000 -0.006471 0.000000
# 2 -0.006966 0.026010 -0.001700 0.000000 0.008992 0.000000
# 3 -0.004273 -0.001700 0.011496 0.000000 0.002803 0.000000
# 4 0.000000 0.000000 0.000000 0.044949 0.000000 0.005155
# 5 -0.006471 0.008992 0.002803 0.000000 0.039325 0.000000
# 6 0.000000 0.000000 0.000000 0.005155 0.000000 0.050386
#
#
# Mechanical properties :
#
#
# Convention : Reuss Voigt Hill
#
# Bulk Modulus (GPa) = 39.80816 49.10440 44.45628
# Shear Modulus (GPa) = 22.73669 25.84013 24.28841
#
# Velocity S-wave (km/s) = 3.58465 3.82147 3.70495
# Velocity P-wave (km/s) = 6.29528 6.87190 6.58990
#
# Compressibility (1/GPa) = 0.02512048
#
# Stress axis : x y z
#
# Youngs Moduli (GPa) = 74.12284 38.44613 86.98560
#
# Poissons Ratio (x) = 0.26781 0.37167
# Poissons Ratio (y) = 0.51632 0.14788
# Poissons Ratio (z) = 0.31671 0.06536
#
# Static dielectric constant tensor:
#      x y z
#    x 3.359020 0.000000 0.185870 
#    y 0.000000 3.058130 0.000000 
#    z 0.185870 0.000000 3.299530 
# 
# 
# High freq. dielectric constant tensor:
#      x y z
#    x 1.691620 0.000000 0.014370 
#    y 0.000000 1.648490 0.000000 
#    z 0.014370 0.000000 1.693890 
# 
# From -- ./inp_files/89572.got.cif
#   From: 2010.06.25/outbox.cif.g09.slc.cpg/sg12_45_cif.got.tgz:89572.got - 2010.06.28 00:19:55.
