data_PCOD8097664
_publ_section_title
;
Structure prediction by ZEFSAII (Michael W. Deem and Ramdas Pophale) SiO2 
 PCOD8097664
Probable space group: C 2/M
;
_chemical_formula_sum "Si O2"
_cell_formula_units_Z 32
_cell_length_a 16.264214
_cell_length_b 23.232809
_cell_length_c 9.014869
_cell_angle_alpha 90.000000
_cell_angle_beta 25.940261
_cell_angle_gamma 90.000000
_cell_volume 1490.069577
_symmetry_space_group_name_H-M "C 2/M"
_symmetry_group_IT_number 12
_symmetry_cell_setting 'monoclinic'
loop_
_space_group_symop_operation_xyz
x,y,z
-x,y,-z
-x,-y,-z
x,-y,z
1/2+x,1/2+y,z
1/2-x,1/2+y,-z
1/2-x,1/2-y,-z
1/2+x,1/2-y,z
loop_
_atom_site_type_symbol
_atom_site_label
_atom_site_fract_x
_atom_site_fract_y
_atom_site_fract_z
Si Si1 0.624598 0.273266 0.570595
Si Si2 0.266980 0.172755 0.773436
Si Si3 0.040136 0.437410 0.606580
Si Si4 0.285137 0.362055 0.816791
O O1 0.750000 0.250000 0.500000
O O2 0.579756 0.218189 0.538401
O O3 0.733782 0.320013 0.292764
O O4 0.436763 0.302153 0.938812
O O5 0.296876 0.111137 0.641769
O O6 0.296034 0.168091 0.902723
O O7 0.101389 0.500000 0.573472
O O8 0.000000 0.445458 0.500000
O O9 0.847339 0.417060 0.001122
O O10 0.500000 0.381316 0.500000
#
# Coordination Sequence:
#
# PCOD8097664 Si02
#       4
#     8   8   8   8
#     4  11  21  34  54  81 112 141 178 227 277 331
#     4  10  20  34  54  79 110 144 180 224 275 327
#     4   9  18  34  56  81 109 143 185 229 270 318
#     4   9  19  34  54  82 112 143 180 224 273 326
#
# _framework density 21.475508000000001
#
# number of rings (size 3 to 8) (size 9 to 14) (size 15 to 20)
#    0.000    2.250    0.000    3.000    0.000    7.500 
#    0.000    3.750    0.000    6.000    0.000    0.000 
#    0.000    0.000    0.000    0.000    0.000    1.750 
#
# Total GULP energy -198250.494656 kJ/mol
# GULP energy per Si atom -12390.655916 kJ/mol
# Density = 2.142663 g / cm^3
# Si number density = 21.475508 Si / 1000 Ang^3
#
#
#
# Elastic Constant Matrix: (Units=GPa)
#
#
# Indices 1 2 3 4 5 6 
#
# 1 55.0055 30.8609 39.9478 -0.0005 -4.1269 -0.0163
# 2 30.8609 198.7759 102.2327 0.0172 -8.2480 0.0154
# 3 39.9478 102.2327 122.6269 0.0090 -0.7512 0.0309
# 4 -0.0005 0.0172 0.0090 29.2043 0.0174 -6.0416
# 5 -4.1269 -8.2480 -0.7512 0.0174 21.3641 0.0087
# 6 -0.0163 0.0154 0.0309 -6.0416 0.0087 7.6174
#
#
#
# Elastic Compliance Matrix: (Units=1/GPa)
#
#
# Indices 1 2 3 4 5 6 
#
# 1 0.024299 0.000839 -0.008587 0.000019 0.004716 0.000095
# 2 0.000839 0.009052 -0.007799 -0.000003 0.003383 0.000009
# 3 -0.008587 -0.007799 0.017430 -0.000015 -0.004057 -0.000081
# 4 0.000019 -0.000003 -0.000015 0.040963 -0.000045 0.032489
# 5 0.004716 0.003383 -0.004057 -0.000045 0.048882 -0.000072
# 6 0.000095 0.000009 -0.000081 0.032489 -0.000072 0.157046
#
#
# Mechanical properties :
#
#
# Convention : Reuss Voigt Hill
#
# Bulk Modulus (GPa) = 50.79438 80.27679 65.53558
# Shear Modulus (GPa) = 14.91080 25.19496 20.05288
#
# Velocity S-wave (km/s) = 2.63785 3.42891 3.05906
# Velocity P-wave (km/s) = 5.74293 7.28960 6.56200
#
# Compressibility (1/GPa) = 0.01968722
#
# Stress axis : x y z
#
# Youngs Moduli (GPa) = 41.15387 110.47098 57.37384
#
# Poissons Ratio (x) = -0.09273 0.49265
# Poissons Ratio (y) = -0.03454 0.44748
# Poissons Ratio (z) = 0.35338 0.86161
#
# Static dielectric constant tensor:
#      x y z
#    x 3.375370 0.000090 0.239040 
#    y 0.000090 4.598630 -0.000210 
#    z 0.239040 -0.000210 4.471620 
# 
# 
# High freq. dielectric constant tensor:
#      x y z
#    x 1.798260 0.000000 0.011120 
#    y 0.000000 1.836330 0.000010 
#    z 0.011120 0.000010 1.862130 
# 
# From -- ./inp_files/37758.got.cif
#   From: 2010.06.25/outbox.cif.g09.slc.cpg/sg12_19_cif.got.tgz:37758.got - 2010.06.28 00:19:55.
