data_PCOD8097537
_publ_section_title
;
Structure prediction by ZEFSAII (Michael W. Deem and Ramdas Pophale) SiO2 
 PCOD8097537
Probable space group: C 2/M
;
_chemical_formula_sum "Si O2"
_cell_formula_units_Z 36
_cell_length_a 9.068709
_cell_length_b 10.413706
_cell_length_c 19.674719
_cell_angle_alpha 90.000000
_cell_angle_beta 99.663526
_cell_angle_gamma 90.000000
_cell_volume 1831.693352
_symmetry_space_group_name_H-M "C 2/M"
_symmetry_group_IT_number 12
_symmetry_cell_setting 'monoclinic'
loop_
_space_group_symop_operation_xyz
x,y,z
-x,y,-z
-x,-y,-z
x,-y,z
1/2+x,1/2+y,z
1/2-x,1/2+y,-z
1/2-x,1/2-y,-z
1/2+x,1/2-y,z
loop_
_atom_site_type_symbol
_atom_site_label
_atom_site_fract_x
_atom_site_fract_y
_atom_site_fract_z
Si Si1 0.701350 0.858579 0.410308
Si Si2 0.213936 0.351550 0.259068
Si Si3 0.500000 0.712824 0.500000
Si Si4 0.142777 0.858111 0.964067
Si Si5 0.492219 0.645269 0.190972
O O1 0.710839 0.797190 0.336005
O O2 0.576385 0.793446 0.446420
O O3 0.866244 0.868046 0.456544
O O4 0.639554 0.000000 0.396097
O O5 0.156800 0.500000 0.248093
O O6 0.384194 0.343827 0.247415
O O7 0.117998 0.254195 0.206041
O O8 0.100812 0.824782 0.883806
O O9 0.218943 0.000000 0.972590
O O10 0.250000 0.750000 0.000000
O O11 0.000000 0.858708 0.000000
O O12 0.561046 0.500000 0.192892
#
# Coordination Sequence:
#
# PCOD8097537 Si02
#       5
#     8   8   4   8   8
#     4  10  20  35  53  76 104 134 172 215 259 310
#     4  10  21  36  55  79 107 139 177 219 262 313
#     4  10  20  34  54  76 102 136 170 210 264 312
#     4  10  21  36  55  80 109 140 177 219 262 312
#     4  10  21  37  55  79 109 140 177 219 262 312
#
# _framework density 19.653943999999999
#
# number of rings (size 3 to 8) (size 9 to 14) (size 15 to 20)
#    0.000    2.000    0.000    3.333    0.000    2.222 
#    0.000    5.556    0.000    0.000    0.000    0.000 
#    0.000    0.000    0.000    0.000    0.000    0.000 
#
# Total GULP energy -223098.239085 kJ/mol
# GULP energy per Si atom -12394.346616 kJ/mol
# Density = 1.960921 g / cm^3
# Si number density = 19.653944 Si / 1000 Ang^3
#
#
#
# Elastic Constant Matrix: (Units=GPa)
#
#
# Indices 1 2 3 4 5 6 
#
# 1 54.7170 21.1511 7.6121 0.0000 -7.7440 0.0000
# 2 21.1511 95.4047 25.2467 0.0000 17.3459 0.0000
# 3 7.6121 25.2467 81.1667 0.0000 -12.6228 0.0000
# 4 0.0000 0.0000 0.0000 32.4094 0.0000 5.5817
# 5 -7.7440 17.3459 -12.6228 0.0000 34.8171 0.0000
# 6 0.0000 0.0000 0.0000 5.5817 0.0000 21.6848
#
#
#
# Elastic Compliance Matrix: (Units=1/GPa)
#
#
# Indices 1 2 3 4 5 6 
#
# 1 0.021976 -0.006860 0.001446 0.000000 0.008830 0.000000
# 2 -0.006860 0.015696 -0.006032 0.000000 -0.011532 0.000000
# 3 0.001446 -0.006032 0.015449 0.000000 0.008928 0.000000
# 4 0.000000 0.000000 0.000000 0.032287 0.000000 -0.008311
# 5 0.008830 -0.011532 0.008928 0.000000 0.039668 0.000000
# 6 0.000000 0.000000 0.000000 -0.008311 0.000000 0.048254
#
#
# Mechanical properties :
#
#
# Convention : Reuss Voigt Hill
#
# Bulk Modulus (GPa) = 33.08126 37.70093 35.39109
# Shear Modulus (GPa) = 24.23671 29.60082 26.91877
#
# Velocity S-wave (km/s) = 3.51547 3.88506 3.70488
# Velocity P-wave (km/s) = 5.77463 6.27287 6.02890
#
# Compressibility (1/GPa) = 0.03022860
#
# Stress axis : x y z
#
# Youngs Moduli (GPa) = 45.50383 63.71228 64.72724
#
# Poissons Ratio (x) = 0.43708 -0.09360
# Poissons Ratio (y) = 0.31216 0.39045
# Poissons Ratio (z) = -0.06580 0.38432
#
# Static dielectric constant tensor:
#      x y z
#    x 3.412300 0.000000 -0.283480 
#    y 0.000000 3.725750 0.000000 
#    z -0.283480 0.000000 3.806030 
# 
# 
# High freq. dielectric constant tensor:
#      x y z
#    x 1.756290 0.000000 -0.020410 
#    y 0.000000 1.767610 0.000000 
#    z -0.020410 0.000000 1.780580 
# 
# From -- ./inp_files/254422.got.cif
#   From: 2010.06.25/outbox.cif.g09.slc.cpg/sg12_128_cif.got.tgz:254422.got - 2010.06.28 00:19:55.
