data_PCOD8097325
_publ_section_title
;
Structure prediction by ZEFSAII (Michael W. Deem and Ramdas Pophale) SiO2 
 PCOD8097325
Probable space group: C 2/M
;
_chemical_formula_sum "Si O2"
_cell_formula_units_Z 56
_cell_length_a 17.929159
_cell_length_b 8.951885
_cell_length_c 18.670474
_cell_angle_alpha 90.000000
_cell_angle_beta 103.633810
_cell_angle_gamma 90.000000
_cell_volume 2912.168613
_symmetry_space_group_name_H-M "C 2/M"
_symmetry_group_IT_number 12
_symmetry_cell_setting 'monoclinic'
loop_
_space_group_symop_operation_xyz
x,y,z
-x,y,-z
-x,-y,-z
x,-y,z
1/2+x,1/2+y,z
1/2-x,1/2+y,-z
1/2-x,1/2-y,-z
1/2+x,1/2-y,z
loop_
_atom_site_type_symbol
_atom_site_label
_atom_site_fract_x
_atom_site_fract_y
_atom_site_fract_z
Si Si1 0.734900 0.823191 0.285215
Si Si2 0.378195 0.676681 0.852426
Si Si3 0.669914 0.676632 0.000057
Si Si4 0.595890 0.322559 0.712436
Si Si5 0.810206 0.676203 0.566208
Si Si6 0.451875 0.677724 0.143156
Si Si7 0.030966 0.172545 0.427654
O O1 0.679941 0.750726 0.215085
O O2 0.820800 0.761925 0.291442
O O3 0.708536 0.771781 0.357622
O O4 0.731164 0.000000 0.275312
O O5 0.373961 0.500000 0.841920
O O6 0.356321 0.726278 0.927280
O O7 0.463348 0.737579 0.855364
O O8 0.678660 0.500000 0.995981
O O9 0.750000 0.750000 0.000000
O O10 0.606741 0.737480 0.929974
O O11 0.597080 0.500000 0.713128
O O12 0.574200 0.259166 0.785675
O O13 0.533281 0.266158 0.641328
O O14 0.803083 0.500000 0.556632
O O15 0.750000 0.750000 0.500000
O O16 0.894775 0.727155 0.564982
O O17 0.452065 0.500000 0.143230
O O18 0.000000 0.192965 0.500000
O O19 0.051740 0.000000 0.416728
#
# Coordination Sequence:
#
# PCOD8097325 Si02
#       7
#     8   8   8   8   8   8   8
#     4  10  21  37  56  80 110 143 178 218 269 325
#     4  10  20  34  54  80 106 136 179 227 272 319
#     4  10  20  34  53  77 106 140 178 223 272 322
#     4   9  17  31  53  77 102 139 182 219 264 323
#     4  11  23  38  57  82 113 148 185 225 271 325
#     4   9  17  31  52  76 103 137 177 219 263 315
#     4  10  20  36  58  82 110 144 183 229 277 326
#
# _framework density 19.229655999999999
#
# number of rings (size 3 to 8) (size 9 to 14) (size 15 to 20)
#    0.000    2.143    0.000    3.429    0.000    8.286 
#    0.000    1.429    0.000    6.857    0.000    0.000 
#    0.000    0.000    0.000    0.000    0.000    0.000 
#
# Total GULP energy -347282.120291 kJ/mol
# GULP energy per Si atom -12402.932868 kJ/mol
# Density = 1.918589 g / cm^3
# Si number density = 19.229656 Si / 1000 Ang^3
#
#
#
# Elastic Constant Matrix: (Units=GPa)
#
#
# Indices 1 2 3 4 5 6 
#
# 1 163.0435 29.8374 81.9304 0.0000 10.9843 0.0000
# 2 29.8374 26.2191 36.4948 0.0000 -0.1040 0.0000
# 3 81.9304 36.4948 188.9773 0.0000 12.4673 0.0000
# 4 0.0000 0.0000 0.0000 23.1404 0.0000 7.1207
# 5 10.9843 -0.1040 12.4673 0.0000 44.0648 0.0000
# 6 0.0000 0.0000 0.0000 7.1207 0.0000 28.5937
#
#
#
# Elastic Compliance Matrix: (Units=1/GPa)
#
#
# Indices 1 2 3 4 5 6 
#
# 1 0.008621 -0.006498 -0.002385 0.000000 -0.001490 0.000000
# 2 -0.006498 0.057458 -0.008555 0.000000 0.004176 0.000000
# 3 -0.002385 -0.008555 0.008091 0.000000 -0.001715 0.000000
# 4 0.000000 0.000000 0.000000 0.046801 0.000000 -0.011655
# 5 -0.001490 0.004176 -0.001715 0.000000 0.023560 0.000000
# 6 0.000000 0.000000 0.000000 -0.011655 0.000000 0.037875
#
#
# Mechanical properties :
#
#
# Convention : Reuss Voigt Hill
#
# Bulk Modulus (GPa) = 25.44760 74.97388 50.21074
# Shear Modulus (GPa) = 21.70339 34.49161 28.09750
#
# Velocity S-wave (km/s) = 3.36317 4.23977 3.82665
# Velocity P-wave (km/s) = 5.32386 7.93982 6.75960
#
# Compressibility (1/GPa) = 0.03929643
#
# Stress axis : x y z
#
# Youngs Moduli (GPa) = 115.99567 17.40390 123.59965
#
# Poissons Ratio (x) = 0.11308 0.29473
# Poissons Ratio (y) = 0.75369 1.05736
# Poissons Ratio (z) = 0.27660 0.14888
#
# Static dielectric constant tensor:
#      x y z
#    x 3.756700 0.000000 -0.039320 
#    y 0.000000 3.148810 0.000000 
#    z -0.039320 0.000000 3.798810 
# 
# 
# High freq. dielectric constant tensor:
#      x y z
#    x 1.768400 0.000000 -0.000120 
#    y 0.000000 1.708280 0.000000 
#    z -0.000120 0.000000 1.770650 
# 
# From -- ./inp_files/275485.got.cif
#   From: 2010.06.25/outbox.cif.g09.slc.cpg/sg12_138_cif.got.tgz:275485.got - 2010.06.28 00:19:55.
