data_PCOD8097621
_publ_section_title
;
Structure prediction by ZEFSAII (Michael W. Deem and Ramdas Pophale) SiO2 
 PCOD8097621
Probable space group: C 2/M
;
_chemical_formula_sum "Si O2"
_cell_formula_units_Z 56
_cell_length_a 13.272296
_cell_length_b 9.381322
_cell_length_c 28.409259
_cell_angle_alpha 90.000000
_cell_angle_beta 58.990632
_cell_angle_gamma 90.000000
_cell_volume 3031.746808
_symmetry_space_group_name_H-M "C 2/M"
_symmetry_group_IT_number 12
_symmetry_cell_setting 'monoclinic'
loop_
_space_group_symop_operation_xyz
x,y,z
-x,y,-z
-x,-y,-z
x,-y,z
1/2+x,1/2+y,z
1/2-x,1/2+y,-z
1/2-x,1/2-y,-z
1/2+x,1/2-y,z
loop_
_atom_site_type_symbol
_atom_site_label
_atom_site_fract_x
_atom_site_fract_y
_atom_site_fract_z
Si Si1 0.675690 0.839413 0.204430
Si Si2 0.877529 0.749127 0.882552
Si Si3 0.461261 0.000000 0.932267
Si Si4 0.880616 0.837611 0.216678
Si Si5 0.426585 0.169392 0.293386
Si Si6 0.692238 0.000000 0.938101
Si Si7 0.593211 0.335557 0.513998
Si Si8 0.149403 0.335869 0.585915
O O1 0.678727 0.836837 0.147255
O O2 0.792956 0.771111 0.198333
O O3 0.559146 0.769950 0.255390
O O4 0.674680 0.000000 0.221829
O O5 0.922680 0.641333 0.912365
O O6 0.989338 0.832970 0.835933
O O7 0.776395 0.861105 0.921726
O O8 0.601697 0.000000 0.914129
O O9 0.386892 0.000000 0.997148
O O10 0.854329 0.742534 0.268898
O O11 0.853321 0.000000 0.236865
O O12 0.375079 0.219738 0.355663
O O13 0.417913 0.000000 0.288757
O O14 0.500000 0.274207 0.500000
O O15 0.571802 0.500000 0.530672
O O16 0.716575 0.307655 0.459402
O O17 0.572190 0.252321 0.567589
O O18 0.113430 0.500000 0.590166
#
# Coordination Sequence:
#
# PCOD8097621 Si02
#       8
#     8   8   4   8   8   4   8   8
#     4   9  18  34  55  76 102 141 182 213 272 338
#     4  11  20  40  59  82 116 150 186 238 283 334
#     4  11  24  40  63  85 119 159 188 235 297 336
#     4  10  20  34  54  79 105 138 179 224 269 327
#     4   9  19  34  51  74 105 138 172 220 273 327
#     4  11  24  40  59  93 117 147 202 239 277 350
#     4   9  18  32  50  71  98 135 175 217 268 321
#     4   9  18  33  50  71 101 134 174 218 264 323
#
# _framework density 18.4712
#
# number of rings (size 3 to 8) (size 9 to 14) (size 15 to 20)
#    0.000    2.286    1.429    1.286    1.000    2.000 
#    1.286    0.000    0.000    3.429    0.000    0.000 
#    0.000    0.000    0.000    0.000    0.000    0.000 
#
# Total GULP energy -346947.068501 kJ/mol
# GULP energy per Si atom -12390.966732 kJ/mol
# Density = 1.842916 g / cm^3
# Si number density = 18.471200 Si / 1000 Ang^3
#
#
#
# Elastic Constant Matrix: (Units=GPa)
#
#
# Indices 1 2 3 4 5 6 
#
# 1 122.8891 46.5131 40.4473 0.0000 33.7170 0.0000
# 2 46.5131 66.2631 39.3262 0.0000 10.9874 0.0000
# 3 40.4473 39.3262 107.2867 0.0000 25.3235 0.0000
# 4 0.0000 0.0000 0.0000 24.1611 0.0000 1.0881
# 5 33.7170 10.9874 25.3235 0.0000 24.5863 0.0000
# 6 0.0000 0.0000 0.0000 1.0881 0.0000 21.5328
#
#
#
# Elastic Compliance Matrix: (Units=1/GPa)
#
#
# Indices 1 2 3 4 5 6 
#
# 1 0.016823 -0.009592 0.002124 0.000000 -0.020971 0.000000
# 2 -0.009592 0.024814 -0.007883 0.000000 0.010184 0.000000
# 3 0.002124 -0.007883 0.014884 0.000000 -0.014720 0.000000
# 4 0.000000 0.000000 0.000000 0.041483 0.000000 -0.002096
# 5 -0.020971 0.010184 -0.014720 0.000000 0.080042 0.000000
# 6 0.000000 0.000000 0.000000 -0.002096 0.000000 0.046547
#
#
# Mechanical properties :
#
#
# Convention : Reuss Voigt Hill
#
# Bulk Modulus (GPa) = 38.73252 61.00136 49.86694
# Shear Modulus (GPa) = 18.94640 25.39953 22.17297
#
# Velocity S-wave (km/s) = 3.20617 3.71224 3.46845
# Velocity P-wave (km/s) = 5.89243 7.17434 6.56475
#
# Compressibility (1/GPa) = 0.02581810
#
# Stress axis : x y z
#
# Youngs Moduli (GPa) = 59.44351 40.29957 67.18472
#
# Poissons Ratio (x) = 0.38654 -0.14267
# Poissons Ratio (y) = 0.57016 0.52965
# Poissons Ratio (z) = -0.12623 0.31770
#
# Static dielectric constant tensor:
#      x y z
#    x 3.821560 0.000000 0.119450 
#    y 0.000000 3.280190 0.000000 
#    z 0.119450 0.000000 3.382030 
# 
# 
# High freq. dielectric constant tensor:
#      x y z
#    x 1.726830 0.000000 0.006720 
#    y 0.000000 1.705370 0.000000 
#    z 0.006720 0.000000 1.714320 
# 
# From -- ./inp_files/359681.got.cif
#   From: 2010.06.25/outbox.cif.g09.slc.cpg/sg12_180_cif.got.tgz:359681.got - 2010.06.28 00:19:55.
