data_PCOD8097311
_publ_section_title
;
Structure prediction by ZEFSAII (Michael W. Deem and Ramdas Pophale) SiO2 
 PCOD8097311
Probable space group: C 2/M
;
_chemical_formula_sum "Si O2"
_cell_formula_units_Z 48
_cell_length_a 31.951171
_cell_length_b 8.456024
_cell_length_c 15.971769
_cell_angle_alpha 90.000000
_cell_angle_beta 143.778499
_cell_angle_gamma 90.000000
_cell_volume 2549.917950
_symmetry_space_group_name_H-M "C 2/M"
_symmetry_group_IT_number 12
_symmetry_cell_setting 'monoclinic'
loop_
_space_group_symop_operation_xyz
x,y,z
-x,y,-z
-x,-y,-z
x,-y,z
1/2+x,1/2+y,z
1/2-x,1/2+y,-z
1/2-x,1/2-y,-z
1/2+x,1/2-y,z
loop_
_atom_site_type_symbol
_atom_site_label
_atom_site_fract_x
_atom_site_fract_y
_atom_site_fract_z
Si Si1 0.802247 0.312842 0.697595
Si Si2 0.009766 0.185846 0.256381
Si Si3 0.349214 0.313099 0.605507
Si Si4 0.863103 0.685915 0.971352
Si Si5 0.678795 0.685516 0.924129
Si Si6 0.968137 0.685424 0.360672
O O1 0.804786 0.500000 0.698554
O O2 0.722209 0.248999 0.554509
O O3 0.853247 0.247421 0.707208
O O4 0.830806 0.250726 0.832366
O O5 0.082974 0.250158 0.335722
O O6 0.009779 0.221844 0.355203
O O7 0.999705 0.000000 0.225620
O O8 0.946498 0.277437 0.108008
O O9 0.348973 0.500000 0.605322
O O10 0.850671 0.500000 0.963189
O O11 0.822407 0.777948 0.979096
O O12 0.671691 0.500000 0.897466
O O13 0.614660 0.773492 0.774188
O O14 0.750000 0.750000 0.000000
O O15 0.978733 0.500000 0.363242
O O16 0.000000 0.741758 0.500000
#
# Coordination Sequence:
#
# PCOD8097311 Si02
#       6
#     8   8   8   8   8   8
#     4   9  19  35  54  76 102 135 173 213 259 308
#     4  10  20  34  53  77 105 138 175 214 260 312
#     4   9  19  35  53  75 103 134 172 215 257 307
#     4  10  20  35  54  77 106 137 173 216 260 310
#     4  11  22  37  57  80 108 141 178 218 264 315
#     4  10  21  37  56  80 109 139 176 220 265 315
#
# _framework density 18.824134000000001
#
# number of rings (size 3 to 8) (size 9 to 14) (size 15 to 20)
#    0.000    2.167    0.000    5.000    0.000    6.000 
#    0.000    5.000    0.000    0.000    0.000    0.000 
#    0.000    0.000    0.000    0.000    0.000    0.000 
#
# Total GULP energy -297658.464937 kJ/mol
# GULP energy per Si atom -12402.436039 kJ/mol
# Density = 1.878129 g / cm^3
# Si number density = 18.824134 Si / 1000 Ang^3
#
#
#
# Elastic Constant Matrix: (Units=GPa)
#
#
# Indices 1 2 3 4 5 6 
#
# 1 149.7003 8.2531 83.1148 0.0000 12.6973 0.0000
# 2 8.2531 28.2279 5.3333 0.0000 -0.6715 0.0000
# 3 83.1148 5.3333 123.3305 0.0000 -21.4159 0.0000
# 4 0.0000 0.0000 0.0000 27.0446 0.0000 -0.9418
# 5 12.6973 -0.6715 -21.4159 0.0000 32.6322 0.0000
# 6 0.0000 0.0000 0.0000 -0.9418 0.0000 33.2626
#
#
#
# Elastic Compliance Matrix: (Units=1/GPa)
#
#
# Indices 1 2 3 4 5 6 
#
# 1 0.014807 -0.002338 -0.012287 0.000000 -0.013873 0.000000
# 2 -0.002338 0.036090 0.000341 0.000000 0.001876 0.000000
# 3 -0.012287 0.000341 0.019418 0.000000 0.017532 0.000000
# 4 0.000000 0.000000 0.000000 0.037012 0.000000 0.001048
# 5 -0.013873 0.001876 0.017532 0.000000 0.047587 0.000000
# 6 0.000000 0.000000 0.000000 0.001048 0.000000 0.030093
#
#
# Mechanical properties :
#
#
# Convention : Reuss Voigt Hill
#
# Bulk Modulus (GPa) = 23.95381 54.96234 39.45808
# Shear Modulus (GPa) = 21.97870 32.22505 27.10188
#
# Velocity S-wave (km/s) = 3.42070 4.14200 3.79851
# Velocity P-wave (km/s) = 5.32487 7.22053 6.34391
#
# Compressibility (1/GPa) = 0.04174701
#
# Stress axis : x y z
#
# Youngs Moduli (GPa) = 67.53338 27.70871 51.49763
#
# Poissons Ratio (x) = 0.06478 0.63275
# Poissons Ratio (y) = 0.15788 -0.01754
# Poissons Ratio (z) = 0.82979 -0.00944
#
# Static dielectric constant tensor:
#      x y z
#    x 3.588410 0.000000 0.005630 
#    y 0.000000 3.438440 0.000000 
#    z 0.005630 0.000000 3.638910 
# 
# 
# High freq. dielectric constant tensor:
#      x y z
#    x 1.735780 0.000000 -0.001350 
#    y 0.000000 1.734280 0.000000 
#    z -0.001350 0.000000 1.731220 
# 
# From -- ./inp_files/248795.got.cif
#   From: 2010.06.25/outbox.cif.g09.slc.cpg/sg12_125_cif.got.tgz:248795.got - 2010.06.28 00:19:55.
