data_PCOD8097976
_publ_section_title
;
Structure prediction by ZEFSAII (Michael W. Deem and Ramdas Pophale) SiO2 
 PCOD8097976
Probable space group: C 2/M
;
_chemical_formula_sum "Si O2"
_cell_formula_units_Z 56
_cell_length_a 17.724075
_cell_length_b 8.897714
_cell_length_c 19.687178
_cell_angle_alpha 90.000000
_cell_angle_beta 63.828429
_cell_angle_gamma 90.000000
_cell_volume 2786.435369
_symmetry_space_group_name_H-M "C 2/M"
_symmetry_group_IT_number 12
_symmetry_cell_setting 'monoclinic'
loop_
_space_group_symop_operation_xyz
x,y,z
-x,y,-z
-x,-y,-z
x,-y,z
1/2+x,1/2+y,z
1/2-x,1/2+y,-z
1/2-x,1/2-y,-z
1/2+x,1/2-y,z
loop_
_atom_site_type_symbol
_atom_site_label
_atom_site_fract_x
_atom_site_fract_y
_atom_site_fract_z
Si Si1 0.789968 0.675319 0.238874
Si Si2 0.219244 0.323305 0.911928
Si Si3 0.855813 0.323680 0.621138
Si Si4 0.019782 0.672051 0.801578
Si Si5 0.837678 0.177777 0.485831
Si Si6 0.377437 0.323955 0.936583
Si Si7 0.015057 0.325683 0.648765
O O1 0.766287 0.500000 0.254971
O O2 0.781416 0.732417 0.165132
O O3 0.729443 0.772734 0.309526
O O4 0.882699 0.708715 0.228597
O O5 0.206107 0.500000 0.921092
O O6 0.307057 0.271466 0.910332
O O7 0.141621 0.248996 0.982787
O O8 0.851463 0.500000 0.607763
O O9 0.868817 0.237056 0.545901
O O10 0.934029 0.281210 0.637418
O O11 0.000670 0.500000 0.827522
O O12 0.992640 0.709168 0.735592
O O13 0.967927 0.773426 0.874208
O O14 0.750000 0.250000 0.500000
O O15 0.906758 0.222905 0.402970
O O16 0.827014 0.000000 0.492299
O O17 0.377211 0.500000 0.946687
O O18 0.040049 0.500000 0.628935
#
# Coordination Sequence:
#
# PCOD8097976 Si02
#       7
#     8   8   8   8   8   8   8
#     4  10  21  37  58  83 112 150 195 239 285 342
#     4   9  19  36  56  79 109 146 189 235 283 338
#     4  11  23  39  61  88 119 154 192 237 286 339
#     4  10  21  37  57  81 112 149 185 229 287 343
#     4  12  25  41  63  89 119 154 192 237 288 341
#     4  10  20  34  55  81 109 144 187 236 286 340
#     4  10  22  40  61  87 119 154 193 236 285 343
#
# _framework density 20.097362
#
# number of rings (size 3 to 8) (size 9 to 14) (size 15 to 20)
#    0.000    1.714    0.000    4.286    0.000    6.857 
#    0.000    2.857    0.000    0.000    0.000    0.000 
#    0.000    0.000    0.000    0.000    0.000    0.000 
#
# Total GULP energy -347381.369640 kJ/mol
# GULP energy per Si atom -12406.477487 kJ/mol
# Density = 2.005162 g / cm^3
# Si number density = 20.097362 Si / 1000 Ang^3
#
#
#
# Elastic Constant Matrix: (Units=GPa)
#
#
# Indices 1 2 3 4 5 6 
#
# 1 60.5592 18.5490 4.0253 0.0000 -9.1969 0.0000
# 2 18.5490 65.4235 16.5024 -0.0001 -11.5975 -0.0002
# 3 4.0253 16.5024 64.3292 0.0000 -15.7037 0.0000
# 4 0.0000 -0.0001 0.0000 39.0959 0.0000 -5.6872
# 5 -9.1969 -11.5975 -15.7037 0.0000 34.9681 0.0000
# 6 0.0000 -0.0002 0.0000 -5.6872 0.0000 29.7376
#
#
#
# Elastic Compliance Matrix: (Units=1/GPa)
#
#
# Indices 1 2 3 4 5 6 
#
# 1 0.018490 -0.004835 0.000987 0.000000 0.003703 0.000000
# 2 -0.004835 0.018113 -0.003581 0.000000 0.003128 0.000000
# 3 0.000987 -0.003581 0.018167 0.000000 0.007231 0.000000
# 4 0.000000 0.000000 0.000000 0.026310 0.000000 0.005032
# 5 0.003703 0.003128 0.007231 0.000000 0.033856 0.000000
# 6 0.000000 0.000000 0.000000 0.005032 0.000000 0.034590
#
#
# Mechanical properties :
#
#
# Convention : Reuss Voigt Hill
#
# Bulk Modulus (GPa) = 25.05379 29.82949 27.44164
# Shear Modulus (GPa) = 28.13920 30.84267 29.49093
#
# Velocity S-wave (km/s) = 3.74591 3.92173 3.83483
# Velocity P-wave (km/s) = 5.58591 5.94822 5.76991
#
# Compressibility (1/GPa) = 0.03991412
#
# Stress axis : x y z
#
# Youngs Moduli (GPa) = 54.08196 55.20746 55.04521
#
# Poissons Ratio (x) = 0.26693 -0.05434
# Poissons Ratio (y) = 0.26149 0.19709
# Poissons Ratio (z) = -0.05339 0.19767
#
# Static dielectric constant tensor:
#      x y z
#    x 3.735920 0.000000 0.124060 
#    y 0.000000 3.576370 0.000000 
#    z 0.124060 0.000000 3.770540 
# 
# 
# High freq. dielectric constant tensor:
#      x y z
#    x 1.789720 0.000000 0.001320 
#    y 0.000000 1.780090 0.000000 
#    z 0.001320 0.000000 1.797810 
# 
# From -- ./inp_files/275303.got.cif
#   From: 2010.06.25/outbox.cif.g09.slc.cpg/sg12_138_cif.got.tgz:275303.got - 2010.06.28 00:19:55.
