data_PCOD8097043
_publ_section_title
;
Structure prediction by ZEFSAII (Michael W. Deem and Ramdas Pophale) SiO2 
 PCOD8097043
Probable space group: C 2/M
;
_chemical_formula_sum "Si O2"
_cell_formula_units_Z 56
_cell_length_a 14.404392
_cell_length_b 9.289001
_cell_length_c 28.492206
_cell_angle_alpha 90.000000
_cell_angle_beta 130.116181
_cell_angle_gamma 90.000000
_cell_volume 2915.436042
_symmetry_space_group_name_H-M "C 2/M"
_symmetry_group_IT_number 12
_symmetry_cell_setting 'monoclinic'
loop_
_space_group_symop_operation_xyz
x,y,z
-x,y,-z
-x,-y,-z
x,-y,z
1/2+x,1/2+y,z
1/2-x,1/2+y,-z
1/2-x,1/2-y,-z
1/2+x,1/2-y,z
loop_
_atom_site_type_symbol
_atom_site_label
_atom_site_fract_x
_atom_site_fract_y
_atom_site_fract_z
Si Si1 0.802035 0.836791 0.821795
Si Si2 0.937991 0.341493 0.934326
Si Si3 0.905099 0.831618 0.508337
Si Si4 0.473267 0.166649 0.269902
Si Si5 0.158736 0.661127 0.938251
Si Si6 0.126946 0.332586 0.409533
Si Si7 0.514340 0.669579 0.820433
O O1 0.825596 0.748691 0.877588
O O2 0.665873 0.807796 0.760163
O O3 0.891636 0.795090 0.808857
O O4 0.823518 0.000000 0.843752
O O5 0.890184 0.500000 0.933724
O O6 0.033708 0.354613 0.924345
O O7 0.000000 0.266037 0.000000
O O8 0.930827 0.752211 0.565646
O O9 0.768392 0.795433 0.447290
O O10 0.000000 0.775796 0.500000
O O11 0.923766 0.000000 0.523260
O O12 0.556437 0.215675 0.340111
O O13 0.508571 0.268070 0.238399
O O14 0.496228 0.000000 0.263743
O O15 0.209464 0.500000 0.943286
O O16 0.130653 0.750147 0.881619
O O17 0.250000 0.750000 0.000000
O O18 0.108077 0.500000 0.413993
O O19 0.541899 0.500000 0.827363
#
# Coordination Sequence:
#
# PCOD8097043 Si02
#       7
#     8   8   8   8   8   8   8
#     4   9  20  37  53  73 102 136 174 218 266 323
#     4   9  19  34  51  73  99 127 164 215 268 319
#     4   9  18  34  56  82 114 148 183 224 266 310
#     4  10  21  37  56  79 109 145 181 221 274 324
#     4  10  20  34  52  75 103 133 168 217 273 327
#     4   9  19  35  54  80 113 146 182 224 266 318
#     4  10  21  37  54  75 104 138 178 222 269 323
#
# _framework density 19.208103000000001
#
# number of rings (size 3 to 8) (size 9 to 14) (size 15 to 20)
#    0.000    2.571    0.000    0.857    2.000    4.000 
#    0.000    0.000    0.000    0.000    0.000    0.000 
#    0.000    0.000    0.000    0.000    0.000    0.000 
#
# Total GULP energy -347178.463992 kJ/mol
# GULP energy per Si atom -12399.230857 kJ/mol
# Density = 1.916438 g / cm^3
# Si number density = 19.208103 Si / 1000 Ang^3
#
#
#
# Elastic Constant Matrix: (Units=GPa)
#
#
# Indices 1 2 3 4 5 6 
#
# 1 92.3638 48.3240 55.4210 0.0000 -11.9569 0.0000
# 2 48.3240 96.4999 71.6724 0.0000 -10.5475 0.0000
# 3 55.4210 71.6724 170.5556 0.0000 -15.6844 0.0000
# 4 0.0000 0.0000 0.0000 33.8905 0.0000 -5.8259
# 5 -11.9569 -10.5475 -15.6844 0.0000 26.0272 0.0000
# 6 0.0000 0.0000 0.0000 -5.8259 0.0000 19.4145
#
#
#
# Elastic Compliance Matrix: (Units=1/GPa)
#
#
# Indices 1 2 3 4 5 6 
#
# 1 0.015691 -0.005711 -0.002380 0.000000 0.003459 0.000000
# 2 -0.005711 0.017289 -0.005300 0.000000 0.001189 0.000000
# 3 -0.002380 -0.005300 0.009069 0.000000 0.002223 0.000000
# 4 0.000000 0.000000 0.000000 0.031112 0.000000 0.009336
# 5 0.003459 0.001189 0.002223 0.000000 0.041832 0.000000
# 6 0.000000 0.000000 0.000000 0.009336 0.000000 0.054310
#
#
# Mechanical properties :
#
#
# Convention : Reuss Voigt Hill
#
# Bulk Modulus (GPa) = 65.51128 78.91713 72.21421
# Shear Modulus (GPa) = 24.85399 28.13322 26.49361
#
# Velocity S-wave (km/s) = 3.60103 3.83123 3.71791
# Velocity P-wave (km/s) = 7.17426 7.79395 7.49052
#
# Compressibility (1/GPa) = 0.01526455
#
# Stress axis : x y z
#
# Youngs Moduli (GPa) = 63.73016 57.83908 110.27176
#
# Poissons Ratio (x) = 0.33035 0.26250
# Poissons Ratio (y) = 0.36399 0.58447
# Poissons Ratio (z) = 0.15171 0.30656
#
# Static dielectric constant tensor:
#      x y z
#    x 3.497850 0.000000 0.030490 
#    y 0.000000 3.695510 0.000000 
#    z 0.030490 0.000000 3.505480 
# 
# 
# High freq. dielectric constant tensor:
#      x y z
#    x 1.744100 0.000000 -0.000720 
#    y 0.000000 1.746440 0.000000 
#    z -0.000720 0.000000 1.743780 
# 
# From -- ./inp_files/375124.got.cif
#   From: 2010.06.25/outbox.cif.g09.slc.cpg/sg12_188_cif.got.tgz:375124.got - 2010.06.28 00:19:55.
