data_PCOD8097929
_publ_section_title
;
Structure prediction by ZEFSAII (Michael W. Deem and Ramdas Pophale) SiO2 
 PCOD8097929
Probable space group: C 2/M
;
_chemical_formula_sum "Si O2"
_cell_formula_units_Z 48
_cell_length_a 18.097357
_cell_length_b 9.294576
_cell_length_c 27.112328
_cell_angle_alpha 90.000000
_cell_angle_beta 145.704724
_cell_angle_gamma 90.000000
_cell_volume 2569.644510
_symmetry_space_group_name_H-M "C 2/M"
_symmetry_group_IT_number 12
_symmetry_cell_setting 'monoclinic'
loop_
_space_group_symop_operation_xyz
x,y,z
-x,y,-z
-x,-y,-z
x,-y,z
1/2+x,1/2+y,z
1/2-x,1/2+y,-z
1/2-x,1/2-y,-z
1/2+x,1/2-y,z
loop_
_atom_site_type_symbol
_atom_site_label
_atom_site_fract_x
_atom_site_fract_y
_atom_site_fract_z
Si Si1 0.263520 0.833731 0.741997
Si Si2 0.937007 0.666235 0.082937
Si Si3 0.148812 0.669481 0.586903
Si Si4 0.392243 0.333048 0.245377
Si Si5 0.693082 0.668487 0.422224
Si Si6 0.224073 0.332046 0.909720
O O1 0.411593 0.790390 0.836966
O O2 0.216397 0.740831 0.670584
O O3 0.172014 0.798670 0.737680
O O4 0.255615 0.000000 0.722342
O O5 0.913541 0.500000 0.056232
O O6 0.886007 0.699310 0.109839
O O7 0.861617 0.762727 0.001653
O O8 0.155197 0.500000 0.598512
O O9 0.225749 0.717610 0.580636
O O10 0.000000 0.724055 0.500000
O O11 0.376541 0.500000 0.222323
O O12 0.543193 0.286818 0.331253
O O13 0.320843 0.237669 0.165685
O O14 0.707125 0.500000 0.440126
O O15 0.750000 0.750000 0.500000
O O16 0.246637 0.500000 0.913767
#
# Coordination Sequence:
#
# PCOD8097929 Si02
#       6
#     8   8   8   8   8   8
#     4  10  21  36  55  78 103 137 178 214 254 306
#     4   9  19  36  55  76 104 136 172 215 260 306
#     4  10  21  36  54  78 108 139 171 212 262 308
#     4  10  21  36  53  76 107 139 172 213 260 307
#     4  10  21  36  55  79 106 138 174 212 258 308
#     4  10  20  34  55  80 103 134 175 214 257 309
#
# _framework density 18.679627
#
# number of rings (size 3 to 8) (size 9 to 14) (size 15 to 20)
#    0.000    2.167    0.000    2.500    0.000    4.333 
#    0.000    3.333    0.000    0.000    0.000    0.000 
#    0.000    0.000    0.000    0.000    0.000    0.000 
#
# Total GULP energy -297727.153576 kJ/mol
# GULP energy per Si atom -12405.298066 kJ/mol
# Density = 1.863711 g / cm^3
# Si number density = 18.679627 Si / 1000 Ang^3
#
#
#
# Elastic Constant Matrix: (Units=GPa)
#
#
# Indices 1 2 3 4 5 6 
#
# 1 127.2655 53.5474 92.3988 0.0000 5.8791 0.0000
# 2 53.5474 69.6606 65.4485 0.0000 -13.0820 0.0000
# 3 92.3988 65.4485 143.2905 0.0000 0.5660 0.0000
# 4 0.0000 0.0000 0.0000 38.5117 0.0000 -12.1341
# 5 5.8791 -13.0820 0.5660 0.0000 41.0689 0.0000
# 6 0.0000 0.0000 0.0000 -12.1341 0.0000 27.3228
#
#
#
# Elastic Compliance Matrix: (Units=1/GPa)
#
#
# Indices 1 2 3 4 5 6 
#
# 1 0.016110 -0.005972 -0.007644 0.000000 -0.004103 0.000000
# 2 -0.005972 0.030436 -0.010093 0.000000 0.010689 0.000000
# 3 -0.007644 -0.010093 0.016527 0.000000 -0.002349 0.000000
# 4 0.000000 0.000000 0.000000 0.030191 0.000000 0.013408
# 5 -0.004103 0.010689 -0.002349 0.000000 0.028374 0.000000
# 6 0.000000 0.000000 0.000000 0.013408 0.000000 0.042554
#
#
# Mechanical properties :
#
#
# Convention : Reuss Voigt Hill
#
# Bulk Modulus (GPa) = 63.87846 84.77846 74.32846
# Shear Modulus (GPa) = 23.05967 29.96881 26.51424
#
# Velocity S-wave (km/s) = 3.51733 4.00979 3.77161
# Velocity P-wave (km/s) = 7.12507 8.18058 7.67100
#
# Compressibility (1/GPa) = 0.01565473
#
# Stress axis : x y z
#
# Youngs Moduli (GPa) = 62.07379 32.85576 60.50539
#
# Poissons Ratio (x) = 0.19621 0.46252
# Poissons Ratio (y) = 0.37070 0.61068
# Poissons Ratio (z) = 0.47451 0.33162
#
# Static dielectric constant tensor:
#      x y z
#    x 3.604660 0.000000 0.326440 
#    y 0.000000 3.387460 0.000000 
#    z 0.326440 0.000000 3.678860 
# 
# 
# High freq. dielectric constant tensor:
#      x y z
#    x 1.733250 0.000000 0.004920 
#    y 0.000000 1.721290 0.000000 
#    z 0.004920 0.000000 1.737840 
# 
# From -- ./inp_files/221589.got.cif
#   From: 2010.06.25/outbox.cif.g09.slc.cpg/sg12_111_cif.got.tgz:221589.got - 2010.06.28 00:19:55.
