data_PCOD8097633
_publ_section_title
;
Structure prediction by ZEFSAII (Michael W. Deem and Ramdas Pophale) SiO2 
 PCOD8097633
Probable space group: C 2/M
;
_chemical_formula_sum "Si O2"
_cell_formula_units_Z 56
_cell_length_a 32.744621
_cell_length_b 8.679556
_cell_length_c 11.354144
_cell_angle_alpha 90.000000
_cell_angle_beta 119.085306
_cell_angle_gamma 90.000000
_cell_volume 2820.019321
_symmetry_space_group_name_H-M "C 2/M"
_symmetry_group_IT_number 12
_symmetry_cell_setting 'monoclinic'
loop_
_space_group_symop_operation_xyz
x,y,z
-x,y,-z
-x,-y,-z
x,-y,z
1/2+x,1/2+y,z
1/2-x,1/2+y,-z
1/2-x,1/2-y,-z
1/2+x,1/2-y,z
loop_
_atom_site_type_symbol
_atom_site_label
_atom_site_fract_x
_atom_site_fract_y
_atom_site_fract_z
Si Si1 0.806857 0.680990 0.823544
Si Si2 0.115323 0.320287 0.654487
Si Si3 0.288696 0.821294 0.330295
Si Si4 0.169288 0.178834 0.388284
Si Si5 0.427938 0.678540 0.627893
Si Si6 0.105664 0.316646 0.905702
Si Si7 0.510764 0.182273 0.885630
O O1 0.799775 0.500000 0.829860
O O2 0.759539 0.767088 0.796728
O O3 0.819929 0.716730 0.707948
O O4 0.848126 0.745126 0.964473
O O5 0.103621 0.500000 0.625681
O O6 0.169613 0.287686 0.702268
O O7 0.081521 0.228799 0.519249
O O8 0.105350 0.257178 0.771078
O O9 0.295127 0.723711 0.458355
O O10 0.286372 0.000000 0.361111
O O11 0.116817 0.216882 0.355048
O O12 0.176209 0.000000 0.366717
O O13 0.440516 0.500000 0.648062
O O14 0.471153 0.773290 0.737837
O O15 0.105539 0.500000 0.907308
O O16 0.060220 0.250908 0.909484
O O17 0.513381 0.000000 0.896977
O O18 0.500000 0.252196 0.000000
#
# Coordination Sequence:
#
# PCOD8097633 Si02
#       7
#     8   8   8   8   8   8   8
#     4  11  21  34  54  79 109 142 177 221 270 316
#     4   9  19  38  59  77 103 142 185 222 258 311
#     4  10  20  34  54  79 106 139 180 222 266 317
#     4  10  20  35  54  78 109 142 178 219 265 319
#     4  10  21  36  56  82 111 141 174 220 273 317
#     4   9  20  37  56  79 106 140 183 224 260 309
#     4  10  20  36  59  84 109 140 179 218 260 317
#
# _framework density 19.858021000000001
#
# number of rings (size 3 to 8) (size 9 to 14) (size 15 to 20)
#    0.000    2.143    0.000    3.000    0.000    4.857 
#    0.000    6.429    0.000    0.000    0.000    0.000 
#    0.000    0.000    0.000    0.000    0.000    0.000 
#
# Total GULP energy -347302.884437 kJ/mol
# GULP energy per Si atom -12403.674444 kJ/mol
# Density = 1.981282 g / cm^3
# Si number density = 19.858021 Si / 1000 Ang^3
#
#
#
# Elastic Constant Matrix: (Units=GPa)
#
#
# Indices 1 2 3 4 5 6 
#
# 1 108.3245 17.7423 76.5391 0.0000 -1.1094 0.0000
# 2 17.7423 28.9911 9.8522 0.0000 1.8161 0.0000
# 3 76.5391 9.8522 116.0793 0.0000 9.6279 0.0000
# 4 0.0000 0.0000 0.0000 22.7884 0.0000 7.5233
# 5 -1.1094 1.8161 9.6279 0.0000 39.5171 0.0000
# 6 0.0000 0.0000 0.0000 7.5233 0.0000 22.4194
#
#
#
# Elastic Compliance Matrix: (Units=1/GPa)
#
#
# Indices 1 2 3 4 5 6 
#
# 1 0.019317 -0.007855 -0.012395 0.000000 0.003923 0.000000
# 2 -0.007855 0.038745 0.002099 0.000000 -0.002513 0.000000
# 3 -0.012395 0.002099 0.016990 0.000000 -0.004584 0.000000
# 4 0.000000 0.000000 0.000000 0.049349 0.000000 -0.016560
# 5 0.003923 -0.002513 -0.004584 0.000000 0.026648 0.000000
# 6 0.000000 0.000000 0.000000 -0.016560 0.000000 0.050161
#
#
# Mechanical properties :
#
#
# Convention : Reuss Voigt Hill
#
# Bulk Modulus (GPa) = 25.80724 51.29580 38.55152
# Shear Modulus (GPa) = 19.96584 26.89574 23.43079
#
# Velocity S-wave (km/s) = 3.17429 3.68421 3.43872
# Velocity P-wave (km/s) = 5.14382 6.63214 5.93482
#
# Compressibility (1/GPa) = 0.03874881
#
# Stress axis : x y z
#
# Youngs Moduli (GPa) = 51.76912 25.81010 58.85816
#
# Poissons Ratio (x) = 0.20274 0.72957
# Poissons Ratio (y) = 0.40664 -0.12356
# Poissons Ratio (z) = 0.64170 -0.05418
#
# Static dielectric constant tensor:
#      x y z
#    x 3.798220 0.000000 0.038410 
#    y 0.000000 3.380880 0.000000 
#    z 0.038410 0.000000 3.646770 
# 
# 
# High freq. dielectric constant tensor:
#      x y z
#    x 1.780780 0.000000 0.006120 
#    y 0.000000 1.757880 0.000000 
#    z 0.006120 0.000000 1.776750 
# 
# From -- ./inp_files/187194.got.cif
#   From: 2010.06.25/outbox.cif.g09.slc.cpg/sg12_94_cif.got.tgz:187194.got - 2010.06.28 00:19:55.
