data_PCOD8097574
_publ_section_title
;
Structure prediction by ZEFSAII (Michael W. Deem and Ramdas Pophale) SiO2 
 PCOD8097574
Probable space group: C 2/M
;
_chemical_formula_sum "Si O2"
_cell_formula_units_Z 64
_cell_length_a 14.365964
_cell_length_b 9.093340
_cell_length_c 26.679549
_cell_angle_alpha 90.000000
_cell_angle_beta 103.874145
_cell_angle_gamma 90.000000
_cell_volume 3383.588525
_symmetry_space_group_name_H-M "C 2/M"
_symmetry_group_IT_number 12
_symmetry_cell_setting 'monoclinic'
loop_
_space_group_symop_operation_xyz
x,y,z
-x,y,-z
-x,-y,-z
x,-y,z
1/2+x,1/2+y,z
1/2-x,1/2+y,-z
1/2-x,1/2-y,-z
1/2+x,1/2-y,z
loop_
_atom_site_type_symbol
_atom_site_label
_atom_site_fract_x
_atom_site_fract_y
_atom_site_fract_z
Si Si1 0.966807 0.171441 0.244266
Si Si2 0.719847 0.329814 0.420253
Si Si3 0.253548 0.830415 0.771455
Si Si4 0.449882 0.172413 0.942971
Si Si5 0.389889 0.669566 0.492928
Si Si6 0.717613 0.329093 0.126086
Si Si7 0.635429 0.826773 0.313959
Si Si8 0.937559 0.669845 0.141577
O O1 0.032105 0.252019 0.293727
O O2 0.858640 0.205289 0.246643
O O3 0.987267 0.235650 0.191637
O O4 0.990804 0.000000 0.247193
O O5 0.729726 0.500000 0.406716
O O6 0.641310 0.307523 0.453647
O O7 0.824230 0.271286 0.449578
O O8 0.685749 0.236143 0.369120
O O9 0.303692 0.738523 0.822005
O O10 0.299079 0.784485 0.724857
O O11 0.272192 0.000000 0.786722
O O12 0.349177 0.255023 0.924295
O O13 0.517889 0.214950 0.905521
O O14 0.429148 0.000000 0.943063
O O15 0.500000 0.228856 0.000000
O O16 0.500000 0.718833 0.500000
O O17 0.376074 0.500000 0.474891
O O18 0.694994 0.500000 0.125698
O O19 0.825453 0.294561 0.123335
O O20 0.622192 0.000000 0.318360
O O21 0.956222 0.500000 0.157178
#
# Coordination Sequence:
#
# PCOD8097574 Si02
#       8
#     8   8   8   8   8   8   8   8
#     4  10  20  35  55  79 104 134 176 217 254 303
#     4  10  21  36  55  82 111 138 176 222 261 302
#     4   9  20  37  55  75 103 141 177 207 250 314
#     4  10  21  36  53  73 100 136 173 207 252 314
#     4   9  19  38  61  80 104 142 181 216 260 312
#     4  10  20  34  54  78 103 131 167 216 263 302
#     4  11  22  36  54  77 110 146 174 209 260 311
#     4   9  19  36  54  74 103 136 169 208 259 312
#
# _framework density 18.914831
#
# number of rings (size 3 to 8) (size 9 to 14) (size 15 to 20)
#    0.000    2.250    0.000    2.250    0.000    8.000 
#    0.000    5.000    0.000    0.000    0.000    0.000 
#    0.000    0.000    0.000    0.000    0.000    0.000 
#
# Total GULP energy -396954.397105 kJ/mol
# GULP energy per Si atom -12404.824910 kJ/mol
# Density = 1.887178 g / cm^3
# Si number density = 18.914831 Si / 1000 Ang^3
#
#
#
# Elastic Constant Matrix: (Units=GPa)
#
#
# Indices 1 2 3 4 5 6 
#
# 1 81.0413 33.3492 36.4061 0.0000 12.5375 0.0000
# 2 33.3492 75.8839 46.1798 0.0000 12.6123 0.0000
# 3 36.4061 46.1798 108.0436 0.0000 18.4221 0.0000
# 4 0.0000 0.0000 0.0000 37.0622 0.0000 8.3967
# 5 12.5375 12.6123 18.4221 0.0000 22.9608 0.0000
# 6 0.0000 0.0000 0.0000 8.3967 0.0000 28.4879
#
#
#
# Elastic Compliance Matrix: (Units=1/GPa)
#
#
# Indices 1 2 3 4 5 6 
#
# 1 0.016145 -0.004776 -0.002714 0.000000 -0.004015 0.000000
# 2 -0.004776 0.019591 -0.006225 0.000000 -0.003158 0.000000
# 3 -0.002714 -0.006225 0.013896 0.000000 -0.006248 0.000000
# 4 0.000000 0.000000 0.000000 0.028912 0.000000 -0.008522
# 5 -0.004015 -0.003158 -0.006248 0.000000 0.052492 0.000000
# 6 0.000000 0.000000 0.000000 -0.008522 0.000000 0.037614
#
#
# Mechanical properties :
#
#
# Convention : Reuss Voigt Hill
#
# Bulk Modulus (GPa) = 45.04527 55.20433 50.12480
# Shear Modulus (GPa) = 24.57204 27.63775 26.10490
#
# Velocity S-wave (km/s) = 3.60820 3.82667 3.71904
# Velocity P-wave (km/s) = 6.42069 6.98381 6.70816
#
# Compressibility (1/GPa) = 0.02219989
#
# Stress axis : x y z
#
# Youngs Moduli (GPa) = 61.93735 51.04488 71.96198
#
# Poissons Ratio (x) = 0.24381 0.19532
# Poissons Ratio (y) = 0.29584 0.44799
# Poissons Ratio (z) = 0.16811 0.31778
#
# Static dielectric constant tensor:
#      x y z
#    x 3.565190 0.000000 0.043190 
#    y 0.000000 3.482820 0.000000 
#    z 0.043190 0.000000 3.442950 
# 
# 
# High freq. dielectric constant tensor:
#      x y z
#    x 1.741810 0.000000 0.007090 
#    y 0.000000 1.738500 0.000000 
#    z 0.007090 0.000000 1.732000 
# 
# From -- ./inp_files/360010.got.cif
#   From: 2010.06.25/outbox.cif.g09.slc.cpg/sg12_181_cif.got.tgz:360010.got - 2010.06.28 00:19:55.
