data_PCOD8097639
_publ_section_title
;
Structure prediction by ZEFSAII (Michael W. Deem and Ramdas Pophale) SiO2 
 PCOD8097639
Probable space group: C 2/M
;
_chemical_formula_sum "Si O2"
_cell_formula_units_Z 56
_cell_length_a 19.947848
_cell_length_b 8.887422
_cell_length_c 19.685646
_cell_angle_alpha 90.000000
_cell_angle_beta 59.621413
_cell_angle_gamma 90.000000
_cell_volume 3010.805458
_symmetry_space_group_name_H-M "C 2/M"
_symmetry_group_IT_number 12
_symmetry_cell_setting 'monoclinic'
loop_
_space_group_symop_operation_xyz
x,y,z
-x,y,-z
-x,-y,-z
x,-y,z
1/2+x,1/2+y,z
1/2-x,1/2+y,-z
1/2-x,1/2-y,-z
1/2+x,1/2-y,z
loop_
_atom_site_type_symbol
_atom_site_label
_atom_site_fract_x
_atom_site_fract_y
_atom_site_fract_z
Si Si1 0.947108 0.822737 0.328106
Si Si2 0.205543 0.327754 0.331164
Si Si3 0.975129 0.672152 0.587523
Si Si4 0.717200 0.822758 0.584828
Si Si5 0.736938 0.823929 0.168520
Si Si6 0.821564 0.824560 0.999234
Si Si7 0.591688 0.677068 0.169940
O O1 0.979577 0.781668 0.385284
O O2 0.867841 0.736866 0.353730
O O3 0.008205 0.766534 0.239343
O O4 0.931393 0.000000 0.332762
O O5 0.222901 0.500000 0.344051
O O6 0.226847 0.218105 0.381416
O O7 0.253538 0.281112 0.238521
O O8 0.116222 0.306506 0.357119
O O9 0.000264 0.500000 0.589247
O O10 0.000000 0.721431 0.500000
O O11 0.750000 0.750000 0.500000
O O12 0.715472 0.000000 0.575366
O O13 0.814425 0.781779 0.083314
O O14 0.660420 0.743697 0.179938
O O15 0.718513 0.000000 0.173636
O O16 0.810250 0.000000 0.996845
O O17 0.750000 0.750000 0.000000
O O18 0.898351 0.777852 0.916041
O O19 0.596006 0.500000 0.178394
#
# Coordination Sequence:
#
# PCOD8097639 Si02
#       7
#     8   8   8   8   8   8   8
#     4  11  22  36  56  81 110 143 180 223 269 320
#     4  10  20  35  55  81 112 143 180 225 272 323
#     4  10  20  34  54  79 107 139 174 220 276 325
#     4  12  26  43  61  79 104 140 182 226 273 329
#     4   9  16  28  50  78 109 144 179 218 264 317
#     4   8  14  25  43  72 108 143 177 213 259 310
#     4   9  17  29  48  77 112 144 177 220 263 311
#
# _framework density 18.599674
#
# number of rings (size 3 to 8) (size 9 to 14) (size 15 to 20)
#    0.000    2.143    1.429    2.571    0.000    3.143 
#    0.000    0.000    0.000    0.857    0.000    6.000 
#    0.000    0.000    0.000    0.000    0.000    0.000 
#
# Total GULP energy -346954.512474 kJ/mol
# GULP energy per Si atom -12391.232588 kJ/mol
# Density = 1.855734 g / cm^3
# Si number density = 18.599674 Si / 1000 Ang^3
#
#
#
# Elastic Constant Matrix: (Units=GPa)
#
#
# Indices 1 2 3 4 5 6 
#
# 1 35.2459 12.2933 8.4273 -0.0001 -3.6087 -0.0010
# 2 12.2933 51.8287 18.9699 -0.0003 -5.7375 -0.0019
# 3 8.4273 18.9699 132.1042 0.0000 -11.0035 0.0000
# 4 -0.0001 -0.0003 0.0000 20.3868 0.0000 2.9047
# 5 -3.6087 -5.7375 -11.0035 0.0000 22.8417 -0.0001
# 6 -0.0010 -0.0019 0.0000 2.9047 -0.0001 27.2194
#
#
#
# Elastic Compliance Matrix: (Units=1/GPa)
#
#
# Indices 1 2 3 4 5 6 
#
# 1 0.031223 -0.006806 -0.000777 0.000000 0.002849 0.000001
# 2 -0.006806 0.022181 -0.002476 0.000000 0.003304 0.000001
# 3 -0.000777 -0.002476 0.008244 0.000000 0.003227 0.000000
# 4 0.000000 0.000000 0.000000 0.049809 0.000000 -0.005315
# 5 0.002849 0.003304 0.003227 0.000000 0.046614 0.000000
# 6 0.000001 0.000001 0.000000 -0.005315 0.000000 0.037306
#
#
# Mechanical properties :
#
#
# Convention : Reuss Voigt Hill
#
# Bulk Modulus (GPa) = 24.07921 33.17331 28.62626
# Shear Modulus (GPa) = 21.80196 26.05546 23.92871
#
# Velocity S-wave (km/s) = 3.42741 3.74686 3.59069
# Velocity P-wave (km/s) = 5.35135 6.04920 5.71094
#
# Compressibility (1/GPa) = 0.04152961
#
# Stress axis : x y z
#
# Youngs Moduli (GPa) = 32.02717 45.08460 121.30595
#
# Poissons Ratio (x) = 0.30685 0.09428
# Poissons Ratio (y) = 0.21798 0.30032
# Poissons Ratio (z) = 0.02489 0.11162
#
# Static dielectric constant tensor:
#      x y z
#    x 3.072110 0.000000 -0.207320 
#    y 0.000000 3.390780 0.000000 
#    z -0.207320 0.000000 4.350880 
# 
# 
# High freq. dielectric constant tensor:
#      x y z
#    x 1.676560 0.000000 -0.009790 
#    y 0.000000 1.717030 0.000000 
#    z -0.009790 0.000000 1.755320 
# 
# From -- ./inp_files/275152.got.cif
#   From: 2010.06.25/outbox.cif.g09.slc.cpg/sg12_138_cif.got.tgz:275152.got - 2010.06.28 00:19:55.
