data_PCOD8097173
_publ_section_title
;
Structure prediction by ZEFSAII (Michael W. Deem and Ramdas Pophale) SiO2 
 PCOD8097173
Probable space group: C 2/M
;
_chemical_formula_sum "Si O2"
_cell_formula_units_Z 48
_cell_length_a 22.612354
_cell_length_b 9.166090
_cell_length_c 12.333503
_cell_angle_alpha 90.000000
_cell_angle_beta 70.326080
_cell_angle_gamma 90.000000
_cell_volume 2407.098176
_symmetry_space_group_name_H-M "C 2/M"
_symmetry_group_IT_number 12
_symmetry_cell_setting 'monoclinic'
loop_
_space_group_symop_operation_xyz
x,y,z
-x,y,-z
-x,-y,-z
x,-y,z
1/2+x,1/2+y,z
1/2-x,1/2+y,-z
1/2-x,1/2-y,-z
1/2+x,1/2-y,z
loop_
_atom_site_type_symbol
_atom_site_label
_atom_site_fract_x
_atom_site_fract_y
_atom_site_fract_z
Si Si1 0.719231 0.667977 0.118491
Si Si2 0.245829 0.331599 0.664271
Si Si3 0.926579 0.658462 0.059325
Si Si4 0.652069 0.332083 0.569785
Si Si5 0.043286 0.671588 0.724458
Si Si6 0.417907 0.668597 0.858472
O O1 0.732857 0.500000 0.088840
O O2 0.749691 0.717842 0.213324
O O3 0.644408 0.694807 0.173343
O O4 0.750000 0.750000 0.000000
O O5 0.224079 0.500000 0.666898
O O6 0.314060 0.312004 0.566714
O O7 0.195939 0.228663 0.637988
O O8 0.894066 0.500000 0.057648
O O9 0.917155 0.706108 0.189735
O O10 0.901160 0.777576 0.990939
O O11 0.000000 0.638092 0.000000
O O12 0.637616 0.500000 0.603912
O O13 0.585869 0.244873 0.604822
O O14 0.035318 0.500000 0.709213
O O15 0.974094 0.741105 0.769293
O O16 0.437723 0.500000 0.852173
#
# Coordination Sequence:
#
# PCOD8097173 Si02
#       6
#     8   8   8   8   8   8
#     4  10  23  40  58  81 112 151 188 224 274 334
#     4   9  20  40  59  80 113 150 185 227 280 335
#     4   8  16  30  47  70 103 143 178 212 266 326
#     4  10  20  35  60  87 110 141 187 237 279 323
#     4  10  20  34  54  80 111 147 183 223 281 338
#     4  10  20  34  52  79 111 142 184 232 271 321
#
# _framework density 19.941022
#
# number of rings (size 3 to 8) (size 9 to 14) (size 15 to 20)
#    0.000    2.500    0.000    2.500    2.333    6.333 
#    0.000    0.833    0.000    5.000    0.000    0.000 
#    0.000    0.000    0.000    0.000    0.000    0.000 
#
# Total GULP energy -297524.861922 kJ/mol
# GULP energy per Si atom -12396.869247 kJ/mol
# Density = 1.989564 g / cm^3
# Si number density = 19.941022 Si / 1000 Ang^3
#
#
#
# Elastic Constant Matrix: (Units=GPa)
#
#
# Indices 1 2 3 4 5 6 
#
# 1 53.6641 44.0699 29.0561 0.0000 -6.1022 0.0000
# 2 44.0699 113.5160 46.3188 0.0000 -10.5716 0.0000
# 3 29.0561 46.3188 98.9300 0.0000 -8.7567 0.0000
# 4 0.0000 0.0000 0.0000 27.7055 0.0000 -1.0662
# 5 -6.1022 -10.5716 -8.7567 0.0000 32.1398 0.0000
# 6 0.0000 0.0000 0.0000 -1.0662 0.0000 20.8824
#
#
#
# Elastic Compliance Matrix: (Units=1/GPa)
#
#
# Indices 1 2 3 4 5 6 
#
# 1 0.028603 -0.009399 -0.003887 0.000000 0.001280 0.000000
# 2 -0.009399 0.014139 -0.003695 0.000000 0.001859 0.000000
# 3 -0.003887 -0.003695 0.013123 0.000000 0.001622 0.000000
# 4 0.000000 0.000000 0.000000 0.036165 0.000000 0.001846
# 5 0.001280 0.001859 0.001622 0.000000 0.032411 0.000000
# 6 0.000000 0.000000 0.000000 0.001846 0.000000 0.047981
#
#
# Mechanical properties :
#
#
# Convention : Reuss Voigt Hill
#
# Bulk Modulus (GPa) = 45.65399 56.11107 50.88253
# Shear Modulus (GPa) = 23.39879 25.92322 24.66100
#
# Velocity S-wave (km/s) = 3.42921 3.60946 3.52049
# Velocity P-wave (km/s) = 6.21478 6.75059 6.48822
#
# Compressibility (1/GPa) = 0.02190389
#
# Stress axis : x y z
#
# Youngs Moduli (GPa) = 34.96077 70.72544 76.20101
#
# Poissons Ratio (x) = 0.66478 0.29618
# Poissons Ratio (y) = 0.32861 0.28154
# Poissons Ratio (z) = 0.13589 0.26131
#
# Static dielectric constant tensor:
#      x y z
#    x 3.490480 0.000000 -0.077460 
#    y 0.000000 3.681620 0.000000 
#    z -0.077460 0.000000 3.983050 
# 
# 
# High freq. dielectric constant tensor:
#      x y z
#    x 1.767910 0.000000 -0.021450 
#    y 0.000000 1.779920 0.000000 
#    z -0.021450 0.000000 1.770140 
# 
# From -- ./inp_files/172928.got.cif
#   From: 2010.06.25/outbox.cif.g09.slc.cpg/sg12_87_cif.got.tgz:172928.got - 2010.06.28 00:19:55.
