data_PCOD8097782
_publ_section_title
;
Structure prediction by ZEFSAII (Michael W. Deem and Ramdas Pophale) SiO2 
 PCOD8097782
Probable space group: C 2/M
;
_chemical_formula_sum "Si O2"
_cell_formula_units_Z 56
_cell_length_a 14.371243
_cell_length_b 8.973464
_cell_length_c 23.431781
_cell_angle_alpha 90.000000
_cell_angle_beta 93.073283
_cell_angle_gamma 90.000000
_cell_volume 3017.412577
_symmetry_space_group_name_H-M "C 2/M"
_symmetry_group_IT_number 12
_symmetry_cell_setting 'monoclinic'
loop_
_space_group_symop_operation_xyz
x,y,z
-x,y,-z
-x,-y,-z
x,-y,z
1/2+x,1/2+y,z
1/2-x,1/2+y,-z
1/2-x,1/2-y,-z
1/2+x,1/2-y,z
loop_
_atom_site_type_symbol
_atom_site_label
_atom_site_fract_x
_atom_site_fract_y
_atom_site_fract_z
Si Si1 0.739548 0.325427 0.560198
Si Si2 0.873533 0.176814 0.944224
Si Si3 0.263083 0.674248 0.735524
Si Si4 0.896068 0.325960 0.655657
Si Si5 0.893298 0.325202 0.359178
Si Si6 0.579172 0.673680 0.931226
Si Si7 0.264579 0.325655 0.145442
O O1 0.725345 0.500000 0.551792
O O2 0.750000 0.250000 0.500000
O O3 0.832918 0.288247 0.598732
O O4 0.647919 0.260677 0.587831
O O5 0.802330 0.275302 0.906973
O O6 0.973342 0.225877 0.921637
O O7 0.853475 0.000000 0.936323
O O8 0.870252 0.235031 0.009769
O O9 0.279578 0.500000 0.739294
O O10 0.354399 0.743383 0.709173
O O11 0.169083 0.714514 0.697984
O O12 0.253603 0.735871 0.798205
O O13 0.895412 0.500000 0.669518
O O14 0.001275 0.269619 0.648014
O O15 0.890834 0.500000 0.372939
O O16 0.578052 0.500000 0.942925
O O17 0.632320 0.714299 0.874561
O O18 0.252573 0.500000 0.157511
#
# Coordination Sequence:
#
# PCOD8097782 Si02
#       7
#     8   8   8   8   8   8   8
#     4  10  20  34  54  81 113 143 174 211 253 300
#     4   9  17  34  55  74  98 131 170 208 251 307
#     4  10  21  36  53  75 101 132 171 215 256 302
#     4   9  19  37  58  78 103 138 173 212 260 304
#     4   9  19  37  58  77 102 136 175 215 258 303
#     4   8  17  33  53  74 100 133 166 205 256 310
#     4  11  21  33  50  75 104 133 166 208 257 306
#
# _framework density 18.558948000000001
#
# number of rings (size 3 to 8) (size 9 to 14) (size 15 to 20)
#    0.000    2.571    0.000    2.571    0.000    3.429 
#    0.000    9.286    0.000    0.000    0.000    0.000 
#    0.000    0.000    0.000    0.000    0.000    0.000 
#
# Total GULP energy -347150.628388 kJ/mol
# GULP energy per Si atom -12398.236728 kJ/mol
# Density = 1.851671 g / cm^3
# Si number density = 18.558948 Si / 1000 Ang^3
#
#
#
# Elastic Constant Matrix: (Units=GPa)
#
#
# Indices 1 2 3 4 5 6 
#
# 1 94.8776 26.8634 11.2809 0.0000 -19.2146 0.0000
# 2 26.8634 34.9563 21.7649 0.0000 -12.5511 0.0000
# 3 11.2809 21.7649 54.0975 0.0000 -23.1873 0.0000
# 4 0.0000 0.0000 0.0000 30.9354 0.0000 0.8531
# 5 -19.2146 -12.5511 -23.1873 0.0000 23.5690 0.0000
# 6 0.0000 0.0000 0.0000 0.8531 0.0000 24.2760
#
#
#
# Elastic Compliance Matrix: (Units=1/GPa)
#
#
# Indices 1 2 3 4 5 6 
#
# 1 0.015804 -0.011758 0.007390 0.000000 0.013893 0.000000
# 2 -0.011758 0.048059 -0.017331 0.000000 -0.001043 0.000000
# 3 0.007390 -0.017331 0.038981 0.000000 0.035145 0.000000
# 4 0.000000 0.000000 0.000000 0.032357 0.000000 -0.001137
# 5 0.013893 -0.001043 0.035145 0.000000 0.087775 0.000000
# 6 0.000000 0.000000 0.000000 -0.001137 0.000000 0.041233
#
#
# Mechanical properties :
#
#
# Convention : Reuss Voigt Hill
#
# Bulk Modulus (GPa) = 16.82201 33.74996 25.28599
# Shear Modulus (GPa) = 15.27085 24.02421 19.64753
#
# Velocity S-wave (km/s) = 2.87161 3.60179 3.25723
# Velocity P-wave (km/s) = 4.48092 5.96003 5.27260
#
# Compressibility (1/GPa) = 0.05944592
#
# Stress axis : x y z
#
# Youngs Moduli (GPa) = 63.27530 20.80779 25.65381
#
# Poissons Ratio (x) = 0.24466 -0.18957
# Poissons Ratio (y) = 0.74399 0.44460
# Poissons Ratio (z) = -0.46759 0.36061
#
# Static dielectric constant tensor:
#      x y z
#    x 4.546740 0.000000 -0.524360 
#    y 0.000000 3.282950 0.000000 
#    z -0.524360 0.000000 3.572410 
# 
# 
# High freq. dielectric constant tensor:
#      x y z
#    x 1.726810 0.000000 -0.008350 
#    y 0.000000 1.710530 0.000000 
#    z -0.008350 0.000000 1.720910 
# 
# From -- ./inp_files/308962.got.cif
#   From: 2010.06.25/outbox.cif.g09.slc.cpg/sg12_155_cif.got.tgz:308962.got - 2010.06.28 00:19:55.
