data_PCOD8097376
_publ_section_title
;
Structure prediction by ZEFSAII (Michael W. Deem and Ramdas Pophale) SiO2 
 PCOD8097376
Probable space group: C 2/M
;
_chemical_formula_sum "Si O2"
_cell_formula_units_Z 64
_cell_length_a 23.511341
_cell_length_b 9.386509
_cell_length_c 28.655410
_cell_angle_alpha 90.000000
_cell_angle_beta 148.465778
_cell_angle_gamma 90.000000
_cell_volume 3307.472529
_symmetry_space_group_name_H-M "C 2/M"
_symmetry_group_IT_number 12
_symmetry_cell_setting 'monoclinic'
loop_
_space_group_symop_operation_xyz
x,y,z
-x,y,-z
-x,-y,-z
x,-y,z
1/2+x,1/2+y,z
1/2-x,1/2+y,-z
1/2-x,1/2-y,-z
1/2+x,1/2-y,z
loop_
_atom_site_type_symbol
_atom_site_label
_atom_site_fract_x
_atom_site_fract_y
_atom_site_fract_z
Si Si1 0.553001 0.332028 0.179383
Si Si2 0.057109 0.830420 0.992942
Si Si3 0.486050 0.167936 0.221766
Si Si4 0.199761 0.660287 0.423307
Si Si5 0.082714 0.663393 0.665651
Si Si6 0.802137 0.338532 0.348847
Si Si7 0.199238 0.332059 0.838597
Si Si8 0.105513 0.161208 0.508581
O O1 0.534877 0.500000 0.173020
O O2 0.488658 0.251396 0.175031
O O3 0.678944 0.289703 0.270369
O O4 0.508909 0.279142 0.098589
O O5 0.179410 0.767672 0.073723
O O6 0.059274 0.000000 0.996721
O O7 0.000000 0.770238 0.000000
O O8 0.582326 0.218188 0.324271
O O9 0.370444 0.206997 0.164292
O O10 0.498053 0.000000 0.220319
O O11 0.187865 0.500000 0.433948
O O12 0.250000 0.750000 0.500000
O O13 0.276669 0.666719 0.432278
O O14 0.044835 0.500000 0.646248
O O15 0.171285 0.675265 0.686863
O O16 0.138554 0.728334 0.750610
O O17 0.977459 0.757649 0.582747
O O18 0.819616 0.500000 0.378691
O O19 0.885241 0.238562 0.435063
O O20 0.208237 0.500000 0.838869
O O21 0.065500 0.000000 0.488536
#
# Coordination Sequence:
#
# PCOD8097376 Si02
#       8
#     8   8   8   8   8   8   8   8
#     4  10  20  34  56  84 111 141 181 228 273 317
#     4   9  17  32  56  86 114 138 174 226 277 321
#     4  10  20  36  54  76 109 147 183 217 268 332
#     4  10  21  35  52  74 103 142 186 227 266 316
#     4  10  20  35  55  78 105 140 183 227 271 321
#     4  10  20  34  53  78 107 141 181 224 270 322
#     4   9  18  33  55  79 106 142 180 220 269 324
#     4  11  22  35  51  76 108 142 180 221 273 329
#
# _framework density 19.350123
#
# number of rings (size 3 to 8) (size 9 to 14) (size 15 to 20)
#    0.000    2.125    1.250    2.250    0.000    8.000 
#    0.000    0.625    0.000    1.125    0.000    0.000 
#    0.000    0.000    0.000    0.000    0.000    0.000 
#
# Total GULP energy -396857.484743 kJ/mol
# GULP energy per Si atom -12401.796398 kJ/mol
# Density = 1.930608 g / cm^3
# Si number density = 19.350123 Si / 1000 Ang^3
#
#
#
# Elastic Constant Matrix: (Units=GPa)
#
#
# Indices 1 2 3 4 5 6 
#
# 1 108.6069 31.6528 50.3475 0.0000 -3.6147 0.0000
# 2 31.6528 56.5271 40.4027 -0.0001 -6.5271 0.0001
# 3 50.3475 40.4027 117.8313 -0.0001 -4.9604 0.0000
# 4 0.0000 -0.0001 -0.0001 14.4506 0.0000 1.2420
# 5 -3.6147 -6.5271 -4.9604 0.0000 40.2924 0.0000
# 6 0.0000 0.0001 0.0000 1.2420 0.0000 25.4300
#
#
#
# Elastic Compliance Matrix: (Units=1/GPa)
#
#
# Indices 1 2 3 4 5 6 
#
# 1 0.012159 -0.004105 -0.003790 0.000000 -0.000041 0.000000
# 2 -0.004105 0.025143 -0.006746 0.000000 0.002874 0.000000
# 3 -0.003790 -0.006746 0.012423 0.000000 0.000097 0.000000
# 4 0.000000 0.000000 0.000000 0.069493 0.000000 -0.003394
# 5 -0.000041 0.002874 0.000097 0.000000 0.025292 0.000000
# 6 0.000000 0.000000 0.000000 -0.003394 0.000000 0.039489
#
#
# Mechanical properties :
#
#
# Convention : Reuss Voigt Hill
#
# Bulk Modulus (GPa) = 48.91403 58.64125 53.77764
# Shear Modulus (GPa) = 22.71731 26.73874 24.72802
#
# Velocity S-wave (km/s) = 3.43011 3.72134 3.57869
# Velocity P-wave (km/s) = 6.40475 6.98825 6.70285
#
# Compressibility (1/GPa) = 0.02044403
#
# Stress axis : x y z
#
# Youngs Moduli (GPa) = 82.24165 39.77273 80.49400
#
# Poissons Ratio (x) = 0.16325 0.30505
# Poissons Ratio (y) = 0.33757 0.54303
# Poissons Ratio (z) = 0.31168 0.26832
#
# Static dielectric constant tensor:
#      x y z
#    x 3.594300 0.000000 0.083690 
#    y 0.000000 3.264360 0.000000 
#    z 0.083690 0.000000 3.617970 
# 
# 
# High freq. dielectric constant tensor:
#      x y z
#    x 1.766050 0.000000 0.003490 
#    y 0.000000 1.713310 0.000000 
#    z 0.003490 0.000000 1.757610 
# 
# From -- ./inp_files/382254.got.cif
#   From: 2010.06.25/outbox.cif.g09.slc.cpg/sg12_192_cif.got.tgz:382254.got - 2010.06.28 00:19:55.
