data_PCOD8097689
_publ_section_title
;
Structure prediction by ZEFSAII (Michael W. Deem and Ramdas Pophale) SiO2 
 PCOD8097689
Probable space group: C 2/M
;
_chemical_formula_sum "Si O2"
_cell_formula_units_Z 64
_cell_length_a 19.828656
_cell_length_b 9.125701
_cell_length_c 30.008978
_cell_angle_alpha 90.000000
_cell_angle_beta 41.693339
_cell_angle_gamma 90.000000
_cell_volume 3611.820028
_symmetry_space_group_name_H-M "C 2/M"
_symmetry_group_IT_number 12
_symmetry_cell_setting 'monoclinic'
loop_
_space_group_symop_operation_xyz
x,y,z
-x,y,-z
-x,-y,-z
x,-y,z
1/2+x,1/2+y,z
1/2-x,1/2+y,-z
1/2-x,1/2-y,-z
1/2+x,1/2-y,z
loop_
_atom_site_type_symbol
_atom_site_label
_atom_site_fract_x
_atom_site_fract_y
_atom_site_fract_z
Si Si1 0.465676 0.166303 0.466729
Si Si2 0.730492 0.327904 0.463591
Si Si3 0.061746 0.330669 0.678803
Si Si4 0.256995 0.664918 0.809433
Si Si5 0.922373 0.160851 0.804655
Si Si6 0.880115 0.829051 0.057597
Si Si7 0.250372 0.824285 0.047464
Si Si8 0.093863 0.670386 0.320391
O O1 0.500000 0.182443 0.500000
O O2 0.373432 0.276474 0.506605
O O3 0.558366 0.208631 0.388100
O O4 0.430704 0.000000 0.472985
O O5 0.727601 0.500000 0.473776
O O6 0.750000 0.250000 0.500000
O O7 0.821610 0.285218 0.385179
O O8 0.049124 0.500000 0.693140
O O9 0.019299 0.258774 0.745013
O O10 0.998718 0.282582 0.666204
O O11 0.219547 0.500000 0.816723
O O12 0.344718 0.660694 0.802356
O O13 0.164406 0.760149 0.874782
O O14 0.304045 0.739340 0.741764
O O15 0.860449 0.216550 0.878131
O O16 0.965732 0.000000 0.792343
O O17 0.838129 0.744548 0.034947
O O18 0.849426 0.000000 0.069942
O O19 0.000000 0.808354 0.000000
O O20 0.266051 0.000000 0.037544
O O21 0.250000 0.750000 0.000000
O O22 0.120310 0.500000 0.301738
#
# Coordination Sequence:
#
# PCOD8097689 Si02
#       8
#     8   8   8   8   8   8   8   8
#     4  10  21  37  55  76 105 140 178 216 262 317
#     4  11  21  34  53  79 107 135 174 218 263 313
#     4   9  17  29  48  74 101 129 166 214 260 305
#     4   9  17  29  48  76 104 132 171 215 260 310
#     4   8  16  29  46  73 103 131 167 208 252 305
#     4  10  20  34  54  80 108 139 175 218 264 310
#     4  10  20  34  54  80 109 141 178 216 258 313
#     4   9  16  30  50  73 101 133 171 213 259 311
#
# _framework density 17.719597
#
# number of rings (size 3 to 8) (size 9 to 14) (size 15 to 20)
#    0.000    2.500    1.250    2.250    0.000    6.250 
#    0.000    0.000    2.750    0.000    0.000    0.000 
#    0.000    0.000    0.000    0.000    0.000    0.000 
#
# Total GULP energy -396693.589785 kJ/mol
# GULP energy per Si atom -12396.674681 kJ/mol
# Density = 1.767927 g / cm^3
# Si number density = 17.719597 Si / 1000 Ang^3
#
#
#
# Elastic Constant Matrix: (Units=GPa)
#
#
# Indices 1 2 3 4 5 6 
#
# 1 49.8010 38.4798 52.2242 0.0000 8.0819 0.0007
# 2 38.4798 105.1293 82.6212 0.0004 -0.0946 0.0014
# 3 52.2242 82.6212 168.2682 0.0000 12.7259 0.0000
# 4 0.0000 0.0004 0.0000 35.4650 0.0000 -1.0606
# 5 8.0819 -0.0946 12.7259 0.0000 25.7383 0.0001
# 6 0.0007 0.0014 0.0000 -1.0606 0.0001 21.4501
#
#
#
# Elastic Compliance Matrix: (Units=1/GPa)
#
#
# Indices 1 2 3 4 5 6 
#
# 1 0.033517 -0.007400 -0.006203 0.000000 -0.007485 -0.000001
# 2 -0.007400 0.017522 -0.006740 0.000000 0.005720 -0.000001
# 3 -0.006203 -0.006740 0.011460 0.000000 -0.003743 0.000001
# 4 0.000000 0.000000 0.000000 0.028239 0.000000 0.001396
# 5 -0.007485 0.005720 -0.003743 0.000000 0.043075 0.000000
# 6 -0.000001 -0.000001 0.000001 0.001396 0.000000 0.046689
#
#
# Mechanical properties :
#
#
# Convention : Reuss Voigt Hill
#
# Bulk Modulus (GPa) = 45.84021 74.42766 60.13393
# Shear Modulus (GPa) = 21.88582 26.52224 24.20403
#
# Velocity S-wave (km/s) = 3.51824 3.87301 3.69988
# Velocity P-wave (km/s) = 6.51383 7.88001 7.22926
#
# Compressibility (1/GPa) = 0.02181491
#
# Stress axis : x y z
#
# Youngs Moduli (GPa) = 29.83566 57.06964 87.25674
#
# Poissons Ratio (x) = 0.42230 0.54125
# Poissons Ratio (y) = 0.22078 0.58808
# Poissons Ratio (z) = 0.18507 0.38463
#
# Static dielectric constant tensor:
#      x y z
#    x 2.877360 0.000000 0.100290 
#    y 0.000000 3.513940 0.000000 
#    z 0.100290 0.000000 3.602670 
# 
# 
# High freq. dielectric constant tensor:
#      x y z
#    x 1.634810 0.000000 0.006700 
#    y 0.000000 1.693910 0.000000 
#    z 0.006700 0.000000 1.703250 
# 
# From -- ./inp_files/378165.got.cif
#   From: 2010.06.25/outbox.cif.g09.slc.cpg/sg12_190_cif.got.tgz:378165.got - 2010.06.28 00:19:55.
