data_PCOD8097441
_publ_section_title
;
Structure prediction by ZEFSAII (Michael W. Deem and Ramdas Pophale) SiO2 
 PCOD8097441
Probable space group: C 2/M
;
_chemical_formula_sum "Si O2"
_cell_formula_units_Z 56
_cell_length_a 16.006474
_cell_length_b 9.115676
_cell_length_c 20.875310
_cell_angle_alpha 90.000000
_cell_angle_beta 67.864976
_cell_angle_gamma 90.000000
_cell_volume 2821.424531
_symmetry_space_group_name_H-M "C 2/M"
_symmetry_group_IT_number 12
_symmetry_cell_setting 'monoclinic'
loop_
_space_group_symop_operation_xyz
x,y,z
-x,y,-z
-x,-y,-z
x,-y,z
1/2+x,1/2+y,z
1/2-x,1/2+y,-z
1/2-x,1/2-y,-z
1/2+x,1/2-y,z
loop_
_atom_site_type_symbol
_atom_site_label
_atom_site_fract_x
_atom_site_fract_y
_atom_site_fract_z
Si Si1 0.169946 0.173497 0.341739
Si Si2 0.020942 0.168240 0.646067
Si Si3 0.030137 0.835133 0.787803
Si Si4 0.209786 0.675707 0.573850
Si Si5 0.134183 0.167676 0.076672
Si Si6 0.685833 0.828592 0.797409
Si Si7 0.304093 0.667806 0.076855
O O1 0.226618 0.232870 0.386189
O O2 0.218876 0.220921 0.261173
O O3 0.065265 0.226756 0.370586
O O4 0.170360 0.000000 0.345565
O O5 0.988027 0.175506 0.729244
O O6 0.106960 0.270663 0.610535
O O7 0.045297 0.000000 0.620176
O O8 0.110779 0.719378 0.767967
O O9 0.958909 0.792110 0.862891
O O10 0.066208 0.000000 0.790001
O O11 0.210164 0.500000 0.568192
O O12 0.250000 0.750000 0.500000
O O13 0.206743 0.277516 0.083865
O O14 0.162961 0.000000 0.084203
O O15 0.125797 0.189570 0.002279
O O16 0.662210 0.754157 0.871298
O O17 0.681875 0.000000 0.809453
O O18 0.295958 0.500000 0.099201
#
# Coordination Sequence:
#
# PCOD8097441 Si02
#       7
#     8   8   8   8   8   8   8
#     4   9  20  39  63  87 118 160 199 236 290 359
#     4  10  20  38  64  90 116 154 200 242 290 348
#     4  10  20  35  57  83 113 148 195 247 296 350
#     4  11  23  42  64  91 125 157 194 238 290 348
#     4   9  19  36  55  76 109 152 194 243 302 360
#     4  11  21  36  57  81 114 154 198 244 297 353
#     4  10  20  34  53  79 110 147 196 249 300 352
#
# _framework density 19.848130999999999
#
# number of rings (size 3 to 8) (size 9 to 14) (size 15 to 20)
#    0.000    2.000    1.429    2.143    0.000    4.571 
#    0.000   10.000    0.000    0.000    0.000    0.000 
#    0.000    0.000    0.000    0.000    0.000    0.000 
#
# Total GULP energy -347107.089219 kJ/mol
# GULP energy per Si atom -12396.681758 kJ/mol
# Density = 1.980296 g / cm^3
# Si number density = 19.848131 Si / 1000 Ang^3
#
#
#
# Elastic Constant Matrix: (Units=GPa)
#
#
# Indices 1 2 3 4 5 6 
#
# 1 128.7576 39.8454 55.7756 0.0000 -5.0939 0.0000
# 2 39.8454 77.2258 45.9100 0.0000 -2.7803 0.0000
# 3 55.7756 45.9100 114.8044 0.0000 -7.2680 0.0000
# 4 0.0000 0.0000 0.0000 29.5566 0.0000 -0.3647
# 5 -5.0939 -2.7803 -7.2680 0.0000 27.3437 0.0000
# 6 0.0000 0.0000 0.0000 -0.3647 0.0000 32.0743
#
#
#
# Elastic Compliance Matrix: (Units=1/GPa)
#
#
# Indices 1 2 3 4 5 6 
#
# 1 0.010380 -0.003094 -0.003766 0.000000 0.000618 0.000000
# 2 -0.003094 0.017910 -0.005676 0.000000 -0.000264 0.000000
# 3 -0.003766 -0.005676 0.012947 0.000000 0.002163 0.000000
# 4 0.000000 0.000000 0.000000 0.033838 0.000000 0.000385
# 5 0.000618 -0.000264 0.002163 0.000000 0.037235 0.000000
# 6 0.000000 0.000000 0.000000 0.000385 0.000000 0.031182
#
#
# Mechanical properties :
#
#
# Convention : Reuss Voigt Hill
#
# Bulk Modulus (GPa) = 61.86440 67.09441 64.47940
# Shear Modulus (GPa) = 28.74339 29.74535 29.24437
#
# Velocity S-wave (km/s) = 3.80961 3.87544 3.84266
# Velocity P-wave (km/s) = 7.11248 7.34184 7.22807
#
# Compressibility (1/GPa) = 0.01616439
#
# Stress axis : x y z
#
# Youngs Moduli (GPa) = 96.33799 55.83406 77.23859
#
# Poissons Ratio (x) = 0.17277 0.29091
# Poissons Ratio (y) = 0.29811 0.43838
# Poissons Ratio (z) = 0.36285 0.31689
#
# Static dielectric constant tensor:
#      x y z
#    x 3.651110 0.000000 0.081870 
#    y 0.000000 3.530110 0.000000 
#    z 0.081870 0.000000 3.813490 
# 
# 
# High freq. dielectric constant tensor:
#      x y z
#    x 1.770170 0.000000 0.002500 
#    y 0.000000 1.759450 0.000000 
#    z 0.002500 0.000000 1.783320 
# 
# From -- ./inp_files/337897.got.cif
#   From: 2010.06.25/outbox.cif.g09.slc.cpg/sg12_169_cif.got.tgz:337897.got - 2010.06.28 00:19:55.
