data_PCOD8097405
_publ_section_title
;
Structure prediction by ZEFSAII (Michael W. Deem and Ramdas Pophale) SiO2 
 PCOD8097405
Probable space group: C 2/M
;
_chemical_formula_sum "Si O2"
_cell_formula_units_Z 56
_cell_length_a 18.722461
_cell_length_b 8.738688
_cell_length_c 18.388957
_cell_angle_alpha 90.000000
_cell_angle_beta 75.221970
_cell_angle_gamma 90.000000
_cell_volume 2909.091481
_symmetry_space_group_name_H-M "C 2/M"
_symmetry_group_IT_number 12
_symmetry_cell_setting 'monoclinic'
loop_
_space_group_symop_operation_xyz
x,y,z
-x,y,-z
-x,-y,-z
x,-y,z
1/2+x,1/2+y,z
1/2-x,1/2+y,-z
1/2-x,1/2-y,-z
1/2+x,1/2-y,z
loop_
_atom_site_type_symbol
_atom_site_label
_atom_site_fract_x
_atom_site_fract_y
_atom_site_fract_z
Si Si1 0.938320 0.821517 0.573485
Si Si2 0.651455 0.319783 0.698332
Si Si3 0.827390 0.317903 0.001150
Si Si4 0.773789 0.820080 0.569719
Si Si5 0.046051 0.677290 0.134040
Si Si6 0.117801 0.322168 0.857282
Si Si7 0.499937 0.818795 0.698880
O O1 0.859046 0.778893 0.561579
O O2 0.949938 0.727593 0.644189
O O3 0.000000 0.769670 0.500000
O O4 0.945301 0.000000 0.590033
O O5 0.651790 0.500000 0.688040
O O6 0.726214 0.251472 0.646557
O O7 0.650532 0.277080 0.783336
O O8 0.581338 0.254010 0.672597
O O9 0.826562 0.500000 0.997665
O O10 0.845228 0.264559 0.078225
O O11 0.750000 0.250000 0.000000
O O12 0.888074 0.246962 0.929778
O O13 0.750000 0.750000 0.500000
O O14 0.760897 0.000000 0.570755
O O15 0.064072 0.500000 0.135424
O O16 0.040403 0.743977 0.217489
O O17 0.969577 0.705746 0.111793
O O18 0.134122 0.500000 0.836535
O O19 0.510392 0.000000 0.700202
#
# Coordination Sequence:
#
# PCOD8097405 Si02
#       7
#     8   8   8   8   8   8   8
#     4  10  22  39  58  82 113 146 180 224 277 328
#     4  11  22  37  58  83 114 149 186 231 280 330
#     4  10  20  34  53  78 110 144 179 225 279 334
#     4  11  23  39  60  86 117 150 186 229 277 332
#     4   8  16  33  56  79 103 137 181 224 268 323
#     4   9  18  35  58  80 103 140 189 232 273 326
#     4  10  20  36  60  86 111 142 184 231 279 336
#
# _framework density 19.249994999999998
#
# number of rings (size 3 to 8) (size 9 to 14) (size 15 to 20)
#    0.000    2.143    0.000    4.286    0.000    6.000 
#    0.000    6.429    0.000    4.286    0.000    0.000 
#    0.000    0.000    0.000    0.000    0.000    0.000 
#
# Total GULP energy -347248.313476 kJ/mol
# GULP energy per Si atom -12401.725481 kJ/mol
# Density = 1.920618 g / cm^3
# Si number density = 19.249995 Si / 1000 Ang^3
#
#
#
# Elastic Constant Matrix: (Units=GPa)
#
#
# Indices 1 2 3 4 5 6 
#
# 1 134.4125 47.9441 80.1636 0.0000 2.3640 0.0000
# 2 47.9441 72.5018 38.8694 0.0000 0.8874 0.0000
# 3 80.1636 38.8694 116.7203 0.0000 1.4533 0.0000
# 4 0.0000 0.0000 0.0000 27.0067 0.0000 4.0626
# 5 2.3640 0.8874 1.4533 0.0000 40.6913 0.0000
# 6 0.0000 0.0000 0.0000 4.0626 0.0000 31.7671
#
#
#
# Elastic Compliance Matrix: (Units=1/GPa)
#
#
# Indices 1 2 3 4 5 6 
#
# 1 0.013940 -0.004970 -0.007913 0.000000 -0.000419 0.000000
# 2 -0.004970 0.018564 -0.002768 0.000000 -0.000017 0.000000
# 3 -0.007913 -0.002768 0.014924 0.000000 -0.000013 0.000000
# 4 0.000000 0.000000 0.000000 0.037754 0.000000 -0.004828
# 5 -0.000419 -0.000017 -0.000013 0.000000 0.024600 0.000000
# 6 0.000000 0.000000 0.000000 -0.004828 0.000000 0.032097
#
#
# Mechanical properties :
#
#
# Convention : Reuss Voigt Hill
#
# Bulk Modulus (GPa) = 62.01888 73.06543 67.54215
# Shear Modulus (GPa) = 28.00224 30.33684 29.16954
#
# Velocity S-wave (km/s) = 3.81814 3.97412 3.89691
# Velocity P-wave (km/s) = 7.19202 7.68743 7.44385
#
# Compressibility (1/GPa) = 0.01612412
#
# Stress axis : x y z
#
# Youngs Moduli (GPa) = 71.73848 53.86814 67.00485
#
# Poissons Ratio (x) = 0.26775 0.53023
# Poissons Ratio (y) = 0.35657 0.18548
# Poissons Ratio (z) = 0.56768 0.14911
#
# Static dielectric constant tensor:
#      x y z
#    x 3.225030 0.000000 -0.001950 
#    y 0.000000 3.334520 0.000000 
#    z -0.001950 0.000000 3.755660 
# 
# 
# High freq. dielectric constant tensor:
#      x y z
#    x 1.750170 0.000000 -0.000590 
#    y 0.000000 1.732520 0.000000 
#    z -0.000590 0.000000 1.764320 
# 
# From -- ./inp_files/275197.got.cif
#   From: 2010.06.25/outbox.cif.g09.slc.cpg/sg12_138_cif.got.tgz:275197.got - 2010.06.28 00:19:55.
