data_PCOD8097638
_publ_section_title
;
Structure prediction by ZEFSAII (Michael W. Deem and Ramdas Pophale) SiO2 
 PCOD8097638
Probable space group: C 2/M
;
_chemical_formula_sum "Si O2"
_cell_formula_units_Z 32
_cell_length_a 7.898727
_cell_length_b 23.327997
_cell_length_c 11.247641
_cell_angle_alpha 90.000000
_cell_angle_beta 48.422034
_cell_angle_gamma 90.000000
_cell_volume 1550.345803
_symmetry_space_group_name_H-M "C 2/M"
_symmetry_group_IT_number 12
_symmetry_cell_setting 'monoclinic'
loop_
_space_group_symop_operation_xyz
x,y,z
-x,y,-z
-x,-y,-z
x,-y,z
1/2+x,1/2+y,z
1/2-x,1/2+y,-z
1/2-x,1/2-y,-z
1/2+x,1/2-y,z
loop_
_atom_site_type_symbol
_atom_site_label
_atom_site_fract_x
_atom_site_fract_y
_atom_site_fract_z
Si Si1 0.167156 0.671991 0.703211
Si Si2 0.757862 0.138309 0.401511
Si Si3 0.619892 0.437558 0.319329
Si Si4 0.280540 0.277861 0.180680
O O1 0.281853 0.668956 0.519416
O O2 0.178287 0.609313 0.761285
O O3 0.300296 0.716996 0.725686
O O4 0.909950 0.693861 0.813440
O O5 0.500000 0.117587 0.500000
O O6 0.839556 0.181720 0.263472
O O7 0.927614 0.084274 0.316596
O O8 0.500000 0.445673 0.500000
O O9 0.713951 0.500000 0.233133
O O10 0.500000 0.268263 0.000000
#
# Coordination Sequence:
#
# PCOD8097638 Si02
#       4
#     8   8   8   8
#     4  10  20  34  54  79 107 138 174 215 263 311
#     4   9  19  34  54  81 108 136 171 216 264 311
#     4   9  18  34  56  80 104 134 176 220 259 305
#     4  11  21  34  54  79 109 139 173 216 262 314
#
# _framework density 20.640556
#
# number of rings (size 3 to 8) (size 9 to 14) (size 15 to 20)
#    0.000    2.250    0.000    3.000    0.000    7.500 
#    0.000    3.750    0.000    8.250    0.000    0.000 
#    0.000    0.000    0.000    0.000    0.000    0.000 
#
# Total GULP energy -198310.814241 kJ/mol
# GULP energy per Si atom -12394.425890 kJ/mol
# Density = 2.059358 g / cm^3
# Si number density = 20.640556 Si / 1000 Ang^3
#
#
#
# Elastic Constant Matrix: (Units=GPa)
#
#
# Indices 1 2 3 4 5 6 
#
# 1 113.2836 84.1505 28.6121 0.0000 0.7463 0.0000
# 2 84.1505 195.6510 29.8770 0.0000 -1.8510 0.0000
# 3 28.6121 29.8770 49.0016 0.0000 1.8267 0.0000
# 4 0.0000 0.0000 0.0000 3.8483 0.0000 -2.2997
# 5 0.7463 -1.8510 1.8267 0.0000 15.4295 0.0000
# 6 0.0000 0.0000 0.0000 -2.2997 0.0000 23.3398
#
#
#
# Elastic Compliance Matrix: (Units=1/GPa)
#
#
# Indices 1 2 3 4 5 6 
#
# 1 0.013994 -0.005273 -0.004929 0.000000 -0.000726 0.000000
# 2 -0.005273 0.007641 -0.001631 0.000000 0.001365 0.000000
# 3 -0.004929 -0.001631 0.024386 0.000000 -0.002844 0.000000
# 4 0.000000 0.000000 0.000000 0.276111 0.000000 0.027205
# 5 -0.000726 0.001365 -0.002844 0.000000 0.065347 0.000000
# 6 0.000000 0.000000 0.000000 0.027205 0.000000 0.045526
#
#
# Mechanical properties :
#
#
# Convention : Reuss Voigt Hill
#
# Bulk Modulus (GPa) = 44.73221 71.46838 58.10029
# Shear Modulus (GPa) = 10.77303 22.87663 16.82483
#
# Velocity S-wave (km/s) = 2.28707 3.33278 2.85815
# Velocity P-wave (km/s) = 5.35661 7.03635 6.25314
#
# Compressibility (1/GPa) = 0.02235526
#
# Stress axis : x y z
#
# Youngs Moduli (GPa) = 71.45834 130.87142 41.00734
#
# Poissons Ratio (x) = 0.69010 0.20213
# Poissons Ratio (y) = 0.37681 0.06687
# Poissons Ratio (z) = 0.35222 0.21342
#
# Static dielectric constant tensor:
#      x y z
#    x 4.108050 0.000000 0.164330 
#    y 0.000000 4.242710 0.000000 
#    z 0.164330 0.000000 3.282250 
# 
# 
# High freq. dielectric constant tensor:
#      x y z
#    x 1.824110 0.000000 0.005140 
#    y 0.000000 1.800060 0.000000 
#    z 0.005140 0.000000 1.767620 
# 
# From -- ./inp_files/37536.got.cif
#   From: 2010.06.25/outbox.cif.g09.slc.cpg/sg12_19_cif.got.tgz:37536.got - 2010.06.28 00:19:55.
