data_PCOD8097669
_publ_section_title
;
Structure prediction by ZEFSAII (Michael W. Deem and Ramdas Pophale) SiO2 
 PCOD8097669
Probable space group: C 2/M
;
_chemical_formula_sum "Si O2"
_cell_formula_units_Z 64
_cell_length_a 15.370851
_cell_length_b 9.538956
_cell_length_c 26.238129
_cell_angle_alpha 90.000000
_cell_angle_beta 114.493014
_cell_angle_gamma 90.000000
_cell_volume 3500.891553
_symmetry_space_group_name_H-M "C 2/M"
_symmetry_group_IT_number 12
_symmetry_cell_setting 'monoclinic'
loop_
_space_group_symop_operation_xyz
x,y,z
-x,y,-z
-x,-y,-z
x,-y,z
1/2+x,1/2+y,z
1/2-x,1/2+y,-z
1/2-x,1/2-y,-z
1/2+x,1/2-y,z
loop_
_atom_site_type_symbol
_atom_site_label
_atom_site_fract_x
_atom_site_fract_y
_atom_site_fract_z
Si Si1 0.237180 0.837028 0.446057
Si Si2 0.075627 0.835715 0.759157
Si Si3 0.719129 0.341019 0.063976
Si Si4 0.884892 0.837662 0.058055
Si Si5 0.429467 0.163327 0.437175
Si Si6 0.764462 0.162111 0.816055
Si Si7 0.461947 0.665948 0.828820
Si Si8 0.521635 0.337975 0.370507
O O1 0.250000 0.750000 0.500000
O O2 0.320471 0.797701 0.425955
O O3 0.133979 0.799643 0.397681
O O4 0.245742 0.000000 0.462654
O O5 0.175400 0.756495 0.780275
O O6 0.016400 0.774200 0.792629
O O7 0.014931 0.802262 0.694450
O O8 0.096644 0.000000 0.770309
O O9 0.753709 0.500000 0.062562
O O10 0.802707 0.238224 0.069195
O O11 0.695366 0.317502 0.117015
O O12 0.625720 0.309910 0.005432
O O13 0.985446 0.785056 0.105961
O O14 0.872095 0.000000 0.067883
O O15 0.500000 0.205803 0.500000
O O16 0.459724 0.248989 0.395001
O O17 0.439344 0.000000 0.426363
O O18 0.852091 0.216582 0.802303
O O19 0.737645 0.000000 0.799418
O O20 0.460083 0.500000 0.825333
O O21 0.506281 0.500000 0.380915
#
# Coordination Sequence:
#
# PCOD8097669 Si02
#       8
#     8   8   8   8   8   8   8   8
#     4  10  20  35  56  83 113 144 175 211 258 312
#     4  10  21  39  56  74 105 142 183 222 259 314
#     4   9  17  28  47  77 107 130 169 223 268 315
#     4   9  16  29  50  74 101 138 173 210 267 325
#     4  10  20  35  57  86 115 141 172 212 260 313
#     4  10  20  34  54  80 105 137 179 225 272 315
#     4   9  18  33  55  77 101 140 182 216 263 324
#     4  10  22  37  56  81 108 143 181 219 261 308
#
# _framework density 18.281058000000002
#
# number of rings (size 3 to 8) (size 9 to 14) (size 15 to 20)
#    0.000    2.375    2.500    0.000    0.000    2.750 
#    0.000    6.250    0.000    0.000    0.000    4.375 
#    0.000    0.000    0.000    0.000    0.000    0.000 
#
# Total GULP energy -396658.202507 kJ/mol
# GULP energy per Si atom -12395.568828 kJ/mol
# Density = 1.823945 g / cm^3
# Si number density = 18.281058 Si / 1000 Ang^3
#
#
#
# Elastic Constant Matrix: (Units=GPa)
#
#
# Indices 1 2 3 4 5 6 
#
# 1 148.3951 45.3542 68.5317 0.0000 20.1425 0.0000
# 2 45.3542 44.6396 44.2662 0.0000 5.1269 0.0000
# 3 68.5317 44.2662 115.8795 0.0000 20.9766 0.0000
# 4 0.0000 0.0000 0.0000 23.5150 0.0000 -0.7060
# 5 20.1425 5.1269 20.9766 0.0000 17.3741 0.0000
# 6 0.0000 0.0000 0.0000 -0.7060 0.0000 27.3919
#
#
#
# Elastic Compliance Matrix: (Units=1/GPa)
#
#
# Indices 1 2 3 4 5 6 
#
# 1 0.011432 -0.008778 -0.001891 0.000000 -0.008381 0.000000
# 2 -0.008778 0.043618 -0.014055 0.000000 0.014274 0.000000
# 3 -0.001891 -0.014055 0.017876 0.000000 -0.015243 0.000000
# 4 0.000000 0.000000 0.000000 0.042559 0.000000 0.001097
# 5 -0.008381 0.014274 -0.015243 0.000000 0.081465 0.000000
# 6 0.000000 0.000000 0.000000 0.001097 0.000000 0.036535
#
#
# Mechanical properties :
#
#
# Convention : Reuss Voigt Hill
#
# Bulk Modulus (GPa) = 42.59060 69.46872 56.02966
# Shear Modulus (GPa) = 17.19638 23.70701 20.45169
#
# Velocity S-wave (km/s) = 3.07036 3.60503 3.34838
# Velocity P-wave (km/s) = 5.99314 7.44387 6.75755
#
# Compressibility (1/GPa) = 0.02347936
#
# Stress axis : x y z
#
# Youngs Moduli (GPa) = 87.47103 22.92646 55.94004
#
# Poissons Ratio (x) = 0.20124 0.10578
# Poissons Ratio (y) = 0.76779 0.78623
# Poissons Ratio (z) = 0.16540 0.32223
#
# Static dielectric constant tensor:
#      x y z
#    x 3.599750 0.000000 0.098880 
#    y 0.000000 3.247940 0.000000 
#    z 0.098880 0.000000 3.536560 
# 
# 
# High freq. dielectric constant tensor:
#      x y z
#    x 1.709480 0.000000 0.005660 
#    y 0.000000 1.689320 0.000000 
#    z 0.005660 0.000000 1.713510 
# 
# From -- ./inp_files/359787.got.cif
#   From: 2010.06.25/outbox.cif.g09.slc.cpg/sg12_180_cif.got.tgz:359787.got - 2010.06.28 00:19:55.
