data_PCOD8097470
_publ_section_title
;
Structure prediction by ZEFSAII (Michael W. Deem and Ramdas Pophale) SiO2 
 PCOD8097470
Probable space group: C 2/M
;
_chemical_formula_sum "Si O2"
_cell_formula_units_Z 56
_cell_length_a 19.002824
_cell_length_b 8.542843
_cell_length_c 19.808078
_cell_angle_alpha 90.000000
_cell_angle_beta 117.560478
_cell_angle_gamma 90.000000
_cell_volume 2850.709014
_symmetry_space_group_name_H-M "C 2/M"
_symmetry_group_IT_number 12
_symmetry_cell_setting 'monoclinic'
loop_
_space_group_symop_operation_xyz
x,y,z
-x,y,-z
-x,-y,-z
x,-y,z
1/2+x,1/2+y,z
1/2-x,1/2+y,-z
1/2-x,1/2-y,-z
1/2+x,1/2-y,z
loop_
_atom_site_type_symbol
_atom_site_label
_atom_site_fract_x
_atom_site_fract_y
_atom_site_fract_z
Si Si1 0.985892 0.317199 0.287957
Si Si2 0.738832 0.314929 0.148147
Si Si3 0.807635 0.680670 0.429019
Si Si4 0.619451 0.184838 0.880970
Si Si5 0.639644 0.680894 0.415006
Si Si6 0.412770 0.814149 0.984361
Si Si7 0.345321 0.318401 0.305534
O O1 0.006080 0.500000 0.297825
O O2 0.951383 0.262306 0.200222
O O3 0.921033 0.281887 0.316302
O O4 0.065028 0.219561 0.335284
O O5 0.743716 0.500000 0.159868
O O6 0.796168 0.258240 0.112110
O O7 0.767171 0.235253 0.230038
O O8 0.649480 0.261478 0.094697
O O9 0.817381 0.500000 0.413169
O O10 0.717448 0.724412 0.407057
O O11 0.863781 0.718376 0.517843
O O12 0.832723 0.789794 0.378701
O O13 0.604522 0.255482 0.948570
O O14 0.619614 0.000000 0.886241
O O15 0.639844 0.500000 0.435590
O O16 0.403740 0.000000 0.978174
O O17 0.500000 0.761314 0.000000
O O18 0.362171 0.500000 0.299807
#
# Coordination Sequence:
#
# PCOD8097470 Si02
#       7
#     8   8   8   8   8   8   8
#     4  10  20  36  57  81 111 146 185 229 277 326
#     4  10  20  36  56  77 105 142 182 223 271 327
#     4  10  21  38  58  81 112 148 184 224 273 328
#     4   8  17  34  54  76 104 140 179 218 264 320
#     4  10  21  37  57  83 113 146 185 225 268 324
#     4  10  20  34  53  80 111 141 177 222 270 322
#     4  11  22  37  58  83 110 141 183 232 279 328
#
# _framework density 19.644234999999998
#
# number of rings (size 3 to 8) (size 9 to 14) (size 15 to 20)
#    0.000    2.143    0.000    4.286    0.000    3.714 
#    0.000    7.857    0.000    0.000    0.000    0.000 
#    0.000    0.000    0.000    0.000    0.000    0.000 
#
# Total GULP energy -347294.721404 kJ/mol
# GULP energy per Si atom -12403.382907 kJ/mol
# Density = 1.959952 g / cm^3
# Si number density = 19.644235 Si / 1000 Ang^3
#
#
#
# Elastic Constant Matrix: (Units=GPa)
#
#
# Indices 1 2 3 4 5 6 
#
# 1 44.0914 7.9877 15.5797 0.0000 9.3993 0.0000
# 2 7.9877 39.7230 8.5516 0.0000 -1.5962 0.0000
# 3 15.5797 8.5516 60.0878 0.0000 14.8560 0.0000
# 4 0.0000 0.0000 0.0000 31.9813 0.0000 5.2439
# 5 9.3993 -1.5962 14.8560 0.0000 36.4698 0.0000
# 6 0.0000 0.0000 0.0000 5.2439 0.0000 24.8377
#
#
#
# Elastic Compliance Matrix: (Units=1/GPa)
#
#
# Indices 1 2 3 4 5 6 
#
# 1 0.026289 -0.004416 -0.004965 0.000000 -0.004946 0.000000
# 2 -0.004416 0.026998 -0.003637 0.000000 0.003801 0.000000
# 3 -0.004965 -0.003637 0.020205 0.000000 -0.007110 0.000000
# 4 0.000000 0.000000 0.000000 0.032390 0.000000 -0.006838
# 5 -0.004946 0.003801 -0.007110 0.000000 0.031758 0.000000
# 6 0.000000 0.000000 0.000000 -0.006838 0.000000 0.041705
#
#
# Mechanical properties :
#
#
# Convention : Reuss Voigt Hill
#
# Bulk Modulus (GPa) = 21.07225 23.12671 22.09948
# Shear Modulus (GPa) = 22.60402 26.10995 24.35699
#
# Velocity S-wave (km/s) = 3.39583 3.64969 3.52505
# Velocity P-wave (km/s) = 5.11134 5.43679 5.27657
#
# Compressibility (1/GPa) = 0.04745577
#
# Stress axis : x y z
#
# Youngs Moduli (GPa) = 38.03876 37.03958 49.49235
#
# Poissons Ratio (x) = 0.16358 0.24572
# Poissons Ratio (y) = 0.16799 0.18001
# Poissons Ratio (z) = 0.18886 0.13472
#
# Static dielectric constant tensor:
#      x y z
#    x 3.572020 0.000000 -0.036140 
#    y 0.000000 3.404910 0.000000 
#    z -0.036140 0.000000 3.675720 
# 
# 
# High freq. dielectric constant tensor:
#      x y z
#    x 1.757690 0.000000 0.002800 
#    y 0.000000 1.758780 0.000000 
#    z 0.002800 0.000000 1.772820 
# 
# From -- ./inp_files/275024.got.cif
#   From: 2010.06.25/outbox.cif.g09.slc.cpg/sg12_138_cif.got.tgz:275024.got - 2010.06.28 00:19:55.
