data_PCOD8097014
_publ_section_title
;
Structure prediction by ZEFSAII (Michael W. Deem and Ramdas Pophale) SiO2 
 PCOD8097014
Probable space group: C 2/M
;
_chemical_formula_sum "Si O2"
_cell_formula_units_Z 48
_cell_length_a 31.342367
_cell_length_b 9.231551
_cell_length_c 20.106228
_cell_angle_alpha 90.000000
_cell_angle_beta 152.041104
_cell_angle_gamma 90.000000
_cell_volume 2727.469400
_symmetry_space_group_name_H-M "C 2/M"
_symmetry_group_IT_number 12
_symmetry_cell_setting 'monoclinic'
loop_
_space_group_symop_operation_xyz
x,y,z
-x,y,-z
-x,-y,-z
x,-y,z
1/2+x,1/2+y,z
1/2-x,1/2+y,-z
1/2-x,1/2-y,-z
1/2+x,1/2-y,z
loop_
_atom_site_type_symbol
_atom_site_label
_atom_site_fract_x
_atom_site_fract_y
_atom_site_fract_z
Si Si1 0.321519 0.829857 0.053024
Si Si2 0.693118 0.671569 0.364483
Si Si3 0.792291 0.330341 0.364950
Si Si4 0.978267 0.671662 0.677423
Si Si5 0.681976 0.833149 0.105123
Si Si6 0.474777 0.169454 0.822469
O O1 0.423260 0.775279 0.213333
O O2 0.311304 0.000000 0.050593
O O3 0.250000 0.750000 0.000000
O O4 0.304546 0.789179 0.952970
O O5 0.693586 0.500000 0.377914
O O6 0.750000 0.750000 0.500000
O O7 0.735984 0.711637 0.352707
O O8 0.590625 0.734113 0.221392
O O9 0.790030 0.500000 0.349434
O O10 0.896785 0.275574 0.517543
O O11 0.752346 0.257210 0.244948
O O12 0.981485 0.500000 0.687172
O O13 0.959463 0.726137 0.726276
O O14 0.705449 0.000000 0.147803
O O15 0.578920 0.801766 0.986947
O O16 0.449870 0.000000 0.795654
#
# Coordination Sequence:
#
# PCOD8097014 Si02
#       6
#     8   8   8   8   8   8
#     4   9  18  35  59  80 100 129 168 210 254 310
#     4  11  21  32  50  76 104 137 179 220 255 295
#     4  10  20  34  52  74 104 139 173 213 254 300
#     4   8  15  32  54  73  98 136 173 205 250 305
#     4   9  20  36  54  76 105 139 169 208 262 309
#     4   9  17  34  54  71  99 139 180 215 250 299
#
# _framework density 17.598731999999998
#
# number of rings (size 3 to 8) (size 9 to 14) (size 15 to 20)
#    0.000    2.667    1.667    2.500    0.000    3.333 
#    0.000    7.500    0.000    5.000    0.000    0.000 
#    0.000    0.000    0.000    0.000    0.000    0.000 
#
# Total GULP energy -297521.872195 kJ/mol
# GULP energy per Si atom -12396.744675 kJ/mol
# Density = 1.755868 g / cm^3
# Si number density = 17.598732 Si / 1000 Ang^3
#
#
#
# Elastic Constant Matrix: (Units=GPa)
#
#
# Indices 1 2 3 4 5 6 
#
# 1 117.9983 51.6450 75.9383 0.0000 21.7971 0.0000
# 2 51.6450 51.6127 49.3920 0.0000 4.4870 0.0000
# 3 75.9383 49.3920 149.4912 0.0000 9.0614 0.0000
# 4 0.0000 0.0000 0.0000 32.6638 0.0000 0.2258
# 5 21.7971 4.4870 9.0614 0.0000 25.7989 0.0000
# 6 0.0000 0.0000 0.0000 0.2258 0.0000 32.4661
#
#
#
# Elastic Compliance Matrix: (Units=1/GPa)
#
#
# Indices 1 2 3 4 5 6 
#
# 1 0.020330 -0.014747 -0.004668 0.000000 -0.012972 0.000000
# 2 -0.014747 0.039103 -0.005897 0.000000 0.007730 0.000000
# 3 -0.004668 -0.005897 0.010941 0.000000 0.001127 0.000000
# 4 0.000000 0.000000 0.000000 0.030616 0.000000 -0.000213
# 5 -0.012972 0.007730 0.001127 0.000000 0.047981 0.000000
# 6 0.000000 0.000000 0.000000 -0.000213 0.000000 0.030803
#
#
# Mechanical properties :
#
#
# Convention : Reuss Voigt Hill
#
# Bulk Modulus (GPa) = 50.63707 74.78365 62.71036
# Shear Modulus (GPa) = 21.09878 27.66088 24.37983
#
# Velocity S-wave (km/s) = 3.46624 3.96884 3.72602
# Velocity P-wave (km/s) = 6.69742 7.97422 7.36355
#
# Compressibility (1/GPa) = 0.01974838
#
# Stress axis : x y z
#
# Youngs Moduli (GPa) = 49.18911 25.57372 91.40165
#
# Poissons Ratio (x) = 0.37714 0.42669
# Poissons Ratio (y) = 0.72541 0.53898
# Poissons Ratio (z) = 0.22963 0.15080
#
# Static dielectric constant tensor:
#      x y z
#    x 3.197580 0.000000 0.200310 
#    y 0.000000 3.052190 0.000000 
#    z 0.200310 0.000000 3.484430 
# 
# 
# High freq. dielectric constant tensor:
#      x y z
#    x 1.667840 0.000000 0.012920 
#    y 0.000000 1.660990 0.000000 
#    z 0.012920 0.000000 1.687670 
# 
# From -- ./inp_files/246017.got.cif
#   From: 2010.06.25/outbox.cif.g09.slc.cpg/sg12_124_cif.got.tgz:246017.got - 2010.06.28 00:19:55.
