data_PCOD8097849
_publ_section_title
;
Structure prediction by ZEFSAII (Michael W. Deem and Ramdas Pophale) SiO2 
 PCOD8097849
Probable space group: C 2/M
;
_chemical_formula_sum "Si O2"
_cell_formula_units_Z 64
_cell_length_a 30.611765
_cell_length_b 8.670762
_cell_length_c 17.509860
_cell_angle_alpha 90.000000
_cell_angle_beta 42.944062
_cell_angle_gamma 90.000000
_cell_volume 3166.332421
_symmetry_space_group_name_H-M "C 2/M"
_symmetry_group_IT_number 12
_symmetry_cell_setting 'monoclinic'
loop_
_space_group_symop_operation_xyz
x,y,z
-x,y,-z
-x,-y,-z
x,-y,z
1/2+x,1/2+y,z
1/2-x,1/2+y,-z
1/2-x,1/2-y,-z
1/2+x,1/2-y,z
loop_
_atom_site_type_symbol
_atom_site_label
_atom_site_fract_x
_atom_site_fract_y
_atom_site_fract_z
Si Si1 0.865116 0.816135 0.341462
Si Si2 0.700862 0.822654 0.973989
Si Si3 0.167998 0.319541 0.179812
Si Si4 0.630158 0.327151 0.935855
Si Si5 0.702029 0.181755 0.709094
Si Si6 0.071666 0.683579 0.427210
Si Si7 0.987375 0.173570 0.096788
Si Si8 0.151442 0.818955 0.464155
O O1 0.807779 0.738011 0.365812
O O2 0.863731 0.759588 0.430803
O O3 0.932668 0.752991 0.220181
O O4 0.857051 0.000000 0.349103
O O5 0.665106 0.759123 0.095948
O O6 0.720195 0.000000 0.960291
O O7 0.763489 0.725020 0.874055
O O8 0.656028 0.801535 0.959568
O O9 0.158419 0.500000 0.194106
O O10 0.113393 0.247266 0.303555
O O11 0.657432 0.500000 0.914568
O O12 0.648968 0.273611 0.826565
O O13 0.555250 0.327294 0.051775
O O14 0.773716 0.222034 0.647484
O O15 0.690001 0.000000 0.729754
O O16 0.072486 0.500000 0.429767
O O17 0.102270 0.740858 0.467731
O O18 0.000000 0.744030 0.500000
O O19 0.963426 0.000000 0.108317
O O20 0.000000 0.261881 0.000000
O O21 0.140084 0.000000 0.472174
#
# Coordination Sequence:
#
# PCOD8097849 Si02
#       8
#     8   8   8   8   8   8   8   8
#     4  10  20  38  60  81 111 150 190 231 277 328
#     4  10  20  34  54  83 114 140 178 233 278 321
#     4   9  19  37  58  79 108 146 182 220 277 336
#     4  11  21  34  55  81 110 148 188 223 271 330
#     4  11  22  36  55  84 118 148 186 233 278 324
#     4  10  22  40  61  83 110 146 187 231 279 335
#     4   9  17  33  55  77 102 139 185 223 257 313
#     4  10  23  39  57  84 114 146 186 232 279 331
#
# _framework density 20.21266
#
# number of rings (size 3 to 8) (size 9 to 14) (size 15 to 20)
#    0.000    2.000    1.250    2.250    0.000    5.750 
#    0.000    1.875    0.000    0.000    0.000    0.000 
#    0.000    0.000    0.000    0.000    0.000    0.000 
#
# Total GULP energy -396610.251809 kJ/mol
# GULP energy per Si atom -12394.070369 kJ/mol
# Density = 2.016666 g / cm^3
# Si number density = 20.212660 Si / 1000 Ang^3
#
#
#
# Elastic Constant Matrix: (Units=GPa)
#
#
# Indices 1 2 3 4 5 6 
#
# 1 123.4532 23.5786 53.4116 -0.0028 2.6095 0.0000
# 2 23.5786 31.9599 23.5560 -0.0036 1.7046 0.0058
# 3 53.4116 23.5560 111.6122 0.0077 -0.5167 0.0002
# 4 -0.0028 -0.0036 0.0077 18.5469 0.0014 4.6284
# 5 2.6095 1.7046 -0.5167 0.0014 23.7892 0.0001
# 6 0.0000 0.0058 0.0002 4.6284 0.0001 30.6076
#
#
#
# Elastic Compliance Matrix: (Units=1/GPa)
#
#
# Indices 1 2 3 4 5 6 
#
# 1 0.010857 -0.004888 -0.004168 0.000002 -0.000931 0.000001
# 2 -0.004888 0.039444 -0.005997 0.000012 -0.002420 -0.000009
# 3 -0.004168 -0.005997 0.012225 -0.000008 0.001152 0.000002
# 4 0.000002 0.000012 -0.000008 0.056032 -0.000005 -0.008473
# 5 -0.000931 -0.002420 0.001152 -0.000005 0.042336 0.000001
# 6 0.000001 -0.000009 0.000002 -0.008473 0.000001 0.033953
#
#
# Mechanical properties :
#
#
# Convention : Reuss Voigt Hill
#
# Bulk Modulus (GPa) = 30.84476 52.01310 41.42893
# Shear Modulus (GPa) = 21.20797 25.68736 23.44767
#
# Velocity S-wave (km/s) = 3.24271 3.56877 3.40964
# Velocity P-wave (km/s) = 5.41420 6.53990 6.00349
#
# Compressibility (1/GPa) = 0.03242042
#
# Stress axis : x y z
#
# Youngs Moduli (GPa) = 92.10802 25.35216 81.79763
#
# Poissons Ratio (x) = 0.12392 0.34095
# Poissons Ratio (y) = 0.45021 0.49054
# Poissons Ratio (z) = 0.38393 0.15204
#
# Static dielectric constant tensor:
#      x y z
#    x 3.612870 -0.000010 0.069570 
#    y -0.000010 3.376760 0.000020 
#    z 0.069570 0.000020 4.054070 
# 
# 
# High freq. dielectric constant tensor:
#      x y z
#    x 1.789430 0.000000 0.004420 
#    y 0.000000 1.764630 0.000000 
#    z 0.004420 0.000000 1.799280 
# 
# From -- ./inp_files/295591.got.cif
#   From: 2010.06.25/outbox.cif.g09.slc.cpg/sg12_148_cif.got.tgz:295591.got - 2010.06.28 00:19:55.
