data_PCOD8097922
_publ_section_title
;
Structure prediction by ZEFSAII (Michael W. Deem and Ramdas Pophale) SiO2 
 PCOD8097922
Probable space group: C 2/M
;
_chemical_formula_sum "Si O2"
_cell_formula_units_Z 48
_cell_length_a 10.380505
_cell_length_b 19.768532
_cell_length_c 19.140651
_cell_angle_alpha 90.000000
_cell_angle_beta 141.647532
_cell_angle_gamma 90.000000
_cell_volume 2437.191128
_symmetry_space_group_name_H-M "C 2/M"
_symmetry_group_IT_number 12
_symmetry_cell_setting 'monoclinic'
loop_
_space_group_symop_operation_xyz
x,y,z
-x,y,-z
-x,-y,-z
x,-y,z
1/2+x,1/2+y,z
1/2-x,1/2+y,-z
1/2-x,1/2-y,-z
1/2+x,1/2-y,z
loop_
_atom_site_type_symbol
_atom_site_label
_atom_site_fract_x
_atom_site_fract_y
_atom_site_fract_z
Si Si1 0.168065 0.924164 0.936299
Si Si2 0.040670 0.709739 0.789791
Si Si3 0.105337 0.804526 0.161200
Si Si4 0.229572 0.685996 0.624556
Si Si5 0.565468 0.075704 0.192214
Si Si6 0.538238 0.423074 0.726136
O O1 0.149997 0.906377 0.846972
O O2 0.035617 0.868262 0.922684
O O3 0.082160 0.000000 0.915362
O O4 0.407509 0.919297 0.060049
O O5 0.266743 0.721469 0.851466
O O6 0.036416 0.743905 0.865844
O O7 0.865225 0.746132 0.667402
O O8 0.993450 0.629756 0.773407
O O9 0.267834 0.829129 0.290764
O O10 0.337366 0.623826 0.629400
O O11 0.000000 0.697316 0.500000
O O12 0.795697 0.092483 0.263369
O O13 0.556843 0.000000 0.221020
O O14 0.461228 0.500000 0.690110
#
# Coordination Sequence:
#
# PCOD8097922 Si02
#       6
#     8   8   8   8   8   8
#     4   9  18  33  55  81 110 146 182 214 262 324
#     4  10  21  37  53  80 111 140 181 227 268 321
#     4   9  21  37  54  82 110 141 179 225 270 314
#     4   9  20  36  57  83 103 141 184 221 279 320
#     4  10  20  34  55  79 110 150 181 216 267 320
#     4   9  17  34  55  82 114 139 179 226 264 319
#
# _framework density 19.694804000000001
#
# number of rings (size 3 to 8) (size 9 to 14) (size 15 to 20)
#    1.000    1.667    0.000    1.500    0.000    5.000 
#    0.000    1.667    0.000    0.500    0.000    0.000 
#    0.000    0.000    0.000    0.000    0.000    0.000 
#
# Total GULP energy -297436.122788 kJ/mol
# GULP energy per Si atom -12393.171783 kJ/mol
# Density = 1.964998 g / cm^3
# Si number density = 19.694804 Si / 1000 Ang^3
#
#
#
# Elastic Constant Matrix: (Units=GPa)
#
#
# Indices 1 2 3 4 5 6 
#
# 1 109.3470 54.7822 6.0608 -0.0003 26.8306 -0.0001
# 2 54.7822 126.8871 22.6939 0.0001 18.7915 0.0000
# 3 6.0608 22.6939 39.8195 -0.0003 16.0299 -0.0001
# 4 -0.0003 0.0001 -0.0003 19.8359 -0.0001 7.9266
# 5 26.8306 18.7915 16.0299 -0.0001 20.5727 -0.0001
# 6 -0.0001 0.0000 -0.0001 7.9266 -0.0001 33.2663
#
#
#
# Elastic Compliance Matrix: (Units=1/GPa)
#
#
# Indices 1 2 3 4 5 6 
#
# 1 0.018146 -0.005857 0.011583 0.000000 -0.027341 0.000000
# 2 -0.005857 0.011206 -0.006483 0.000000 0.002454 0.000000
# 3 0.011583 -0.006483 0.044793 0.000001 -0.044086 0.000000
# 4 0.000000 0.000000 0.000001 0.055719 -0.000001 -0.013277
# 5 -0.027341 0.002454 -0.044086 -0.000001 0.116376 0.000000
# 6 0.000000 0.000000 0.000000 -0.013277 0.000000 0.033224
#
#
# Mechanical properties :
#
#
# Convention : Reuss Voigt Hill
#
# Bulk Modulus (GPa) = 13.76834 49.23636 31.50235
# Shear Modulus (GPa) = 16.38333 27.56941 21.97637
#
# Velocity S-wave (km/s) = 2.88733 3.74549 3.34405
# Velocity P-wave (km/s) = 4.25694 6.61505 5.56239
#
# Compressibility (1/GPa) = 0.07263042
#
# Stress axis : x y z
#
# Youngs Moduli (GPa) = 55.10769 89.24055 22.32505
#
# Poissons Ratio (x) = 0.52267 -0.25858
# Poissons Ratio (y) = 0.32276 0.14473
# Poissons Ratio (z) = -0.63830 0.57854
#
# Static dielectric constant tensor:
#      x y z
#    x 3.278980 0.000000 0.161350 
#    y 0.000000 3.809980 0.000000 
#    z 0.161350 0.000000 3.126960 
# 
# 
# High freq. dielectric constant tensor:
#      x y z
#    x 1.743850 0.000000 0.020830 
#    y 0.000000 1.781260 0.000000 
#    z 0.020830 0.000000 1.729480 
# 
# From -- ./inp_files/336483.got.cif
#   From: 2010.06.25/outbox.cif.g09.slc.cpg/sg12_169_cif.got.tgz:336483.got - 2010.06.28 00:19:55.
