data_PCOD8097780
_publ_section_title
;
Structure prediction by ZEFSAII (Michael W. Deem and Ramdas Pophale) SiO2 
 PCOD8097780
Probable space group: C 2/M
;
_chemical_formula_sum "Si O2"
_cell_formula_units_Z 56
_cell_length_a 25.012718
_cell_length_b 8.481491
_cell_length_c 14.893002
_cell_angle_alpha 90.000000
_cell_angle_beta 105.478902
_cell_angle_gamma 90.000000
_cell_volume 3044.879951
_symmetry_space_group_name_H-M "C 2/M"
_symmetry_group_IT_number 12
_symmetry_cell_setting 'monoclinic'
loop_
_space_group_symop_operation_xyz
x,y,z
-x,y,-z
-x,-y,-z
x,-y,z
1/2+x,1/2+y,z
1/2-x,1/2+y,-z
1/2-x,1/2-y,-z
1/2+x,1/2-y,z
loop_
_atom_site_type_symbol
_atom_site_label
_atom_site_fract_x
_atom_site_fract_y
_atom_site_fract_z
Si Si1 0.996471 0.816112 0.101022
Si Si2 0.396008 0.815219 0.769956
Si Si3 0.817006 0.313369 0.891555
Si Si4 0.304782 0.684363 0.209108
Si Si5 0.880118 0.315584 0.095314
Si Si6 0.791956 0.683078 0.392361
Si Si7 0.673167 0.683713 0.413112
O O1 0.936519 0.781829 0.114774
O O2 0.040348 0.720714 0.180105
O O3 0.010264 0.000000 0.113328
O O4 0.000000 0.755949 0.000000
O O5 0.357741 0.746331 0.832991
O O6 0.379709 0.729130 0.670338
O O7 0.387046 0.000000 0.753208
O O8 0.816353 0.500000 0.885042
O O9 0.755086 0.247911 0.848815
O O10 0.839178 0.256353 0.997911
O O11 0.310638 0.500000 0.190996
O O12 0.351773 0.779418 0.177285
O O13 0.313299 0.715524 0.318129
O O14 0.893444 0.500000 0.091811
O O15 0.796443 0.500000 0.370444
O O16 0.728822 0.734322 0.385171
O O17 0.830539 0.722531 0.494889
O O18 0.673610 0.500000 0.435679
#
# Coordination Sequence:
#
# PCOD8097780 Si02
#       7
#     8   8   8   8   8   8   8
#     4  11  23  38  56  81 110 145 189 237 281 324
#     4  11  20  35  58  83 112 147 186 230 279 332
#     4   9  19  33  53  80 112 148 185 224 275 330
#     4  11  21  36  55  81 115 151 186 230 280 331
#     4  11  22  38  56  79 110 151 194 231 275 333
#     4  10  20  34  54  81 112 148 186 226 275 334
#     4  10  20  34  54  83 114 145 182 230 281 329
#
# _framework density 18.391529999999999
#
# number of rings (size 3 to 8) (size 9 to 14) (size 15 to 20)
#    0.000    1.571    2.857    3.000    0.000    1.714 
#    0.000    2.143    0.000    0.857    0.000    6.000 
#    0.000    0.000    0.000    0.000    0.000    0.000 
#
# Total GULP energy -347377.512395 kJ/mol
# GULP energy per Si atom -12406.339728 kJ/mol
# Density = 1.834967 g / cm^3
# Si number density = 18.391530 Si / 1000 Ang^3
#
#
#
# Elastic Constant Matrix: (Units=GPa)
#
#
# Indices 1 2 3 4 5 6 
#
# 1 94.8429 7.6722 41.6163 0.0000 -1.7550 0.0000
# 2 7.6722 43.5470 11.9300 0.0000 0.1703 0.0000
# 3 41.6163 11.9300 116.1233 0.0000 4.0596 0.0000
# 4 0.0000 0.0000 0.0000 28.8599 0.0000 -0.5349
# 5 -1.7550 0.1703 4.0596 0.0000 25.1839 0.0000
# 6 0.0000 0.0000 0.0000 -0.5349 0.0000 24.6860
#
#
#
# Elastic Compliance Matrix: (Units=1/GPa)
#
#
# Indices 1 2 3 4 5 6 
#
# 1 0.012618 -0.001003 -0.004475 0.000000 0.001608 0.000000
# 2 -0.001003 0.023710 -0.002080 0.000000 0.000105 0.000000
# 3 -0.004475 -0.002080 0.010499 0.000000 -0.001990 0.000000
# 4 0.000000 0.000000 0.000000 0.034664 0.000000 0.000751
# 5 0.001608 0.000105 -0.001990 0.000000 0.040140 0.000000
# 6 0.000000 0.000000 0.000000 0.000751 0.000000 0.040525
#
#
# Mechanical properties :
#
#
# Convention : Reuss Voigt Hill
#
# Bulk Modulus (GPa) = 31.53607 41.88334 36.70970
# Shear Modulus (GPa) = 26.61792 28.63226 27.62509
#
# Velocity S-wave (km/s) = 3.80846 3.94993 3.87984
# Velocity P-wave (km/s) = 6.04346 6.60494 6.33043
#
# Compressibility (1/GPa) = 0.03170972
#
# Stress axis : x y z
#
# Youngs Moduli (GPa) = 79.24945 42.17649 95.25036
#
# Poissons Ratio (x) = 0.04232 0.42627
# Poissons Ratio (y) = 0.07952 0.19811
# Poissons Ratio (z) = 0.35466 0.08772
#
# Static dielectric constant tensor:
#      x y z
#    x 3.180070 0.000000 0.032970 
#    y 0.000000 3.226940 0.000000 
#    z 0.032970 0.000000 3.385160 
# 
# 
# High freq. dielectric constant tensor:
#      x y z
#    x 1.689750 0.000000 0.001990 
#    y 0.000000 1.713100 0.000000 
#    z 0.001990 0.000000 1.715660 
# 
# From -- ./inp_files/237454.got.cif
#   From: 2010.06.25/outbox.cif.g09.slc.cpg/sg12_119_cif.got.tgz:237454.got - 2010.06.28 00:19:55.
