data_PCOD8097741
_publ_section_title
;
Structure prediction by ZEFSAII (Michael W. Deem and Ramdas Pophale) SiO2 
 PCOD8097741
Probable space group: C 2/M
;
_chemical_formula_sum "Si O2"
_cell_formula_units_Z 56
_cell_length_a 18.213794
_cell_length_b 8.884124
_cell_length_c 25.672758
_cell_angle_alpha 90.000000
_cell_angle_beta 135.519387
_cell_angle_gamma 90.000000
_cell_volume 2910.715579
_symmetry_space_group_name_H-M "C 2/M"
_symmetry_group_IT_number 12
_symmetry_cell_setting 'monoclinic'
loop_
_space_group_symop_operation_xyz
x,y,z
-x,y,-z
-x,-y,-z
x,-y,z
1/2+x,1/2+y,z
1/2-x,1/2+y,-z
1/2-x,1/2-y,-z
1/2+x,1/2-y,z
loop_
_atom_site_type_symbol
_atom_site_label
_atom_site_fract_x
_atom_site_fract_y
_atom_site_fract_z
Si Si1 0.393349 0.820688 0.725528
Si Si2 0.820135 0.321768 0.991254
Si Si3 0.044890 0.678090 0.711414
Si Si4 0.448211 0.178914 0.867508
Si Si5 0.489065 0.678158 0.578530
Si Si6 0.762092 0.321656 0.846553
Si Si7 0.336253 0.678169 0.412608
O O1 0.480161 0.764457 0.728708
O O2 0.423937 0.757345 0.797711
O O3 0.280076 0.753478 0.651877
O O4 0.388102 0.000000 0.723631
O O5 0.816442 0.500000 0.995482
O O6 0.776457 0.269760 0.913330
O O7 0.750000 0.250000 0.000000
O O8 0.938713 0.261623 0.056908
O O9 0.054283 0.500000 0.715555
O O10 0.159523 0.748610 0.770361
O O11 0.982860 0.733351 0.629321
O O12 0.361162 0.238014 0.863751
O O13 0.447669 0.000000 0.866602
O O14 0.490788 0.500000 0.589822
O O15 0.387580 0.727551 0.493431
O O16 0.592808 0.731355 0.599983
O O17 0.751826 0.500000 0.836713
O O18 0.332669 0.500000 0.409307
#
# Coordination Sequence:
#
# PCOD8097741 Si02
#       7
#     8   8   8   8   8   8   8
#     4   9  17  29  47  72 102 134 166 203 251 303
#     4  10  20  34  54  81 109 135 166 206 253 302
#     4  11  22  33  48  74 107 137 164 202 258 314
#     4   9  17  32  55  78  99 129 173 217 248 283
#     4   9  17  32  55  77  97 127 171 216 250 290
#     4  10  20  35  56  77  98 131 177 219 247 284
#     4   8  15  30  53  77  97 126 172 215 247 289
#
# _framework density 19.239255
#
# number of rings (size 3 to 8) (size 9 to 14) (size 15 to 20)
#    0.000    2.571    0.000    3.429    0.000    6.286 
#    0.000    2.143    0.000   11.143    0.000    0.000 
#    0.000    0.000    0.000    0.000    0.000    0.000 
#
# Total GULP energy -347195.835430 kJ/mol
# GULP energy per Si atom -12399.851265 kJ/mol
# Density = 1.919547 g / cm^3
# Si number density = 19.239255 Si / 1000 Ang^3
#
#
#
# Elastic Constant Matrix: (Units=GPa)
#
#
# Indices 1 2 3 4 5 6 
#
# 1 112.0404 20.9663 41.3114 0.0000 -13.5767 0.0000
# 2 20.9663 18.9756 19.5588 0.0000 -4.2618 0.0000
# 3 41.3114 19.5588 117.6410 0.0000 -11.7956 0.0000
# 4 0.0000 0.0000 0.0000 16.8952 0.0000 -6.4863
# 5 -13.5767 -4.2618 -11.7956 0.0000 42.7059 0.0000
# 6 0.0000 0.0000 0.0000 -6.4863 0.0000 22.3573
#
#
#
# Elastic Compliance Matrix: (Units=1/GPa)
#
#
# Indices 1 2 3 4 5 6 
#
# 1 0.011965 -0.010415 -0.002256 0.000000 0.002142 0.000000
# 2 -0.010415 0.073183 -0.008341 0.000000 0.001689 0.000000
# 3 -0.002256 -0.008341 0.010824 0.000000 0.001440 0.000000
# 4 0.000000 0.000000 0.000000 0.066607 0.000000 0.019324
# 5 0.002142 0.001689 0.001440 0.000000 0.024663 0.000000
# 6 0.000000 0.000000 0.000000 0.019324 0.000000 0.050334
#
#
# Mechanical properties :
#
#
# Convention : Reuss Voigt Hill
#
# Bulk Modulus (GPa) = 18.53570 45.81445 32.17507
# Shear Modulus (GPa) = 16.80207 27.51305 22.15756
#
# Velocity S-wave (km/s) = 2.95841 3.78570 3.39733
# Velocity P-wave (km/s) = 4.61788 6.55541 5.67002
#
# Compressibility (1/GPa) = 0.05394995
#
# Stress axis : x y z
#
# Youngs Moduli (GPa) = 83.57362 13.66437 92.39061
#
# Poissons Ratio (x) = 0.14231 0.20839
# Poissons Ratio (y) = 0.87041 0.77060
# Poissons Ratio (z) = 0.18851 0.11397
#
# Static dielectric constant tensor:
#      x y z
#    x 3.706800 0.000000 0.079290 
#    y 0.000000 2.975430 0.000000 
#    z 0.079290 0.000000 3.829520 
# 
# 
# High freq. dielectric constant tensor:
#      x y z
#    x 1.758000 0.000000 -0.000510 
#    y 0.000000 1.693740 0.000000 
#    z -0.000510 0.000000 1.768130 
# 
# From -- ./inp_files/342559.got.cif
#   From: 2010.06.25/outbox.cif.g09.slc.cpg/sg12_172_cif.got.tgz:342559.got - 2010.06.28 00:19:55.
