data_PCOD8097293
_publ_section_title
;
Structure prediction by ZEFSAII (Michael W. Deem and Ramdas Pophale) SiO2 
 PCOD8097293
Probable space group: C 2/M
;
_chemical_formula_sum "Si O2"
_cell_formula_units_Z 56
_cell_length_a 14.233976
_cell_length_b 9.200571
_cell_length_c 23.127771
_cell_angle_alpha 90.000000
_cell_angle_beta 70.205635
_cell_angle_gamma 90.000000
_cell_volume 2849.868072
_symmetry_space_group_name_H-M "C 2/M"
_symmetry_group_IT_number 12
_symmetry_cell_setting 'monoclinic'
loop_
_space_group_symop_operation_xyz
x,y,z
-x,y,-z
-x,-y,-z
x,-y,z
1/2+x,1/2+y,z
1/2-x,1/2+y,-z
1/2-x,1/2-y,-z
1/2+x,1/2-y,z
loop_
_atom_site_type_symbol
_atom_site_label
_atom_site_fract_x
_atom_site_fract_y
_atom_site_fract_z
Si Si1 0.113105 0.835124 0.566711
Si Si2 0.101410 0.670689 0.007758
Si Si3 0.570218 0.830191 0.686548
Si Si4 0.192532 0.168678 0.091029
Si Si5 0.392714 0.668844 0.768898
Si Si6 0.655178 0.164282 0.449775
Si Si7 0.795658 0.832688 0.668979
O O1 0.052775 0.753447 0.629719
O O2 0.229625 0.832210 0.556542
O O3 0.091838 0.751489 0.511093
O O4 0.073517 0.000000 0.570251
O O5 0.094265 0.500000 0.020036
O O6 0.115223 0.744790 0.067039
O O7 0.193473 0.712659 0.946731
O O8 0.000000 0.729992 0.000000
O O9 0.492222 0.766287 0.748983
O O10 0.678864 0.797524 0.689214
O O11 0.552094 0.000000 0.680072
O O12 0.172535 0.209179 0.161626
O O13 0.174639 0.000000 0.082419
O O14 0.423402 0.500000 0.762393
O O15 0.327312 0.710043 0.726770
O O16 0.641161 0.239660 0.390425
O O17 0.615050 0.000000 0.454971
O O18 0.816803 0.000000 0.649977
#
# Coordination Sequence:
#
# PCOD8097293 Si02
#       7
#     8   8   8   8   8   8   8
#     4   9  16  28  48  72 100 135 172 214 270 328
#     4   9  18  34  58  85 111 140 175 214 255 301
#     4  10  20  34  53  77 103 134 177 225 267 311
#     4   9  19  35  54  79 111 143 175 213 256 303
#     4  10  21  37  54  74 106 145 178 210 256 314
#     4   9  16  27  47  74 101 130 170 221 270 316
#     4   9  19  35  53  73 101 138 176 215 265 322
#
# _framework density 19.650031999999999
#
# number of rings (size 3 to 8) (size 9 to 14) (size 15 to 20)
#    0.000    2.714    0.000    1.286    0.000    6.571 
#    0.000    3.571    0.000    4.286    0.000    0.000 
#    0.000    0.000    0.000    0.000    0.000    0.000 
#
# Total GULP energy -347283.260141 kJ/mol
# GULP energy per Si atom -12402.973576 kJ/mol
# Density = 1.960531 g / cm^3
# Si number density = 19.650032 Si / 1000 Ang^3
#
#
#
# Elastic Constant Matrix: (Units=GPa)
#
#
# Indices 1 2 3 4 5 6 
#
# 1 79.7465 31.4460 44.2091 0.0000 12.7019 0.0000
# 2 31.4460 87.2010 52.3612 0.0000 8.1881 0.0000
# 3 44.2091 52.3612 138.7168 0.0000 15.7561 0.0000
# 4 0.0000 0.0000 0.0000 34.6156 0.0000 1.4071
# 5 12.7019 8.1881 15.7561 0.0000 26.6247 0.0000
# 6 0.0000 0.0000 0.0000 1.4071 0.0000 23.3107
#
#
#
# Elastic Compliance Matrix: (Units=1/GPa)
#
#
# Indices 1 2 3 4 5 6 
#
# 1 0.016573 -0.003467 -0.003426 0.000000 -0.004813 0.000000
# 2 -0.003467 0.015599 -0.004745 0.000000 -0.000335 0.000000
# 3 -0.003426 -0.004745 0.010443 0.000000 -0.003086 0.000000
# 4 0.000000 0.000000 0.000000 0.028960 0.000000 -0.001748
# 5 -0.004813 -0.000335 -0.003086 0.000000 0.041784 0.000000
# 6 0.000000 0.000000 0.000000 -0.001748 0.000000 0.043004
#
#
# Mechanical properties :
#
#
# Convention : Reuss Voigt Hill
#
# Bulk Modulus (GPa) = 51.71404 62.41076 57.06240
# Shear Modulus (GPa) = 26.86941 28.75341 27.81141
#
# Velocity S-wave (km/s) = 3.70185 3.82943 3.76618
# Velocity P-wave (km/s) = 6.68178 7.16818 6.92925
#
# Compressibility (1/GPa) = 0.01933711
#
# Stress axis : x y z
#
# Youngs Moduli (GPa) = 60.33929 64.10781 95.76226
#
# Poissons Ratio (x) = 0.22227 0.32813
# Poissons Ratio (y) = 0.20920 0.45439
# Poissons Ratio (z) = 0.20675 0.30419
#
# Static dielectric constant tensor:
#      x y z
#    x 3.463070 0.000000 -0.011370 
#    y 0.000000 3.590530 0.000000 
#    z -0.011370 0.000000 3.616890 
# 
# 
# High freq. dielectric constant tensor:
#      x y z
#    x 1.760840 0.000000 -0.002070 
#    y 0.000000 1.764770 0.000000 
#    z -0.002070 0.000000 1.761960 
# 
# From -- ./inp_files/338556.got.cif
#   From: 2010.06.25/outbox.cif.g09.slc.cpg/sg12_170_cif.got.tgz:338556.got - 2010.06.28 00:19:55.
