data_PCOD8097165
_publ_section_title
;
Structure prediction by ZEFSAII (Michael W. Deem and Ramdas Pophale) SiO2 
 PCOD8097165
Probable space group: C 2/M
;
_chemical_formula_sum "Si O2"
_cell_formula_units_Z 60
_cell_length_a 29.256019
_cell_length_b 14.657195
_cell_length_c 20.313744
_cell_angle_alpha 90.000000
_cell_angle_beta 19.023661
_cell_angle_gamma 90.000000
_cell_volume 2839.347194
_symmetry_space_group_name_H-M "C 2/M"
_symmetry_group_IT_number 12
_symmetry_cell_setting 'monoclinic'
loop_
_space_group_symop_operation_xyz
x,y,z
-x,y,-z
-x,-y,-z
x,-y,z
1/2+x,1/2+y,z
1/2-x,1/2+y,-z
1/2-x,1/2-y,-z
1/2+x,1/2-y,z
loop_
_atom_site_type_symbol
_atom_site_label
_atom_site_fract_x
_atom_site_fract_y
_atom_site_fract_z
Si Si1 0.500000 0.302705 0.500000
Si Si2 0.765772 0.604110 0.409282
Si Si3 0.108526 0.397490 0.623296
Si Si4 0.154853 0.104055 0.802083
Si Si5 0.985404 0.212308 0.774143
Si Si6 0.283939 0.729526 0.164072
Si Si7 0.483881 0.399114 0.652153
Si Si8 0.818267 0.399944 0.196419
O O1 0.625222 0.240938 0.356264
O O2 0.436428 0.364890 0.644919
O O3 0.708017 0.500000 0.486816
O O4 0.866430 0.620592 0.333753
O O5 0.635658 0.672431 0.590216
O O6 0.863472 0.621905 0.210954
O O7 0.048858 0.500000 0.692161
O O8 0.256847 0.385539 0.384725
O O9 0.998408 0.322140 0.747196
O O10 0.229400 0.159536 0.758126
O O11 0.144729 0.000000 0.839556
O O12 0.000000 0.143882 0.000000
O O13 0.926742 0.168603 0.786615
O O14 0.876194 0.188292 0.980088
O O15 0.358012 0.823329 0.089080
O O16 0.420435 0.500000 0.749600
O O17 0.650519 0.401967 0.429764
O O18 0.875334 0.500000 0.096000
#
# Coordination Sequence:
#
# PCOD8097165 Si02
#       8
#     4   8   8   8   8   8   8   8
#     4  10  21  40  61  82 114 148 185 234 285 344
#     4   9  17  32  55  79 106 145 192 240 287 333
#     4  10  20  34  52  78 115 154 190 234 287 339
#     4  10  21  38  60  84 113 154 202 240 271 323
#     4  11  21  33  54  82 113 146 184 234 287 340
#     4  11  23  36  57  84 116 153 191 233 284 341
#     4   9  18  35  60  84 103 131 178 233 284 330
#     4   8  16  32  53  77 106 142 184 231 282 336
#
# _framework density 21.131618
#
# number of rings (size 3 to 8) (size 9 to 14) (size 15 to 20)
#    0.000    2.267    0.000    5.000    0.000    4.800 
#    0.000    0.333    0.000    5.200    0.000    0.000 
#    0.000    0.000    0.000    0.000    0.000    0.000 
#
# Total GULP energy -372016.353929 kJ/mol
# GULP energy per Si atom -12400.545131 kJ/mol
# Density = 2.108352 g / cm^3
# Si number density = 21.131618 Si / 1000 Ang^3
#
#
#
# Elastic Constant Matrix: (Units=GPa)
#
#
# Indices 1 2 3 4 5 6 
#
# 1 141.8419 63.4342 24.6017 0.0014 16.0240 -0.0006
# 2 63.4342 109.1915 24.4155 0.0031 -1.8091 -0.0016
# 3 24.6017 24.4155 34.7779 0.0024 16.4479 -0.0013
# 4 0.0014 0.0031 0.0024 21.1238 -0.0014 2.3327
# 5 16.0240 -1.8091 16.4479 -0.0014 22.2939 0.0005
# 6 -0.0006 -0.0016 -0.0013 2.3327 0.0005 30.2715
#
#
#
# Elastic Compliance Matrix: (Units=1/GPa)
#
#
# Indices 1 2 3 4 5 6 
#
# 1 0.010927 -0.006878 0.001654 -0.000001 -0.009632 0.000000
# 2 -0.006878 0.016866 -0.015299 0.000001 0.017599 0.000000
# 3 0.001654 -0.015299 0.060629 -0.000008 -0.047161 0.000003
# 4 -0.000001 0.000001 -0.000008 0.047746 0.000009 -0.003679
# 5 -0.009632 0.017599 -0.047161 0.000009 0.088001 -0.000003
# 6 0.000000 0.000000 0.000003 -0.003679 -0.000003 0.033318
#
#
# Mechanical properties :
#
#
# Convention : Reuss Voigt Hill
#
# Bulk Modulus (GPa) = 21.10724 56.74600 38.92662
# Shear Modulus (GPa) = 15.90712 26.29516 21.10114
#
# Velocity S-wave (km/s) = 2.74663 3.53136 3.16342
# Velocity P-wave (km/s) = 4.47982 6.59843 5.63951
#
# Compressibility (1/GPa) = 0.04737712
#
# Stress axis : x y z
#
# Youngs Moduli (GPa) = 91.51523 59.29031 16.49382
#
# Poissons Ratio (x) = 0.40777 -0.02728
# Poissons Ratio (y) = 0.62940 0.25234
# Poissons Ratio (z) = -0.15137 0.90708
#
# Static dielectric constant tensor:
#      x y z
#    x 4.023670 0.000000 0.272950 
#    y 0.000000 4.064560 0.000000 
#    z 0.272950 0.000000 3.426970 
# 
# 
# High freq. dielectric constant tensor:
#      x y z
#    x 1.827690 0.000000 0.023250 
#    y 0.000000 1.833890 0.000000 
#    z 0.023250 0.000000 1.801340 
# 
# From -- ./inp_files/330260.got.cif
#   From: 2010.06.25/outbox.cif.g09.slc.cpg/sg12_166_cif.got.tgz:330260.got - 2010.06.28 00:19:55.
