data_PCOD8097754
_publ_section_title
;
Structure prediction by ZEFSAII (Michael W. Deem and Ramdas Pophale) SiO2 
 PCOD8097754
Probable space group: C 2/M
;
_chemical_formula_sum "Si O2"
_cell_formula_units_Z 64
_cell_length_a 20.749626
_cell_length_b 9.155108
_cell_length_c 20.718538
_cell_angle_alpha 90.000000
_cell_angle_beta 123.772108
_cell_angle_gamma 90.000000
_cell_volume 3271.652855
_symmetry_space_group_name_H-M "C 2/M"
_symmetry_group_IT_number 12
_symmetry_cell_setting 'monoclinic'
loop_
_space_group_symop_operation_xyz
x,y,z
-x,y,-z
-x,-y,-z
x,-y,z
1/2+x,1/2+y,z
1/2-x,1/2+y,-z
1/2-x,1/2-y,-z
1/2+x,1/2-y,z
loop_
_atom_site_type_symbol
_atom_site_label
_atom_site_fract_x
_atom_site_fract_y
_atom_site_fract_z
Si Si1 0.284502 0.665063 0.108642
Si Si2 0.049797 0.172463 0.334621
Si Si3 0.991738 0.172796 0.923795
Si Si4 0.175158 0.329419 0.486287
Si Si5 0.634188 0.834868 0.955004
Si Si6 0.872266 0.826850 0.754142
Si Si7 0.620618 0.332284 0.716131
Si Si8 0.301133 0.831047 0.351951
O O1 0.311637 0.500000 0.104276
O O2 0.321977 0.788094 0.085074
O O3 0.308573 0.698211 0.195334
O O4 0.191604 0.677833 0.048779
O O5 0.097915 0.258756 0.414948
O O6 0.077707 0.227098 0.279601
O O7 0.959808 0.214582 0.294462
O O8 0.064204 0.000000 0.351062
O O9 0.063336 0.226268 0.922010
O O10 0.913651 0.224575 0.843658
O O11 0.995050 0.000000 0.929022
O O12 0.000000 0.241324 0.000000
O O13 0.180358 0.500000 0.471530
O O14 0.250000 0.250000 0.500000
O O15 0.170273 0.305430 0.559874
O O16 0.604239 0.000000 0.930404
O O17 0.785291 0.761972 0.704130
O O18 0.867989 0.000000 0.748122
O O19 0.616288 0.500000 0.693301
O O20 0.636652 0.243303 0.660237
O O21 0.298614 0.000000 0.332125
#
# Coordination Sequence:
#
# PCOD8097754 Si02
#       8
#     8   8   8   8   8   8   8   8
#     4   9  19  37  58  78 108 150 191 229 279 342
#     4  10  20  38  63  86 115 153 192 236 284 341
#     4  10  21  35  55  81 111 151 196 236 281 341
#     4  11  22  39  63  89 116 150 192 237 286 340
#     4  10  20  34  54  81 110 144 188 241 291 333
#     4   9  18  37  60  82 111 153 199 236 282 343
#     4  10  22  38  59  87 118 154 191 235 287 340
#     4  10  22  39  60  85 117 153 188 236 290 342
#
# _framework density 19.561978
#
# number of rings (size 3 to 8) (size 9 to 14) (size 15 to 20)
#    0.000    2.125    1.250    1.500    1.750    5.250 
#    0.000    5.000    0.000    0.000    0.000    0.000 
#    0.000    0.000    0.000    0.000    0.000    0.000 
#
# Total GULP energy -396785.863394 kJ/mol
# GULP energy per Si atom -12399.558231 kJ/mol
# Density = 1.951745 g / cm^3
# Si number density = 19.561978 Si / 1000 Ang^3
#
#
#
# Elastic Constant Matrix: (Units=GPa)
#
#
# Indices 1 2 3 4 5 6 
#
# 1 79.3926 23.3930 27.2272 0.0000 -5.6446 0.0000
# 2 23.3930 38.3038 42.7559 0.0000 -2.6461 0.0000
# 3 27.2272 42.7559 113.1532 0.0000 1.6110 0.0000
# 4 0.0000 0.0000 0.0000 27.1694 0.0000 -0.4200
# 5 -5.6446 -2.6461 1.6110 0.0000 27.4763 0.0000
# 6 0.0000 0.0000 0.0000 -0.4200 0.0000 30.2759
#
#
#
# Elastic Compliance Matrix: (Units=1/GPa)
#
#
# Indices 1 2 3 4 5 6 
#
# 1 0.015513 -0.008832 -0.000429 0.000000 0.002362 0.000000
# 2 -0.008832 0.050979 -0.017196 0.000000 0.004103 0.000000
# 3 -0.000429 -0.017196 0.015476 0.000000 -0.002652 0.000000
# 4 0.000000 0.000000 0.000000 0.036814 0.000000 0.000511
# 5 0.002362 0.004103 -0.002652 0.000000 0.037431 0.000000
# 6 0.000000 0.000000 0.000000 0.000511 0.000000 0.033037
#
#
# Mechanical properties :
#
#
# Convention : Reuss Voigt Hill
#
# Bulk Modulus (GPa) = 34.41867 46.40019 40.40943
# Shear Modulus (GPa) = 19.85313 26.14921 23.00117
#
# Velocity S-wave (km/s) = 3.18918 3.66011 3.43273
# Velocity P-wave (km/s) = 5.58516 6.45236 6.03436
#
# Compressibility (1/GPa) = 0.02905400
#
# Stress axis : x y z
#
# Youngs Moduli (GPa) = 64.46189 19.61583 64.61483
#
# Poissons Ratio (x) = 0.17325 0.02773
# Poissons Ratio (y) = 0.56932 1.11113
# Poissons Ratio (z) = 0.02767 0.33732
#
# Static dielectric constant tensor:
#      x y z
#    x 3.473610 0.000000 0.144940 
#    y 0.000000 3.399730 0.000000 
#    z 0.144940 0.000000 3.910490 
# 
# 
# High freq. dielectric constant tensor:
#      x y z
#    x 1.755140 0.000000 0.005580 
#    y 0.000000 1.743220 0.000000 
#    z 0.005580 0.000000 1.773880 
# 
# From -- ./inp_files/320090.got.cif
#   From: 2010.06.25/outbox.cif.g09.slc.cpg/sg12_161_cif.got.tgz:320090.got - 2010.06.28 00:19:55.
