data_PCOD8097870
_publ_section_title
;
Structure prediction by ZEFSAII (Michael W. Deem and Ramdas Pophale) SiO2 
 PCOD8097870
Probable space group: C 2/M
;
_chemical_formula_sum "Si O2"
_cell_formula_units_Z 64
_cell_length_a 30.174599
_cell_length_b 8.842978
_cell_length_c 16.199082
_cell_angle_alpha 90.000000
_cell_angle_beta 133.691094
_cell_angle_gamma 90.000000
_cell_volume 3125.456926
_symmetry_space_group_name_H-M "C 2/M"
_symmetry_group_IT_number 12
_symmetry_cell_setting 'monoclinic'
loop_
_space_group_symop_operation_xyz
x,y,z
-x,y,-z
-x,-y,-z
x,-y,z
1/2+x,1/2+y,z
1/2-x,1/2+y,-z
1/2-x,1/2-y,-z
1/2+x,1/2-y,z
loop_
_atom_site_type_symbol
_atom_site_label
_atom_site_fract_x
_atom_site_fract_y
_atom_site_fract_z
Si Si1 0.641564 0.330165 0.080370
Si Si2 0.063368 0.825839 0.824015
Si Si3 0.562566 0.166703 0.546805
Si Si4 0.152597 0.666989 0.812120
Si Si5 0.063628 0.322343 0.305340
Si Si6 0.643180 0.674264 0.533547
Si Si7 0.440666 0.325641 0.874447
Si Si8 0.734335 0.322923 0.790644
O O1 0.668112 0.500000 0.104450
O O2 0.618589 0.304053 0.143830
O O3 0.694316 0.211399 0.127126
O O4 0.583780 0.307684 0.945392
O O5 0.118568 0.757860 0.840476
O O6 0.997697 0.744035 0.729604
O O7 0.054650 0.000000 0.787867
O O8 0.500000 0.231755 0.500000
O O9 0.607012 0.145961 0.679296
O O10 0.583114 0.296582 0.511092
O O11 0.555017 0.000000 0.493955
O O12 0.172311 0.500000 0.870563
O O13 0.211525 0.751705 0.848302
O O14 0.059940 0.500000 0.308074
O O15 0.127711 0.265408 0.429812
O O16 0.068485 0.276489 0.216809
O O17 0.651826 0.500000 0.521749
O O18 0.699996 0.736799 0.662477
O O19 0.449084 0.500000 0.857845
O O20 0.500000 0.268891 0.000000
O O21 0.722112 0.500000 0.781420
#
# Coordination Sequence:
#
# PCOD8097870 Si02
#       8
#     8   8   8   8   8   8   8   8
#     4  10  22  40  64  88 114 154 196 240 296 353
#     4  11  22  38  59  87 121 157 198 243 296 353
#     4   9  17  30  49  75 110 147 188 239 293 343
#     4  10  20  34  54  83 118 157 199 244 292 343
#     4  12  24  37  59  92 124 153 191 242 297 350
#     4  10  21  37  57  81 112 154 197 238 289 345
#     4  10  20  41  66  89 119 153 190 235 296 358
#     4  10  22  40  61  85 117 158 203 247 289 342
#
# _framework density 20.477005999999999
#
# number of rings (size 3 to 8) (size 9 to 14) (size 15 to 20)
#    0.000    1.750    1.250    3.375    0.000    5.500 
#    0.000    0.625    0.000    0.000    0.000    0.000 
#    0.000    0.000    0.000    0.000    0.000    0.000 
#
# Total GULP energy -396652.565243 kJ/mol
# GULP energy per Si atom -12395.392664 kJ/mol
# Density = 2.043040 g / cm^3
# Si number density = 20.477006 Si / 1000 Ang^3
#
#
#
# Elastic Constant Matrix: (Units=GPa)
#
#
# Indices 1 2 3 4 5 6 
#
# 1 69.6099 23.6880 6.3029 0.0000 -7.1309 0.0000
# 2 23.6880 103.7123 26.6565 0.0000 -6.5518 0.0000
# 3 6.3029 26.6565 58.3751 0.0000 -13.5302 0.0000
# 4 0.0000 0.0000 0.0000 22.9938 0.0000 -3.9915
# 5 -7.1309 -6.5518 -13.5302 0.0000 27.7567 0.0000
# 6 0.0000 0.0000 0.0000 -3.9915 0.0000 33.7183
#
#
#
# Elastic Compliance Matrix: (Units=1/GPa)
#
#
# Indices 1 2 3 4 5 6 
#
# 1 0.015890 -0.003598 0.000763 0.000000 0.003605 0.000000
# 2 -0.003598 0.011739 -0.005123 0.000000 -0.000651 0.000000
# 3 0.000763 -0.005123 0.021592 0.000000 0.009512 0.000000
# 4 0.000000 0.000000 0.000000 0.044402 0.000000 0.005256
# 5 0.003605 -0.000651 0.009512 0.000000 0.041437 0.000000
# 6 0.000000 0.000000 0.000000 0.005256 0.000000 0.030280
#
#
# Mechanical properties :
#
#
# Convention : Reuss Voigt Hill
#
# Bulk Modulus (GPa) = 30.02464 38.33245 34.17854
# Shear Modulus (GPa) = 25.99311 28.56377 27.27844
#
# Velocity S-wave (km/s) = 3.56670 3.73891 3.65382
# Velocity P-wave (km/s) = 5.62639 6.11553 5.87605
#
# Compressibility (1/GPa) = 0.03330598
#
# Stress axis : x y z
#
# Youngs Moduli (GPa) = 62.93161 85.18313 46.31278
#
# Poissons Ratio (x) = 0.30646 -0.03532
# Poissons Ratio (y) = 0.22641 0.23726
# Poissons Ratio (z) = -0.04800 0.43640
#
# Static dielectric constant tensor:
#      x y z
#    x 3.427670 0.000000 -0.049410 
#    y 0.000000 3.768890 0.000000 
#    z -0.049410 0.000000 3.845250 
# 
# 
# High freq. dielectric constant tensor:
#      x y z
#    x 1.785680 0.000000 -0.004620 
#    y 0.000000 1.798900 0.000000 
#    z -0.004620 0.000000 1.804640 
# 
# From -- ./inp_files/249155.got.cif
#   From: 2010.06.25/outbox.cif.g09.slc.cpg/sg12_125_cif.got.tgz:249155.got - 2010.06.28 00:19:55.
