data_PCOD8097111
_publ_section_title
;
Structure prediction by ZEFSAII (Michael W. Deem and Ramdas Pophale) SiO2 
 PCOD8097111
Probable space group: C 2/M
;
_chemical_formula_sum "Si O2"
_cell_formula_units_Z 56
_cell_length_a 18.015722
_cell_length_b 8.746891
_cell_length_c 22.737585
_cell_angle_alpha 90.000000
_cell_angle_beta 53.721142
_cell_angle_gamma 90.000000
_cell_volume 2888.442928
_symmetry_space_group_name_H-M "C 2/M"
_symmetry_group_IT_number 12
_symmetry_cell_setting 'monoclinic'
loop_
_space_group_symop_operation_xyz
x,y,z
-x,y,-z
-x,-y,-z
x,-y,z
1/2+x,1/2+y,z
1/2-x,1/2+y,-z
1/2-x,1/2-y,-z
1/2+x,1/2-y,z
loop_
_atom_site_type_symbol
_atom_site_label
_atom_site_fract_x
_atom_site_fract_y
_atom_site_fract_z
Si Si1 0.259701 0.679024 0.431715
Si Si2 0.894756 0.821578 0.706238
Si Si3 0.966608 0.317292 0.156014
Si Si4 0.700365 0.817011 0.843437
Si Si5 0.911809 0.667490 0.000082
Si Si6 0.602479 0.675981 0.432131
Si Si7 0.555843 0.819591 0.702170
O O1 0.272059 0.500000 0.433207
O O2 0.250000 0.750000 0.500000
O O3 0.169490 0.714565 0.436412
O O4 0.347272 0.745187 0.357453
O O5 0.802656 0.758961 0.781071
O O6 0.885389 0.788889 0.641964
O O7 0.980746 0.727753 0.689782
O O8 0.911228 0.000000 0.710998
O O9 0.969835 0.500000 0.150342
O O10 0.869615 0.258726 0.174444
O O11 0.975691 0.260704 0.218628
O O12 0.053235 0.249747 0.076635
O O13 0.697854 0.000000 0.845983
O O14 0.668019 0.750721 0.923029
O O15 0.874356 0.500000 0.000429
O O16 0.000000 0.650175 0.000000
O O17 0.500000 0.716006 0.500000
O O18 0.626696 0.500000 0.435018
O O19 0.569162 0.000000 0.695244
#
# Coordination Sequence:
#
# PCOD8097111 Si02
#       7
#     8   8   8   8   8   8   8
#     4  12  25  41  62  86 112 140 174 215 260 313
#     4  10  20  34  52  76 109 146 184 225 270 319
#     4   8  14  26  46  72 100 133 175 223 272 319
#     4   8  13  24  45  71  99 134 177 225 273 321
#     4   7  10  19  39  68  98 128 170 222 270 317
#     4  10  21  38  60  84 111 143 177 216 263 313
#     4  11  22  36  54  77 109 145 182 223 267 316
#
# _framework density 19.387608
#
# number of rings (size 3 to 8) (size 9 to 14) (size 15 to 20)
#    0.000    2.571    0.000    5.143    0.000    4.286 
#    0.000    0.714    0.000    0.000    0.000    1.000 
#    0.000    9.714    0.000    0.000    0.000    0.000 
#
# Total GULP energy -347007.094102 kJ/mol
# GULP energy per Si atom -12393.110504 kJ/mol
# Density = 1.934348 g / cm^3
# Si number density = 19.387608 Si / 1000 Ang^3
#
#
#
# Elastic Constant Matrix: (Units=GPa)
#
#
# Indices 1 2 3 4 5 6 
#
# 1 88.1598 31.5811 52.3020 -0.0001 0.2209 -0.0001
# 2 31.5811 56.6427 39.8130 -0.0003 5.8443 -0.0003
# 3 52.3020 39.8130 172.0600 0.0000 0.2155 0.0000
# 4 -0.0001 -0.0003 0.0000 7.2916 0.0000 -3.0529
# 5 0.2209 5.8443 0.2155 0.0000 28.4228 -0.0001
# 6 -0.0001 -0.0003 0.0000 -3.0529 -0.0001 22.4089
#
#
#
# Elastic Compliance Matrix: (Units=1/GPa)
#
#
# Indices 1 2 3 4 5 6 
#
# 1 0.015605 -0.006562 -0.003227 0.000000 0.001252 0.000000
# 2 -0.006562 0.024381 -0.003641 0.000001 -0.004935 0.000000
# 3 -0.003227 -0.003641 0.007634 0.000000 0.000716 0.000000
# 4 0.000000 0.000001 0.000000 0.145441 0.000000 0.019814
# 5 0.001252 -0.004935 0.000716 0.000000 0.036182 0.000000
# 6 0.000000 0.000000 0.000000 0.019814 0.000000 0.047325
#
#
# Mechanical properties :
#
#
# Convention : Reuss Voigt Hill
#
# Bulk Modulus (GPa) = 48.16519 62.69496 55.43008
# Shear Modulus (GPa) = 16.11101 24.50243 20.30672
#
# Velocity S-wave (km/s) = 2.88583 3.55888 3.23988
# Velocity P-wave (km/s) = 6.00010 7.02107 6.53057
#
# Compressibility (1/GPa) = 0.02076188
#
# Stress axis : x y z
#
# Youngs Moduli (GPa) = 64.08308 41.01528 130.98744
#
# Poissons Ratio (x) = 0.26913 0.42266
# Poissons Ratio (y) = 0.42049 0.47690
# Poissons Ratio (z) = 0.20678 0.14933
#
# Static dielectric constant tensor:
#      x y z
#    x 3.369190 0.000000 0.044790 
#    y 0.000000 3.084920 0.000000 
#    z 0.044790 0.000000 4.169340 
# 
# 
# High freq. dielectric constant tensor:
#      x y z
#    x 1.738540 0.000000 0.002110 
#    y 0.000000 1.703350 0.000000 
#    z 0.002110 0.000000 1.786990 
# 
# From -- ./inp_files/342253.got.cif
#   From: 2010.06.25/outbox.cif.g09.slc.cpg/sg12_172_cif.got.tgz:342253.got - 2010.06.28 00:19:55.
