data_PCOD8097729
_publ_section_title
;
Structure prediction by ZEFSAII (Michael W. Deem and Ramdas Pophale) SiO2 
 PCOD8097729
Probable space group: C 2/M
;
_chemical_formula_sum "Si O2"
_cell_formula_units_Z 56
_cell_length_a 28.523030
_cell_length_b 8.920160
_cell_length_c 14.382530
_cell_angle_alpha 90.000000
_cell_angle_beta 120.409710
_cell_angle_gamma 90.000000
_cell_volume 3155.922928
_symmetry_space_group_name_H-M "C 2/M"
_symmetry_group_IT_number 12
_symmetry_cell_setting 'monoclinic'
loop_
_space_group_symop_operation_xyz
x,y,z
-x,y,-z
-x,-y,-z
x,-y,z
1/2+x,1/2+y,z
1/2-x,1/2+y,-z
1/2-x,1/2-y,-z
1/2+x,1/2-y,z
loop_
_atom_site_type_symbol
_atom_site_label
_atom_site_fract_x
_atom_site_fract_y
_atom_site_fract_z
Si Si1 0.945046 0.175575 0.493281
Si Si2 0.239172 0.327263 0.087913
Si Si3 0.463955 0.829369 0.696288
Si Si4 0.856845 0.829462 0.256796
Si Si5 0.633092 0.676858 0.059818
Si Si6 0.413818 0.170490 0.155462
Si Si7 0.446615 0.177961 0.888652
O O1 0.933999 0.239000 0.585097
O O2 0.891326 0.220081 0.381169
O O3 0.000000 0.241531 0.500000
O O4 0.951897 0.000000 0.510469
O O5 0.223725 0.500000 0.053584
O O6 0.292253 0.316527 0.207910
O O7 0.191469 0.247960 0.096793
O O8 0.250000 0.250000 0.000000
O O9 0.527723 0.811497 0.739633
O O10 0.451577 0.768126 0.786894
O O11 0.444765 0.000000 0.669703
O O12 0.869036 0.718043 0.184674
O O13 0.872899 0.000000 0.244850
O O14 0.639673 0.500000 0.073397
O O15 0.607900 0.741771 0.129447
O O16 0.590353 0.721925 0.937246
O O17 0.403610 0.000000 0.112347
O O18 0.439976 0.000000 0.889526
O O19 0.500000 0.228927 0.000000
#
# Coordination Sequence:
#
# PCOD8097729 Si02
#       7
#     8   8   8   8   8   8   8
#     4  10  20  34  54  80 113 148 178 221 275 324
#     4  11  22  36  56  81 111 147 187 227 273 326
#     4  10  21  35  54  81 111 146 184 223 269 325
#     4  10  21  36  53  79 112 148 185 222 269 329
#     4  12  24  36  53  81 114 147 185 226 275 332
#     4  11  20  32  53  80 112 148 183 223 267 321
#     4  10  20  38  58  79 110 146 183 225 276 330
#
# _framework density 17.744412000000001
#
# number of rings (size 3 to 8) (size 9 to 14) (size 15 to 20)
#    0.000    1.429    4.286    2.143    0.000    2.857 
#    0.000    0.000    0.000    0.857    0.000    0.000 
#    0.000    0.000    0.000    0.000    0.000    0.000 
#
# Total GULP energy -347180.644115 kJ/mol
# GULP energy per Si atom -12399.308718 kJ/mol
# Density = 1.770402 g / cm^3
# Si number density = 17.744412 Si / 1000 Ang^3
#
#
#
# Elastic Constant Matrix: (Units=GPa)
#
#
# Indices 1 2 3 4 5 6 
#
# 1 110.2013 45.1622 43.9007 0.0000 -5.1801 0.0000
# 2 45.1622 74.9669 32.6222 0.0000 -2.9313 0.0000
# 3 43.9007 32.6222 106.9637 0.0000 -5.1992 0.0000
# 4 0.0000 0.0000 0.0000 28.4255 0.0000 -4.0838
# 5 -5.1801 -2.9313 -5.1992 0.0000 29.8190 0.0000
# 6 0.0000 0.0000 0.0000 -4.0838 0.0000 28.0001
#
#
#
# Elastic Compliance Matrix: (Units=1/GPa)
#
#
# Indices 1 2 3 4 5 6 
#
# 1 0.013078 -0.006369 -0.003374 0.000000 0.001058 0.000000
# 2 -0.006369 0.018497 -0.003018 0.000000 0.000186 0.000000
# 3 -0.003374 -0.003018 0.011710 0.000000 0.001159 0.000000
# 4 0.000000 0.000000 0.000000 0.035933 0.000000 0.005241
# 5 0.001058 0.000186 0.001159 0.000000 0.033940 0.000000
# 6 0.000000 0.000000 0.000000 0.005241 0.000000 0.036478
#
#
# Mechanical properties :
#
#
# Convention : Reuss Voigt Hill
#
# Bulk Modulus (GPa) = 56.29569 59.50023 57.89796
# Shear Modulus (GPa) = 27.61216 28.61204 28.11210
#
# Velocity S-wave (km/s) = 3.94903 4.01989 3.98462
# Velocity P-wave (km/s) = 7.25175 7.42635 7.33957
#
# Compressibility (1/GPa) = 0.01776335
#
# Stress axis : x y z
#
# Youngs Moduli (GPa) = 76.46302 54.06324 85.39396
#
# Poissons Ratio (x) = 0.34434 0.28809
# Poissons Ratio (y) = 0.48701 0.25773
# Poissons Ratio (z) = 0.25796 0.16317
#
# Static dielectric constant tensor:
#      x y z
#    x 3.290870 0.000000 0.039660 
#    y 0.000000 3.290250 0.000000 
#    z 0.039660 0.000000 3.339310 
# 
# 
# High freq. dielectric constant tensor:
#      x y z
#    x 1.675960 0.000000 0.002710 
#    y 0.000000 1.687320 0.000000 
#    z 0.002710 0.000000 1.675030 
# 
# From -- ./inp_files/244316.got.cif
#   From: 2010.06.25/outbox.cif.g09.slc.cpg/sg12_123_cif.got.tgz:244316.got - 2010.06.28 00:19:55.
