data_PCOD8097250
_publ_section_title
;
Structure prediction by ZEFSAII (Michael W. Deem and Ramdas Pophale) SiO2 
 PCOD8097250
Probable space group: C 2/M
;
_chemical_formula_sum "Si O2"
_cell_formula_units_Z 64
_cell_length_a 14.152984
_cell_length_b 8.645374
_cell_length_c 29.004643
_cell_angle_alpha 90.000000
_cell_angle_beta 74.059643
_cell_angle_gamma 90.000000
_cell_volume 3412.481784
_symmetry_space_group_name_H-M "C 2/M"
_symmetry_group_IT_number 12
_symmetry_cell_setting 'monoclinic'
loop_
_space_group_symop_operation_xyz
x,y,z
-x,y,-z
-x,-y,-z
x,-y,z
1/2+x,1/2+y,z
1/2-x,1/2+y,-z
1/2-x,1/2-y,-z
1/2+x,1/2-y,z
loop_
_atom_site_type_symbol
_atom_site_label
_atom_site_fract_x
_atom_site_fract_y
_atom_site_fract_z
Si Si1 0.987312 0.680045 0.757098
Si Si2 0.793935 0.819086 0.427274
Si Si3 0.720293 0.179361 0.255478
Si Si4 0.398052 0.817124 0.494826
Si Si5 0.588529 0.321889 0.827544
Si Si6 0.542303 0.181649 0.929487
Si Si7 0.355054 0.316273 0.998440
Si Si8 0.178011 0.678167 0.674401
O O1 0.986738 0.500000 0.770789
O O2 0.007813 0.778548 0.800090
O O3 0.069483 0.715202 0.707803
O O4 0.883287 0.734488 0.751022
O O5 0.688991 0.757787 0.460055
O O6 0.880802 0.740242 0.444978
O O7 0.804546 0.780505 0.372572
O O8 0.802570 0.000000 0.433410
O O9 0.802738 0.211211 0.206089
O O10 0.741157 0.278387 0.298254
O O11 0.718066 0.000000 0.270000
O O12 0.500000 0.746615 0.500000
O O13 0.403740 0.000000 0.493303
O O14 0.574503 0.500000 0.843487
O O15 0.574670 0.213529 0.873262
O O16 0.432959 0.246236 0.952028
O O17 0.544340 0.000000 0.939421
O O18 0.618055 0.266754 0.953322
O O19 0.355371 0.500000 0.994427
O O20 0.250000 0.250000 0.000000
O O21 0.190081 0.500000 0.659479
#
# Coordination Sequence:
#
# PCOD8097250 Si02
#       8
#     8   8   8   8   8   8   8   8
#     4   9  19  36  55  76 103 139 178 217 262 316
#     4  10  20  34  53  76 103 133 168 211 257 306
#     4   9  19  36  56  76 103 137 176 218 261 309
#     4   9  19  36  55  74  99 133 171 210 254 306
#     4  10  20  35  55  80 108 139 176 223 271 316
#     4  11  22  38  58  82 113 149 186 226 271 323
#     4  11  22  39  60  84 113 145 184 229 276 327
#     4  10  20  34  53  76 105 137 172 213 259 312
#
# _framework density 18.75468
#
# number of rings (size 3 to 8) (size 9 to 14) (size 15 to 20)
#    0.000    2.125    0.000    4.125    0.000    4.250 
#    0.000    8.750    0.000    0.000    0.000    0.000 
#    0.000    0.000    0.000    0.000    0.000    0.000 
#
# Total GULP energy -396932.708114 kJ/mol
# GULP energy per Si atom -12404.147129 kJ/mol
# Density = 1.871199 g / cm^3
# Si number density = 18.754680 Si / 1000 Ang^3
#
#
#
# Elastic Constant Matrix: (Units=GPa)
#
#
# Indices 1 2 3 4 5 6 
#
# 1 147.0086 21.7661 42.5094 0.0000 10.8023 0.0000
# 2 21.7661 52.6612 16.9953 0.0000 -3.5420 0.0000
# 3 42.5094 16.9953 98.8761 0.0000 2.1701 0.0000
# 4 0.0000 0.0000 0.0000 35.7927 0.0000 4.4279
# 5 10.8023 -3.5420 2.1701 0.0000 12.9068 0.0000
# 6 0.0000 0.0000 0.0000 4.4279 0.0000 28.9001
#
#
#
# Elastic Compliance Matrix: (Units=1/GPa)
#
#
# Indices 1 2 3 4 5 6 
#
# 1 0.008705 -0.003131 -0.003037 0.000000 -0.007634 0.000000
# 2 -0.003131 0.021725 -0.002586 0.000000 0.009018 0.000000
# 3 -0.003037 -0.002586 0.011867 0.000000 -0.000163 0.000000
# 4 0.000000 0.000000 0.000000 0.028478 0.000000 -0.004363
# 5 -0.007634 0.009018 -0.000163 0.000000 0.086370 0.000000
# 6 0.000000 0.000000 0.000000 -0.004363 0.000000 0.035270
#
#
# Mechanical properties :
#
#
# Convention : Reuss Voigt Hill
#
# Bulk Modulus (GPa) = 40.34033 51.23196 45.78614
# Shear Modulus (GPa) = 22.91615 30.00494 26.46055
#
# Velocity S-wave (km/s) = 3.49935 4.00417 3.76024
# Velocity P-wave (km/s) = 6.15495 6.98241 6.58170
#
# Compressibility (1/GPa) = 0.02478909
#
# Stress axis : x y z
#
# Youngs Moduli (GPa) = 114.87572 46.03067 84.26538
#
# Poissons Ratio (x) = 0.14414 0.25589
# Poissons Ratio (y) = 0.35973 0.21789
# Poissons Ratio (z) = 0.34885 0.11902
#
# Static dielectric constant tensor:
#      x y z
#    x 3.593950 0.000000 -0.008240 
#    y 0.000000 3.452560 0.000000 
#    z -0.008240 0.000000 3.355150 
# 
# 
# High freq. dielectric constant tensor:
#      x y z
#    x 1.731370 0.000000 0.003790 
#    y 0.000000 1.734640 0.000000 
#    z 0.003790 0.000000 1.727930 
# 
# From -- ./inp_files/359828.got.cif
#   From: 2010.06.25/outbox.cif.g09.slc.cpg/sg12_180_cif.got.tgz:359828.got - 2010.06.28 00:19:55.
