data_PCOD8097502
_publ_section_title
;
Structure prediction by ZEFSAII (Michael W. Deem and Ramdas Pophale) SiO2 
 PCOD8097502
Probable space group: C 2/M
;
_chemical_formula_sum "Si O2"
_cell_formula_units_Z 48
_cell_length_a 34.252013
_cell_length_b 7.474966
_cell_length_c 19.161062
_cell_angle_alpha 90.000000
_cell_angle_beta 27.702425
_cell_angle_gamma 90.000000
_cell_volume 2280.632511
_symmetry_space_group_name_H-M "C 2/M"
_symmetry_group_IT_number 12
_symmetry_cell_setting 'monoclinic'
loop_
_space_group_symop_operation_xyz
x,y,z
-x,y,-z
-x,-y,-z
x,-y,z
1/2+x,1/2+y,z
1/2-x,1/2+y,-z
1/2-x,1/2-y,-z
1/2+x,1/2-y,z
loop_
_atom_site_type_symbol
_atom_site_label
_atom_site_fract_x
_atom_site_fract_y
_atom_site_fract_z
Si Si1 0.437170 0.790996 0.324737
Si Si2 0.247091 0.787304 0.164419
Si Si3 0.030820 0.000000 0.838850
Si Si4 0.243639 0.207201 0.328717
Si Si5 0.906882 0.709633 0.827856
Si Si6 0.864829 0.000000 0.188343
Si Si7 0.087173 0.798034 0.338930
O O1 0.456413 0.680488 0.224948
O O2 0.348151 0.734833 0.495472
O O3 0.505361 0.740202 0.275256
O O4 0.441133 0.000000 0.298925
O O5 0.244658 0.721424 0.247837
O O6 0.166730 0.704768 0.250742
O O7 0.246772 0.000000 0.161389
O O8 0.331518 0.713540 0.994656
O O9 0.099314 0.000000 0.790997
O O10 0.937096 0.000000 0.016368
O O11 0.309463 0.321613 0.268704
O O12 0.270187 0.000000 0.291734
O O13 0.897555 0.500000 0.831264
O O14 0.901627 0.801501 0.761472
O O15 0.000000 0.700888 0.500000
O O16 0.083786 0.000000 0.372507
#
# Coordination Sequence:
#
# PCOD8097502 Si02
#       7
#     8   8   4   8   8   4   8
#     4  11  23  42  66  98 130 172 220 268 324 395
#     4   9  19  36  57  83 122 165 210 259 322 385
#     4  11  26  46  70  98 136 171 209 273 328 386
#     4  11  22  43  69  96 131 174 212 271 330 384
#     4  10  21  36  56  84 121 160 211 266 316 379
#     4  11  26  46  68 104 132 163 225 265 318 408
#     4  10  20  34  53  81 116 161 210 262 315 379
#
# _framework density 21.046793999999998
#
# number of rings (size 3 to 8) (size 9 to 14) (size 15 to 20)
#    0.000    1.667    1.667    2.500    1.167    5.000 
#    3.000    1.667    0.000    0.000    0.000    0.000 
#    0.000    0.000    0.000    0.000    0.000    0.000 
#
# Total GULP energy -297670.710209 kJ/mol
# GULP energy per Si atom -12402.946259 kJ/mol
# Density = 2.099889 g / cm^3
# Si number density = 21.046794 Si / 1000 Ang^3
#
#
#
# Elastic Constant Matrix: (Units=GPa)
#
#
# Indices 1 2 3 4 5 6 
#
# 1 89.7094 33.8640 6.7836 0.0014 -17.2816 -0.0005
# 2 33.8640 85.4428 18.7011 0.0078 -6.7089 -0.0082
# 3 6.7836 18.7011 63.9805 0.0085 -24.3103 -0.0051
# 4 0.0014 0.0078 0.0085 38.2095 -0.0004 -9.8439
# 5 -17.2816 -6.7089 -24.3103 -0.0004 39.0217 -0.0006
# 6 -0.0005 -0.0082 -0.0051 -9.8439 -0.0006 36.9676
#
#
#
# Elastic Compliance Matrix: (Units=1/GPa)
#
#
# Indices 1 2 3 4 5 6 
#
# 1 0.014521 -0.005825 0.002916 0.000000 0.007246 -0.000001
# 2 -0.005825 0.014841 -0.004888 -0.000001 -0.003073 0.000002
# 3 0.002916 -0.004888 0.022168 -0.000004 0.014262 0.000001
# 4 0.000000 -0.000001 -0.000004 0.028099 -0.000002 0.007482
# 5 0.007246 -0.003073 0.014262 -0.000002 0.037193 0.000002
# 6 -0.000001 0.000002 0.000001 0.007482 0.000002 0.029043
#
#
# Mechanical properties :
#
#
# Convention : Reuss Voigt Hill
#
# Bulk Modulus (GPa) = 27.82599 39.75890 33.79244
# Shear Modulus (GPa) = 28.82888 34.82538 31.82713
#
# Velocity S-wave (km/s) = 3.70503 4.07217 3.89293
# Velocity P-wave (km/s) = 5.61718 6.40639 6.02472
#
# Compressibility (1/GPa) = 0.03593763
#
# Stress axis : x y z
#
# Youngs Moduli (GPa) = 68.86467 67.38201 45.10946
#
# Poissons Ratio (x) = 0.39247 -0.13155
# Poissons Ratio (y) = 0.40111 0.22050
# Poissons Ratio (z) = -0.20083 0.32936
#
# Static dielectric constant tensor:
#      x y z
#    x 3.774350 0.000000 -0.122640 
#    y 0.000000 3.741800 0.000000 
#    z -0.122640 0.000000 4.090960 
# 
# 
# High freq. dielectric constant tensor:
#      x y z
#    x 1.822970 0.000000 -0.004770 
#    y 0.000000 1.819220 0.000000 
#    z -0.004770 0.000000 1.844100 
# 
# From -- ./inp_files/295411.got.cif
#   From: 2010.06.25/outbox.cif.g09.slc.cpg/sg12_148_cif.got.tgz:295411.got - 2010.06.28 00:19:55.
