data_PCOD8097962
_publ_section_title
;
Structure prediction by ZEFSAII (Michael W. Deem and Ramdas Pophale) SiO2 
 PCOD8097962
Probable space group: C 2/M
;
_chemical_formula_sum "Si O2"
_cell_formula_units_Z 48
_cell_length_a 12.502207
_cell_length_b 12.915362
_cell_length_c 15.553172
_cell_angle_alpha 90.000000
_cell_angle_beta 94.743586
_cell_angle_gamma 90.000000
_cell_volume 2502.776854
_symmetry_space_group_name_H-M "C 2/M"
_symmetry_group_IT_number 12
_symmetry_cell_setting 'monoclinic'
loop_
_space_group_symop_operation_xyz
x,y,z
-x,y,-z
-x,-y,-z
x,-y,z
1/2+x,1/2+y,z
1/2-x,1/2+y,-z
1/2-x,1/2-y,-z
1/2+x,1/2-y,z
loop_
_atom_site_type_symbol
_atom_site_label
_atom_site_fract_x
_atom_site_fract_y
_atom_site_fract_z
Si Si1 0.864395 0.881213 0.224312
Si Si2 0.746024 0.774342 0.363086
Si Si3 0.373936 0.121683 0.490184
Si Si4 0.089110 0.790928 0.206629
Si Si5 0.517135 0.117447 0.904753
Si Si6 0.233190 0.713258 0.903181
O O1 0.829505 0.846168 0.317159
O O2 0.798780 0.816434 0.150411
O O3 0.991738 0.867333 0.220369
O O4 0.834583 0.000000 0.208228
O O5 0.681664 0.846246 0.424687
O O6 0.815857 0.683599 0.410314
O O7 0.658887 0.720346 0.296618
O O8 0.500000 0.150129 0.500000
O O9 0.357379 0.000000 0.472883
O O10 0.048504 0.679106 0.171411
O O11 0.161122 0.836844 0.133242
O O12 0.642608 0.125783 0.891133
O O13 0.477586 0.000000 0.896637
O O14 0.500000 0.162352 0.000000
O O15 0.250000 0.750000 0.000000
#
# Coordination Sequence:
#
# PCOD8097962 Si02
#       6
#     8   8   8   8   8   8
#     4  10  22  37  56  81 111 151 192 232 282 342
#     4  10  21  39  59  87 119 152 187 234 288 342
#     4  10  21  38  63  90 117 148 188 235 287 345
#     4  10  21  37  57  79 117 152 187 238 280 338
#     4  10  20  34  55  81 107 144 191 235 282 331
#     4  10  20  36  54  78 113 147 187 240 287 329
#
# _framework density 19.178697
#
# number of rings (size 3 to 8) (size 9 to 14) (size 15 to 20)
#    0.000    2.000    1.667    1.500    0.000    5.333 
#    0.000   10.833    0.000    5.500    0.000    0.000 
#    0.000    0.000    0.000    0.000    0.000    0.000 
#
# Total GULP energy -297600.186365 kJ/mol
# GULP energy per Si atom -12400.007765 kJ/mol
# Density = 1.913505 g / cm^3
# Si number density = 19.178697 Si / 1000 Ang^3
#
#
#
# Elastic Constant Matrix: (Units=GPa)
#
#
# Indices 1 2 3 4 5 6 
#
# 1 137.7781 29.8081 51.1442 0.0000 -18.4558 0.0000
# 2 29.8081 83.7896 38.1015 0.0000 -4.8574 0.0000
# 3 51.1442 38.1015 123.7284 0.0000 -5.0564 0.0000
# 4 0.0000 0.0000 0.0000 14.6460 0.0000 -5.3140
# 5 -18.4558 -4.8574 -5.0564 0.0000 37.4817 0.0000
# 6 0.0000 0.0000 0.0000 -5.3140 0.0000 19.3165
#
#
#
# Elastic Compliance Matrix: (Units=1/GPa)
#
#
# Indices 1 2 3 4 5 6 
#
# 1 0.009325 -0.001639 -0.003189 0.000000 0.003949 0.000000
# 2 -0.001639 0.014222 -0.003680 0.000000 0.000540 0.000000
# 3 -0.003189 -0.003680 0.010508 0.000000 -0.000629 0.000000
# 4 0.000000 0.000000 0.000000 0.075849 0.000000 0.020866
# 5 0.003949 0.000540 -0.000629 0.000000 0.028609 0.000000
# 6 0.000000 0.000000 0.000000 0.020866 0.000000 0.057509
#
#
# Mechanical properties :
#
#
# Convention : Reuss Voigt Hill
#
# Bulk Modulus (GPa) = 58.68403 64.82263 61.75333
# Shear Modulus (GPa) = 22.86047 29.37167 26.11607
#
# Velocity S-wave (km/s) = 3.45624 3.91765 3.69416
# Velocity P-wave (km/s) = 6.82587 7.37134 7.10384
#
# Compressibility (1/GPa) = 0.01704041
#
# Stress axis : x y z
#
# Youngs Moduli (GPa) = 107.23617 70.31155 95.16640
#
# Poissons Ratio (x) = 0.11521 0.30346
# Poissons Ratio (y) = 0.17571 0.35025
# Poissons Ratio (z) = 0.34194 0.25877
#
# Static dielectric constant tensor:
#      x y z
#    x 4.346190 0.000000 -0.312050 
#    y 0.000000 3.210710 0.000000 
#    z -0.312050 0.000000 3.596860 
# 
# 
# High freq. dielectric constant tensor:
#      x y z
#    x 1.769160 0.000000 -0.008070 
#    y 0.000000 1.726890 0.000000 
#    z -0.008070 0.000000 1.752830 
# 
# From -- ./inp_files/204517.got.cif
#   From: 2010.06.25/outbox.cif.g09.slc.cpg/sg12_103_cif.got.tgz:204517.got - 2010.06.28 00:19:55.
