data_PCOD8097168
_publ_section_title
;
Structure prediction by ZEFSAII (Michael W. Deem and Ramdas Pophale) SiO2 
 PCOD8097168
Probable space group: C 2/M
;
_chemical_formula_sum "Si O2"
_cell_formula_units_Z 56
_cell_length_a 28.637653
_cell_length_b 9.144899
_cell_length_c 21.308415
_cell_angle_alpha 90.000000
_cell_angle_beta 147.696662
_cell_angle_gamma 90.000000
_cell_volume 2982.189426
_symmetry_space_group_name_H-M "C 2/M"
_symmetry_group_IT_number 12
_symmetry_cell_setting 'monoclinic'
loop_
_space_group_symop_operation_xyz
x,y,z
-x,y,-z
-x,-y,-z
x,-y,z
1/2+x,1/2+y,z
1/2-x,1/2+y,-z
1/2-x,1/2-y,-z
1/2+x,1/2-y,z
loop_
_atom_site_type_symbol
_atom_site_label
_atom_site_fract_x
_atom_site_fract_y
_atom_site_fract_z
Si Si1 0.361446 0.666379 0.086289
Si Si2 0.959551 0.168383 0.770388
Si Si3 0.772933 0.326638 0.343502
Si Si4 0.821203 0.326279 0.537967
Si Si5 0.577546 0.673977 0.131725
Si Si6 0.171633 0.327969 0.831943
Si Si7 0.598796 0.174472 0.618205
O O1 0.351575 0.500000 0.097429
O O2 0.436878 0.684158 0.120664
O O3 0.382893 0.760000 0.172579
O O4 0.272681 0.719964 0.952245
O O5 0.914951 0.268337 0.666841
O O6 0.936243 0.228225 0.812765
O O7 0.928882 0.000000 0.727715
O O8 0.773010 0.500000 0.339827
O O9 0.806098 0.276060 0.449328
O O10 0.673340 0.271015 0.217896
O O11 0.839348 0.262048 0.366935
O O12 0.814922 0.500000 0.537921
O O13 0.750000 0.250000 0.500000
O O14 0.572571 0.500000 0.124333
O O15 0.500000 0.739500 0.000000
O O16 0.158355 0.500000 0.819497
O O17 0.135836 0.265621 0.725911
O O18 0.500000 0.233560 0.500000
O O19 0.600061 0.000000 0.617209
#
# Coordination Sequence:
#
# PCOD8097168 Si02
#       7
#     8   8   8   8   8   8   8
#     4   9  19  33  51  75 105 137 169 213 260 311
#     4  10  20  34  52  79 107 134 174 218 264 310
#     4   9  18  31  48  74 102 131 169 213 259 302
#     4  11  21  35  55  78 107 138 172 212 258 312
#     4   9  17  29  49  75 102 131 169 216 260 306
#     4   9  18  33  53  76 102 134 175 216 261 309
#     4   9  18  30  47  73 103 131 167 218 263 301
#
# _framework density 18.778148999999999
#
# number of rings (size 3 to 8) (size 9 to 14) (size 15 to 20)
#    0.000    2.571    1.429    0.429    4.000    0.571 
#    0.000    0.000    0.000    2.571    0.000    0.000 
#    0.000    0.000    0.000    0.000    0.000    0.000 
#
# Total GULP energy -347148.723919 kJ/mol
# GULP energy per Si atom -12398.168711 kJ/mol
# Density = 1.873541 g / cm^3
# Si number density = 18.778149 Si / 1000 Ang^3
#
#
#
# Elastic Constant Matrix: (Units=GPa)
#
#
# Indices 1 2 3 4 5 6 
#
# 1 149.0882 18.8935 81.1999 0.0000 0.5361 0.0000
# 2 18.8935 24.5813 21.4145 0.0000 -4.0269 0.0000
# 3 81.1999 21.4145 149.0855 0.0000 -9.4929 0.0000
# 4 0.0000 0.0000 0.0000 21.2316 0.0000 -1.8583
# 5 0.5361 -4.0269 -9.4929 0.0000 36.5282 0.0000
# 6 0.0000 0.0000 0.0000 -1.8583 0.0000 21.1931
#
#
#
# Elastic Compliance Matrix: (Units=1/GPa)
#
#
# Indices 1 2 3 4 5 6 
#
# 1 0.009881 -0.003549 -0.004989 0.000000 -0.001833 0.000000
# 2 -0.003549 0.048206 -0.004728 0.000000 0.004138 0.000000
# 3 -0.004989 -0.004728 0.010245 0.000000 0.002214 0.000000
# 4 0.000000 0.000000 0.000000 0.047464 0.000000 0.004162
# 5 -0.001833 0.004138 0.002214 0.000000 0.028435 0.000000
# 6 0.000000 0.000000 0.000000 0.004162 0.000000 0.047550
#
#
# Mechanical properties :
#
#
# Convention : Reuss Voigt Hill
#
# Bulk Modulus (GPa) = 23.92312 62.86342 43.39327
# Shear Modulus (GPa) = 21.52912 29.20704 25.36808
#
# Velocity S-wave (km/s) = 3.38967 3.94810 3.67950
# Velocity P-wave (km/s) = 5.29975 7.37109 6.41951
#
# Compressibility (1/GPa) = 0.04180057
#
# Stress axis : x y z
#
# Youngs Moduli (GPa) = 101.20722 20.74448 97.61171
#
# Poissons Ratio (x) = 0.07362 0.48694
# Poissons Ratio (y) = 0.35917 0.46149
# Poissons Ratio (z) = 0.50487 0.09808
#
# Static dielectric constant tensor:
#      x y z
#    x 3.623020 0.000000 -0.015800 
#    y 0.000000 3.029400 0.000000 
#    z -0.015800 0.000000 3.774420 
# 
# 
# High freq. dielectric constant tensor:
#      x y z
#    x 1.737300 0.000000 0.003470 
#    y 0.000000 1.673000 0.000000 
#    z 0.003470 0.000000 1.741630 
# 
# From -- ./inp_files/327617.got.cif
#   From: 2010.06.25/outbox.cif.g09.slc.cpg/sg12_164_cif.got.tgz:327617.got - 2010.06.28 00:19:55.
