data_PCOD8097197
_publ_section_title
;
Structure prediction by ZEFSAII (Michael W. Deem and Ramdas Pophale) SiO2 
 PCOD8097197
Probable space group: C 2/M
;
_chemical_formula_sum "Si O2"
_cell_formula_units_Z 64
_cell_length_a 7.467969
_cell_length_b 26.891161
_cell_length_c 26.016651
_cell_angle_alpha 90.000000
_cell_angle_beta 35.737716
_cell_angle_gamma 90.000000
_cell_volume 3051.634768
_symmetry_space_group_name_H-M "C 2/M"
_symmetry_group_IT_number 12
_symmetry_cell_setting 'monoclinic'
loop_
_space_group_symop_operation_xyz
x,y,z
-x,y,-z
-x,-y,-z
x,-y,z
1/2+x,1/2+y,z
1/2-x,1/2+y,-z
1/2-x,1/2-y,-z
1/2+x,1/2-y,z
loop_
_atom_site_type_symbol
_atom_site_label
_atom_site_fract_x
_atom_site_fract_y
_atom_site_fract_z
Si Si1 0.295397 0.872759 0.328431
Si Si2 0.809059 0.363980 0.662048
Si Si3 0.641907 0.557431 0.280143
Si Si4 0.140134 0.651324 0.022345
Si Si5 0.862938 0.554546 0.920106
Si Si6 0.816536 0.808206 0.491390
Si Si7 0.615493 0.706326 0.181182
Si Si8 0.231252 0.183711 0.840787
O O1 0.483886 0.880676 0.337169
O O2 0.170116 0.924246 0.333199
O O3 0.501586 0.854860 0.232654
O O4 0.023112 0.832047 0.398179
O O5 0.627243 0.412400 0.686025
O O6 0.578398 0.318678 0.728251
O O7 0.010101 0.341341 0.568527
O O8 0.541477 0.500000 0.305392
O O9 0.962643 0.563870 0.174456
O O10 0.044811 0.595457 0.059531
O O11 0.970957 0.688536 0.101879
O O12 0.506350 0.662942 0.938366
O O13 0.000000 0.662435 0.000000
O O14 0.956833 0.500000 0.919423
O O15 0.500000 0.558039 0.000000
O O16 0.750000 0.750000 0.500000
O O17 0.000000 0.815042 0.500000
O O18 0.599606 0.765338 0.185249
O O19 0.471638 0.688120 0.162199
#
# Coordination Sequence:
#
# PCOD8097197 Si02
#       8
#     8   8   8   8   8   8   8   8
#     4  10  23  41  60  92 127 160 205 263 309 369
#     4  10  22  41  63  90 128 162 207 262 309 374
#     4  11  24  42  68  93 120 169 213 259 324 371
#     4  10  20  35  53  80 117 153 197 246 302 371
#     4  10  21  38  58  85 116 153 211 264 311 370
#     4  10  22  39  64  97 129 168 209 252 313 372
#     4  10  20  34  52  82 117 159 199 244 301 370
#     4  10  21  33  54  82 117 160 200 240 307 366
#
# _framework density 20.972366000000001
#
# number of rings (size 3 to 8) (size 9 to 14) (size 15 to 20)
#    0.000    1.875    1.250    1.875    3.500    1.750 
#    0.000    1.250    0.000    2.250    0.000    0.000 
#    0.000    0.000    0.000    0.000    0.000    0.000 
#
# Total GULP energy -396608.736036 kJ/mol
# GULP energy per Si atom -12394.023001 kJ/mol
# Density = 2.092463 g / cm^3
# Si number density = 20.972366 Si / 1000 Ang^3
#
#
#
# Elastic Constant Matrix: (Units=GPa)
#
#
# Indices 1 2 3 4 5 6 
#
# 1 37.9928 36.2165 33.5338 0.0000 -6.4486 0.0000
# 2 36.2165 143.8717 48.1435 0.0000 -0.7479 0.0000
# 3 33.5338 48.1435 124.1845 0.0000 -7.6782 0.0000
# 4 0.0000 0.0000 0.0000 35.0501 0.0000 8.7820
# 5 -6.4486 -0.7479 -7.6782 0.0000 13.7725 0.0000
# 6 0.0000 0.0000 0.0000 8.7820 0.0000 41.8651
#
#
#
# Elastic Compliance Matrix: (Units=1/GPa)
#
#
# Indices 1 2 3 4 5 6 
#
# 1 0.043662 -0.008377 -0.007568 0.000000 0.015770 0.000000
# 2 -0.008377 0.009618 -0.001737 0.000000 -0.004368 0.000000
# 3 -0.007568 -0.001737 0.010921 0.000000 0.002451 0.000000
# 4 0.000000 0.000000 0.000000 0.030113 0.000000 -0.006317
# 5 0.015770 -0.004368 0.002451 0.000000 0.081121 0.000000
# 6 0.000000 0.000000 0.000000 -0.006317 0.000000 0.025211
#
#
# Mechanical properties :
#
#
# Convention : Reuss Voigt Hill
#
# Bulk Modulus (GPa) = 34.67583 60.20407 47.43995
# Shear Modulus (GPa) = 20.35656 30.68122 25.51889
#
# Velocity S-wave (km/s) = 3.11889 3.82898 3.49203
# Velocity P-wave (km/s) = 5.43506 6.95103 6.23926
#
# Compressibility (1/GPa) = 0.02883853
#
# Stress axis : x y z
#
# Youngs Moduli (GPa) = 22.90329 103.97523 91.56790
#
# Poissons Ratio (x) = 0.87095 0.69296
# Poissons Ratio (y) = 0.19185 0.15902
# Poissons Ratio (z) = 0.17333 0.18057
#
# Static dielectric constant tensor:
#      x y z
#    x 3.593160 0.000000 -0.085670 
#    y 0.000000 4.046230 0.000000 
#    z -0.085670 0.000000 4.546540 
# 
# 
# High freq. dielectric constant tensor:
#      x y z
#    x 1.807120 0.000000 -0.005240 
#    y 0.000000 1.816750 0.000000 
#    z -0.005240 0.000000 1.836560 
# 
# From -- ./inp_files/373257.got.cif
#   From: 2010.06.25/outbox.cif.g09.slc.cpg/sg12_187_cif.got.tgz:373257.got - 2010.06.28 00:19:55.
