data_PCOD8097673
_publ_section_title
;
Structure prediction by ZEFSAII (Michael W. Deem and Ramdas Pophale) SiO2 
 PCOD8097673
Probable space group: C 2/M
;
_chemical_formula_sum "Si O2"
_cell_formula_units_Z 48
_cell_length_a 13.831313
_cell_length_b 12.258015
_cell_length_c 18.134500
_cell_angle_alpha 90.000000
_cell_angle_beta 48.488509
_cell_angle_gamma 90.000000
_cell_volume 2302.333384
_symmetry_space_group_name_H-M "C 2/M"
_symmetry_group_IT_number 12
_symmetry_cell_setting 'monoclinic'
loop_
_space_group_symop_operation_xyz
x,y,z
-x,y,-z
-x,-y,-z
x,-y,z
1/2+x,1/2+y,z
1/2-x,1/2+y,-z
1/2-x,1/2-y,-z
1/2+x,1/2-y,z
loop_
_atom_site_type_symbol
_atom_site_label
_atom_site_fract_x
_atom_site_fract_y
_atom_site_fract_z
Si Si1 0.796884 0.625538 0.045527
Si Si2 0.306326 0.751412 0.183547
Si Si3 0.948862 0.746362 0.850111
Si Si4 0.445554 0.125442 0.705001
Si Si5 0.873691 0.877004 0.630251
Si Si6 0.384353 0.261519 0.474561
O O1 0.817045 0.500000 0.056707
O O2 0.852416 0.706370 0.080409
O O3 0.644574 0.649914 0.113023
O O4 0.873853 0.650647 0.931721
O O5 0.427955 0.709773 0.168018
O O6 0.205456 0.651710 0.231505
O O7 0.239268 0.857386 0.254415
O O8 0.996146 0.696844 0.748500
O O9 0.532948 0.153216 0.588682
O O10 0.462235 0.000000 0.715592
O O11 0.856901 0.784133 0.574840
O O12 0.014895 0.860044 0.597990
O O13 0.863168 0.000000 0.604434
O O14 0.250000 0.250000 0.500000
#
# Coordination Sequence:
#
# PCOD8097673 Si02
#       6
#     8   8   8   8   8   8
#     4  10  21  36  56  85 115 143 182 228 270 319
#     4  10  21  37  57  83 112 143 184 228 270 322
#     4  10  21  37  57  82 113 147 183 223 270 326
#     4  10  22  38  56  80 111 146 184 224 270 327
#     4  10  21  38  58  81 109 143 183 226 274 328
#     4  10  20  34  54  80 106 136 180 226 266 318
#
# _framework density 20.848413999999998
#
# number of rings (size 3 to 8) (size 9 to 14) (size 15 to 20)
#    0.000    2.000    0.000    3.500    0.000    6.667 
#    0.000    7.500    0.000   26.000    0.000    0.000 
#    0.000    0.000    0.000    0.000    0.000    0.000 
#
# Total GULP energy -297374.645815 kJ/mol
# GULP energy per Si atom -12390.610242 kJ/mol
# Density = 2.080096 g / cm^3
# Si number density = 20.848414 Si / 1000 Ang^3
#
#
#
# Elastic Constant Matrix: (Units=GPa)
#
#
# Indices 1 2 3 4 5 6 
#
# 1 133.8412 11.6443 9.1520 0.0000 -3.9644 0.0000
# 2 11.6443 57.5360 16.3670 0.0000 7.5234 0.0000
# 3 9.1520 16.3670 68.1381 0.0000 10.5054 0.0000
# 4 0.0000 0.0000 0.0000 17.9742 0.0000 4.9658
# 5 -3.9644 7.5234 10.5054 0.0000 27.7965 0.0000
# 6 0.0000 0.0000 0.0000 4.9658 0.0000 12.9885
#
#
#
# Elastic Compliance Matrix: (Units=1/GPa)
#
#
# Indices 1 2 3 4 5 6 
#
# 1 0.007726 -0.001537 -0.000959 0.000000 0.001880 0.000000
# 2 -0.001537 0.019299 -0.003812 0.000000 -0.004002 0.000000
# 3 -0.000959 -0.003812 0.016547 0.000000 -0.005359 0.000000
# 4 0.000000 0.000000 0.000000 0.062206 0.000000 -0.023783
# 5 0.001880 -0.004002 -0.005359 0.000000 0.039352 0.000000
# 6 0.000000 0.000000 0.000000 -0.023783 0.000000 0.086084
#
#
# Mechanical properties :
#
#
# Convention : Reuss Voigt Hill
#
# Bulk Modulus (GPa) = 32.30287 37.09355 34.69821
# Shear Modulus (GPa) = 19.67351 26.57530 23.12441
#
# Velocity S-wave (km/s) = 3.07521 3.57416 3.33403
# Velocity P-wave (km/s) = 5.30444 5.90453 5.61251
#
# Compressibility (1/GPa) = 0.03095700
#
# Stress axis : x y z
#
# Youngs Moduli (GPa) = 129.42497 51.81562 60.43500
#
# Poissons Ratio (x) = 0.07964 0.05793
# Poissons Ratio (y) = 0.19891 0.23040
# Poissons Ratio (z) = 0.12405 0.19754
#
# Static dielectric constant tensor:
#      x y z
#    x 3.832020 0.000000 0.014010 
#    y 0.000000 3.378120 0.000000 
#    z 0.014010 0.000000 3.936140 
# 
# 
# High freq. dielectric constant tensor:
#      x y z
#    x 1.815860 0.000000 -0.002370 
#    y 0.000000 1.779460 0.000000 
#    z -0.002370 0.000000 1.833960 
# 
# From -- ./inp_files/309403.got.cif
#   From: 2010.06.25/outbox.cif.g09.slc.cpg/sg12_155_cif.got.tgz:309403.got - 2010.06.28 00:19:55.
