data_PCOD8097910
_publ_section_title
;
Structure prediction by ZEFSAII (Michael W. Deem and Ramdas Pophale) SiO2 
 PCOD8097910
Probable space group: C 2/M
;
_chemical_formula_sum "Si O2"
_cell_formula_units_Z 44
_cell_length_a 8.871544
_cell_length_b 12.815682
_cell_length_c 20.171577
_cell_angle_alpha 90.000000
_cell_angle_beta 88.486346
_cell_angle_gamma 90.000000
_cell_volume 2292.604898
_symmetry_space_group_name_H-M "C 2/M"
_symmetry_group_IT_number 12
_symmetry_cell_setting 'monoclinic'
loop_
_space_group_symop_operation_xyz
x,y,z
-x,y,-z
-x,-y,-z
x,-y,z
1/2+x,1/2+y,z
1/2-x,1/2+y,-z
1/2-x,1/2-y,-z
1/2+x,1/2-y,z
loop_
_atom_site_type_symbol
_atom_site_label
_atom_site_fract_x
_atom_site_fract_y
_atom_site_fract_z
Si Si1 0.230250 0.693545 0.393093
Si Si2 0.754465 0.120754 0.927077
Si Si3 0.000000 0.750234 0.000000
Si Si4 0.265289 0.379797 0.770481
Si Si5 0.335625 0.616481 0.522523
Si Si6 0.515620 0.755950 0.698100
O O1 0.231460 0.619624 0.457540
O O2 0.230562 0.814174 0.417810
O O3 0.378753 0.679208 0.346516
O O4 0.083811 0.671596 0.350042
O O5 0.902650 0.175649 0.953934
O O6 0.758234 0.132181 0.848735
O O7 0.752896 0.000000 0.949298
O O8 0.604038 0.176194 0.954457
O O9 0.279213 0.500000 0.748822
O O10 0.410428 0.317620 0.743354
O O11 0.111873 0.332494 0.742824
O O12 0.500000 0.659453 0.500000
O O13 0.344096 0.500000 0.550234
#
# Coordination Sequence:
#
# PCOD8097910 Si02
#       6
#     8   8   4   8   8   8
#     4  10  20  36  54  79 108 134 178 233 275 333
#     4  10  20  36  57  86 118 150 189 230 273 327
#     4  10  20  34  60  88 118 152 186 228 280 324
#     4  10  22  39  59  82 114 152 189 229 276 325
#     4  10  20  34  55  78 103 139 175 224 290 339
#     4  10  21  37  57  79 110 147 186 232 275 330
#
# _framework density 19.192142
#
# number of rings (size 3 to 8) (size 9 to 14) (size 15 to 20)
#    0.000    2.000    1.818    1.636    0.000    4.364 
#    0.000    3.636    0.000   15.273    0.000    0.000 
#    0.000    0.000    0.000    0.000    0.000    0.000 
#
# Total GULP energy -272810.825557 kJ/mol
# GULP energy per Si atom -12400.492071 kJ/mol
# Density = 1.914846 g / cm^3
# Si number density = 19.192142 Si / 1000 Ang^3
#
#
#
# Elastic Constant Matrix: (Units=GPa)
#
#
# Indices 1 2 3 4 5 6 
#
# 1 131.4724 53.4322 48.6509 0.0000 3.7037 0.0000
# 2 53.4322 112.8473 48.0903 0.0000 -0.7999 0.0000
# 3 48.6509 48.0903 87.0665 0.0000 5.6246 0.0000
# 4 0.0000 0.0000 0.0000 9.6404 0.0000 0.3812
# 5 3.7037 -0.7999 5.6246 0.0000 26.8966 0.0000
# 6 0.0000 0.0000 0.0000 0.3812 0.0000 23.6939
#
#
#
# Elastic Compliance Matrix: (Units=1/GPa)
#
#
# Indices 1 2 3 4 5 6 
#
# 1 0.010417 -0.003238 -0.003987 0.000000 -0.000697 0.000000
# 2 -0.003238 0.012674 -0.005316 0.000000 0.001934 0.000000
# 3 -0.003987 -0.005316 0.016852 0.000000 -0.003133 0.000000
# 4 0.000000 0.000000 0.000000 0.103797 0.000000 -0.001670
# 5 -0.000697 0.001934 -0.003133 0.000000 0.037988 0.000000
# 6 0.000000 0.000000 0.000000 -0.001670 0.000000 0.042232
#
#
# Mechanical properties :
#
#
# Convention : Reuss Voigt Hill
#
# Bulk Modulus (GPa) = 67.29250 70.19254 68.74252
# Shear Modulus (GPa) = 19.68533 24.12701 21.90617
#
# Velocity S-wave (km/s) = 3.20613 3.54945 3.38215
# Velocity P-wave (km/s) = 6.98887 7.31103 7.15176
#
# Compressibility (1/GPa) = 0.01486050
#
# Stress axis : x y z
#
# Youngs Moduli (GPa) = 95.99350 78.90248 59.33992
#
# Poissons Ratio (x) = 0.25551 0.23661
# Poissons Ratio (y) = 0.31085 0.31544
# Poissons Ratio (z) = 0.38276 0.41943
#
# Static dielectric constant tensor:
#      x y z
#    x 3.708780 0.000000 0.064890 
#    y 0.000000 3.359450 0.000000 
#    z 0.064890 0.000000 3.541220 
# 
# 
# High freq. dielectric constant tensor:
#      x y z
#    x 1.758700 0.000000 0.004170 
#    y 0.000000 1.733980 0.000000 
#    z 0.004170 0.000000 1.756240 
# 
# From -- ./inp_files/255354.got.cif
#   From: 2010.06.25/outbox.cif.g09.slc.cpg/sg12_128_cif.got.tgz:255354.got - 2010.06.28 00:19:55.
