data_PCOD8097530
_publ_section_title
;
Structure prediction by ZEFSAII (Michael W. Deem and Ramdas Pophale) SiO2 
 PCOD8097530
Probable space group: C 2/M
;
_chemical_formula_sum "Si O2"
_cell_formula_units_Z 44
_cell_length_a 26.893849
_cell_length_b 10.632753
_cell_length_c 8.343307
_cell_angle_alpha 90.000000
_cell_angle_beta 78.389049
_cell_angle_gamma 90.000000
_cell_volume 2336.994379
_symmetry_space_group_name_H-M "C 2/M"
_symmetry_group_IT_number 12
_symmetry_cell_setting 'monoclinic'
loop_
_space_group_symop_operation_xyz
x,y,z
-x,y,-z
-x,-y,-z
x,-y,z
1/2+x,1/2+y,z
1/2-x,1/2+y,-z
1/2-x,1/2-y,-z
1/2+x,1/2-y,z
loop_
_atom_site_type_symbol
_atom_site_label
_atom_site_fract_x
_atom_site_fract_y
_atom_site_fract_z
Si Si1 0.816762 0.860895 0.398384
Si Si2 0.500000 0.274144 0.000000
Si Si3 0.022182 0.643978 0.319897
Si Si4 0.706722 0.860627 0.362857
Si Si5 0.131763 0.360395 0.138657
Si Si6 0.610192 0.636919 0.928200
O O1 0.767243 0.839228 0.318030
O O2 0.820726 0.749757 0.522773
O O3 0.867938 0.853612 0.264024
O O4 0.813040 0.000000 0.482760
O O5 0.500176 0.195632 0.165824
O O6 0.450418 0.359914 0.038346
O O7 0.005456 0.500000 0.331758
O O8 0.083121 0.662431 0.285071
O O9 0.000000 0.706796 0.500000
O O10 0.684418 0.852903 0.199543
O O11 0.694345 0.000000 0.443504
O O12 0.126592 0.500000 0.062470
O O13 0.134711 0.252698 0.005298
O O14 0.625257 0.500000 0.992899
#
# Coordination Sequence:
#
# PCOD8097530 Si02
#       6
#     8   4   8   8   8   8
#     4   9  19  34  52  76 104 137 173 210 262 315
#     4  10  20  34  54  74 107 144 185 220 263 314
#     4   9  18  32  51  78 108 139 177 223 272 317
#     4   9  18  34  54  77 105 133 169 218 260 311
#     4   9  19  34  52  76 104 132 172 218 263 313
#     4  10  21  36  53  74 105 141 175 214 263 312
#
# _framework density 18.827601000000001
#
# number of rings (size 3 to 8) (size 9 to 14) (size 15 to 20)
#    0.000    2.727    0.000    0.545    2.545    2.909 
#    0.000    0.000    0.000    2.727    0.000    0.000 
#    0.000    0.000    0.000    0.000    0.000    0.000 
#
# Total GULP energy -272568.466524 kJ/mol
# GULP energy per Si atom -12389.475751 kJ/mol
# Density = 1.878475 g / cm^3
# Si number density = 18.827601 Si / 1000 Ang^3
#
#
#
# Elastic Constant Matrix: (Units=GPa)
#
#
# Indices 1 2 3 4 5 6 
#
# 1 45.0882 26.6784 14.1814 0.0000 4.4995 0.0000
# 2 26.6784 136.3994 47.8712 0.0000 0.6339 0.0000
# 3 14.1814 47.8712 81.7394 0.0000 0.1640 0.0000
# 4 0.0000 0.0000 0.0000 30.2429 0.0000 -1.0186
# 5 4.4995 0.6339 0.1640 0.0000 27.1844 0.0000
# 6 0.0000 0.0000 0.0000 -1.0186 0.0000 19.6214
#
#
#
# Elastic Compliance Matrix: (Units=1/GPa)
#
#
# Indices 1 2 3 4 5 6 
#
# 1 0.025769 -0.004348 -0.001916 0.000000 -0.004152 0.000000
# 2 -0.004348 0.009963 -0.005081 0.000000 0.000518 0.000000
# 3 -0.001916 -0.005081 0.015542 0.000000 0.000342 0.000000
# 4 0.000000 0.000000 0.000000 0.033124 0.000000 0.001720
# 5 -0.004152 0.000518 0.000342 0.000000 0.037459 0.000000
# 6 0.000000 0.000000 0.000000 0.001720 0.000000 0.051054
#
#
# Mechanical properties :
#
#
# Convention : Reuss Voigt Hill
#
# Bulk Modulus (GPa) = 34.98706 48.96542 41.97624
# Shear Modulus (GPa) = 24.37500 27.04280 25.70890
#
# Velocity S-wave (km/s) = 3.60202 3.79402 3.69926
# Velocity P-wave (km/s) = 5.99354 6.72729 6.37099
#
# Compressibility (1/GPa) = 0.02858200
#
# Stress axis : x y z
#
# Youngs Moduli (GPa) = 38.80693 100.37216 64.34320
#
# Poissons Ratio (x) = 0.43646 0.12326
# Poissons Ratio (y) = 0.16875 0.32696
# Poissons Ratio (z) = 0.07434 0.51004
#
# Static dielectric constant tensor:
#      x y z
#    x 3.480810 0.000000 -0.061750 
#    y 0.000000 3.715340 0.000000 
#    z -0.061750 0.000000 3.188670 
# 
# 
# High freq. dielectric constant tensor:
#      x y z
#    x 1.735680 0.000000 -0.006750 
#    y 0.000000 1.741940 0.000000 
#    z -0.006750 0.000000 1.698550 
# 
# From -- ./inp_files/108016.got.cif
#   From: 2010.06.25/outbox.cif.g09.slc.cpg/sg12_55_cif.got.tgz:108016.got - 2010.06.28 00:19:55.
