data_PCOD8097455
_publ_section_title
;
Structure prediction by ZEFSAII (Michael W. Deem and Ramdas Pophale) SiO2 
 PCOD8097455
Probable space group: C 2/M
;
_chemical_formula_sum "Si O2"
_cell_formula_units_Z 48
_cell_length_a 15.053937
_cell_length_b 8.443238
_cell_length_c 29.056956
_cell_angle_alpha 90.000000
_cell_angle_beta 40.548061
_cell_angle_gamma 90.000000
_cell_volume 2400.931841
_symmetry_space_group_name_H-M "C 2/M"
_symmetry_group_IT_number 12
_symmetry_cell_setting 'monoclinic'
loop_
_space_group_symop_operation_xyz
x,y,z
-x,y,-z
-x,-y,-z
x,-y,z
1/2+x,1/2+y,z
1/2-x,1/2+y,-z
1/2-x,1/2-y,-z
1/2+x,1/2-y,z
loop_
_atom_site_type_symbol
_atom_site_label
_atom_site_fract_x
_atom_site_fract_y
_atom_site_fract_z
Si Si1 0.152391 0.314475 0.839688
Si Si2 0.580852 0.686469 0.672437
Si Si3 0.866647 0.315840 0.823481
Si Si4 0.873901 0.815034 0.921839
Si Si5 0.870955 0.186811 0.680751
Si Si6 0.366695 0.311722 0.579675
O O1 0.119301 0.500000 0.851017
O O2 0.241183 0.279673 0.850217
O O3 0.236767 0.258216 0.761403
O O4 0.012222 0.217222 0.895958
O O5 0.565634 0.500000 0.685762
O O6 0.511272 0.770937 0.743519
O O7 0.505224 0.742571 0.655581
O O8 0.736778 0.737803 0.605420
O O9 0.837981 0.500000 0.827919
O O10 0.877821 0.277301 0.872491
O O11 0.855752 0.000000 0.919846
O O12 0.750000 0.750000 0.000000
O O13 0.872886 0.259724 0.628918
O O14 0.871172 0.000000 0.676402
O O15 0.500000 0.254020 0.500000
O O16 0.354378 0.500000 0.584216
#
# Coordination Sequence:
#
# PCOD8097455 Si02
#       6
#     8   8   8   8   8   8
#     4  10  20  38  62  87 115 151 194 242 291 341
#     4  10  20  36  57  80 108 145 189 237 287 341
#     4  11  22  39  62  88 116 149 191 241 292 344
#     4  12  25  41  60  87 120 156 194 233 284 344
#     4   8  17  34  55  78 108 144 181 226 281 335
#     4  10  20  34  53  79 112 150 189 231 285 349
#
# _framework density 19.992236999999999
#
# number of rings (size 3 to 8) (size 9 to 14) (size 15 to 20)
#    0.000    1.833    0.000    6.000    0.000    3.000 
#    0.000    7.500    0.000    0.000    0.000    0.000 
#    0.000    0.000    0.000    0.000    0.000    0.000 
#
# Total GULP energy -297681.368778 kJ/mol
# GULP energy per Si atom -12403.390366 kJ/mol
# Density = 1.994673 g / cm^3
# Si number density = 19.992237 Si / 1000 Ang^3
#
#
#
# Elastic Constant Matrix: (Units=GPa)
#
#
# Indices 1 2 3 4 5 6 
#
# 1 95.3727 15.9781 51.6151 -0.0004 -22.2412 -0.0009
# 2 15.9781 68.3637 26.3392 0.0001 -4.8123 0.0015
# 3 51.6151 26.3392 94.3010 -0.0002 -27.5932 -0.0003
# 4 -0.0004 0.0001 -0.0002 26.6729 -0.0001 -6.1974
# 5 -22.2412 -4.8123 -27.5932 -0.0001 28.8143 0.0000
# 6 -0.0009 0.0015 -0.0003 -6.1974 0.0000 33.2058
#
#
#
# Elastic Compliance Matrix: (Units=1/GPa)
#
#
# Indices 1 2 3 4 5 6 
#
# 1 0.015490 -0.000654 -0.006709 0.000000 0.005422 0.000000
# 2 -0.000654 0.016528 -0.005000 0.000000 -0.002532 -0.000001
# 3 -0.006709 -0.005000 0.019330 0.000000 0.012497 0.000000
# 4 0.000000 0.000000 0.000000 0.039191 0.000000 0.007314
# 5 0.005422 -0.002532 0.012497 0.000000 0.050435 0.000000
# 6 0.000000 -0.000001 0.000000 0.007314 0.000000 0.031480
#
#
# Mechanical properties :
#
#
# Convention : Reuss Voigt Hill
#
# Bulk Modulus (GPa) = 37.56112 49.54469 43.55291
# Shear Modulus (GPa) = 24.26545 28.67890 26.47218
#
# Velocity S-wave (km/s) = 3.48766 3.79159 3.64280
# Velocity P-wave (km/s) = 5.92005 6.63355 6.28693
#
# Compressibility (1/GPa) = 0.02662328
#
# Stress axis : x y z
#
# Youngs Moduli (GPa) = 64.55677 60.50167 51.73372
#
# Poissons Ratio (x) = 0.03955 0.34709
# Poissons Ratio (y) = 0.04221 0.25865
# Poissons Ratio (z) = 0.43313 0.30248
#
# Static dielectric constant tensor:
#      x y z
#    x 3.824880 0.000000 0.058420 
#    y 0.000000 3.493280 0.000000 
#    z 0.058420 0.000000 3.697220 
# 
# 
# High freq. dielectric constant tensor:
#      x y z
#    x 1.792220 0.000000 -0.004320 
#    y 0.000000 1.771970 0.000000 
#    z -0.004320 0.000000 1.775040 
# 
# From -- ./inp_files/360212.got.cif
#   From: 2010.06.25/outbox.cif.g09.slc.cpg/sg12_181_cif.got.tgz:360212.got - 2010.06.28 00:19:55.
