data_PCOD8097513
_publ_section_title
;
Structure prediction by ZEFSAII (Michael W. Deem and Ramdas Pophale) SiO2 
 PCOD8097513
Probable space group: C 2/M
;
_chemical_formula_sum "Si O2"
_cell_formula_units_Z 56
_cell_length_a 20.641298
_cell_length_b 18.256338
_cell_length_c 9.123087
_cell_angle_alpha 90.000000
_cell_angle_beta 57.578184
_cell_angle_gamma 90.000000
_cell_volume 2902.008333
_symmetry_space_group_name_H-M "C 2/M"
_symmetry_group_IT_number 12
_symmetry_cell_setting 'monoclinic'
loop_
_space_group_symop_operation_xyz
x,y,z
-x,y,-z
-x,-y,-z
x,-y,z
1/2+x,1/2+y,z
1/2-x,1/2+y,-z
1/2-x,1/2-y,-z
1/2+x,1/2-y,z
loop_
_atom_site_type_symbol
_atom_site_label
_atom_site_fract_x
_atom_site_fract_y
_atom_site_fract_z
Si Si1 0.133995 0.585509 0.051445
Si Si2 0.812925 0.837205 0.339349
Si Si3 0.900968 0.086721 0.741762
Si Si4 0.234270 0.085543 0.892802
Si Si5 0.932047 0.086393 0.383003
Si Si6 0.830217 0.670163 0.285002
Si Si7 0.030759 0.581204 0.798200
O O1 0.140602 0.500000 0.996119
O O2 0.182673 0.601400 0.138079
O O3 0.045384 0.605187 0.200884
O O4 0.167166 0.633412 0.877722
O O5 0.771250 0.873206 0.252553
O O6 0.889296 0.879209 0.296089
O O7 0.841378 0.756803 0.260936
O O8 0.752777 0.843313 0.544687
O O9 0.898289 0.116749 0.578419
O O10 0.978719 0.109860 0.731500
O O11 0.897545 0.000000 0.734573
O O12 0.829383 0.117903 0.918883
O O13 0.220587 0.000000 0.881486
O O14 0.922405 0.000000 0.383210
O O15 0.898345 0.637019 0.305059
O O16 0.059027 0.500000 0.716282
O O17 0.000000 0.579657 0.000000
#
# Coordination Sequence:
#
# PCOD8097513 Si02
#       7
#     8   8   8   8   8   8   8
#     4   9  18  36  62  83 101 131 180 234 273 320
#     4  11  23  34  49  75 116 148 172 217 264 320
#     4   8  16  32  54  77 103 135 179 227 257 302
#     4  10  20  34  53  83 112 137 175 221 273 318
#     4   9  17  33  55  76 101 141 187 221 257 306
#     4  10  21  37  53  73 108 143 180 215 262 326
#     4   8  15  32  59  83  97 121 176 236 269 304
#
# _framework density 19.296980999999999
#
# number of rings (size 3 to 8) (size 9 to 14) (size 15 to 20)
#    0.000    2.714    0.000    3.429    0.000    4.571 
#    7.714    2.857    6.286    2.571    0.000    0.000 
#    0.000    0.000    0.000    0.000    0.000    0.000 
#
# Total GULP energy -347075.897147 kJ/mol
# GULP energy per Si atom -12395.567755 kJ/mol
# Density = 1.925306 g / cm^3
# Si number density = 19.296981 Si / 1000 Ang^3
#
#
#
# Elastic Constant Matrix: (Units=GPa)
#
#
# Indices 1 2 3 4 5 6 
#
# 1 153.0925 54.9692 22.2470 0.0000 10.0197 0.0000
# 2 54.9692 82.8477 24.9805 0.0000 4.2661 0.0000
# 3 22.2470 24.9805 22.8410 0.0000 6.5952 0.0000
# 4 0.0000 0.0000 0.0000 0.9406 0.0000 9.8639
# 5 10.0197 4.2661 6.5952 0.0000 25.2000 0.0000
# 6 0.0000 0.0000 0.0000 9.8639 0.0000 -1.5050
#
#
#
# Elastic Compliance Matrix: (Units=1/GPa)
#
#
# Indices 1 2 3 4 5 6 
#
# 1 0.008823 -0.004974 -0.002579 0.000000 -0.001991 0.000000
# 2 -0.004974 0.020935 -0.019038 0.000000 0.003416 0.000000
# 3 -0.002579 -0.019038 0.071273 0.000000 -0.014405 0.000000
# 4 0.000000 0.000000 0.000000 0.015246 0.000000 0.099926
# 5 -0.001991 0.003416 -0.014405 0.000000 0.043666 0.000000
# 6 0.000000 0.000000 0.000000 0.099926 0.000000 -0.009528
#
#
# Mechanical properties :
#
#
# Convention : Reuss Voigt Hill
#
# Bulk Modulus (GPa) = 20.89866 51.46384 36.18125
# Shear Modulus (GPa) = 22.77442 15.36610 19.07026
#
# Velocity S-wave (km/s) = 3.43914 2.82493 3.14706
# Velocity P-wave (km/s) = 5.15982 6.11290 5.65647
#
# Compressibility (1/GPa) = 0.04784996
#
# Stress axis : x y z
#
# Youngs Moduli (GPa) = 113.34021 47.76710 14.03063
#
# Poissons Ratio (x) = 0.23759 0.03618
# Poissons Ratio (y) = 0.56375 0.26711
# Poissons Ratio (z) = 0.29228 0.90937
#
# Static dielectric constant tensor:
#      x y z
#    x 3.968220 0.000000 -0.198280 
#    y 0.000000 3.291410 0.000000 
#    z -0.198280 0.000000 3.394360 
# 
# 
# High freq. dielectric constant tensor:
#      x y z
#    x 1.770520 0.000000 -0.008480 
#    y 0.000000 1.723500 0.000000 
#    z -0.008480 0.000000 1.726190 
# 
# From -- ./inp_files/87819.got.cif
#   From: 2010.06.25/outbox.cif.g09.slc.cpg/sg12_44_cif.got.tgz:87819.got - 2010.06.28 00:19:55.
