data_PCOD8097004
_publ_section_title
;
Structure prediction by ZEFSAII (Michael W. Deem and Ramdas Pophale) SiO2 
 PCOD8097004
Probable space group: C 2/M
;
_chemical_formula_sum "Si O2"
_cell_formula_units_Z 56
_cell_length_a 21.880094
_cell_length_b 8.991807
_cell_length_c 17.585360
_cell_angle_alpha 90.000000
_cell_angle_beta 120.481805
_cell_angle_gamma 90.000000
_cell_volume 2981.597538
_symmetry_space_group_name_H-M "C 2/M"
_symmetry_group_IT_number 12
_symmetry_cell_setting 'monoclinic'
loop_
_space_group_symop_operation_xyz
x,y,z
-x,y,-z
-x,-y,-z
x,-y,z
1/2+x,1/2+y,z
1/2-x,1/2+y,-z
1/2-x,1/2-y,-z
1/2+x,1/2-y,z
loop_
_atom_site_type_symbol
_atom_site_label
_atom_site_fract_x
_atom_site_fract_y
_atom_site_fract_z
Si Si1 0.450528 0.668869 0.036905
Si Si2 0.589555 0.327032 0.759259
Si Si3 0.321811 0.827164 0.631708
Si Si4 0.315232 0.172249 0.455770
Si Si5 0.953426 0.836305 0.756605
Si Si6 0.328642 0.179004 0.053883
Si Si7 0.579892 0.332875 0.578038
O O1 0.426110 0.500000 0.000894
O O2 0.503184 0.667337 0.139614
O O3 0.379893 0.762885 0.016650
O O4 0.500000 0.736459 0.000000
O O5 0.606713 0.500000 0.788413
O O6 0.507002 0.292953 0.723034
O O7 0.639691 0.225809 0.843949
O O8 0.596944 0.288346 0.675553
O O9 0.330286 0.770179 0.550533
O O10 0.252636 0.752181 0.624114
O O11 0.390470 0.781280 0.722598
O O12 0.311507 0.000000 0.631727
O O13 0.382223 0.209993 0.447937
O O14 0.299786 0.000000 0.445914
O O15 0.920879 0.000000 0.721678
O O16 0.323905 0.000000 0.045653
O O17 0.250000 0.250000 0.000000
O O18 0.500000 0.323774 0.500000
O O19 0.608481 0.500000 0.581525
#
# Coordination Sequence:
#
# PCOD8097004 Si02
#       7
#     8   8   8   8   8   8   8
#     4   9  19  38  61  85 114 146 184 231 283 340
#     4   9  19  36  57  82 112 145 184 225 270 330
#     4  10  20  34  52  74 102 140 181 222 269 320
#     4  10  21  35  51  73 104 140 181 225 267 317
#     4   9  17  32  56  81 105 137 175 218 268 325
#     4  11  22  38  61  86 115 153 194 237 288 343
#     4  10  20  35  56  81 110 144 180 221 272 325
#
# _framework density 18.781879
#
# number of rings (size 3 to 8) (size 9 to 14) (size 15 to 20)
#    0.000    2.286    0.000    3.857    0.000    6.286 
#    2.571    0.000    0.000    0.000    0.000    0.000 
#    0.000    0.000    0.000    0.000    0.000    0.000 
#
# Total GULP energy -347034.950221 kJ/mol
# GULP energy per Si atom -12394.105365 kJ/mol
# Density = 1.873913 g / cm^3
# Si number density = 18.781879 Si / 1000 Ang^3
#
#
#
# Elastic Constant Matrix: (Units=GPa)
#
#
# Indices 1 2 3 4 5 6 
#
# 1 105.2639 48.9297 34.6277 0.0000 6.1029 0.0000
# 2 48.9297 91.4483 32.5808 0.0000 10.3179 0.0000
# 3 34.6277 32.5808 46.6246 0.0000 7.9816 0.0000
# 4 0.0000 0.0000 0.0000 28.1995 0.0000 4.5721
# 5 6.1029 10.3179 7.9816 0.0000 28.9638 0.0000
# 6 0.0000 0.0000 0.0000 4.5721 0.0000 33.7874
#
#
#
# Elastic Compliance Matrix: (Units=1/GPa)
#
#
# Indices 1 2 3 4 5 6 
#
# 1 0.014174 -0.005159 -0.007058 0.000000 0.000796 0.000000
# 2 -0.005159 0.016612 -0.007294 0.000000 -0.002821 0.000000
# 3 -0.007058 -0.007294 0.032627 0.000000 -0.004905 0.000000
# 4 0.000000 0.000000 0.000000 0.036257 0.000000 -0.004906
# 5 0.000796 -0.002821 -0.004905 0.000000 0.036715 0.000000
# 6 0.000000 0.000000 0.000000 -0.004906 0.000000 0.030261
#
#
# Mechanical properties :
#
#
# Convention : Reuss Voigt Hill
#
# Bulk Modulus (GPa) = 40.99950 52.84592 46.92271
# Shear Modulus (GPa) = 23.38662 26.67004 25.02833
#
# Velocity S-wave (km/s) = 3.53252 3.77236 3.65441
# Velocity P-wave (km/s) = 6.20604 6.86819 6.54549
#
# Compressibility (1/GPa) = 0.02439054
#
# Stress axis : x y z
#
# Youngs Moduli (GPa) = 70.55400 60.19588 30.64980
#
# Poissons Ratio (x) = 0.31054 0.21632
# Poissons Ratio (y) = 0.36398 0.22357
# Poissons Ratio (z) = 0.49796 0.43908
#
# Static dielectric constant tensor:
#      x y z
#    x 3.794020 0.000000 -0.150520 
#    y 0.000000 3.473320 0.000000 
#    z -0.150520 0.000000 3.413460 
# 
# 
# High freq. dielectric constant tensor:
#      x y z
#    x 1.732150 0.000000 0.003630 
#    y 0.000000 1.725870 0.000000 
#    z 0.003630 0.000000 1.720560 
# 
# From -- ./inp_files/281615.got.cif
#   From: 2010.06.25/outbox.cif.g09.slc.cpg/sg12_141_cif.got.tgz:281615.got - 2010.06.28 00:19:55.
