data_PCOD8097694
_publ_section_title
;
Structure prediction by ZEFSAII (Michael W. Deem and Ramdas Pophale) SiO2 
 PCOD8097694
Probable space group: C 2/M
;
_chemical_formula_sum "Si O2"
_cell_formula_units_Z 56
_cell_length_a 21.023293
_cell_length_b 9.287680
_cell_length_c 15.123400
_cell_angle_alpha 90.000000
_cell_angle_beta 87.802947
_cell_angle_gamma 90.000000
_cell_volume 2950.788308
_symmetry_space_group_name_H-M "C 2/M"
_symmetry_group_IT_number 12
_symmetry_cell_setting 'monoclinic'
loop_
_space_group_symop_operation_xyz
x,y,z
-x,y,-z
-x,-y,-z
x,-y,z
1/2+x,1/2+y,z
1/2-x,1/2+y,-z
1/2-x,1/2-y,-z
1/2+x,1/2-y,z
loop_
_atom_site_type_symbol
_atom_site_label
_atom_site_fract_x
_atom_site_fract_y
_atom_site_fract_z
Si Si1 0.460691 0.331479 0.589188
Si Si2 0.365673 0.836677 0.206397
Si Si3 0.666173 0.166807 0.434089
Si Si4 0.286351 0.166888 0.375477
Si Si5 0.562512 0.666029 0.051929
Si Si6 0.814290 0.333339 0.019801
Si Si7 0.987679 0.835881 0.225248
O O1 0.500000 0.289299 0.500000
O O2 0.443717 0.500000 0.590936
O O3 0.397381 0.240281 0.594816
O O4 0.498234 0.285260 0.675547
O O5 0.328725 0.774615 0.292996
O O6 0.320156 0.822662 0.124821
O O7 0.429849 0.750749 0.186214
O O8 0.385636 0.000000 0.223823
O O9 0.673702 0.192919 0.537953
O O10 0.723203 0.238820 0.377528
O O11 0.664356 0.000000 0.409728
O O12 0.267297 0.000000 0.365055
O O13 0.578677 0.500000 0.028055
O O14 0.548170 0.684950 0.157380
O O15 0.500000 0.715306 0.000000
O O16 0.623664 0.763408 0.028602
O O17 0.809609 0.500000 0.989575
O O18 0.750000 0.250000 0.000000
O O19 0.965610 0.000000 0.227334
#
# Coordination Sequence:
#
# PCOD8097694 Si02
#       7
#     8   8   8   8   8   8   8
#     4  10  21  36  54  79 113 148 182 224 274 329
#     4  10  21  37  58  83 109 142 186 233 281 334
#     4  10  20  34  54  80 108 143 184 227 276 326
#     4   9  19  36  56  77 107 145 183 225 276 333
#     4  10  20  38  62  85 114 151 190 236 287 342
#     4  11  24  40  60  86 117 151 189 238 293 346
#     4  10  21  36  58  85 111 148 190 228 278 338
#
# _framework density 18.977979000000001
#
# number of rings (size 3 to 8) (size 9 to 14) (size 15 to 20)
#    0.000    2.000    1.429    1.714    0.000    4.571 
#    0.000    5.714    0.000    0.000    0.000    0.000 
#    0.000    0.000    0.000    0.000    0.000    0.000 
#
# Total GULP energy -347267.472398 kJ/mol
# GULP energy per Si atom -12402.409729 kJ/mol
# Density = 1.893478 g / cm^3
# Si number density = 18.977979 Si / 1000 Ang^3
#
#
#
# Elastic Constant Matrix: (Units=GPa)
#
#
# Indices 1 2 3 4 5 6 
#
# 1 124.9654 67.2908 40.6833 0.0000 3.2779 0.0000
# 2 67.2908 81.4314 34.7916 0.0000 5.7329 0.0000
# 3 40.6833 34.7916 94.0011 0.0000 -10.3386 0.0000
# 4 0.0000 0.0000 0.0000 25.2644 0.0000 3.3340
# 5 3.2779 5.7329 -10.3386 0.0000 24.7548 0.0000
# 6 0.0000 0.0000 0.0000 3.3340 0.0000 19.3944
#
#
#
# Elastic Compliance Matrix: (Units=1/GPa)
#
#
# Indices 1 2 3 4 5 6 
#
# 1 0.014804 -0.011236 -0.002283 0.000000 -0.000311 0.000000
# 2 -0.011236 0.023987 -0.004678 0.000000 -0.006021 0.000000
# 3 -0.002283 -0.004678 0.014160 0.000000 0.007299 0.000000
# 4 0.000000 0.000000 0.000000 0.040500 0.000000 -0.006962
# 5 -0.000311 -0.006021 0.007299 0.000000 0.044880 0.000000
# 6 0.000000 0.000000 0.000000 -0.006962 0.000000 0.052758
#
#
# Mechanical properties :
#
#
# Convention : Reuss Voigt Hill
#
# Bulk Modulus (GPa) = 60.38956 65.10325 62.74641
# Shear Modulus (GPa) = 21.45903 24.39151 22.92527
#
# Velocity S-wave (km/s) = 3.36629 3.58893 3.47939
# Velocity P-wave (km/s) = 6.85559 7.18004 7.01969
#
# Compressibility (1/GPa) = 0.01655915
#
# Stress axis : x y z
#
# Youngs Moduli (GPa) = 67.55030 41.68847 70.62065
#
# Poissons Ratio (x) = 0.46841 0.16120
# Poissons Ratio (y) = 0.75899 0.33033
# Poissons Ratio (z) = 0.15419 0.19500
#
# Static dielectric constant tensor:
#      x y z
#    x 3.373550 0.000000 -0.076420 
#    y 0.000000 3.483500 0.000000 
#    z -0.076420 0.000000 3.667760 
# 
# 
# High freq. dielectric constant tensor:
#      x y z
#    x 1.733950 0.000000 -0.005860 
#    y 0.000000 1.737300 0.000000 
#    z -0.005860 0.000000 1.746960 
# 
# From -- ./inp_files/230895.got.cif
#   From: 2010.06.25/outbox.cif.g09.slc.cpg/sg12_116_cif.got.tgz:230895.got - 2010.06.28 00:19:55.
