data_PCOD8097225
_publ_section_title
;
Structure prediction by ZEFSAII (Michael W. Deem and Ramdas Pophale) SiO2 
 PCOD8097225
Probable space group: C 2/M
;
_chemical_formula_sum "Si O2"
_cell_formula_units_Z 48
_cell_length_a 18.599899
_cell_length_b 7.926659
_cell_length_c 19.730647
_cell_angle_alpha 90.000000
_cell_angle_beta 120.699937
_cell_angle_gamma 90.000000
_cell_volume 2501.302485
_symmetry_space_group_name_H-M "C 2/M"
_symmetry_group_IT_number 12
_symmetry_cell_setting 'monoclinic'
loop_
_space_group_symop_operation_xyz
x,y,z
-x,y,-z
-x,-y,-z
x,-y,z
1/2+x,1/2+y,z
1/2-x,1/2+y,-z
1/2-x,1/2-y,-z
1/2+x,1/2-y,z
loop_
_atom_site_type_symbol
_atom_site_label
_atom_site_fract_x
_atom_site_fract_y
_atom_site_fract_z
Si Si1 0.953707 0.500000 0.082985
Si Si2 0.821005 0.812129 0.804692
Si Si3 0.071229 0.808637 0.484929
Si Si4 0.998322 0.185907 0.817677
Si Si5 0.131751 0.500000 0.095265
Si Si6 0.905357 0.691799 0.650061
Si Si7 0.264095 0.807749 0.373691
O O1 0.941941 0.331547 0.122979
O O2 0.044381 0.500000 0.092509
O O3 0.881705 0.500000 0.991717
O O4 0.815993 0.668745 0.860189
O O5 0.755886 0.764240 0.714128
O O6 0.912456 0.813673 0.817114
O O7 0.801423 0.000000 0.825042
O O8 0.070556 0.697708 0.416907
O O9 0.160444 0.807791 0.565197
O O10 0.000000 0.734389 0.500000
O O11 0.049930 0.000000 0.454492
O O12 0.978190 0.220561 0.729181
O O13 0.040812 0.000000 0.844721
O O14 0.897407 0.500000 0.671154
O O15 0.816601 0.781683 0.617903
O O16 0.292764 0.000000 0.395149
#
# Coordination Sequence:
#
# PCOD8097225 Si02
#       7
#     4   8   8   8   4   8   8
#     4   9  16  26  38  68  95 132 168 196 258 307
#     4   8  16  27  42  66  93 129 168 206 248 294
#     4  11  24  38  51  72 103 137 169 219 268 310
#     4   9  16  28  44  65  96 130 169 211 248 297
#     4   9  16  24  42  62  99 132 162 204 248 313
#     4  11  20  33  54  75  99 135 180 218 256 307
#     4  10  20  34  53  75  99 134 179 217 256 305
#
# _framework density 19.190003000000001
#
# number of rings (size 3 to 8) (size 9 to 14) (size 15 to 20)
#    0.000    2.333    0.833    4.000    4.667    2.000 
#    0.000    3.333    0.000    0.000    0.000    0.000 
#    0.000    1.333    0.667    0.000    0.000    0.000 
#
# Total GULP energy -297566.886917 kJ/mol
# GULP energy per Si atom -12398.620288 kJ/mol
# Density = 1.914633 g / cm^3
# Si number density = 19.190003 Si / 1000 Ang^3
#
#
#
# Elastic Constant Matrix: (Units=GPa)
#
#
# Indices 1 2 3 4 5 6 
#
# 1 39.8807 7.5901 33.9315 0.0000 -7.4336 0.0000
# 2 7.5901 129.8856 68.6694 0.0000 -3.7662 0.0000
# 3 33.9315 68.6694 136.0636 0.0000 -11.5402 0.0000
# 4 0.0000 0.0000 0.0000 28.9753 0.0000 -1.2531
# 5 -7.4336 -3.7662 -11.5402 0.0000 2.1761 0.0000
# 6 0.0000 0.0000 0.0000 -1.2531 0.0000 12.2357
#
#
#
# Elastic Compliance Matrix: (Units=1/GPa)
#
#
# Indices 1 2 3 4 5 6 
#
# 1 0.071159 0.001323 0.004358 0.000000 0.268480 0.000000
# 2 0.001323 0.010931 -0.007013 0.000000 -0.013756 0.000000
# 3 0.004358 -0.007013 0.018239 0.000000 0.099473 0.000000
# 4 0.000000 0.000000 0.000000 0.034666 0.000000 0.003550
# 5 0.268480 -0.013756 0.099473 0.000000 1.880387 0.000000
# 6 0.000000 0.000000 0.000000 0.003550 0.000000 0.082092
#
#
# Mechanical properties :
#
#
# Convention : Reuss Voigt Hill
#
# Bulk Modulus (GPa) = 10.23925 58.46799 34.35362
# Shear Modulus (GPa) = 2.34445 21.72001 12.03223
#
# Velocity S-wave (km/s) = 1.10651 3.36793 2.50672
# Velocity P-wave (km/s) = 2.64193 6.75707 5.13020
#
# Compressibility (1/GPa) = 0.09766342
#
# Stress axis : x y z
#
# Youngs Moduli (GPa) = 14.05306 91.48552 54.82780
#
# Poissons Ratio (x) = -0.12099 -0.23894
# Poissons Ratio (y) = -0.01859 0.38451
# Poissons Ratio (z) = -0.06124 0.64160
#
# Static dielectric constant tensor:
#      x y z
#    x 2.852640 0.000000 -0.020640 
#    y 0.000000 3.785300 0.000000 
#    z -0.020640 0.000000 3.545650 
# 
# 
# High freq. dielectric constant tensor:
#      x y z
#    x 1.670080 0.000000 -0.004350 
#    y 0.000000 1.766850 0.000000 
#    z -0.004350 0.000000 1.746340 
# 
# From -- ./inp_files/274656.got.cif
#   From: 2010.06.25/outbox.cif.g09.slc.cpg/sg12_138_cif.got.tgz:274656.got - 2010.06.28 00:19:55.
