data_PCOD8097280
_publ_section_title
;
Structure prediction by ZEFSAII (Michael W. Deem and Ramdas Pophale) SiO2 
 PCOD8097280
Probable space group: C 2/M
;
_chemical_formula_sum "Si O2"
_cell_formula_units_Z 48
_cell_length_a 19.616341
_cell_length_b 9.442200
_cell_length_c 28.941949
_cell_angle_alpha 90.000000
_cell_angle_beta 152.622731
_cell_angle_gamma 90.000000
_cell_volume 2465.090255
_symmetry_space_group_name_H-M "C 2/M"
_symmetry_group_IT_number 12
_symmetry_cell_setting 'monoclinic'
loop_
_space_group_symop_operation_xyz
x,y,z
-x,y,-z
-x,-y,-z
x,-y,z
1/2+x,1/2+y,z
1/2-x,1/2+y,-z
1/2-x,1/2-y,-z
1/2+x,1/2-y,z
loop_
_atom_site_type_symbol
_atom_site_label
_atom_site_fract_x
_atom_site_fract_y
_atom_site_fract_z
Si Si1 0.876042 0.338081 0.892218
Si Si2 0.063375 0.834343 0.490140
Si Si3 0.119899 0.332434 0.354038
Si Si4 0.446986 0.667538 0.322133
Si Si5 0.598422 0.160006 0.951416
Si Si6 0.134730 0.665026 0.869783
O O1 0.859325 0.500000 0.898574
O O2 0.710699 0.271776 0.792237
O O3 0.000000 0.263721 0.000000
O O4 0.936226 0.327362 0.876154
O O5 0.226134 0.775470 0.574615
O O6 0.000000 0.765977 0.500000
O O7 0.954131 0.801703 0.381450
O O8 0.081216 0.000000 0.509472
O O9 0.126067 0.500000 0.368180
O O10 0.081354 0.249612 0.378072
O O11 0.993829 0.289935 0.241930
O O12 0.464540 0.500000 0.323860
O O13 0.714516 0.251873 0.051394
O O14 0.657752 0.000000 0.988731
O O15 0.583478 0.213040 0.890038
O O16 0.169196 0.500000 0.887324
#
# Coordination Sequence:
#
# PCOD8097280 Si02
#       6
#     8   8   8   8   8   8
#     4   9  17  28  46  73 101 128 165 210 251 289
#     4   9  19  34  55  81 104 130 172 220 259 301
#     4  10  20  34  53  76 106 137 168 210 261 310
#     4  10  20  34  55  79 103 136 175 213 255 304
#     4   9  17  30  48  70 100 133 170 214 251 295
#     4   9  18  30  47  72 100 134 169 205 256 307
#
# _framework density 19.471903999999999
#
# number of rings (size 3 to 8) (size 9 to 14) (size 15 to 20)
#    0.000    2.667    0.000    1.500    2.333    2.000 
#    0.000    0.833    0.000    5.000    0.000    0.000 
#    0.000    0.000    0.000    0.000    0.000    0.000 
#
# Total GULP energy -297454.915816 kJ/mol
# GULP energy per Si atom -12393.954826 kJ/mol
# Density = 1.942759 g / cm^3
# Si number density = 19.471904 Si / 1000 Ang^3
#
#
#
# Elastic Constant Matrix: (Units=GPa)
#
#
# Indices 1 2 3 4 5 6 
#
# 1 124.7760 23.6056 55.8034 0.0001 8.4915 0.0001
# 2 23.6056 24.6192 22.2142 0.0002 0.4818 0.0002
# 3 55.8034 22.2142 106.9049 0.0000 8.9362 0.0006
# 4 0.0001 0.0002 0.0000 14.2706 0.0000 3.4315
# 5 8.4915 0.4818 8.9362 0.0000 30.3836 0.0000
# 6 0.0001 0.0002 0.0006 3.4315 0.0000 23.0898
#
#
#
# Elastic Compliance Matrix: (Units=1/GPa)
#
#
# Indices 1 2 3 4 5 6 
#
# 1 0.011402 -0.006969 -0.004353 0.000000 -0.001796 0.000000
# 2 -0.006969 0.054412 -0.007955 -0.000001 0.003425 0.000000
# 3 -0.004353 -0.007955 0.013499 0.000000 -0.002627 0.000000
# 4 0.000000 -0.000001 0.000000 0.072671 0.000000 -0.010800
# 5 -0.001796 0.003425 -0.002627 0.000000 0.034133 0.000000
# 6 0.000000 0.000000 0.000000 -0.010800 0.000000 0.044914
#
#
# Mechanical properties :
#
#
# Convention : Reuss Voigt Hill
#
# Bulk Modulus (GPa) = 24.53519 51.06075 37.79797
# Shear Modulus (GPa) = 17.65711 23.86059 20.75885
#
# Velocity S-wave (km/s) = 3.01458 3.50435 3.26865
# Velocity P-wave (km/s) = 4.97439 6.53098 5.80509
#
# Compressibility (1/GPa) = 0.04075779
#
# Stress axis : x y z
#
# Youngs Moduli (GPa) = 87.70352 18.37842 74.07857
#
# Poissons Ratio (x) = 0.12808 0.32250
# Poissons Ratio (y) = 0.61123 0.58928
# Poissons Ratio (z) = 0.38182 0.14620
#
# Static dielectric constant tensor:
#      x y z
#    x 3.748300 0.000000 0.011850 
#    y 0.000000 3.097310 0.000000 
#    z 0.011850 0.000000 3.711220 
# 
# 
# High freq. dielectric constant tensor:
#      x y z
#    x 1.770610 0.000000 -0.002570 
#    y 0.000000 1.703190 0.000000 
#    z -0.002570 0.000000 1.765580 
# 
# From -- ./inp_files/363418.got.cif
#   From: 2010.06.25/outbox.cif.g09.slc.cpg/sg12_182_cif.got.tgz:363418.got - 2010.06.28 00:19:55.
