data_PCOD8097440
_publ_section_title
;
Structure prediction by ZEFSAII (Michael W. Deem and Ramdas Pophale) SiO2 
 PCOD8097440
Probable space group: C 2/M
;
_chemical_formula_sum "Si O2"
_cell_formula_units_Z 48
_cell_length_a 15.759700
_cell_length_b 14.043196
_cell_length_c 10.597195
_cell_angle_alpha 90.000000
_cell_angle_beta 120.914763
_cell_angle_gamma 90.000000
_cell_volume 2012.138996
_symmetry_space_group_name_H-M "C 2/M"
_symmetry_group_IT_number 12
_symmetry_cell_setting 'monoclinic'
loop_
_space_group_symop_operation_xyz
x,y,z
-x,y,-z
-x,-y,-z
x,-y,z
1/2+x,1/2+y,z
1/2-x,1/2+y,-z
1/2-x,1/2-y,-z
1/2+x,1/2-y,z
loop_
_atom_site_type_symbol
_atom_site_label
_atom_site_fract_x
_atom_site_fract_y
_atom_site_fract_z
Si Si1 0.951424 0.112614 0.269613
Si Si2 0.347254 0.113291 0.587326
Si Si3 0.445310 0.891792 0.151493
Si Si4 0.299003 0.890243 0.274592
Si Si5 0.352858 0.613135 0.446547
Si Si6 0.658627 0.725924 0.016617
O O1 0.876480 0.148662 0.322856
O O2 0.919570 0.158508 0.114322
O O3 0.062121 0.146152 0.390644
O O4 0.944903 0.000000 0.249988
O O5 0.446454 0.147994 0.731762
O O6 0.344683 0.149309 0.440223
O O7 0.252387 0.154717 0.589514
O O8 0.347037 0.000000 0.586356
O O9 0.380846 0.880909 0.228873
O O10 0.399164 0.826412 0.003762
O O11 0.445539 0.000000 0.101668
O O12 0.265370 0.000000 0.263175
O O13 0.199622 0.828509 0.170762
O O14 0.351827 0.500000 0.444770
O O15 0.750000 0.750000 0.000000
#
# Coordination Sequence:
#
# PCOD8097440 Si02
#       6
#     8   8   8   8   8   8
#     4   9  17  34  58  81 108 141 182 228 274 326
#     4   9  16  31  57  86 113 141 180 229 282 330
#     4   9  18  33  55  81 110 147 189 230 270 321
#     4   9  17  31  54  84 116 147 178 222 279 335
#     4   8  16  32  57  85 107 138 182 226 276 329
#     4  10  20  34  53  79 110 147 190 222 271 332
#
# _framework density 23.855208999999999
#
# number of rings (size 3 to 8) (size 9 to 14) (size 15 to 20)
#    0.000    3.000    0.000    2.000    0.000    2.667 
#   12.000    1.667    3.667    7.000    0.000   19.833 
#    0.000    1.333    0.000    0.000    0.000    0.000 
#
# Total GULP energy -297492.866759 kJ/mol
# GULP energy per Si atom -12395.536115 kJ/mol
# Density = 2.380091 g / cm^3
# Si number density = 23.855209 Si / 1000 Ang^3
#
#
#
# Elastic Constant Matrix: (Units=GPa)
#
#
# Indices 1 2 3 4 5 6 
#
# 1 80.5364 25.6170 35.2935 0.0000 29.9863 0.0000
# 2 25.6170 70.3798 44.3891 0.0000 20.6096 0.0000
# 3 35.2935 44.3891 101.3235 0.0000 38.4085 0.0000
# 4 0.0000 0.0000 0.0000 37.9813 0.0000 8.7329
# 5 29.9863 20.6096 38.4085 0.0000 33.4843 0.0000
# 6 0.0000 0.0000 0.0000 8.7329 0.0000 8.0020
#
#
#
# Elastic Compliance Matrix: (Units=1/GPa)
#
#
# Indices 1 2 3 4 5 6 
#
# 1 0.018962 -0.002583 0.000639 0.000000 -0.016124 0.000000
# 2 -0.002583 0.020281 -0.007308 0.000000 -0.001787 0.000000
# 3 0.000639 -0.007308 0.020100 0.000000 -0.019130 0.000000
# 4 0.000000 0.000000 0.000000 0.035148 0.000000 -0.038359
# 5 -0.016124 -0.001787 -0.019130 0.000000 0.067347 0.000000
# 6 0.000000 0.000000 0.000000 -0.038359 0.000000 0.166830
#
#
# Mechanical properties :
#
#
# Convention : Reuss Voigt Hill
#
# Bulk Modulus (GPa) = 24.48648 51.42655 37.95652
# Shear Modulus (GPa) = 13.85862 25.68953 19.77408
#
# Velocity S-wave (km/s) = 2.41290 3.28517 2.88222
# Velocity P-wave (km/s) = 4.24849 5.99953 5.19827
#
# Compressibility (1/GPa) = 0.04083885
#
# Stress axis : x y z
#
# Youngs Moduli (GPa) = 52.73749 49.30640 49.75144
#
# Poissons Ratio (x) = 0.12736 -0.03178
# Poissons Ratio (y) = 0.13622 0.36357
# Poissons Ratio (z) = -0.03368 0.36032
#
# Static dielectric constant tensor:
#      x y z
#    x 4.357260 0.000000 0.373920 
#    y 0.000000 4.422920 0.000000 
#    z 0.373920 0.000000 4.472530 
# 
# 
# High freq. dielectric constant tensor:
#      x y z
#    x 1.925130 0.000000 0.022300 
#    y 0.000000 1.949070 0.000000 
#    z 0.022300 0.000000 1.939140 
# 
# From -- ./inp_files/143897.got.cif
#   From: 2010.06.25/outbox.cif.g09.slc.cpg/sg12_72_cif.got.tgz:143897.got - 2010.06.28 00:19:55.
