data_PCOD8097853
_publ_section_title
;
Structure prediction by ZEFSAII (Michael W. Deem and Ramdas Pophale) SiO2 
 PCOD8097853
Probable space group: C 2/M
;
_chemical_formula_sum "Si O2"
_cell_formula_units_Z 48
_cell_length_a 24.497523
_cell_length_b 8.984891
_cell_length_c 19.043584
_cell_angle_alpha 90.000000
_cell_angle_beta 36.133930
_cell_angle_gamma 90.000000
_cell_volume 2471.702492
_symmetry_space_group_name_H-M "C 2/M"
_symmetry_group_IT_number 12
_symmetry_cell_setting 'monoclinic'
loop_
_space_group_symop_operation_xyz
x,y,z
-x,y,-z
-x,-y,-z
x,-y,z
1/2+x,1/2+y,z
1/2-x,1/2+y,-z
1/2-x,1/2-y,-z
1/2+x,1/2-y,z
loop_
_atom_site_type_symbol
_atom_site_label
_atom_site_fract_x
_atom_site_fract_y
_atom_site_fract_z
Si Si1 0.160572 0.174902 0.240890
Si Si2 0.822307 0.824023 0.477622
Si Si3 0.531686 0.676063 0.256232
Si Si4 0.145070 0.675970 0.017592
Si Si5 0.599264 0.666246 0.929769
Si Si6 0.764761 0.176494 0.692018
O O1 0.065705 0.221943 0.299936
O O2 0.166728 0.231039 0.315558
O O3 0.167400 0.000000 0.237036
O O4 0.249063 0.230763 0.103669
O O5 0.750000 0.750000 0.500000
O O6 0.804462 0.772840 0.575972
O O7 0.926715 0.770290 0.351770
O O8 0.812646 0.000000 0.479733
O O9 0.538638 0.500000 0.238731
O O10 0.603172 0.753012 0.130375
O O11 0.135581 0.500000 0.032688
O O12 0.087457 0.734738 0.011301
O O13 0.635967 0.500000 0.909586
O O14 0.666559 0.744444 0.803884
O O15 0.500000 0.654652 0.000000
O O16 0.749856 0.000000 0.710044
#
# Coordination Sequence:
#
# PCOD8097853 Si02
#       6
#     8   8   8   8   8   8
#     4   8  16  33  57  83 110 139 179 229 278 326
#     4  10  23  39  56  79 110 148 188 228 271 321
#     4  10  20  35  56  82 112 148 185 225 273 324
#     4  10  20  34  54  83 115 145 179 223 274 329
#     4  10  21  35  54  80 108 142 183 227 275 325
#     4   9  19  37  57  80 108 141 183 228 275 324
#
# _framework density 19.419813000000001
#
# number of rings (size 3 to 8) (size 9 to 14) (size 15 to 20)
#    0.000    2.500    0.000    2.500    2.333    3.333 
#    0.000    6.667    0.000    0.000    0.000    7.000 
#    0.000    0.000    0.000    0.000    0.000    0.000 
#
# Total GULP energy -297450.236269 kJ/mol
# GULP energy per Si atom -12393.759845 kJ/mol
# Density = 1.937561 g / cm^3
# Si number density = 19.419813 Si / 1000 Ang^3
#
#
#
# Elastic Constant Matrix: (Units=GPa)
#
#
# Indices 1 2 3 4 5 6 
#
# 1 145.6514 34.7839 71.5762 -0.0022 -4.0215 0.0006
# 2 34.7839 43.7847 30.5404 -0.0028 -2.6948 0.0028
# 3 71.5762 30.5404 80.1899 -0.0031 12.6487 0.0001
# 4 -0.0022 -0.0028 -0.0031 21.7014 0.0011 1.9220
# 5 -4.0215 -2.6948 12.6487 0.0011 31.3136 0.0000
# 6 0.0006 0.0028 0.0001 1.9220 0.0000 26.5983
#
#
#
# Elastic Compliance Matrix: (Units=1/GPa)
#
#
# Indices 1 2 3 4 5 6 
#
# 1 0.013635 -0.001624 -0.012610 -0.000001 0.006705 0.000000
# 2 -0.001624 0.033275 -0.012434 0.000002 0.007678 -0.000004
# 3 -0.012610 -0.012434 0.030851 0.000002 -0.015151 0.000001
# 4 -0.000001 0.000002 0.000002 0.046377 -0.000002 -0.003351
# 5 0.006705 0.007678 -0.015151 -0.000002 0.039577 -0.000001
# 6 0.000000 -0.000004 0.000001 -0.003351 -0.000001 0.037838
#
#
# Mechanical properties :
#
#
# Convention : Reuss Voigt Hill
#
# Bulk Modulus (GPa) = 40.94120 60.38079 50.66100
# Shear Modulus (GPa) = 19.00915 24.77103 21.89009
#
# Velocity S-wave (km/s) = 3.13206 3.57537 3.36103
# Velocity P-wave (km/s) = 5.84873 6.94292 6.41918
#
# Compressibility (1/GPa) = 0.02442527
#
# Stress axis : x y z
#
# Youngs Moduli (GPa) = 73.33839 30.05282 32.41385
#
# Poissons Ratio (x) = 0.04881 0.40873
# Poissons Ratio (y) = 0.11912 0.40303
# Poissons Ratio (z) = 0.92478 0.37368
#
# Static dielectric constant tensor:
#      x y z
#    x 3.871610 0.000000 0.030000 
#    y 0.000000 3.482720 0.000000 
#    z 0.030000 0.000000 3.532130 
# 
# 
# High freq. dielectric constant tensor:
#      x y z
#    x 1.769060 0.000000 0.002520 
#    y 0.000000 1.736810 0.000000 
#    z 0.002520 0.000000 1.748300 
# 
# From -- ./inp_files/327153.got.cif
#   From: 2010.06.25/outbox.cif.g09.slc.cpg/sg12_164_cif.got.tgz:327153.got - 2010.06.28 00:19:55.
