data_PCOD8097159
_publ_section_title
;
Structure prediction by ZEFSAII (Michael W. Deem and Ramdas Pophale) SiO2 
 PCOD8097159
Probable space group: C 2/M
;
_chemical_formula_sum "Si O2"
_cell_formula_units_Z 64
_cell_length_a 14.767773
_cell_length_b 8.774689
_cell_length_c 26.273230
_cell_angle_alpha 90.000000
_cell_angle_beta 75.952289
_cell_angle_gamma 90.000000
_cell_volume 3302.737057
_symmetry_space_group_name_H-M "C 2/M"
_symmetry_group_IT_number 12
_symmetry_cell_setting 'monoclinic'
loop_
_space_group_symop_operation_xyz
x,y,z
-x,y,-z
-x,-y,-z
x,-y,z
1/2+x,1/2+y,z
1/2-x,1/2+y,-z
1/2-x,1/2-y,-z
1/2+x,1/2-y,z
loop_
_atom_site_type_symbol
_atom_site_label
_atom_site_fract_x
_atom_site_fract_y
_atom_site_fract_z
Si Si1 0.011018 0.818534 0.609834
Si Si2 0.183435 0.322809 0.375446
Si Si3 0.199445 0.674158 0.256081
Si Si4 0.898940 0.820625 0.193486
Si Si5 0.465242 0.180041 0.080798
Si Si6 0.150213 0.679894 0.999579
Si Si7 0.489147 0.321336 0.726730
Si Si8 0.696580 0.818916 0.554785
O O1 0.089425 0.734662 0.565993
O O2 0.912074 0.767052 0.600672
O O3 0.018461 0.758425 0.667239
O O4 0.021371 0.000000 0.604007
O O5 0.169971 0.500000 0.390999
O O6 0.218884 0.300880 0.313114
O O7 0.262860 0.249358 0.398950
O O8 0.170770 0.500000 0.249926
O O9 0.290083 0.720534 0.211476
O O10 0.117736 0.780976 0.246790
O O11 0.944477 0.749710 0.137917
O O12 0.947694 0.750584 0.237222
O O13 0.915056 0.000000 0.189359
O O14 0.386352 0.234210 0.051044
O O15 0.462172 0.000000 0.084751
O O16 0.569598 0.231852 0.050205
O O17 0.162352 0.500000 0.999105
O O18 0.250000 0.750000 0.000000
O O19 0.501750 0.500000 0.723928
O O20 0.750000 0.750000 0.500000
O O21 0.703974 0.000000 0.553108
#
# Coordination Sequence:
#
# PCOD8097159 Si02
#       8
#     8   8   8   8   8   8   8   8
#     4  10  20  38  61  84 111 145 183 226 272 323
#     4  10  20  38  61  84 111 145 183 226 272 323
#     4   9  19  35  55  79 109 143 179 216 261 315
#     4  10  20  34  52  78 112 146 176 215 262 311
#     4   9  20  37  53  75 106 139 174 217 266 317
#     4   9  19  37  58  76 100 135 177 221 268 316
#     4   9  19  35  55  79 109 143 179 216 261 315
#     4  12  25  40  58  83 111 143 183 227 277 331
#
# _framework density 19.377867999999999
#
# number of rings (size 3 to 8) (size 9 to 14) (size 15 to 20)
#    0.000    2.250    0.000    3.375    0.000    6.500 
#    0.000   10.000    0.000    0.000    0.000    0.000 
#    0.000    0.000    0.000    0.000    0.000    0.000 
#
# Total GULP energy -396797.170347 kJ/mol
# GULP energy per Si atom -12399.911573 kJ/mol
# Density = 1.933376 g / cm^3
# Si number density = 19.377868 Si / 1000 Ang^3
#
#
#
# Elastic Constant Matrix: (Units=GPa)
#
#
# Indices 1 2 3 4 5 6 
#
# 1 82.3020 19.4443 22.0456 0.0000 -12.9346 0.0000
# 2 19.4443 57.4121 23.3608 0.0000 -3.4623 0.0000
# 3 22.0456 23.3608 65.4645 0.0000 -20.5215 0.0000
# 4 0.0000 0.0000 0.0000 32.8446 0.0000 -1.8465
# 5 -12.9346 -3.4623 -20.5215 0.0000 26.0029 0.0000
# 6 0.0000 0.0000 0.0000 -1.8465 0.0000 36.9498
#
#
#
# Elastic Compliance Matrix: (Units=1/GPa)
#
#
# Indices 1 2 3 4 5 6 
#
# 1 0.014357 -0.003794 -0.001861 0.000000 0.005168 0.000000
# 2 -0.003794 0.021700 -0.008174 0.000000 -0.005449 0.000000
# 3 -0.001861 -0.008174 0.024166 0.000000 0.017058 0.000000
# 4 0.000000 0.000000 0.000000 0.030532 0.000000 0.001526
# 5 0.005168 -0.005449 0.017058 0.000000 0.053764 0.000000
# 6 0.000000 0.000000 0.000000 0.001526 0.000000 0.027140
#
#
# Mechanical properties :
#
#
# Convention : Reuss Voigt Hill
#
# Bulk Modulus (GPa) = 30.70688 37.20889 33.95789
# Shear Modulus (GPa) = 23.78985 28.51466 26.15225
#
# Velocity S-wave (km/s) = 3.50763 3.84018 3.67767
# Velocity P-wave (km/s) = 5.68202 6.23748 5.96622
#
# Compressibility (1/GPa) = 0.03256599
#
# Stress axis : x y z
#
# Youngs Moduli (GPa) = 69.65079 46.08262 41.37982
#
# Poissons Ratio (x) = 0.17482 0.07702
# Poissons Ratio (y) = 0.26422 0.33824
# Poissons Ratio (z) = 0.12964 0.37669
#
# Static dielectric constant tensor:
#      x y z
#    x 3.846220 0.000000 0.530060 
#    y 0.000000 3.427700 0.000000 
#    z 0.530060 0.000000 4.779260 
# 
# 
# High freq. dielectric constant tensor:
#      x y z
#    x 1.763870 0.000000 -0.005390 
#    y 0.000000 1.746880 0.000000 
#    z -0.005390 0.000000 1.751920 
# 
# From -- ./inp_files/359762.got.cif
#   From: 2010.06.25/outbox.cif.g09.slc.cpg/sg12_180_cif.got.tgz:359762.got - 2010.06.28 00:19:55.
