data_PCOD8097013
_publ_section_title
;
Structure prediction by ZEFSAII (Michael W. Deem and Ramdas Pophale) SiO2 
 PCOD8097013
Probable space group: C 2/M
;
_chemical_formula_sum "Si O2"
_cell_formula_units_Z 56
_cell_length_a 15.874420
_cell_length_b 9.029315
_cell_length_c 27.596837
_cell_angle_alpha 90.000000
_cell_angle_beta 134.615327
_cell_angle_gamma 90.000000
_cell_volume 2815.744622
_symmetry_space_group_name_H-M "C 2/M"
_symmetry_group_IT_number 12
_symmetry_cell_setting 'monoclinic'
loop_
_space_group_symop_operation_xyz
x,y,z
-x,y,-z
-x,-y,-z
x,-y,z
1/2+x,1/2+y,z
1/2-x,1/2+y,-z
1/2-x,1/2-y,-z
1/2+x,1/2-y,z
loop_
_atom_site_type_symbol
_atom_site_label
_atom_site_fract_x
_atom_site_fract_y
_atom_site_fract_z
Si Si1 0.192419 0.667043 0.432505
Si Si2 0.117457 0.832139 0.573415
Si Si3 0.233103 0.668867 0.706852
Si Si4 0.960355 0.331072 0.293240
Si Si5 0.898136 0.175130 0.921955
Si Si6 0.860224 0.324856 0.155475
Si Si7 0.944344 0.674800 0.838014
O O1 0.171246 0.500000 0.441871
O O2 0.250000 0.750000 0.500000
O O3 0.275001 0.674132 0.419661
O O4 0.068310 0.745323 0.366360
O O5 0.147387 0.729145 0.630669
O O6 0.000000 0.769340 0.500000
O O7 0.094556 0.000000 0.582353
O O8 0.268795 0.500000 0.709475
O O9 0.162990 0.678645 0.728714
O O10 0.349863 0.767933 0.760296
O O11 0.001814 0.500000 0.302562
O O12 0.936531 0.257112 0.231113
O O13 0.774890 0.234019 0.895731
O O14 0.926680 0.248452 0.882189
O O15 0.895503 0.000000 0.912297
O O16 0.000000 0.223291 0.000000
O O17 0.856124 0.500000 0.160778
O O18 0.925184 0.284463 0.131082
O O19 0.928934 0.500000 0.837866
#
# Coordination Sequence:
#
# PCOD8097013 Si02
#       7
#     8   8   8   8   8   8   8
#     4  10  20  34  52  74 103 143 186 232 288 349
#     4  10  21  36  53  77 112 149 188 240 301 356
#     4  11  21  35  58  83 111 149 197 248 292 347
#     4   9  17  32  55  77 103 145 191 231 280 345
#     4  10  21  40  65  90 120 158 198 241 291 352
#     4   9  18  36  60  85 117 157 195 233 292 360
#     4  11  22  37  61  89 120 158 197 242 298 354
#
# _framework density 19.888168
#
# number of rings (size 3 to 8) (size 9 to 14) (size 15 to 20)
#    0.000    2.000    1.429    2.571    0.000    4.000 
#    0.000    2.143    0.000    0.000    0.000    0.000 
#    0.000    0.000    0.000    0.000    0.000    0.000 
#
# Total GULP energy -347132.290057 kJ/mol
# GULP energy per Si atom -12397.581788 kJ/mol
# Density = 1.984290 g / cm^3
# Si number density = 19.888168 Si / 1000 Ang^3
#
#
#
# Elastic Constant Matrix: (Units=GPa)
#
#
# Indices 1 2 3 4 5 6 
#
# 1 113.0251 27.5880 57.8987 0.0000 11.9550 0.0000
# 2 27.5880 50.8367 36.1332 0.0000 -1.9377 0.0000
# 3 57.8987 36.1332 142.8772 0.0000 14.4476 0.0000
# 4 0.0000 0.0000 0.0000 25.6590 0.0000 -0.5642
# 5 11.9550 -1.9377 14.4476 0.0000 32.5695 0.0000
# 6 0.0000 0.0000 0.0000 -0.5642 0.0000 19.0006
#
#
#
# Elastic Compliance Matrix: (Units=1/GPa)
#
#
# Indices 1 2 3 4 5 6 
#
# 1 0.011973 -0.004132 -0.003495 0.000000 -0.003090 0.000000
# 2 -0.004132 0.025999 -0.005455 0.000000 0.005483 0.000000
# 3 -0.003495 -0.005455 0.010153 0.000000 -0.003546 0.000000
# 4 0.000000 0.000000 0.000000 0.038998 0.000000 0.001158
# 5 -0.003090 0.005483 -0.003546 0.000000 0.033737 0.000000
# 6 0.000000 0.000000 0.000000 0.001158 0.000000 0.052664
#
#
# Mechanical properties :
#
#
# Convention : Reuss Voigt Hill
#
# Bulk Modulus (GPa) = 45.53133 61.10876 53.32004
# Shear Modulus (GPa) = 24.15351 27.78709 25.97030
#
# Velocity S-wave (km/s) = 3.48870 3.74192 3.61753
# Velocity P-wave (km/s) = 6.25871 7.03294 6.65709
#
# Compressibility (1/GPa) = 0.02196290
#
# Stress axis : x y z
#
# Youngs Moduli (GPa) = 83.52080 38.46234 98.48984
#
# Poissons Ratio (x) = 0.15891 0.34418
# Poissons Ratio (y) = 0.34507 0.53730
# Poissons Ratio (z) = 0.29187 0.20983
#
# Static dielectric constant tensor:
#      x y z
#    x 3.576590 0.000000 0.250650 
#    y 0.000000 3.380230 0.000000 
#    z 0.250650 0.000000 3.720920 
# 
# 
# High freq. dielectric constant tensor:
#      x y z
#    x 1.786820 0.000000 0.006620 
#    y 0.000000 1.739270 0.000000 
#    z 0.006620 0.000000 1.784900 
# 
# From -- ./inp_files/363161.got.cif
#   From: 2010.06.25/outbox.cif.g09.slc.cpg/sg12_182_cif.got.tgz:363161.got - 2010.06.28 00:19:55.
