data_PCOD8097648
_publ_section_title
;
Structure prediction by ZEFSAII (Michael W. Deem and Ramdas Pophale) SiO2 
 PCOD8097648
Probable space group: C 2/M
;
_chemical_formula_sum "Si O2"
_cell_formula_units_Z 48
_cell_length_a 19.929096
_cell_length_b 8.805563
_cell_length_c 21.091631
_cell_angle_alpha 90.000000
_cell_angle_beta 44.985277
_cell_angle_gamma 90.000000
_cell_volume 2616.545358
_symmetry_space_group_name_H-M "C 2/M"
_symmetry_group_IT_number 12
_symmetry_cell_setting 'monoclinic'
loop_
_space_group_symop_operation_xyz
x,y,z
-x,y,-z
-x,-y,-z
x,-y,z
1/2+x,1/2+y,z
1/2-x,1/2+y,-z
1/2-x,1/2-y,-z
1/2+x,1/2-y,z
loop_
_atom_site_type_symbol
_atom_site_label
_atom_site_fract_x
_atom_site_fract_y
_atom_site_fract_z
Si Si1 0.145802 0.821357 0.728563
Si Si2 0.654605 0.673956 0.398026
Si Si3 0.647586 0.321344 0.073162
Si Si4 0.499806 0.821932 0.736878
Si Si5 0.997000 0.825553 0.605648
Si Si6 0.996958 0.178530 0.071802
O O1 0.256054 0.784324 0.659011
O O2 0.097983 0.740383 0.700284
O O3 0.093707 0.762820 0.827518
O O4 0.130574 0.000000 0.729892
O O5 0.689135 0.500000 0.375534
O O6 0.596551 0.708668 0.373003
O O7 0.589920 0.707785 0.501993
O O8 0.655913 0.500000 0.077163
O O9 0.591696 0.255175 0.170409
O O10 0.592768 0.278997 0.045096
O O11 0.750000 0.250000 0.000000
O O12 0.498089 0.787155 0.663742
O O13 0.493896 0.000000 0.752066
O O14 0.996868 0.000000 0.628733
O O15 0.987361 0.000000 0.070064
O O16 0.000000 0.255880 0.000000
#
# Coordination Sequence:
#
# PCOD8097648 Si02
#       6
#     8   8   8   8   8   8
#     4  10  20  34  54  79 108 141 176 220 269 317
#     4   9  19  36  57  79 106 140 174 216 271 327
#     4  10  20  35  55  79 108 140 174 217 268 319
#     4  11  22  36  55  78 106 142 183 224 265 312
#     4   9  19  37  57  78 107 140 175 218 270 323
#     4   8  16  32  52  74 101 133 170 212 257 304
#
# _framework density 18.344799999999999
#
# number of rings (size 3 to 8) (size 9 to 14) (size 15 to 20)
#    0.000    2.500    0.000    4.500    0.000    3.333 
#    0.000    3.333    0.000   17.000    0.000    0.000 
#    0.000    0.000    0.000    0.000    0.000    0.000 
#
# Total GULP energy -297615.208582 kJ/mol
# GULP energy per Si atom -12400.633691 kJ/mol
# Density = 1.830305 g / cm^3
# Si number density = 18.344800 Si / 1000 Ang^3
#
#
#
# Elastic Constant Matrix: (Units=GPa)
#
#
# Indices 1 2 3 4 5 6 
#
# 1 110.5014 51.1938 77.5632 0.0000 -0.0528 0.0000
# 2 51.1938 78.6435 52.2403 0.0001 -3.3086 0.0001
# 3 77.5632 52.2403 97.3043 0.0001 -1.6163 -0.0001
# 4 0.0000 0.0001 0.0001 30.3151 0.0000 -5.8161
# 5 -0.0528 -3.3086 -1.6163 0.0000 41.8441 0.0000
# 6 0.0000 0.0001 -0.0001 -5.8161 0.0000 30.5180
#
#
#
# Elastic Compliance Matrix: (Units=1/GPa)
#
#
# Indices 1 2 3 4 5 6 
#
# 1 0.021367 -0.004076 -0.014858 0.000000 -0.000869 0.000000
# 2 -0.004076 0.020597 -0.007787 0.000000 0.001323 0.000000
# 3 -0.014858 -0.007787 0.026308 0.000000 0.000382 0.000000
# 4 0.000000 0.000000 0.000000 0.034239 0.000000 0.006525
# 5 -0.000869 0.001323 0.000382 0.000000 0.024016 0.000000
# 6 0.000000 0.000000 0.000000 0.006525 0.000000 0.034011
#
#
# Mechanical properties :
#
#
# Convention : Reuss Voigt Hill
#
# Bulk Modulus (GPa) = 67.43309 72.04933 69.74121
# Shear Modulus (GPa) = 22.83899 27.56556 25.20227
#
# Velocity S-wave (km/s) = 3.53226 3.88059 3.71052
# Velocity P-wave (km/s) = 7.31261 7.70967 7.51376
#
# Compressibility (1/GPa) = 0.01482952
#
# Stress axis : x y z
#
# Youngs Moduli (GPa) = 46.80188 48.55009 38.01129
#
# Poissons Ratio (x) = 0.19787 0.56478
# Poissons Ratio (y) = 0.19075 0.29601
# Poissons Ratio (z) = 0.69539 0.37808
#
# Static dielectric constant tensor:
#      x y z
#    x 3.410700 0.000000 0.096360 
#    y 0.000000 3.220880 0.000000 
#    z 0.096360 0.000000 3.481500 
# 
# 
# High freq. dielectric constant tensor:
#      x y z
#    x 1.714460 0.000000 0.000940 
#    y 0.000000 1.701140 0.000000 
#    z 0.000940 0.000000 1.714710 
# 
# From -- ./inp_files/249379.got.cif
#   From: 2010.06.25/outbox.cif.g09.slc.cpg/sg12_125_cif.got.tgz:249379.got - 2010.06.28 00:19:55.
