data_PCOD8097810
_publ_section_title
;
Structure prediction by ZEFSAII (Michael W. Deem and Ramdas Pophale) SiO2 
 PCOD8097810
Probable space group: C 2/M
;
_chemical_formula_sum "Si O2"
_cell_formula_units_Z 56
_cell_length_a 14.881262
_cell_length_b 9.200900
_cell_length_c 24.497490
_cell_angle_alpha 90.000000
_cell_angle_beta 118.325149
_cell_angle_gamma 90.000000
_cell_volume 2952.617280
_symmetry_space_group_name_H-M "C 2/M"
_symmetry_group_IT_number 12
_symmetry_cell_setting 'monoclinic'
loop_
_space_group_symop_operation_xyz
x,y,z
-x,y,-z
-x,-y,-z
x,-y,z
1/2+x,1/2+y,z
1/2-x,1/2+y,-z
1/2-x,1/2-y,-z
1/2+x,1/2-y,z
loop_
_atom_site_type_symbol
_atom_site_label
_atom_site_fract_x
_atom_site_fract_y
_atom_site_fract_z
Si Si1 0.900385 0.168543 0.215977
Si Si2 0.495247 0.168170 0.655823
Si Si3 0.765319 0.671055 0.561456
Si Si4 0.410556 0.830774 0.432154
Si Si5 0.518931 0.672368 0.876831
Si Si6 0.885275 0.159931 0.987758
Si Si7 0.170723 0.669062 0.128408
O O1 0.780073 0.197487 0.187323
O O2 0.959177 0.245762 0.281008
O O3 0.941232 0.228104 0.169859
O O4 0.925626 0.000000 0.227357
O O5 0.376796 0.206960 0.616240
O O6 0.553025 0.213139 0.617361
O O7 0.511233 0.000000 0.672558
O O8 0.749453 0.500000 0.548019
O O9 0.750000 0.750000 0.500000
O O10 0.686659 0.731934 0.583108
O O11 0.500000 0.793253 0.500000
O O12 0.380585 0.000000 0.428076
O O13 0.499815 0.500000 0.873151
O O14 0.606358 0.713894 0.946850
O O15 0.411768 0.749500 0.858410
O O16 0.833657 0.000000 0.969204
O O17 0.824042 0.272721 0.932463
O O18 0.000000 0.148946 0.000000
O O19 0.143214 0.500000 0.117871
#
# Coordination Sequence:
#
# PCOD8097810 Si02
#       7
#     8   8   8   8   8   8   8
#     4  10  23  40  56  78 112 151 190 231 276 333
#     4  10  23  41  59  82 116 151 187 231 278 333
#     4  11  22  38  61  90 118 147 184 229 280 333
#     4  10  20  39  62  86 118 150 181 226 281 333
#     4   9  19  37  57  77 108 150 190 227 276 338
#     4   8  15  30  53  79 107 143 185 228 277 336
#     4  10  20  34  54  82 113 142 181 237 287 326
#
# _framework density 18.966224
#
# number of rings (size 3 to 8) (size 9 to 14) (size 15 to 20)
#    0.000    2.286    1.429    1.714    0.000    8.000 
#    0.000    5.714    0.000    0.000    0.000    0.000 
#    0.000    0.000    0.000    0.000    0.000    0.000 
#
# Total GULP energy -347207.314780 kJ/mol
# GULP energy per Si atom -12400.261242 kJ/mol
# Density = 1.892306 g / cm^3
# Si number density = 18.966224 Si / 1000 Ang^3
#
#
#
# Elastic Constant Matrix: (Units=GPa)
#
#
# Indices 1 2 3 4 5 6 
#
# 1 93.2309 41.9789 36.8615 0.0000 -4.9631 0.0000
# 2 41.9789 68.8291 44.7829 0.0000 5.3955 0.0000
# 3 36.8615 44.7829 113.1293 0.0000 -10.3912 0.0000
# 4 0.0000 0.0000 0.0000 38.3105 0.0000 0.4838
# 5 -4.9631 5.3955 -10.3912 0.0000 26.3435 0.0000
# 6 0.0000 0.0000 0.0000 0.4838 0.0000 30.1215
#
#
#
# Elastic Compliance Matrix: (Units=1/GPa)
#
#
# Indices 1 2 3 4 5 6 
#
# 1 0.015466 -0.009102 -0.001035 0.000000 0.004370 0.000000
# 2 -0.009102 0.026391 -0.008441 0.000000 -0.010450 0.000000
# 3 -0.001035 -0.008441 0.013135 0.000000 0.006715 0.000000
# 4 0.000000 0.000000 0.000000 0.026108 0.000000 -0.000419
# 5 0.004370 -0.010450 0.006715 0.000000 0.043572 0.000000
# 6 0.000000 0.000000 0.000000 -0.000419 0.000000 0.033206
#
#
# Mechanical properties :
#
#
# Convention : Reuss Voigt Hill
#
# Bulk Modulus (GPa) = 56.06603 58.04843 57.05723
# Shear Modulus (GPa) = 24.87807 29.05951 26.96879
#
# Velocity S-wave (km/s) = 3.62567 3.91854 3.77495
# Velocity P-wave (km/s) = 6.86677 7.15164 7.01065
#
# Compressibility (1/GPa) = 0.01783611
#
# Stress axis : x y z
#
# Youngs Moduli (GPa) = 64.65690 37.89109 76.13259
#
# Poissons Ratio (x) = 0.34489 0.07880
# Poissons Ratio (y) = 0.58851 0.64266
# Poissons Ratio (z) = 0.06692 0.31985
#
# Static dielectric constant tensor:
#      x y z
#    x 3.484650 0.000000 -0.138460 
#    y 0.000000 3.479180 0.000000 
#    z -0.138460 0.000000 3.561920 
# 
# 
# High freq. dielectric constant tensor:
#      x y z
#    x 1.739010 0.000000 -0.005130 
#    y 0.000000 1.734690 0.000000 
#    z -0.005130 0.000000 1.738180 
# 
# From -- ./inp_files/339096.got.cif
#   From: 2010.06.25/outbox.cif.g09.slc.cpg/sg12_170_cif.got.tgz:339096.got - 2010.06.28 00:19:55.
