data_PCOD8097062
_publ_section_title
;
Structure prediction by ZEFSAII (Michael W. Deem and Ramdas Pophale) SiO2 
 PCOD8097062
Probable space group: C 2/M
;
_chemical_formula_sum "Si O2"
_cell_formula_units_Z 48
_cell_length_a 18.429544
_cell_length_b 8.943517
_cell_length_c 20.729998
_cell_angle_alpha 90.000000
_cell_angle_beta 132.192504
_cell_angle_gamma 90.000000
_cell_volume 2531.496715
_symmetry_space_group_name_H-M "C 2/M"
_symmetry_group_IT_number 12
_symmetry_cell_setting 'monoclinic'
loop_
_space_group_symop_operation_xyz
x,y,z
-x,y,-z
-x,-y,-z
x,-y,z
1/2+x,1/2+y,z
1/2-x,1/2+y,-z
1/2-x,1/2-y,-z
1/2+x,1/2-y,z
loop_
_atom_site_type_symbol
_atom_site_label
_atom_site_fract_x
_atom_site_fract_y
_atom_site_fract_z
Si Si1 0.518901 0.677789 0.082882
Si Si2 0.255214 0.823742 0.403544
Si Si3 0.112156 0.325226 0.762839
Si Si4 0.148408 0.822439 0.919363
Si Si5 0.268075 0.677909 0.752622
Si Si6 0.894361 0.672913 0.598274
O O1 0.520961 0.500000 0.082976
O O2 0.433609 0.734317 0.079335
O O3 0.623137 0.740570 0.169379
O O4 0.500000 0.741271 0.000000
O O5 0.268690 0.762375 0.338909
O O6 0.154279 0.761324 0.372018
O O7 0.348058 0.773363 0.502341
O O8 0.243939 0.000000 0.395048
O O9 0.126886 0.500000 0.788193
O O10 0.116089 0.230037 0.829805
O O11 0.195573 0.263488 0.764782
O O12 0.009578 0.296126 0.665708
O O13 0.158984 0.000000 0.927072
O O14 0.250000 0.750000 0.000000
O O15 0.267420 0.500000 0.753352
O O16 0.870440 0.500000 0.595112
#
# Coordination Sequence:
#
# PCOD8097062 Si02
#       6
#     8   8   8   8   8   8
#     4   9  17  30  50  74  97 125 164 205 244 291
#     4   9  17  31  51  73  99 135 178 215 250 301
#     4  10  20  34  52  75 104 134 166 209 258 303
#     4  11  22  36  56  79 103 132 166 205 249 299
#     4   9  17  30  50  74  99 132 174 214 250 294
#     4   9  18  31  49  75 104 133 167 213 264 304
#
# _framework density 18.961114999999999
#
# number of rings (size 3 to 8) (size 9 to 14) (size 15 to 20)
#    0.000    2.500    0.000    2.500    0.000    5.333 
#    0.000    4.167    0.000   11.000    0.000    5.833 
#    0.000    0.000    0.000    0.000    0.000    0.000 
#
# Total GULP energy -297596.327393 kJ/mol
# GULP energy per Si atom -12399.846975 kJ/mol
# Density = 1.891796 g / cm^3
# Si number density = 18.961115 Si / 1000 Ang^3
#
#
#
# Elastic Constant Matrix: (Units=GPa)
#
#
# Indices 1 2 3 4 5 6 
#
# 1 179.8250 30.1898 90.5005 0.0000 -6.3700 0.0000
# 2 30.1898 27.4896 26.1237 0.0000 -0.2093 0.0000
# 3 90.5005 26.1237 137.4045 0.0000 -7.5385 0.0000
# 4 0.0000 0.0000 0.0000 23.1090 0.0000 -0.6407
# 5 -6.3700 -0.2093 -7.5385 0.0000 42.2627 0.0000
# 6 0.0000 0.0000 0.0000 -0.6407 0.0000 25.0381
#
#
#
# Elastic Compliance Matrix: (Units=1/GPa)
#
#
# Indices 1 2 3 4 5 6 
#
# 1 0.008879 -0.005143 -0.004846 0.000000 0.000448 0.000000
# 2 -0.005143 0.047449 -0.005719 0.000000 -0.001560 0.000000
# 3 -0.004846 -0.005719 0.011629 0.000000 0.001316 0.000000
# 4 0.000000 0.000000 0.000000 0.043304 0.000000 0.001108
# 5 0.000448 -0.001560 0.001316 0.000000 0.023956 0.000000
# 6 0.000000 0.000000 0.000000 0.001108 0.000000 0.039967
#
#
# Mechanical properties :
#
#
# Convention : Reuss Voigt Hill
#
# Bulk Modulus (GPa) = 27.36664 70.92747 49.14706
# Shear Modulus (GPa) = 22.85400 31.27564 27.06482
#
# Velocity S-wave (km/s) = 3.47552 4.06576 3.78217
# Velocity P-wave (km/s) = 5.52902 7.71548 6.71188
#
# Compressibility (1/GPa) = 0.03654083
#
# Stress axis : x y z
#
# Youngs Moduli (GPa) = 112.62629 21.07537 85.99241
#
# Poissons Ratio (x) = 0.10839 0.41669
# Poissons Ratio (y) = 0.57921 0.49183
# Poissons Ratio (z) = 0.54575 0.12054
#
# Static dielectric constant tensor:
#      x y z
#    x 3.677020 0.000000 -0.067070 
#    y 0.000000 3.118820 0.000000 
#    z -0.067070 0.000000 3.806940 
# 
# 
# High freq. dielectric constant tensor:
#      x y z
#    x 1.743370 0.000000 -0.000950 
#    y 0.000000 1.694490 0.000000 
#    z -0.000950 0.000000 1.755140 
# 
# From -- ./inp_files/313574.got.cif
#   From: 2010.06.25/outbox.cif.g09.slc.cpg/sg12_157_cif.got.tgz:313574.got - 2010.06.28 00:19:55.
