data_PCOD8097318
_publ_section_title
;
Structure prediction by ZEFSAII (Michael W. Deem and Ramdas Pophale) SiO2 
 PCOD8097318
Probable space group: C 2/M
;
_chemical_formula_sum "Si O2"
_cell_formula_units_Z 64
_cell_length_a 32.510479
_cell_length_b 9.095756
_cell_length_c 24.182745
_cell_angle_alpha 90.000000
_cell_angle_beta 150.876172
_cell_angle_gamma 90.000000
_cell_volume 3480.390468
_symmetry_space_group_name_H-M "C 2/M"
_symmetry_group_IT_number 12
_symmetry_cell_setting 'monoclinic'
loop_
_space_group_symop_operation_xyz
x,y,z
-x,y,-z
-x,-y,-z
x,-y,z
1/2+x,1/2+y,z
1/2-x,1/2+y,-z
1/2-x,1/2-y,-z
1/2+x,1/2-y,z
loop_
_atom_site_type_symbol
_atom_site_label
_atom_site_fract_x
_atom_site_fract_y
_atom_site_fract_z
Si Si1 0.210042 0.327377 0.162890
Si Si2 0.661323 0.173329 0.396002
Si Si3 0.871477 0.170095 0.750207
Si Si4 0.261571 0.827444 0.929236
Si Si5 0.568598 0.825735 0.395958
Si Si6 0.378149 0.826742 0.166028
Si Si7 0.520842 0.841476 0.963592
Si Si8 0.282724 0.173377 0.350996
O O1 0.225390 0.500000 0.186582
O O2 0.225052 0.273012 0.117762
O O3 0.273573 0.249256 0.280520
O O4 0.115322 0.281773 0.067117
O O5 0.750000 0.250000 0.500000
O O6 0.617062 0.223179 0.288350
O O7 0.608312 0.232807 0.385673
O O8 0.673493 0.000000 0.413346
O O9 0.793352 0.219644 0.697077
O O10 0.961124 0.201800 0.882785
O O11 0.861577 0.000000 0.721830
O O12 0.178952 0.747156 0.854570
O O13 0.244520 0.000000 0.911328
O O14 0.343133 0.787707 0.063302
O O15 0.472992 0.763998 0.286599
O O16 0.628004 0.774905 0.517004
O O17 0.565791 0.000000 0.391049
O O18 0.375659 0.000000 0.172683
O O19 0.509535 0.000000 0.916971
O O20 0.500000 0.889557 0.000000
O O21 0.281019 0.000000 0.339625
#
# Coordination Sequence:
#
# PCOD8097318 Si02
#       8
#     8   8   8   8   8   8   8   8
#     4  10  21  36  55  81 109 143 185 222 270 330
#     4  11  21  35  55  78 110 147 186 227 270 318
#     4  11  22  35  50  75 111 148 185 226 275 321
#     4   9  19  36  58  83 111 135 167 221 278 328
#     4   9  19  36  57  80 106 142 185 224 266 322
#     4   9  18  36  62  83 103 136 176 218 271 327
#     4  10  20  34  53  77 105 142 189 226 262 321
#     4  10  20  36  54  75 109 147 184 224 267 316
#
# _framework density 18.388741
#
# number of rings (size 3 to 8) (size 9 to 14) (size 15 to 20)
#    0.000    2.125    2.500    0.750    1.750    1.750 
#    0.000    2.500    0.000    3.750    0.000    0.000 
#    0.000    0.000    0.000    0.000    0.000    0.000 
#
# Total GULP energy -396565.942649 kJ/mol
# GULP energy per Si atom -12392.685708 kJ/mol
# Density = 1.834689 g / cm^3
# Si number density = 18.388741 Si / 1000 Ang^3
#
#
#
# Elastic Constant Matrix: (Units=GPa)
#
#
# Indices 1 2 3 4 5 6 
#
# 1 138.0365 34.0553 80.6392 0.0000 -5.2269 0.0000
# 2 34.0553 41.2334 37.1980 0.0000 -1.2805 0.0000
# 3 80.6392 37.1980 151.4262 0.0000 5.9130 0.0000
# 4 0.0000 0.0000 0.0000 31.9983 0.0000 -1.8304
# 5 -5.2269 -1.2805 5.9130 0.0000 29.9496 0.0000
# 6 0.0000 0.0000 0.0000 -1.8304 0.0000 29.4155
#
#
#
# Elastic Compliance Matrix: (Units=1/GPa)
#
#
# Indices 1 2 3 4 5 6 
#
# 1 0.011490 -0.004862 -0.005033 0.000000 0.002791 0.000000
# 2 -0.004862 0.033460 -0.005697 0.000000 0.001707 0.000000
# 3 -0.005033 -0.005697 0.010811 0.000000 -0.003256 0.000000
# 4 0.000000 0.000000 0.000000 0.031363 0.000000 0.001952
# 5 0.002791 0.001707 -0.003256 0.000000 0.034592 0.000000
# 6 0.000000 0.000000 0.000000 0.001952 0.000000 0.034117
#
#
# Mechanical properties :
#
#
# Convention : Reuss Voigt Hill
#
# Bulk Modulus (GPa) = 40.68984 70.49792 55.59388
# Shear Modulus (GPa) = 25.61318 30.19292 27.90305
#
# Velocity S-wave (km/s) = 3.73617 4.05646 3.89961
# Velocity P-wave (km/s) = 6.38652 7.76921 7.11155
#
# Compressibility (1/GPa) = 0.02457616
#
# Stress axis : x y z
#
# Youngs Moduli (GPa) = 87.03022 29.88606 92.49894
#
# Poissons Ratio (x) = 0.14532 0.46559
# Poissons Ratio (y) = 0.42318 0.52695
# Poissons Ratio (z) = 0.43806 0.17026
#
# Static dielectric constant tensor:
#      x y z
#    x 3.088920 0.000000 0.203780 
#    y 0.000000 3.134270 0.000000 
#    z 0.203780 0.000000 3.447000 
# 
# 
# High freq. dielectric constant tensor:
#      x y z
#    x 1.705110 0.000000 -0.005720 
#    y 0.000000 1.698340 0.000000 
#    z -0.005720 0.000000 1.717920 
# 
# From -- ./inp_files/353431.got.cif
#   From: 2010.06.25/outbox.cif.g09.slc.cpg/sg12_177_cif.got.tgz:353431.got - 2010.06.28 00:19:55.
