data_PCOD8097135
_publ_section_title
;
Structure prediction by ZEFSAII (Michael W. Deem and Ramdas Pophale) SiO2 
 PCOD8097135
Probable space group: C 2/M
;
_chemical_formula_sum "Si O2"
_cell_formula_units_Z 64
_cell_length_a 27.771297
_cell_length_b 9.160862
_cell_length_c 18.260219
_cell_angle_alpha 90.000000
_cell_angle_beta 44.957637
_cell_angle_gamma 90.000000
_cell_volume 3282.480422
_symmetry_space_group_name_H-M "C 2/M"
_symmetry_group_IT_number 12
_symmetry_cell_setting 'monoclinic'
loop_
_space_group_symop_operation_xyz
x,y,z
-x,y,-z
-x,-y,-z
x,-y,z
1/2+x,1/2+y,z
1/2-x,1/2+y,-z
1/2-x,1/2-y,-z
1/2+x,1/2-y,z
loop_
_atom_site_type_symbol
_atom_site_label
_atom_site_fract_x
_atom_site_fract_y
_atom_site_fract_z
Si Si1 0.431827 0.671895 0.530979
Si Si2 0.580159 0.170314 0.765791
Si Si3 0.047085 0.170099 0.659196
Si Si4 0.219376 0.339671 0.097727
Si Si5 0.925827 0.665326 0.978513
Si Si6 0.581226 0.839833 0.174268
Si Si7 0.154252 0.171368 0.811104
Si Si8 0.795688 0.328474 0.726774
O O1 0.500000 0.728592 0.500000
O O2 0.425706 0.500000 0.549368
O O3 0.431836 0.713832 0.445432
O O4 0.364560 0.745493 0.634630
O O5 0.588154 0.237112 0.675578
O O6 0.505657 0.201386 0.880042
O O7 0.635898 0.248294 0.756007
O O8 0.596903 0.000000 0.744055
O O9 0.967714 0.208481 0.751331
O O10 0.058214 0.000000 0.662749
O O11 0.252441 0.500000 0.058442
O O12 0.138584 0.346189 0.173355
O O13 0.231236 0.272187 0.165092
O O14 0.250000 0.250000 0.000000
O O15 0.917156 0.500000 0.017474
O O16 0.888416 0.687415 0.940238
O O17 0.893334 0.774149 0.071542
O O18 0.543249 0.000000 0.212342
O O19 0.234188 0.206311 0.737491
O O20 0.141355 0.000000 0.817248
O O21 0.812254 0.500000 0.712459
#
# Coordination Sequence:
#
# PCOD8097135 Si02
#       8
#     8   8   8   8   8   8   8   8
#     4  10  22  40  62  88 114 141 178 224 274 330
#     4  10  21  37  57  81 110 146 188 228 271 328
#     4  10  20  35  57  84 110 135 173 226 276 323
#     4  10  20  34  52  77 110 148 187 223 264 318
#     4   9  18  32  51  78 110 145 186 227 269 325
#     4   9  18  32  51  77 109 144 182 222 267 326
#     4  11  22  35  52  78 112 147 187 233 277 322
#     4  10  23  39  55  81 114 147 187 231 273 326
#
# _framework density 19.497451000000002
#
# number of rings (size 3 to 8) (size 9 to 14) (size 15 to 20)
#    0.000    2.125    0.000    3.750    0.000    7.250 
#    0.000    0.625    0.000    0.000    0.000    0.000 
#    0.000    0.000    0.000    0.000    0.000    0.000 
#
# Total GULP energy -396708.228666 kJ/mol
# GULP energy per Si atom -12397.132146 kJ/mol
# Density = 1.945307 g / cm^3
# Si number density = 19.497451 Si / 1000 Ang^3
#
#
#
# Elastic Constant Matrix: (Units=GPa)
#
#
# Indices 1 2 3 4 5 6 
#
# 1 120.4885 54.8963 49.1591 0.0104 10.2046 -0.0070
# 2 54.8963 89.4053 56.4316 0.0165 10.7901 -0.0136
# 3 49.1591 56.4316 105.1932 0.0063 12.0159 -0.0081
# 4 0.0104 0.0165 0.0063 33.5248 -0.0002 0.0404
# 5 10.2046 10.7901 12.0159 -0.0002 25.6051 -0.0011
# 6 -0.0070 -0.0136 -0.0081 0.0404 -0.0011 29.9725
#
#
#
# Elastic Compliance Matrix: (Units=1/GPa)
#
#
# Indices 1 2 3 4 5 6 
#
# 1 0.011977 -0.005686 -0.002404 0.000000 -0.001249 0.000000
# 2 -0.005686 0.019836 -0.007701 -0.000007 -0.002479 0.000006
# 3 -0.002404 -0.007701 0.015090 0.000002 -0.002878 0.000000
# 4 0.000000 -0.000007 0.000002 0.029829 0.000002 -0.000040
# 5 -0.001249 -0.002479 -0.002878 0.000002 0.041948 -0.000001
# 6 0.000000 0.000006 0.000000 -0.000040 -0.000001 0.033364
#
#
# Mechanical properties :
#
#
# Convention : Reuss Voigt Hill
#
# Bulk Modulus (GPa) = 65.27013 70.67346 67.97180
# Shear Modulus (GPa) = 26.49263 28.12714 27.30989
#
# Velocity S-wave (km/s) = 3.69015 3.80229 3.74664
# Velocity P-wave (km/s) = 7.19063 7.45672 7.32489
#
# Compressibility (1/GPa) = 0.01532094
#
# Stress axis : x y z
#
# Youngs Moduli (GPa) = 83.49539 50.41314 66.26972
#
# Poissons Ratio (x) = 0.28663 0.15933
# Poissons Ratio (y) = 0.47473 0.51034
# Poissons Ratio (z) = 0.20074 0.38823
#
# Static dielectric constant tensor:
#      x y z
#    x 3.917470 -0.000050 0.173890 
#    y -0.000050 3.627620 0.000030 
#    z 0.173890 0.000030 3.300020 
# 
# 
# High freq. dielectric constant tensor:
#      x y z
#    x 1.774120 0.000000 0.015820 
#    y 0.000000 1.759860 0.000000 
#    z 0.015820 0.000000 1.736120 
# 
# From -- ./inp_files/295486.got.cif
#   From: 2010.06.25/outbox.cif.g09.slc.cpg/sg12_148_cif.got.tgz:295486.got - 2010.06.28 00:19:55.
