data_PCOD8097251
_publ_section_title
;
Structure prediction by ZEFSAII (Michael W. Deem and Ramdas Pophale) SiO2 
 PCOD8097251
Probable space group: C 2/M
;
_chemical_formula_sum "Si O2"
_cell_formula_units_Z 56
_cell_length_a 18.313933
_cell_length_b 9.109170
_cell_length_c 29.065536
_cell_angle_alpha 90.000000
_cell_angle_beta 38.334468
_cell_angle_gamma 90.000000
_cell_volume 3007.504289
_symmetry_space_group_name_H-M "C 2/M"
_symmetry_group_IT_number 12
_symmetry_cell_setting 'monoclinic'
loop_
_space_group_symop_operation_xyz
x,y,z
-x,y,-z
-x,-y,-z
x,-y,z
1/2+x,1/2+y,z
1/2-x,1/2+y,-z
1/2-x,1/2-y,-z
1/2+x,1/2-y,z
loop_
_atom_site_type_symbol
_atom_site_label
_atom_site_fract_x
_atom_site_fract_y
_atom_site_fract_z
Si Si1 0.131913 0.831590 0.427651
Si Si2 0.827654 0.673448 0.999921
Si Si3 0.245027 0.825939 0.139531
Si Si4 0.402055 0.826872 0.146358
Si Si5 0.316290 0.328519 0.279602
Si Si6 0.980177 0.828182 0.283734
Si Si7 0.703198 0.168844 0.567498
O O1 0.192121 0.734312 0.358530
O O2 0.198162 0.812332 0.442769
O O3 0.000000 0.773477 0.500000
O O4 0.132761 0.000000 0.410520
O O5 0.808622 0.500000 0.005764
O O6 0.788086 0.735072 0.069140
O O7 0.750000 0.750000 0.000000
O O8 0.962612 0.717689 0.925939
O O9 0.332730 0.769481 0.135714
O O10 0.113369 0.769903 0.214815
O O11 0.247038 0.000000 0.136588
O O12 0.348335 0.747860 0.216569
O O13 0.386361 0.000000 0.160492
O O14 0.302179 0.500000 0.278115
O O15 0.418255 0.292664 0.265897
O O16 0.918354 0.741536 0.355706
O O17 0.973284 0.000000 0.298679
O O18 0.750000 0.250000 0.500000
O O19 0.678435 0.000000 0.567944
#
# Coordination Sequence:
#
# PCOD8097251 Si02
#       7
#     8   8   8   8   8   8   8
#     4   9  19  36  56  76 100 135 178 217 252 300
#     4  10  20  35  56  80 105 136 174 213 255 304
#     4   9  18  34  55  77 102 135 175 214 251 298
#     4  10  20  34  54  78 104 136 174 214 253 300
#     4  10  20  34  53  77 106 137 169 211 262 311
#     4   9  18  34  54  73  98 135 174 210 252 304
#     4  10  20  34  53  76 103 133 168 212 257 304
#
# _framework density 18.620089
#
# number of rings (size 3 to 8) (size 9 to 14) (size 15 to 20)
#    0.000    2.429    0.000    2.143    0.000    6.000 
#    0.000    7.857    0.000    1.714    0.000    0.000 
#    0.000    0.000    0.000    0.000    0.000    0.000 
#
# Total GULP energy -347281.791485 kJ/mol
# GULP energy per Si atom -12402.921124 kJ/mol
# Density = 1.857771 g / cm^3
# Si number density = 18.620089 Si / 1000 Ang^3
#
#
#
# Elastic Constant Matrix: (Units=GPa)
#
#
# Indices 1 2 3 4 5 6 
#
# 1 122.2255 47.8141 99.6886 0.0000 -4.6881 -0.0016
# 2 47.8141 58.1300 65.1252 -0.0001 5.1083 -0.0026
# 3 99.6886 65.1252 192.1406 0.0000 2.3413 -0.0003
# 4 0.0000 -0.0001 0.0000 26.4035 0.0001 3.0607
# 5 -4.6881 5.1083 2.3413 0.0001 40.1549 0.0001
# 6 -0.0016 -0.0026 -0.0003 3.0607 0.0001 27.7787
#
#
#
# Elastic Compliance Matrix: (Units=1/GPa)
#
#
# Indices 1 2 3 4 5 6 
#
# 1 0.015724 -0.006476 -0.006000 0.000000 0.003010 0.000000
# 2 -0.006476 0.030764 -0.007015 0.000000 -0.004261 0.000002
# 3 -0.006000 -0.007015 0.010700 0.000000 -0.000432 -0.000001
# 4 0.000000 0.000000 0.000000 0.038364 0.000000 -0.004227
# 5 0.003010 -0.004261 -0.000432 0.000000 0.025822 0.000000
# 6 0.000000 0.000002 -0.000001 -0.004227 0.000000 0.036465
#
#
# Mechanical properties :
#
#
# Convention : Reuss Voigt Hill
#
# Bulk Modulus (GPa) = 54.92810 88.63910 71.78360
# Shear Modulus (GPa) = 24.64400 29.52529 27.08465
#
# Velocity S-wave (km/s) = 3.64196 3.98637 3.81805
# Velocity P-wave (km/s) = 6.87376 8.30033 7.62050
#
# Compressibility (1/GPa) = 0.01820562
#
# Stress axis : x y z
#
# Youngs Moduli (GPa) = 63.59737 32.50593 93.45540
#
# Poissons Ratio (x) = 0.21052 0.56069
# Poissons Ratio (y) = 0.41188 0.65560
# Poissons Ratio (z) = 0.38156 0.22803
#
# Static dielectric constant tensor:
#      x y z
#    x 3.501100 0.000000 -0.089030 
#    y 0.000000 3.285650 0.000000 
#    z -0.089030 0.000000 3.606240 
# 
# 
# High freq. dielectric constant tensor:
#      x y z
#    x 1.723890 0.000000 -0.001630 
#    y 0.000000 1.705200 0.000000 
#    z -0.001630 0.000000 1.739480 
# 
# From -- ./inp_files/363029.got.cif
#   From: 2010.06.25/outbox.cif.g09.slc.cpg/sg12_182_cif.got.tgz:363029.got - 2010.06.28 00:19:55.
