data_PCOD8097143
_publ_section_title
;
Structure prediction by ZEFSAII (Michael W. Deem and Ramdas Pophale) SiO2 
 PCOD8097143
Probable space group: C 2/M
;
_chemical_formula_sum "Si O2"
_cell_formula_units_Z 56
_cell_length_a 9.608091
_cell_length_b 26.356685
_cell_length_c 15.559781
_cell_angle_alpha 90.000000
_cell_angle_beta 53.435905
_cell_angle_gamma 90.000000
_cell_volume 3164.828489
_symmetry_space_group_name_H-M "C 2/M"
_symmetry_group_IT_number 12
_symmetry_cell_setting 'monoclinic'
loop_
_space_group_symop_operation_xyz
x,y,z
-x,y,-z
-x,-y,-z
x,-y,z
1/2+x,1/2+y,z
1/2-x,1/2+y,-z
1/2-x,1/2-y,-z
1/2+x,1/2-y,z
loop_
_atom_site_type_symbol
_atom_site_label
_atom_site_fract_x
_atom_site_fract_y
_atom_site_fract_z
Si Si1 0.001444 0.663027 0.756108
Si Si2 0.316545 0.894370 0.603682
Si Si3 0.280760 0.700128 0.259922
Si Si4 0.553062 0.235248 0.075870
Si Si5 0.802311 0.220042 0.567777
Si Si6 0.527441 0.055244 0.296190
Si Si7 0.651035 0.443542 0.503793
O O1 0.177257 0.671599 0.634268
O O2 0.943343 0.603627 0.777197
O O3 0.856517 0.697536 0.765629
O O4 0.004327 0.684180 0.851694
O O5 0.500000 0.872000 0.500000
O O6 0.205311 0.852355 0.694041
O O7 0.369374 0.938436 0.651553
O O8 0.186151 0.912283 0.577758
O O9 0.462528 0.715292 0.150709
O O10 0.215959 0.742567 0.347187
O O11 0.500000 0.222628 0.000000
O O12 0.750000 0.250000 0.000000
O O13 0.750000 0.250000 0.500000
O O14 0.000000 0.200251 0.500000
O O15 0.323880 0.053174 0.385303
O O16 0.585570 0.000000 0.235911
O O17 0.500000 0.418534 0.500000
O O18 0.590519 0.500000 0.553519
#
# Coordination Sequence:
#
# PCOD8097143 Si02
#       7
#     8   8   8   8   8   8   8
#     4  10  21  35  55  82 104 142 186 214 271 324
#     4   9  17  30  52  75 105 141 183 212 254 314
#     4  10  20  34  52  78 105 140 177 218 264 319
#     4  11  22  40  60  77 105 136 173 227 277 327
#     4  11  21  32  49  75 116 150 172 211 260 318
#     4   9  18  33  52  74 103 140 185 222 251 308
#     4   9  17  29  44  68 106 146 177 215 260 299
#
# _framework density 17.694481
#
# number of rings (size 3 to 8) (size 9 to 14) (size 15 to 20)
#    0.000    2.143    2.857    0.857    4.000    2.286 
#    2.571    0.000    0.000    0.429    0.000    9.000 
#    0.000    0.000    0.000    0.000    0.000    0.000 
#
# Total GULP energy -346946.531562 kJ/mol
# GULP energy per Si atom -12390.947556 kJ/mol
# Density = 1.765421 g / cm^3
# Si number density = 17.694481 Si / 1000 Ang^3
#
#
#
# Elastic Constant Matrix: (Units=GPa)
#
#
# Indices 1 2 3 4 5 6 
#
# 1 129.4275 43.2151 46.7322 0.0000 4.7733 0.0000
# 2 43.2151 95.8011 46.0370 0.0000 8.2684 0.0000
# 3 46.7322 46.0370 92.8281 0.0000 3.9162 0.0000
# 4 0.0000 0.0000 0.0000 15.6914 0.0000 1.6937
# 5 4.7733 8.2684 3.9162 0.0000 32.1584 0.0000
# 6 0.0000 0.0000 0.0000 1.6937 0.0000 20.1446
#
#
#
# Elastic Compliance Matrix: (Units=1/GPa)
#
#
# Indices 1 2 3 4 5 6 
#
# 1 0.009964 -0.002707 -0.003659 0.000000 -0.000337 0.000000
# 2 -0.002707 0.014679 -0.005805 0.000000 -0.002665 0.000000
# 3 -0.003659 -0.005805 0.015487 0.000000 0.000150 0.000000
# 4 0.000000 0.000000 0.000000 0.064313 0.000000 -0.005407
# 5 -0.000337 -0.002665 0.000150 0.000000 0.031813 0.000000
# 6 0.000000 0.000000 0.000000 -0.005407 0.000000 0.050096
#
#
# Mechanical properties :
#
#
# Convention : Reuss Voigt Hill
#
# Bulk Modulus (GPa) = 63.33896 65.55838 64.44867
# Shear Modulus (GPa) = 23.15285 25.73706 24.44495
#
# Velocity S-wave (km/s) = 3.62121 3.81796 3.72089
# Velocity P-wave (km/s) = 7.30465 7.52106 7.41364
#
# Compressibility (1/GPa) = 0.01578807
#
# Stress axis : x y z
#
# Youngs Moduli (GPa) = 100.36220 68.12535 64.56944
#
# Poissons Ratio (x) = 0.18442 0.23628
# Poissons Ratio (y) = 0.27168 0.37480
# Poissons Ratio (z) = 0.36726 0.39544
#
# Static dielectric constant tensor:
#      x y z
#    x 3.444620 0.000000 0.035450 
#    y 0.000000 4.959280 0.000000 
#    z 0.035450 0.000000 2.969020 
# 
# 
# High freq. dielectric constant tensor:
#      x y z
#    x 1.696880 0.000000 0.008170 
#    y 0.000000 1.680230 0.000000 
#    z 0.008170 0.000000 1.648880 
# 
# From -- ./inp_files/185124.got.cif
#   From: 2010.06.25/outbox.cif.g09.slc.cpg/sg12_93_cif.got.tgz:185124.got - 2010.06.28 00:19:55.
