data_PCOD8097449
_publ_section_title
;
Structure prediction by ZEFSAII (Michael W. Deem and Ramdas Pophale) SiO2 
 PCOD8097449
Probable space group: C 2/M
;
_chemical_formula_sum "Si O2"
_cell_formula_units_Z 56
_cell_length_a 20.479168
_cell_length_b 9.576677
_cell_length_c 15.646938
_cell_angle_alpha 90.000000
_cell_angle_beta 69.414170
_cell_angle_gamma 90.000000
_cell_volume 2872.766571
_symmetry_space_group_name_H-M "C 2/M"
_symmetry_group_IT_number 12
_symmetry_cell_setting 'monoclinic'
loop_
_space_group_symop_operation_xyz
x,y,z
-x,y,-z
-x,-y,-z
x,-y,z
1/2+x,1/2+y,z
1/2-x,1/2+y,-z
1/2-x,1/2-y,-z
1/2+x,1/2-y,z
loop_
_atom_site_type_symbol
_atom_site_label
_atom_site_fract_x
_atom_site_fract_y
_atom_site_fract_z
Si Si1 0.252177 0.654725 0.619798
Si Si2 0.215962 0.839730 0.089761
Si Si3 0.436718 0.664421 0.791974
Si Si4 0.020644 0.837329 0.587877
Si Si5 0.829075 0.658666 0.182051
Si Si6 0.538249 0.658770 0.892872
Si Si7 0.850157 0.655620 0.488403
O O1 0.279832 0.500000 0.634015
O O2 0.198768 0.712941 0.714266
O O3 0.211649 0.642282 0.550244
O O4 0.318921 0.757135 0.582772
O O5 0.140451 0.776536 0.151854
O O6 0.265125 0.827253 0.147963
O O7 0.209118 0.000000 0.061763
O O8 0.250000 0.750000 0.000000
O O9 0.433057 0.500000 0.803992
O O10 0.460454 0.703149 0.684156
O O11 0.491224 0.722888 0.837665
O O12 0.086098 0.740983 0.581779
O O13 0.000000 0.802023 0.500000
O O14 0.041262 0.000000 0.587670
O O15 0.856321 0.500000 0.175207
O O16 0.892167 0.754611 0.125295
O O17 0.558541 0.500000 0.861319
O O18 0.500000 0.668063 0.000000
O O19 0.873938 0.500000 0.506468
#
# Coordination Sequence:
#
# PCOD8097449 Si02
#       7
#     8   8   8   8   8   8   8
#     4   9  19  35  55  79 107 142 182 222 272 332
#     4  10  21  38  59  82 112 145 184 230 278 331
#     4   9  19  36  57  82 110 145 189 231 273 330
#     4  10  21  35  56  79 104 147 194 228 267 325
#     4  10  21  35  57  84 109 141 182 231 278 325
#     4  10  20  35  57  82 110 145 182 227 283 340
#     4  10  20  34  53  79 112 143 176 226 279 321
#
# _framework density 19.493406
#
# number of rings (size 3 to 8) (size 9 to 14) (size 15 to 20)
#    0.000    2.286    0.000    2.143    2.000    3.429 
#    0.000    1.429    0.000    0.000    0.000    0.000 
#    0.000    0.000    0.000    0.000    0.000    0.000 
#
# Total GULP energy -347143.256191 kJ/mol
# GULP energy per Si atom -12397.973435 kJ/mol
# Density = 1.944904 g / cm^3
# Si number density = 19.493406 Si / 1000 Ang^3
#
#
#
# Elastic Constant Matrix: (Units=GPa)
#
#
# Indices 1 2 3 4 5 6 
#
# 1 81.5354 40.7011 32.0760 0.0000 -19.2139 0.0000
# 2 40.7011 86.4999 48.7810 0.0000 -22.5044 0.0000
# 3 32.0760 48.7810 96.8473 0.0000 -11.1738 0.0000
# 4 0.0000 0.0000 0.0000 20.6682 0.0000 -6.2129
# 5 -19.2139 -22.5044 -11.1738 0.0000 37.4149 0.0000
# 6 0.0000 0.0000 0.0000 -6.2129 0.0000 27.3123
#
#
#
# Elastic Compliance Matrix: (Units=1/GPa)
#
#
# Indices 1 2 3 4 5 6 
#
# 1 0.017032 -0.005451 -0.002345 0.000000 0.004767 0.000000
# 2 -0.005451 0.020248 -0.007572 0.000000 0.007118 0.000000
# 3 -0.002345 -0.007572 0.014760 0.000000 -0.001351 0.000000
# 4 0.000000 0.000000 0.000000 0.051935 0.000000 0.011814
# 5 0.004767 0.007118 -0.001351 0.000000 0.033053 0.000000
# 6 0.000000 0.000000 0.000000 0.011814 0.000000 0.039301
#
#
# Mechanical properties :
#
#
# Convention : Reuss Voigt Hill
#
# Bulk Modulus (GPa) = 46.94131 56.44432 51.69281
# Shear Modulus (GPa) = 23.34633 26.63403 24.99018
#
# Velocity S-wave (km/s) = 3.46447 3.70037 3.58436
# Velocity P-wave (km/s) = 6.33532 6.87572 6.61104
#
# Compressibility (1/GPa) = 0.02130320
#
# Stress axis : x y z
#
# Youngs Moduli (GPa) = 58.71383 49.38863 67.74924
#
# Poissons Ratio (x) = 0.26923 0.15889
# Poissons Ratio (y) = 0.32006 0.51299
# Poissons Ratio (z) = 0.13770 0.37396
#
# Static dielectric constant tensor:
#      x y z
#    x 3.449950 0.000000 -0.216450 
#    y 0.000000 3.680600 0.000000 
#    z -0.216450 0.000000 3.393690 
# 
# 
# High freq. dielectric constant tensor:
#      x y z
#    x 1.755900 0.000000 -0.005860 
#    y 0.000000 1.739610 0.000000 
#    z -0.005860 0.000000 1.769170 
# 
# From -- ./inp_files/238280.got.cif
#   From: 2010.06.25/outbox.cif.g09.slc.cpg/sg12_120_cif.got.tgz:238280.got - 2010.06.28 00:19:55.
