data_PCOD8097822
_publ_section_title
;
Structure prediction by ZEFSAII (Michael W. Deem and Ramdas Pophale) SiO2 
 PCOD8097822
Probable space group: C 2/M
;
_chemical_formula_sum "Si O2"
_cell_formula_units_Z 56
_cell_length_a 14.312525
_cell_length_b 9.119458
_cell_length_c 25.908953
_cell_angle_alpha 90.000000
_cell_angle_beta 64.391032
_cell_angle_gamma 90.000000
_cell_volume 3049.498813
_symmetry_space_group_name_H-M "C 2/M"
_symmetry_group_IT_number 12
_symmetry_cell_setting 'monoclinic'
loop_
_space_group_symop_operation_xyz
x,y,z
-x,y,-z
-x,-y,-z
x,-y,z
1/2+x,1/2+y,z
1/2-x,1/2+y,-z
1/2-x,1/2-y,-z
1/2+x,1/2-y,z
loop_
_atom_site_type_symbol
_atom_site_label
_atom_site_fract_x
_atom_site_fract_y
_atom_site_fract_z
Si Si1 0.779191 0.829256 0.940813
Si Si2 0.720806 0.664697 0.557808
Si Si3 0.929636 0.666301 0.564367
Si Si4 0.500239 0.326838 0.645243
Si Si5 0.073008 0.670384 0.235313
Si Si6 0.496754 0.329954 0.155949
Si Si7 0.702706 0.669860 0.861548
O O1 0.900569 0.800465 0.901994
O O2 0.708262 0.764360 0.912205
O O3 0.753996 0.000000 0.951630
O O4 0.750000 0.750000 0.000000
O O5 0.699249 0.500000 0.544495
O O6 0.750000 0.750000 0.500000
O O7 0.810099 0.672842 0.578438
O O8 0.618473 0.726899 0.609814
O O9 0.962689 0.500000 0.571701
O O10 0.000000 0.721361 0.500000
O O11 0.939011 0.777076 0.609234
O O12 0.489697 0.500000 0.655398
O O13 0.452200 0.247940 0.705523
O O14 0.046412 0.500000 0.245672
O O15 0.001974 0.737622 0.207191
O O16 0.194479 0.697470 0.196414
O O17 0.486814 0.500000 0.173631
O O18 0.396903 0.277880 0.147325
O O19 0.691896 0.500000 0.879883
#
# Coordination Sequence:
#
# PCOD8097822 Si02
#       7
#     8   8   8   8   8   8   8
#     4  10  20  34  54  82 116 150 184 225 269 318
#     4  10  21  36  55  78 104 136 171 211 261 316
#     4  10  20  36  57  78 103 136 173 215 262 315
#     4  11  23  37  55  80 110 141 175 218 268 326
#     4  10  21  37  57  80 107 139 179 227 273 319
#     4   9  19  37  59  80 107 145 185 226 272 318
#     4   9  19  37  59  80 106 144 186 228 272 318
#
# _framework density 18.363674
#
# number of rings (size 3 to 8) (size 9 to 14) (size 15 to 20)
#    0.000    2.143    1.429    1.286    0.000    4.857 
#    0.000    8.571    0.000    0.000    0.000    0.000 
#    0.000    0.000    0.000    0.000    0.000    0.000 
#
# Total GULP energy -347280.877201 kJ/mol
# GULP energy per Si atom -12402.888471 kJ/mol
# Density = 1.832188 g / cm^3
# Si number density = 18.363674 Si / 1000 Ang^3
#
#
#
# Elastic Constant Matrix: (Units=GPa)
#
#
# Indices 1 2 3 4 5 6 
#
# 1 127.6771 49.8996 53.5583 0.0000 13.5279 0.0000
# 2 49.8996 90.9614 71.2689 0.0000 13.8831 0.0000
# 3 53.5583 71.2689 137.1555 0.0000 20.1658 0.0000
# 4 0.0000 0.0000 0.0000 37.6858 0.0000 6.3571
# 5 13.5279 13.8831 20.1658 0.0000 21.7015 0.0000
# 6 0.0000 0.0000 0.0000 6.3571 0.0000 31.2660
#
#
#
# Elastic Compliance Matrix: (Units=1/GPa)
#
#
# Indices 1 2 3 4 5 6 
#
# 1 0.010336 -0.004080 -0.001567 0.000000 -0.002377 0.000000
# 2 -0.004080 0.020369 -0.008628 0.000000 -0.002470 0.000000
# 3 -0.001567 -0.008628 0.013240 0.000000 -0.005807 0.000000
# 4 0.000000 0.000000 0.000000 0.027478 0.000000 -0.005587
# 5 -0.002377 -0.002470 -0.005807 0.000000 0.054538 0.000000
# 6 0.000000 0.000000 0.000000 -0.005587 0.000000 0.033120
#
#
# Mechanical properties :
#
#
# Convention : Reuss Voigt Hill
#
# Bulk Modulus (GPa) = 64.95201 78.36083 71.65642
# Shear Modulus (GPa) = 25.93916 30.20181 28.07049
#
# Velocity S-wave (km/s) = 3.76244 4.05983 3.91396
# Velocity P-wave (km/s) = 7.37029 8.04615 7.71562
#
# Compressibility (1/GPa) = 0.01539598
#
# Stress axis : x y z
#
# Youngs Moduli (GPa) = 96.75148 49.09535 75.53089
#
# Poissons Ratio (x) = 0.20029 0.11833
# Poissons Ratio (y) = 0.39472 0.65165
# Poissons Ratio (z) = 0.15157 0.42358
#
# Static dielectric constant tensor:
#      x y z
#    x 3.501380 0.000000 -0.084790 
#    y 0.000000 3.476270 0.000000 
#    z -0.084790 0.000000 3.315930 
# 
# 
# High freq. dielectric constant tensor:
#      x y z
#    x 1.717900 0.000000 -0.000840 
#    y 0.000000 1.716420 0.000000 
#    z -0.000840 0.000000 1.711620 
# 
# From -- ./inp_files/338174.got.cif
#   From: 2010.06.25/outbox.cif.g09.slc.cpg/sg12_170_cif.got.tgz:338174.got - 2010.06.28 00:19:55.
