data_PCOD8097539
_publ_section_title
;
Structure prediction by ZEFSAII (Michael W. Deem and Ramdas Pophale) SiO2 
 PCOD8097539
Probable space group: C 2/M
;
_chemical_formula_sum "Si O2"
_cell_formula_units_Z 60
_cell_length_a 9.327875
_cell_length_b 10.151545
_cell_length_c 33.871608
_cell_angle_alpha 90.000000
_cell_angle_beta 106.019825
_cell_angle_gamma 90.000000
_cell_volume 3082.827296
_symmetry_space_group_name_H-M "C 2/M"
_symmetry_group_IT_number 12
_symmetry_cell_setting 'monoclinic'
loop_
_space_group_symop_operation_xyz
x,y,z
-x,y,-z
-x,-y,-z
x,-y,z
1/2+x,1/2+y,z
1/2-x,1/2+y,-z
1/2-x,1/2-y,-z
1/2+x,1/2-y,z
loop_
_atom_site_type_symbol
_atom_site_label
_atom_site_fract_x
_atom_site_fract_y
_atom_site_fract_z
Si Si1 0.703941 0.352985 0.688093
Si Si2 0.500000 0.218700 0.500000
Si Si3 0.312592 0.354997 0.553447
Si Si4 0.737430 0.149251 0.912594
Si Si5 0.359460 0.649886 0.643052
Si Si6 0.442812 0.149446 0.179242
Si Si7 0.277854 0.350759 0.219565
Si Si8 0.516654 0.150332 0.046498
O O1 0.766722 0.500000 0.683369
O O2 0.530607 0.349857 0.666614
O O3 0.778764 0.242495 0.667660
O O4 0.737905 0.316512 0.735726
O O5 0.423844 0.300809 0.528990
O O6 0.362125 0.136634 0.471902
O O7 0.373664 0.500000 0.564746
O O8 0.331779 0.285116 0.597421
O O9 0.632580 0.184540 0.867878
O O10 0.644120 0.164231 0.945646
O O11 0.871667 0.251873 0.922937
O O12 0.800010 0.000000 0.913764
O O13 0.295205 0.500000 0.640714
O O14 0.392467 0.249372 0.209191
O O15 0.618964 0.165891 0.186267
O O16 0.404743 0.000000 0.189700
O O17 0.338534 0.500000 0.218694
O O18 0.576176 0.000000 0.054712
O O19 0.500000 0.193233 0.000000
#
# Coordination Sequence:
#
# PCOD8097539 Si02
#       8
#     8   4   8   8   8   8   8   8
#     4  10  21  37  56  81 109 140 179 220 265 319
#     4  10  20  34  54  76 102 138 176 214 266 318
#     4  10  20  35  53  76 105 137 175 219 264 314
#     4  10  21  36  54  79 110 141 178 223 267 316
#     4  10  21  36  55  80 110 141 178 223 268 317
#     4  10  21  36  54  79 109 141 178 220 266 317
#     4  10  21  37  57  80 109 142 178 221 266 316
#     4  10  21  37  57  81 109 143 182 223 268 318
#
# _framework density 19.462654000000001
#
# number of rings (size 3 to 8) (size 9 to 14) (size 15 to 20)
#    0.000    2.000    0.000    3.200    0.000    4.000 
#    0.000    3.333    0.000    0.000    0.000    0.000 
#    0.000    0.000    0.000    0.000    0.000    0.000 
#
# Total GULP energy -371939.431815 kJ/mol
# GULP energy per Si atom -12397.981060 kJ/mol
# Density = 1.941836 g / cm^3
# Si number density = 19.462654 Si / 1000 Ang^3
#
#
#
# Elastic Constant Matrix: (Units=GPa)
#
#
# Indices 1 2 3 4 5 6 
#
# 1 60.5910 33.7011 12.6772 0.0000 -8.0636 0.0000
# 2 33.7011 85.1382 31.0389 0.0000 -13.3731 0.0000
# 3 12.6772 31.0389 84.3430 0.0000 -2.1401 0.0000
# 4 0.0000 0.0000 0.0000 29.5330 0.0000 4.3938
# 5 -8.0636 -13.3731 -2.1401 0.0000 34.1549 0.0000
# 6 0.0000 0.0000 0.0000 4.3938 0.0000 18.4716
#
#
#
# Elastic Compliance Matrix: (Units=1/GPa)
#
#
# Indices 1 2 3 4 5 6 
#
# 1 0.021274 -0.008063 -0.000183 0.000000 0.001854 0.000000
# 2 -0.008063 0.017534 -0.005123 0.000000 0.004641 0.000000
# 3 -0.000183 -0.005123 0.013739 0.000000 -0.001188 0.000000
# 4 0.000000 0.000000 0.000000 0.035103 0.000000 -0.008350
# 5 0.001854 0.004641 -0.001188 0.000000 0.031459 0.000000
# 6 0.000000 0.000000 0.000000 -0.008350 0.000000 0.056123
#
#
# Mechanical properties :
#
#
# Convention : Reuss Voigt Hill
#
# Bulk Modulus (GPa) = 38.74721 42.76743 40.75732
# Shear Modulus (GPa) = 23.74478 26.60892 25.17685
#
# Velocity S-wave (km/s) = 3.49666 3.70155 3.60056
# Velocity P-wave (km/s) = 6.02112 6.34747 6.18645
#
# Compressibility (1/GPa) = 0.02580831
#
# Stress axis : x y z
#
# Youngs Moduli (GPa) = 47.00599 57.03241 72.78532
#
# Poissons Ratio (x) = 0.45985 0.01334
# Poissons Ratio (y) = 0.37901 0.37288
# Poissons Ratio (z) = 0.00862 0.29217
#
# Static dielectric constant tensor:
#      x y z
#    x 3.366670 0.000000 0.043380 
#    y 0.000000 3.662850 0.000000 
#    z 0.043380 0.000000 3.733480 
# 
# 
# High freq. dielectric constant tensor:
#      x y z
#    x 1.748320 0.000000 0.002900 
#    y 0.000000 1.757590 0.000000 
#    z 0.002900 0.000000 1.777300 
# 
# From -- ./inp_files/372181.got.cif
#   From: 2010.06.25/outbox.cif.g09.slc.cpg/sg12_187_cif.got.tgz:372181.got - 2010.06.28 00:19:55.
