data_PCOD8097660
_publ_section_title
;
Structure prediction by ZEFSAII (Michael W. Deem and Ramdas Pophale) SiO2 
 PCOD8097660
Probable space group: C 2/M
;
_chemical_formula_sum "Si O2"
_cell_formula_units_Z 56
_cell_length_a 21.010512
_cell_length_b 8.993901
_cell_length_c 28.193740
_cell_angle_alpha 90.000000
_cell_angle_beta 32.536850
_cell_angle_gamma 90.000000
_cell_volume 2865.445045
_symmetry_space_group_name_H-M "C 2/M"
_symmetry_group_IT_number 12
_symmetry_cell_setting 'monoclinic'
loop_
_space_group_symop_operation_xyz
x,y,z
-x,y,-z
-x,-y,-z
x,-y,z
1/2+x,1/2+y,z
1/2-x,1/2+y,-z
1/2-x,1/2-y,-z
1/2+x,1/2-y,z
loop_
_atom_site_type_symbol
_atom_site_label
_atom_site_fract_x
_atom_site_fract_y
_atom_site_fract_z
Si Si1 0.352905 0.838115 0.490935
Si Si2 0.986828 0.676215 0.779565
Si Si3 0.487856 0.823642 0.954357
Si Si4 0.365676 0.324753 0.577308
Si Si5 0.639545 0.175660 0.773145
Si Si6 0.092733 0.162874 0.626570
Si Si7 0.750776 0.823658 0.948429
O O1 0.318763 0.755087 0.560393
O O2 0.232276 0.864864 0.538567
O O3 0.440916 0.738550 0.402953
O O4 0.411489 0.000000 0.464295
O O5 0.966649 0.500000 0.793168
O O6 0.863908 0.761998 0.849960
O O7 0.053337 0.732740 0.785299
O O8 0.061857 0.722177 0.687102
O O9 0.593101 0.762902 0.853281
O O10 0.496235 0.000000 0.952309
O O11 0.500000 0.755868 0.000000
O O12 0.363361 0.774439 0.010102
O O13 0.500000 0.270431 0.500000
O O14 0.359615 0.500000 0.572831
O O15 0.276504 0.277768 0.676364
O O16 0.629398 0.000000 0.780112
O O17 0.029518 0.000000 0.670765
O O18 0.755653 0.000000 0.951324
O O19 0.750000 0.750000 0.000000
#
# Coordination Sequence:
#
# PCOD8097660 Si02
#       7
#     8   8   8   8   8   8   8
#     4  10  20  34  54  79 109 145 183 232 294 343
#     4  11  20  34  57  83 115 150 187 236 293 348
#     4   9  18  35  58  83 113 150 194 241 292 347
#     4  10  20  35  55  80 111 150 198 245 284 338
#     4   9  17  32  55  80 107 146 191 235 289 344
#     4  10  20  34  54  81 110 144 187 231 282 343
#     4  11  21  35  57  89 118 147 190 243 295 349
#
# _framework density 19.543213000000002
#
# number of rings (size 3 to 8) (size 9 to 14) (size 15 to 20)
#    0.000    2.000    2.857    1.714    0.000    1.429 
#    2.571    0.000    0.000    1.714    0.000    0.000 
#    0.000    0.000    0.000    0.000    0.000    0.000 
#
# Total GULP energy -346998.656132 kJ/mol
# GULP energy per Si atom -12392.809148 kJ/mol
# Density = 1.949873 g / cm^3
# Si number density = 19.543213 Si / 1000 Ang^3
#
#
#
# Elastic Constant Matrix: (Units=GPa)
#
#
# Indices 1 2 3 4 5 6 
#
# 1 100.9033 30.9799 71.2827 0.0005 17.4653 -0.0005
# 2 30.9799 55.2636 32.2806 0.0024 0.3866 -0.0025
# 3 71.2827 32.2806 135.2467 0.0000 11.2574 -0.0009
# 4 0.0005 0.0024 0.0000 26.3296 -0.0001 2.4487
# 5 17.4653 0.3866 11.2574 -0.0001 38.3120 0.0010
# 6 -0.0005 -0.0025 -0.0009 2.4487 0.0010 18.6370
#
#
#
# Elastic Compliance Matrix: (Units=1/GPa)
#
#
# Indices 1 2 3 4 5 6 
#
# 1 0.018105 -0.005604 -0.007711 0.000000 -0.005931 0.000000
# 2 -0.005604 0.022824 -0.002755 -0.000002 0.003134 0.000003
# 3 -0.007711 -0.002755 0.012117 0.000000 -0.000017 0.000000
# 4 0.000000 -0.000002 0.000000 0.038450 0.000000 -0.005052
# 5 -0.005931 0.003134 -0.000017 0.000000 0.028779 -0.000001
# 6 0.000000 0.000003 0.000000 -0.005052 -0.000001 0.054320
#
#
# Mechanical properties :
#
#
# Convention : Reuss Voigt Hill
#
# Bulk Modulus (GPa) = 47.83251 62.27776 55.05514
# Shear Modulus (GPa) = 23.39687 27.11374 25.25531
#
# Velocity S-wave (km/s) = 3.46379 3.72879 3.59873
# Velocity P-wave (km/s) = 6.36597 7.10453 6.74536
#
# Compressibility (1/GPa) = 0.02090628
#
# Stress axis : x y z
#
# Youngs Moduli (GPa) = 55.23281 43.81413 82.52749
#
# Poissons Ratio (x) = 0.24552 0.63639
# Poissons Ratio (y) = 0.30950 0.22736
# Poissons Ratio (z) = 0.42592 0.12071
#
# Static dielectric constant tensor:
#      x y z
#    x 3.526000 -0.000010 0.115950 
#    y -0.000010 3.558370 0.000000 
#    z 0.115950 0.000000 3.918620 
# 
# 
# High freq. dielectric constant tensor:
#      x y z
#    x 1.741240 0.000000 0.016870 
#    y 0.000000 1.741270 0.000000 
#    z 0.016870 0.000000 1.765900 
# 
# From -- ./inp_files/380661.got.cif
#   From: 2010.06.25/outbox.cif.g09.slc.cpg/sg12_191_cif.got.tgz:380661.got - 2010.06.28 00:19:55.
