data_PCOD8097216
_publ_section_title
;
Structure prediction by ZEFSAII (Michael W. Deem and Ramdas Pophale) SiO2 
 PCOD8097216
Probable space group: C 2/M
;
_chemical_formula_sum "Si O2"
_cell_formula_units_Z 64
_cell_length_a 29.779222
_cell_length_b 8.691075
_cell_length_c 14.879634
_cell_angle_alpha 90.000000
_cell_angle_beta 101.137785
_cell_angle_gamma 90.000000
_cell_volume 3778.516799
_symmetry_space_group_name_H-M "C 2/M"
_symmetry_group_IT_number 12
_symmetry_cell_setting 'monoclinic'
loop_
_space_group_symop_operation_xyz
x,y,z
-x,y,-z
-x,-y,-z
x,-y,z
1/2+x,1/2+y,z
1/2-x,1/2+y,-z
1/2-x,1/2-y,-z
1/2+x,1/2-y,z
loop_
_atom_site_type_symbol
_atom_site_label
_atom_site_fract_x
_atom_site_fract_y
_atom_site_fract_z
Si Si1 0.194079 0.321490 0.569322
Si Si2 0.126050 0.820906 0.255008
Si Si3 0.788237 0.321318 0.629314
Si Si4 0.438963 0.820837 0.623286
Si Si5 0.067091 0.321587 0.088286
Si Si6 0.033841 0.678315 0.883562
Si Si7 0.466058 0.323331 0.299970
Si Si8 0.398879 0.322728 0.433384
O O1 0.185742 0.500000 0.584704
O O2 0.193557 0.283338 0.463247
O O3 0.241963 0.271646 0.631769
O O4 0.153797 0.224584 0.599727
O O5 0.173438 0.730407 0.285556
O O6 0.089570 0.775504 0.316162
O O7 0.106440 0.779914 0.149213
O O8 0.136483 0.000000 0.265756
O O9 0.777347 0.500000 0.636295
O O10 0.492311 0.783757 0.653106
O O11 0.422938 0.782150 0.517114
O O12 0.430459 0.000000 0.639301
O O13 0.080088 0.500000 0.102002
O O14 0.019546 0.289715 0.120414
O O15 0.062927 0.273188 0.982423
O O16 0.041842 0.500000 0.864799
O O17 0.050506 0.780198 0.806535
O O18 0.482111 0.500000 0.309776
O O19 0.423427 0.293082 0.348387
O O20 0.402576 0.500000 0.464544
#
# Coordination Sequence:
#
# PCOD8097216 Si02
#       8
#     8   8   8   8   8   8   8   8
#     4  10  20  34  53  76 101 133 172 212 253 301
#     4  12  22  32  51  78 106 137 170 209 256 307
#     4  10  20  34  53  75 103 135 167 209 258 304
#     4  12  23  35  50  71 101 139 180 216 250 297
#     4   9  18  33  52  75 102 133 169 210 257 306
#     4   9  18  33  53  74 100 134 171 212 255 302
#     4  11  23  36  51  74 103 137 176 216 256 299
#     4  11  23  37  52  72 103 139 175 215 256 299
#
# _framework density 16.937863
#
# number of rings (size 3 to 8) (size 9 to 14) (size 15 to 20)
#    0.000    1.500    2.500    4.875    0.000    5.000 
#    0.000    1.250    0.000    0.000    0.000    0.875 
#    0.000    0.000    0.000    0.000    0.000    0.000 
#
# Total GULP energy -396959.835370 kJ/mol
# GULP energy per Si atom -12404.994855 kJ/mol
# Density = 1.689931 g / cm^3
# Si number density = 16.937863 Si / 1000 Ang^3
#
#
#
# Elastic Constant Matrix: (Units=GPa)
#
#
# Indices 1 2 3 4 5 6 
#
# 1 80.4859 22.0189 40.9537 0.0000 8.2248 0.0000
# 2 22.0189 51.1279 21.9285 0.0000 0.9508 0.0000
# 3 40.9537 21.9285 88.0451 0.0000 8.0950 0.0000
# 4 0.0000 0.0000 0.0000 27.9866 0.0000 2.7457
# 5 8.2248 0.9508 8.0950 0.0000 23.2779 0.0000
# 6 0.0000 0.0000 0.0000 2.7457 0.0000 26.9978
#
#
#
# Elastic Compliance Matrix: (Units=1/GPa)
#
#
# Indices 1 2 3 4 5 6 
#
# 1 0.017427 -0.004596 -0.006624 0.000000 -0.003666 0.000000
# 2 -0.004596 0.023134 -0.003808 0.000000 0.002003 0.000000
# 3 -0.006624 -0.003808 0.015659 0.000000 -0.002949 0.000000
# 4 0.000000 0.000000 0.000000 0.036091 0.000000 -0.003671
# 5 -0.003666 0.002003 -0.002949 0.000000 0.045198 0.000000
# 6 0.000000 0.000000 0.000000 -0.003671 0.000000 0.037413
#
#
# Mechanical properties :
#
#
# Convention : Reuss Voigt Hill
#
# Bulk Modulus (GPa) = 38.22186 43.27345 40.74765
# Shear Modulus (GPa) = 23.39712 24.63631 24.01672
#
# Velocity S-wave (km/s) = 3.72068 3.81794 3.76963
# Velocity P-wave (km/s) = 6.40881 6.71114 6.56172
#
# Compressibility (1/GPa) = 0.02616304
#
# Stress axis : x y z
#
# Youngs Moduli (GPa) = 57.38155 43.22613 63.86200
#
# Poissons Ratio (x) = 0.19866 0.42305
# Poissons Ratio (y) = 0.26372 0.24320
# Poissons Ratio (z) = 0.38012 0.16461
#
# Static dielectric constant tensor:
#      x y z
#    x 3.043910 0.000000 0.104280 
#    y 0.000000 3.228450 0.000000 
#    z 0.104280 0.000000 3.142000 
# 
# 
# High freq. dielectric constant tensor:
#      x y z
#    x 1.634050 0.000000 0.014070 
#    y 0.000000 1.665190 0.000000 
#    z 0.014070 0.000000 1.638620 
# 
# From -- ./inp_files/244044.got.cif
#   From: 2010.06.25/outbox.cif.g09.slc.cpg/sg12_123_cif.got.tgz:244044.got - 2010.06.28 00:19:55.
