data_PCOD8097486
_publ_section_title
;
Structure prediction by ZEFSAII (Michael W. Deem and Ramdas Pophale) SiO2 
 PCOD8097486
Probable space group: C 2/M
;
_chemical_formula_sum "Si O2"
_cell_formula_units_Z 56
_cell_length_a 29.047931
_cell_length_b 8.760294
_cell_length_c 21.617426
_cell_angle_alpha 90.000000
_cell_angle_beta 149.042994
_cell_angle_gamma 90.000000
_cell_volume 2829.660754
_symmetry_space_group_name_H-M "C 2/M"
_symmetry_group_IT_number 12
_symmetry_cell_setting 'monoclinic'
loop_
_space_group_symop_operation_xyz
x,y,z
-x,y,-z
-x,-y,-z
x,-y,z
1/2+x,1/2+y,z
1/2-x,1/2+y,-z
1/2-x,1/2-y,-z
1/2+x,1/2-y,z
loop_
_atom_site_type_symbol
_atom_site_label
_atom_site_fract_x
_atom_site_fract_y
_atom_site_fract_z
Si Si1 0.741833 0.319268 0.209888
Si Si2 0.259204 0.323345 0.105012
Si Si3 0.108982 0.176189 0.853866
Si Si4 0.781691 0.179745 0.384180
Si Si5 0.418424 0.176405 0.630172
Si Si6 0.538602 0.680283 0.980710
Si Si7 0.112315 0.676843 0.267221
O O1 0.751125 0.500000 0.216065
O O2 0.790434 0.240715 0.207538
O O3 0.787710 0.263240 0.325540
O O4 0.639478 0.261600 0.089977
O O5 0.232204 0.500000 0.077825
O O6 0.342291 0.298247 0.155250
O O7 0.173257 0.228079 0.983540
O O8 0.021746 0.279654 0.753402
O O9 0.083496 0.000000 0.835420
O O10 0.871039 0.220084 0.524393
O O11 0.695787 0.240701 0.323730
O O12 0.776913 0.000000 0.368238
O O13 0.369952 0.206518 0.640010
O O14 0.410404 0.000000 0.601889
O O15 0.535359 0.500000 0.978168
O O16 0.500000 0.748991 0.000000
O O17 0.478923 0.737391 0.855249
O O18 0.097882 0.500000 0.236569
#
# Coordination Sequence:
#
# PCOD8097486 Si02
#       7
#     8   8   8   8   8   8   8
#     4  11  22  37  58  85 117 154 193 234 286 341
#     4  10  21  38  62  90 119 149 185 233 286 341
#     4  10  21  39  62  89 118 149 187 233 286 340
#     4  11  23  39  57  80 114 155 196 237 283 338
#     4  11  23  39  59  84 114 150 194 240 286 336
#     4  10  20  34  53  80 114 149 185 229 279 331
#     4  10  22  37  56  83 113 151 193 236 284 335
#
# _framework density 19.790357
#
# number of rings (size 3 to 8) (size 9 to 14) (size 15 to 20)
#    0.000    1.571    1.429    3.429    0.000    7.143 
#    0.000    0.714    0.000    4.286    0.000    0.000 
#    0.000    0.000    0.000    0.000    0.000    0.000 
#
# Total GULP energy -347368.000018 kJ/mol
# GULP energy per Si atom -12406.000001 kJ/mol
# Density = 1.974531 g / cm^3
# Si number density = 19.790357 Si / 1000 Ang^3
#
#
#
# Elastic Constant Matrix: (Units=GPa)
#
#
# Indices 1 2 3 4 5 6 
#
# 1 89.6206 31.0995 26.5500 0.0000 -22.6237 0.0000
# 2 31.0995 51.7127 9.0278 0.0000 -7.4394 0.0000
# 3 26.5500 9.0278 66.3238 0.0000 -14.3734 0.0000
# 4 0.0000 0.0000 0.0000 36.9503 0.0000 -4.5487
# 5 -22.6237 -7.4394 -14.3734 0.0000 29.4057 0.0000
# 6 0.0000 0.0000 0.0000 -4.5487 0.0000 29.6674
#
#
#
# Elastic Compliance Matrix: (Units=1/GPa)
#
#
# Indices 1 2 3 4 5 6 
#
# 1 0.017691 -0.008594 -0.003840 0.000000 0.009560 0.000000
# 2 -0.008594 0.024442 0.000023 0.000000 -0.000417 0.000000
# 3 -0.003840 0.000023 0.017865 0.000000 0.005783 0.000000
# 4 0.000000 0.000000 0.000000 0.027584 0.000000 0.004229
# 5 0.009560 -0.000417 0.005783 0.000000 0.044083 0.000000
# 6 0.000000 0.000000 0.000000 0.004229 0.000000 0.034356
#
#
# Mechanical properties :
#
#
# Convention : Reuss Voigt Hill
#
# Bulk Modulus (GPa) = 28.42877 37.89016 33.15946
# Shear Modulus (GPa) = 24.68296 28.60331 26.64314
#
# Velocity S-wave (km/s) = 3.53543 3.80586 3.67313
# Velocity P-wave (km/s) = 5.57332 6.20484 5.89754
#
# Compressibility (1/GPa) = 0.03517563
#
# Stress axis : x y z
#
# Youngs Moduli (GPa) = 56.52523 40.91357 55.97478
#
# Poissons Ratio (x) = 0.35160 0.21497
# Poissons Ratio (y) = 0.48576 -0.00128
# Poissons Ratio (z) = 0.21708 -0.00093
#
# Static dielectric constant tensor:
#      x y z
#    x 3.740610 0.000000 -0.090960 
#    y 0.000000 3.541730 0.000000 
#    z -0.090960 0.000000 3.419540 
# 
# 
# High freq. dielectric constant tensor:
#      x y z
#    x 1.776910 0.000000 -0.011760 
#    y 0.000000 1.776260 0.000000 
#    z -0.011760 0.000000 1.761600 
# 
# From -- ./inp_files/329488.got.cif
#   From: 2010.06.25/outbox.cif.g09.slc.cpg/sg12_165_cif.got.tgz:329488.got - 2010.06.28 00:19:55.
