data_PCOD8097627
_publ_section_title
;
Structure prediction by ZEFSAII (Michael W. Deem and Ramdas Pophale) SiO2 
 PCOD8097627
Probable space group: C 2/M
;
_chemical_formula_sum "Si O2"
_cell_formula_units_Z 48
_cell_length_a 33.087591
_cell_length_b 8.586278
_cell_length_c 19.403732
_cell_angle_alpha 90.000000
_cell_angle_beta 151.901176
_cell_angle_gamma 90.000000
_cell_volume 2596.393598
_symmetry_space_group_name_H-M "C 2/M"
_symmetry_group_IT_number 12
_symmetry_cell_setting 'monoclinic'
loop_
_space_group_symop_operation_xyz
x,y,z
-x,y,-z
-x,-y,-z
x,-y,z
1/2+x,1/2+y,z
1/2-x,1/2+y,-z
1/2-x,1/2-y,-z
1/2+x,1/2-y,z
loop_
_atom_site_type_symbol
_atom_site_label
_atom_site_fract_x
_atom_site_fract_y
_atom_site_fract_z
Si Si1 0.686416 0.179266 0.459338
Si Si2 0.002664 0.321660 0.818418
Si Si3 0.321612 0.818113 0.058708
Si Si4 0.493684 0.321508 0.321109
Si Si5 0.670566 0.317587 0.081601
Si Si6 0.815913 0.817206 0.393405
O O1 0.750000 0.250000 0.500000
O O2 0.589317 0.195614 0.282284
O O3 0.695705 0.269053 0.544925
O O4 0.709593 0.000000 0.507290
O O5 0.015229 0.500000 0.812162
O O6 0.002946 0.203358 0.755394
O O7 0.085931 0.267778 0.987720
O O8 0.415573 0.781988 0.233829
O O9 0.312809 0.740179 0.970838
O O10 0.307902 0.000000 0.030301
O O11 0.250000 0.750000 0.000000
O O12 0.472636 0.500000 0.306074
O O13 0.588375 0.276053 0.491325
O O14 0.655086 0.500000 0.058419
O O15 0.751655 0.278764 0.249991
O O16 0.797664 0.000000 0.359637
#
# Coordination Sequence:
#
# PCOD8097627 Si02
#       6
#     8   8   8   8   8   8
#     4  10  20  34  54  79 106 137 173 214 258 307
#     4   9  17  31  51  74 101 135 173 209 251 305
#     4  11  21  35  55  78 106 137 172 213 256 304
#     4   9  17  31  52  76 101 133 172 209 251 305
#     4  11  21  34  54  79 106 136 173 214 256 305
#     4  10  20  35  55  78 106 138 172 213 258 306
#
# _framework density 18.487181
#
# number of rings (size 3 to 8) (size 9 to 14) (size 15 to 20)
#    0.000    2.000    0.000    7.000    0.000    4.000 
#    0.000    1.667    0.000   10.000    0.000    0.000 
#    0.000    0.000    0.000    0.000    0.000    0.000 
#
# Total GULP energy -297427.565661 kJ/mol
# GULP energy per Si atom -12392.815236 kJ/mol
# Density = 1.844510 g / cm^3
# Si number density = 18.487181 Si / 1000 Ang^3
#
#
#
# Elastic Constant Matrix: (Units=GPa)
#
#
# Indices 1 2 3 4 5 6 
#
# 1 88.3622 39.0893 50.8127 0.0000 27.5233 0.0000
# 2 39.0893 98.8409 46.3216 0.0000 13.2983 0.0000
# 3 50.8127 46.3216 133.2066 0.0000 22.4066 0.0000
# 4 0.0000 0.0000 0.0000 33.6352 0.0000 3.1657
# 5 27.5233 13.2983 22.4066 0.0000 29.2730 0.0000
# 6 0.0000 0.0000 0.0000 3.1657 0.0000 28.8454
#
#
#
# Elastic Compliance Matrix: (Units=1/GPa)
#
#
# Indices 1 2 3 4 5 6 
#
# 1 0.019539 -0.004151 -0.003715 0.000000 -0.013642 0.000000
# 2 -0.004151 0.013145 -0.003030 0.000000 0.000250 0.000000
# 3 -0.003715 -0.003030 0.010512 0.000000 -0.003177 0.000000
# 4 0.000000 0.000000 0.000000 0.030041 0.000000 -0.003297
# 5 -0.013642 0.000250 -0.003177 0.000000 0.049306 0.000000
# 6 0.000000 0.000000 0.000000 -0.003297 0.000000 0.035029
#
#
# Mechanical properties :
#
#
# Convention : Reuss Voigt Hill
#
# Bulk Modulus (GPa) = 46.71868 65.87298 56.29583
# Shear Modulus (GPa) = 26.80987 30.62979 28.71983
#
# Velocity S-wave (km/s) = 3.81226 4.07481 3.94572
# Velocity P-wave (km/s) = 6.68607 7.60578 7.16070
#
# Compressibility (1/GPa) = 0.02140471
#
# Stress axis : x y z
#
# Youngs Moduli (GPa) = 51.18037 76.07436 95.12632
#
# Poissons Ratio (x) = 0.31576 0.35341
# Poissons Ratio (y) = 0.21243 0.28822
# Poissons Ratio (z) = 0.19015 0.23050
#
# Static dielectric constant tensor:
#      x y z
#    x 3.122530 0.000000 0.445220 
#    y 0.000000 3.496090 0.000000 
#    z 0.445220 0.000000 3.882090 
# 
# 
# High freq. dielectric constant tensor:
#      x y z
#    x 1.679260 0.000000 0.034670 
#    y 0.000000 1.737530 0.000000 
#    z 0.034670 0.000000 1.726770 
# 
# From -- ./inp_files/280527.got.cif
#   From: 2010.06.25/outbox.cif.g09.slc.cpg/sg12_141_cif.got.tgz:280527.got - 2010.06.28 00:19:55.
