data_PCOD8097157
_publ_section_title
;
Structure prediction by ZEFSAII (Michael W. Deem and Ramdas Pophale) SiO2 
 PCOD8097157
Probable space group: C 2/M
;
_chemical_formula_sum "Si O2"
_cell_formula_units_Z 56
_cell_length_a 28.309860
_cell_length_b 8.788310
_cell_length_c 12.072700
_cell_angle_alpha 90.000000
_cell_angle_beta 84.176533
_cell_angle_gamma 90.000000
_cell_volume 2988.136299
_symmetry_space_group_name_H-M "C 2/M"
_symmetry_group_IT_number 12
_symmetry_cell_setting 'monoclinic'
loop_
_space_group_symop_operation_xyz
x,y,z
-x,y,-z
-x,-y,-z
x,-y,z
1/2+x,1/2+y,z
1/2-x,1/2+y,-z
1/2-x,1/2-y,-z
1/2+x,1/2-y,z
loop_
_atom_site_type_symbol
_atom_site_label
_atom_site_fract_x
_atom_site_fract_y
_atom_site_fract_z
Si Si1 0.761359 0.320812 0.615353
Si Si2 0.923000 0.179146 0.834625
Si Si3 0.895536 0.822856 0.080934
Si Si4 0.526886 0.322686 0.755280
Si Si5 0.860913 0.178474 0.641001
Si Si6 0.325667 0.823571 0.258269
Si Si7 0.096227 0.676665 0.576604
O O1 0.760248 0.500000 0.601922
O O2 0.750000 0.250000 0.500000
O O3 0.812589 0.271270 0.645415
O O4 0.722948 0.268266 0.714731
O O5 0.884710 0.223011 0.751523
O O6 0.974612 0.244999 0.790146
O O7 0.929295 0.000000 0.845786
O O8 0.905510 0.244481 0.956532
O O9 0.942381 0.793852 0.142215
O O10 0.850792 0.732494 0.140496
O O11 0.882020 0.000000 0.081570
O O12 0.526096 0.500000 0.723384
O O13 0.548094 0.230705 0.646752
O O14 0.897031 0.226281 0.535805
O O15 0.850291 0.000000 0.634697
O O16 0.359054 0.790173 0.355205
O O17 0.313428 0.000000 0.249931
O O18 0.092256 0.500000 0.547510
#
# Coordination Sequence:
#
# PCOD8097157 Si02
#       7
#     8   8   8   8   8   8   8
#     4  12  23  37  59  85 110 139 179 223 274 329
#     4   9  19  35  55  81 111 147 187 230 273 324
#     4   9  17  33  58  84 110 142 186 232 274 319
#     4   9  17  32  57  83 108 142 187 232 275 321
#     4  11  22  36  55  79 112 148 184 223 274 331
#     4  10  20  35  56  83 112 141 179 227 275 322
#     4  10  20  34  52  78 112 144 181 228 277 328
#
# _framework density 18.740777999999999
#
# number of rings (size 3 to 8) (size 9 to 14) (size 15 to 20)
#    0.000    2.000    1.429    3.000    0.000    3.429 
#    0.000    7.143    0.000    3.429    0.000    0.000 
#    0.000    0.000    0.000    0.000    0.000    0.000 
#
# Total GULP energy -347310.497808 kJ/mol
# GULP energy per Si atom -12403.946350 kJ/mol
# Density = 1.869812 g / cm^3
# Si number density = 18.740778 Si / 1000 Ang^3
#
#
#
# Elastic Constant Matrix: (Units=GPa)
#
#
# Indices 1 2 3 4 5 6 
#
# 1 111.3979 48.4090 66.6409 0.0000 -18.0901 0.0000
# 2 48.4090 87.7299 48.3395 0.0000 -6.7813 0.0000
# 3 66.6409 48.3395 109.3034 0.0000 -16.5966 0.0000
# 4 0.0000 0.0000 0.0000 22.7827 0.0000 -5.8121
# 5 -18.0901 -6.7813 -16.5966 0.0000 27.2352 0.0000
# 6 0.0000 0.0000 0.0000 -5.8121 0.0000 26.5372
#
#
#
# Elastic Compliance Matrix: (Units=1/GPa)
#
#
# Indices 1 2 3 4 5 6 
#
# 1 0.015952 -0.004597 -0.006896 0.000000 0.005249 0.000000
# 2 -0.004597 0.016399 -0.004731 0.000000 -0.001853 0.000000
# 3 -0.006896 -0.004731 0.016057 0.000000 0.004026 0.000000
# 4 0.000000 0.000000 0.000000 0.046491 0.000000 0.010182
# 5 0.005249 -0.001853 0.004026 0.000000 0.042196 0.000000
# 6 0.000000 0.000000 0.000000 0.010182 0.000000 0.039913
#
#
# Mechanical properties :
#
#
# Convention : Reuss Voigt Hill
#
# Bulk Modulus (GPa) = 62.65641 70.57888 66.61764
# Shear Modulus (GPa) = 23.28019 24.98045 24.13032
#
# Velocity S-wave (km/s) = 3.52834 3.65491 3.59218
# Velocity P-wave (km/s) = 7.07847 7.45343 7.26836
#
# Compressibility (1/GPa) = 0.01596006
#
# Stress axis : x y z
#
# Youngs Moduli (GPa) = 62.68761 60.98006 62.27891
#
# Poissons Ratio (x) = 0.28032 0.42946
# Poissons Ratio (y) = 0.28817 0.29464
# Poissons Ratio (z) = 0.43228 0.28850
#
# Static dielectric constant tensor:
#      x y z
#    x 3.444310 0.000000 -0.161590 
#    y 0.000000 3.339290 0.000000 
#    z -0.161590 0.000000 3.554360 
# 
# 
# High freq. dielectric constant tensor:
#      x y z
#    x 1.722380 0.000000 -0.016900 
#    y 0.000000 1.718660 0.000000 
#    z -0.016900 0.000000 1.729700 
# 
# From -- ./inp_files/186425.got.cif
#   From: 2010.06.25/outbox.cif.g09.slc.cpg/sg12_94_cif.got.tgz:186425.got - 2010.06.28 00:19:55.
