data_PCOD8097421
_publ_section_title
;
Structure prediction by ZEFSAII (Michael W. Deem and Ramdas Pophale) SiO2 
 PCOD8097421
Probable space group: C 2/M
;
_chemical_formula_sum "Si O2"
_cell_formula_units_Z 56
_cell_length_a 27.396720
_cell_length_b 12.517799
_cell_length_c 15.729507
_cell_angle_alpha 90.000000
_cell_angle_beta 143.933212
_cell_angle_gamma 90.000000
_cell_volume 3175.822883
_symmetry_space_group_name_H-M "C 2/M"
_symmetry_group_IT_number 12
_symmetry_cell_setting 'monoclinic'
loop_
_space_group_symop_operation_xyz
x,y,z
-x,y,-z
-x,-y,-z
x,-y,z
1/2+x,1/2+y,z
1/2-x,1/2+y,-z
1/2-x,1/2-y,-z
1/2+x,1/2-y,z
loop_
_atom_site_type_symbol
_atom_site_label
_atom_site_fract_x
_atom_site_fract_y
_atom_site_fract_z
Si Si1 0.383569 0.126449 0.901314
Si Si2 0.938449 0.626477 0.795459
Si Si3 0.400660 0.500000 0.460782
Si Si4 0.029870 0.619655 0.632230
Si Si5 0.870814 0.379062 0.523735
Si Si6 0.411839 0.500000 0.275301
Si Si7 0.793861 0.797740 0.305988
Si Si8 0.832004 0.220126 0.163719
O O1 0.388153 0.161014 0.808708
O O2 0.303368 0.176954 0.831829
O O3 0.376807 0.000000 0.899884
O O4 0.466437 0.169026 0.065736
O O5 0.944435 0.500000 0.798198
O O6 0.889387 0.668881 0.643792
O O7 0.411097 0.500000 0.375207
O O8 0.494253 0.500000 0.630300
O O9 0.349697 0.395879 0.419700
O O10 0.064811 0.500000 0.667534
O O11 0.100929 0.693174 0.770618
O O12 0.000000 0.667852 0.500000
O O13 0.956684 0.620234 0.595633
O O14 0.834505 0.500000 0.476759
O O15 0.805945 0.303783 0.384237
O O16 0.362710 0.604433 0.174969
O O17 0.820038 0.770783 0.247565
O O18 0.750000 0.250000 0.000000
#
# Coordination Sequence:
#
# PCOD8097421 Si02
#       8
#     8   8   4   8   8   4   8   8
#     4   9  17  33  54  80 107 130 163 219 270 307
#     4   8  17  33  54  78 105 132 167 213 269 313
#     4   9  18  34  54  73  98 132 173 211 258 308
#     4  10  20  36  55  73 104 142 176 211 253 309
#     4  10  20  34  53  79 102 139 176 209 253 312
#     4   9  20  36  52  68 101 139 170 217 257 301
#     4  11  20  33  54  77 106 134 173 216 256 307
#     4  11  24  35  50  77 106 138 178 217 260 304
#
# _framework density 17.633224999999999
#
# number of rings (size 3 to 8) (size 9 to 14) (size 15 to 20)
#    0.000    2.286    2.143    1.714    5.000    0.571 
#    0.000    0.000    0.000    0.000    0.000    1.000 
#    0.000    0.000    0.000    0.000    0.000    0.000 
#
# Total GULP energy -347145.383044 kJ/mol
# GULP energy per Si atom -12398.049394 kJ/mol
# Density = 1.759309 g / cm^3
# Si number density = 17.633225 Si / 1000 Ang^3
#
#
#
# Elastic Constant Matrix: (Units=GPa)
#
#
# Indices 1 2 3 4 5 6 
#
# 1 34.7970 4.7226 -0.9173 0.0000 5.9109 0.0000
# 2 4.7226 77.1003 36.3457 0.0000 7.1642 0.0000
# 3 -0.9173 36.3457 72.3649 0.0000 3.4543 0.0000
# 4 0.0000 0.0000 0.0000 16.5567 0.0000 -4.0158
# 5 5.9109 7.1642 3.4543 0.0000 34.0891 0.0000
# 6 0.0000 0.0000 0.0000 -4.0158 0.0000 4.5851
#
#
#
# Elastic Compliance Matrix: (Units=1/GPa)
#
#
# Indices 1 2 3 4 5 6 
#
# 1 0.029912 -0.002183 0.001709 0.000000 -0.004901 0.000000
# 2 -0.002183 0.017408 -0.008656 0.000000 -0.002403 0.000000
# 3 0.001709 -0.008656 0.018203 0.000000 -0.000322 0.000000
# 4 0.000000 0.000000 0.000000 0.076690 0.000000 0.067168
# 5 -0.004901 -0.002403 -0.000322 0.000000 0.030722 0.000000
# 6 0.000000 0.000000 0.000000 0.067168 0.000000 0.276929
#
#
# Mechanical properties :
#
#
# Convention : Reuss Voigt Hill
#
# Bulk Modulus (GPa) = 21.15760 29.39604 25.27682
# Shear Modulus (GPa) = 10.33320 20.65358 15.49339
#
# Velocity S-wave (km/s) = 2.42339 3.42612 2.96741
# Velocity P-wave (km/s) = 4.45591 5.68842 5.10946
#
# Compressibility (1/GPa) = 0.04726433
#
# Stress axis : x y z
#
# Youngs Moduli (GPa) = 33.43154 57.44621 54.93473
#
# Poissons Ratio (x) = 0.12538 -0.09390
# Poissons Ratio (y) = 0.07297 0.47552
# Poissons Ratio (z) = -0.05715 0.49726
#
# Static dielectric constant tensor:
#      x y z
#    x 3.425960 0.000000 0.340070 
#    y 0.000000 3.303410 0.000000 
#    z 0.340070 0.000000 4.524630 
# 
# 
# High freq. dielectric constant tensor:
#      x y z
#    x 1.673300 0.000000 0.006260 
#    y 0.000000 1.664140 0.000000 
#    z 0.006260 0.000000 1.674600 
# 
# From -- ./inp_files/245725.got.cif
#   From: 2010.06.25/outbox.cif.g09.slc.cpg/sg12_123_cif.got.tgz:245725.got - 2010.06.28 00:19:55.
