data_PCOD8097025
_publ_section_title
;
Structure prediction by ZEFSAII (Michael W. Deem and Ramdas Pophale) SiO2 
 PCOD8097025
Probable space group: C 2/M
;
_chemical_formula_sum "Si O2"
_cell_formula_units_Z 56
_cell_length_a 28.405728
_cell_length_b 8.749605
_cell_length_c 16.658116
_cell_angle_alpha 90.000000
_cell_angle_beta 132.566758
_cell_angle_gamma 90.000000
_cell_volume 3049.207055
_symmetry_space_group_name_H-M "C 2/M"
_symmetry_group_IT_number 12
_symmetry_cell_setting 'monoclinic'
loop_
_space_group_symop_operation_xyz
x,y,z
-x,y,-z
-x,-y,-z
x,-y,z
1/2+x,1/2+y,z
1/2-x,1/2+y,-z
1/2-x,1/2-y,-z
1/2+x,1/2-y,z
loop_
_atom_site_type_symbol
_atom_site_label
_atom_site_fract_x
_atom_site_fract_y
_atom_site_fract_z
Si Si1 0.523120 0.817760 0.331101
Si Si2 0.368637 0.823794 0.433933
Si Si3 0.773377 0.178920 0.108412
Si Si4 0.496657 0.181032 0.869730
Si Si5 0.596447 0.823393 0.702541
Si Si6 0.233630 0.181458 0.223348
Si Si7 0.102975 0.680753 0.113021
O O1 0.589938 0.751866 0.444974
O O2 0.510697 0.748433 0.228015
O O3 0.467128 0.766793 0.326520
O O4 0.526105 0.000000 0.330572
O O5 0.410221 0.802654 0.400833
O O6 0.297252 0.752892 0.342304
O O7 0.358973 0.000000 0.442240
O O8 0.847767 0.215190 0.201977
O O9 0.731914 0.252024 0.131974
O O10 0.760968 0.000000 0.094511
O O11 0.750000 0.250000 0.000000
O O12 0.436302 0.231994 0.853581
O O13 0.498029 0.000000 0.867008
O O14 0.562894 0.234556 0.988006
O O15 0.612565 0.000000 0.741806
O O16 0.170508 0.234290 0.196829
O O17 0.236882 0.000000 0.221463
O O18 0.114439 0.500000 0.124607
#
# Coordination Sequence:
#
# PCOD8097025 Si02
#       7
#     8   8   8   8   8   8   8
#     4   9  15  26  49  75  98 130 173 214 250 292
#     4   8  15  28  45  70 102 131 166 212 250 293
#     4  11  22  35  50  72 104 136 168 204 245 296
#     4   8  16  29  47  73  99 127 169 214 255 304
#     4   9  17  29  48  75 102 129 167 209 251 295
#     4  10  20  34  52  74  99 132 169 205 253 305
#     4   9  17  32  51  72 100 130 165 212 260 304
#
# _framework density 18.365431000000001
#
# number of rings (size 3 to 8) (size 9 to 14) (size 15 to 20)
#    0.000    2.857    0.000    3.857    2.000    1.714 
#    0.000    2.143    0.000    8.571    0.000    0.000 
#    0.000    0.000    0.000    0.000    0.000    0.000 
#
# Total GULP energy -347032.056575 kJ/mol
# GULP energy per Si atom -12394.002021 kJ/mol
# Density = 1.832363 g / cm^3
# Si number density = 18.365431 Si / 1000 Ang^3
#
#
#
# Elastic Constant Matrix: (Units=GPa)
#
#
# Indices 1 2 3 4 5 6 
#
# 1 109.2608 16.8662 64.1909 0.0000 13.9593 0.0000
# 2 16.8662 45.7062 15.4670 0.0000 3.9978 0.0000
# 3 64.1909 15.4670 103.6072 0.0000 -1.1392 0.0000
# 4 0.0000 0.0000 0.0000 16.1394 0.0000 6.3087
# 5 13.9593 3.9978 -1.1392 0.0000 27.7693 0.0000
# 6 0.0000 0.0000 0.0000 6.3087 0.0000 22.9033
#
#
#
# Elastic Compliance Matrix: (Units=1/GPa)
#
#
# Indices 1 2 3 4 5 6 
#
# 1 0.016356 -0.001943 -0.009935 0.000000 -0.008350 0.000000
# 2 -0.001943 0.023611 -0.002349 0.000000 -0.002519 0.000000
# 3 -0.009935 -0.002349 0.016224 0.000000 0.005998 0.000000
# 4 0.000000 0.000000 0.000000 0.069437 0.000000 -0.019126
# 5 -0.008350 -0.002519 0.005998 0.000000 0.040817 0.000000
# 6 0.000000 0.000000 0.000000 -0.019126 0.000000 0.048930
#
#
# Mechanical properties :
#
#
# Convention : Reuss Voigt Hill
#
# Bulk Modulus (GPa) = 36.05298 50.18027 43.11662
# Shear Modulus (GPa) = 19.75700 24.16573 21.96137
#
# Velocity S-wave (km/s) = 3.28345 3.63137 3.46178
# Velocity P-wave (km/s) = 5.83509 6.70559 6.28543
#
# Compressibility (1/GPa) = 0.02773696
#
# Stress axis : x y z
#
# Youngs Moduli (GPa) = 61.13876 42.35313 61.63716
#
# Poissons Ratio (x) = 0.08230 0.61239
# Poissons Ratio (y) = 0.11880 0.14476
# Poissons Ratio (z) = 0.60744 0.09947
#
# Static dielectric constant tensor:
#      x y z
#    x 3.468850 0.000000 -0.012950 
#    y 0.000000 2.846110 0.000000 
#    z -0.012950 0.000000 3.858520 
# 
# 
# High freq. dielectric constant tensor:
#      x y z
#    x 1.706580 0.000000 0.005690 
#    y 0.000000 1.665590 0.000000 
#    z 0.005690 0.000000 1.720210 
# 
# From -- ./inp_files/295159.got.cif
#   From: 2010.06.25/outbox.cif.g09.slc.cpg/sg12_148_cif.got.tgz:295159.got - 2010.06.28 00:19:55.
