data_PCOD8097015
_publ_section_title
;
Structure prediction by ZEFSAII (Michael W. Deem and Ramdas Pophale) SiO2 
 PCOD8097015
Probable space group: C 2/M
;
_chemical_formula_sum "Si O2"
_cell_formula_units_Z 48
_cell_length_a 13.384117
_cell_length_b 17.738122
_cell_length_c 10.913495
_cell_angle_alpha 90.000000
_cell_angle_beta 76.982955
_cell_angle_gamma 90.000000
_cell_volume 2524.383312
_symmetry_space_group_name_H-M "C 2/M"
_symmetry_group_IT_number 12
_symmetry_cell_setting 'monoclinic'
loop_
_space_group_symop_operation_xyz
x,y,z
-x,y,-z
-x,-y,-z
x,-y,z
1/2+x,1/2+y,z
1/2-x,1/2+y,-z
1/2-x,1/2-y,-z
1/2+x,1/2-y,z
loop_
_atom_site_type_symbol
_atom_site_label
_atom_site_fract_x
_atom_site_fract_y
_atom_site_fract_z
Si Si1 0.403656 0.314173 0.105118
Si Si2 0.336650 0.586425 0.589763
Si Si3 0.041613 0.085927 0.682017
Si Si4 0.241254 0.588562 0.012330
Si Si5 0.825058 0.661352 0.215972
Si Si6 0.977115 0.417065 0.863134
O O1 0.446600 0.358879 0.208237
O O2 0.328910 0.247569 0.170915
O O3 0.500000 0.282032 0.000000
O O4 0.339264 0.368767 0.036166
O O5 0.298199 0.500000 0.613552
O O6 0.431845 0.600777 0.652761
O O7 0.369369 0.602443 0.441225
O O8 0.247079 0.646281 0.646812
O O9 0.049976 0.000000 0.726028
O O10 0.262803 0.500000 0.013916
O O11 0.222468 0.609138 0.876575
O O12 0.140405 0.610839 0.120720
O O13 0.941384 0.638574 0.222394
O O14 0.989954 0.500000 0.801051
O O15 0.000000 0.421014 0.000000
#
# Coordination Sequence:
#
# PCOD8097015 Si02
#       6
#     8   8   8   8   8   8
#     4  12  24  34  50  79 115 145 169 211 272 326
#     4   9  18  36  62  82 100 135 182 226 260 303
#     4   9  20  38  57  80 106 136 180 224 262 309
#     4  10  20  34  52  74 104 143 182 220 260 307
#     4  11  20  32  53  79 107 136 175 218 265 316
#     4   8  15  29  48  70  96 129 172 216 252 295
#
# _framework density 19.014544999999998
#
# number of rings (size 3 to 8) (size 9 to 14) (size 15 to 20)
#    0.000    2.167    0.000    7.000    0.000    4.667 
#    0.000    0.000    0.000    1.000    0.000    4.667 
#    0.000    0.000    0.000    0.000    0.000    0.000 
#
# Total GULP energy -297545.928232 kJ/mol
# GULP energy per Si atom -12397.747010 kJ/mol
# Density = 1.897127 g / cm^3
# Si number density = 19.014545 Si / 1000 Ang^3
#
#
#
# Elastic Constant Matrix: (Units=GPa)
#
#
# Indices 1 2 3 4 5 6 
#
# 1 58.1237 21.9880 23.0408 0.0000 -16.0255 0.0000
# 2 21.9880 76.1045 31.2255 0.0000 -17.7073 0.0000
# 3 23.0408 31.2255 77.0898 0.0000 -21.7196 0.0000
# 4 0.0000 0.0000 0.0000 37.2043 0.0000 -8.7511
# 5 -16.0255 -17.7073 -21.7196 0.0000 27.0824 0.0000
# 6 0.0000 0.0000 0.0000 -8.7511 0.0000 26.6176
#
#
#
# Elastic Compliance Matrix: (Units=1/GPa)
#
#
# Indices 1 2 3 4 5 6 
#
# 1 0.021901 -0.003158 -0.002839 0.000000 0.008618 0.000000
# 2 -0.003158 0.017214 -0.004372 0.000000 0.005880 0.000000
# 3 -0.002839 -0.004372 0.018491 0.000000 0.010291 0.000000
# 4 0.000000 0.000000 0.000000 0.029131 0.000000 0.009578
# 5 0.008618 0.005880 0.010291 0.000000 0.054122 0.000000
# 6 0.000000 0.000000 0.000000 0.009578 0.000000 0.040718
#
#
# Mechanical properties :
#
#
# Convention : Reuss Voigt Hill
#
# Bulk Modulus (GPa) = 27.12330 40.42519 33.77424
# Shear Modulus (GPa) = 23.29886 27.18512 25.24199
#
# Velocity S-wave (km/s) = 3.50425 3.78524 3.64745
# Velocity P-wave (km/s) = 5.53792 6.35691 5.96150
#
# Compressibility (1/GPa) = 0.03686867
#
# Stress axis : x y z
#
# Youngs Moduli (GPa) = 45.66090 58.09162 54.08142
#
# Poissons Ratio (x) = 0.18343 0.15351
# Poissons Ratio (y) = 0.14418 0.23645
# Poissons Ratio (z) = 0.12961 0.25399
#
# Static dielectric constant tensor:
#      x y z
#    x 3.613950 0.000000 -0.345810 
#    y 0.000000 3.378500 0.000000 
#    z -0.345810 0.000000 3.325110 
# 
# 
# High freq. dielectric constant tensor:
#      x y z
#    x 1.735850 0.000000 -0.026180 
#    y 0.000000 1.735910 0.000000 
#    z -0.026180 0.000000 1.713320 
# 
# From -- ./inp_files/131217.got.cif
#   From: 2010.06.25/outbox.cif.g09.slc.cpg/sg12_66_cif.got.tgz:131217.got - 2010.06.28 00:19:55.
