data_PCOD8097515
_publ_section_title
;
Structure prediction by ZEFSAII (Michael W. Deem and Ramdas Pophale) SiO2 
 PCOD8097515
Probable space group: C 2/M
;
_chemical_formula_sum "Si O2"
_cell_formula_units_Z 56
_cell_length_a 21.360459
_cell_length_b 9.045068
_cell_length_c 32.429175
_cell_angle_alpha 90.000000
_cell_angle_beta 153.805087
_cell_angle_gamma 90.000000
_cell_volume 2765.772230
_symmetry_space_group_name_H-M "C 2/M"
_symmetry_group_IT_number 12
_symmetry_cell_setting 'monoclinic'
loop_
_space_group_symop_operation_xyz
x,y,z
-x,y,-z
-x,-y,-z
x,-y,z
1/2+x,1/2+y,z
1/2-x,1/2+y,-z
1/2-x,1/2-y,-z
1/2+x,1/2-y,z
loop_
_atom_site_type_symbol
_atom_site_label
_atom_site_fract_x
_atom_site_fract_y
_atom_site_fract_z
Si Si1 0.503551 0.827426 0.049505
Si Si2 0.581429 0.667517 0.794261
Si Si3 0.235286 0.829732 0.392962
Si Si4 0.321176 0.666703 0.236037
Si Si5 0.487124 0.173440 0.397815
Si Si6 0.647899 0.663907 0.610595
Si Si7 0.766658 0.823968 0.965245
O O1 0.664074 0.802443 0.160734
O O2 0.459233 0.000000 0.025243
O O3 0.500000 0.771243 0.000000
O O4 0.402777 0.736019 0.020592
O O5 0.592825 0.500000 0.818224
O O6 0.422333 0.697511 0.683279
O O7 0.685806 0.690675 0.817353
O O8 0.625887 0.780576 0.856328
O O9 0.353041 0.773667 0.495694
O O10 0.240021 0.742803 0.352715
O O11 0.267163 0.000000 0.401879
O O12 0.369208 0.500000 0.274473
O O13 0.442808 0.772793 0.326353
O O14 0.369168 0.244056 0.357877
O O15 0.474158 0.000000 0.392826
O O16 0.500000 0.657884 0.500000
O O17 0.702820 0.500000 0.654014
O O18 0.777518 0.000000 0.976393
O O19 0.750000 0.750000 0.000000
#
# Coordination Sequence:
#
# PCOD8097515 Si02
#       7
#     8   8   8   8   8   8   8
#     4  10  20  41  69  92 119 160 204 248 307 371
#     4  10  21  41  63  85 117 159 203 245 303 366
#     4   9  19  35  57  82 115 159 198 241 297 355
#     4  10  21  37  61  88 116 156 201 244 295 362
#     4  10  20  34  53  83 120 155 197 246 294 348
#     4   9  17  31  52  76 105 145 193 242 293 349
#     4  12  26  43  66  96 128 160 202 256 313 371
#
# _framework density 20.247508
#
# number of rings (size 3 to 8) (size 9 to 14) (size 15 to 20)
#    0.000    2.000    1.429    2.143    0.000    6.000 
#    0.000    0.000    0.000    0.000    0.000    0.000 
#    0.000    0.000    0.000    0.000    0.000    0.000 
#
# Total GULP energy -347132.501927 kJ/mol
# GULP energy per Si atom -12397.589355 kJ/mol
# Density = 2.020142 g / cm^3
# Si number density = 20.247508 Si / 1000 Ang^3
#
#
#
# Elastic Constant Matrix: (Units=GPa)
#
#
# Indices 1 2 3 4 5 6 
#
# 1 105.7618 53.6747 45.0057 0.0006 1.5772 0.0000
# 2 53.6747 110.9757 49.6426 0.0026 -3.3098 -0.0039
# 3 45.0057 49.6426 105.2028 -0.0034 -1.1928 0.0003
# 4 0.0006 0.0026 -0.0034 33.0655 0.0004 -3.9050
# 5 1.5772 -3.3098 -1.1928 0.0004 29.4998 0.0010
# 6 0.0000 -0.0039 0.0003 -3.9050 0.0010 30.8983
#
#
#
# Elastic Compliance Matrix: (Units=1/GPa)
#
#
# Indices 1 2 3 4 5 6 
#
# 1 0.013484 -0.005041 -0.003406 0.000000 -0.001424 -0.000001
# 2 -0.005041 0.013340 -0.004120 -0.000001 0.001600 0.000002
# 3 -0.003406 -0.004120 0.012910 0.000002 0.000242 0.000000
# 4 0.000000 -0.000001 0.000002 0.030701 -0.000001 0.003880
# 5 -0.001424 0.001600 0.000242 -0.000001 0.034164 -0.000001
# 6 -0.000001 0.000002 0.000000 0.003880 -0.000001 0.032855
#
#
# Mechanical properties :
#
#
# Convention : Reuss Voigt Hill
#
# Bulk Modulus (GPa) = 68.49514 68.73181 68.61348
# Shear Modulus (GPa) = 29.85913 30.26722 30.06317
#
# Velocity S-wave (km/s) = 3.84436 3.87054 3.85747
# Velocity P-wave (km/s) = 7.32173 7.34808 7.33492
#
# Compressibility (1/GPa) = 0.01459958
#
# Stress axis : x y z
#
# Youngs Moduli (GPa) = 74.16222 74.96434 77.46218
#
# Poissons Ratio (x) = 0.37786 0.26384
# Poissons Ratio (y) = 0.37382 0.31916
# Poissons Ratio (z) = 0.25260 0.30887
#
# Static dielectric constant tensor:
#      x y z
#    x 3.651620 0.000000 0.036960 
#    y 0.000000 3.643630 0.000000 
#    z 0.036960 0.000000 3.634870 
# 
# 
# High freq. dielectric constant tensor:
#      x y z
#    x 1.784730 0.000000 0.003760 
#    y 0.000000 1.781590 0.000000 
#    z 0.003760 0.000000 1.790820 
# 
# From -- ./inp_files/380757.got.cif
#   From: 2010.06.25/outbox.cif.g09.slc.cpg/sg12_191_cif.got.tgz:380757.got - 2010.06.28 00:19:55.
