data_PCOD8097623
_publ_section_title
;
Structure prediction by ZEFSAII (Michael W. Deem and Ramdas Pophale) SiO2 
 PCOD8097623
Probable space group: C 2/M
;
_chemical_formula_sum "Si O2"
_cell_formula_units_Z 40
_cell_length_a 8.825895
_cell_length_b 18.334541
_cell_length_c 25.531077
_cell_angle_alpha 90.000000
_cell_angle_beta 149.349438
_cell_angle_gamma 90.000000
_cell_volume 2106.194362
_symmetry_space_group_name_H-M "C 2/M"
_symmetry_group_IT_number 12
_symmetry_cell_setting 'monoclinic'
loop_
_space_group_symop_operation_xyz
x,y,z
-x,y,-z
-x,-y,-z
x,-y,z
1/2+x,1/2+y,z
1/2-x,1/2+y,-z
1/2-x,1/2-y,-z
1/2+x,1/2-y,z
loop_
_atom_site_type_symbol
_atom_site_label
_atom_site_fract_x
_atom_site_fract_y
_atom_site_fract_z
Si Si1 0.307392 0.341136 0.097720
Si Si2 0.853078 0.187141 0.905530
Si Si3 0.797326 0.415756 0.488884
Si Si4 0.881545 0.660912 0.324920
Si Si5 0.275334 0.182677 0.678355
O O1 0.199176 0.271497 0.098179
O O2 0.419106 0.318255 0.074113
O O3 0.578446 0.376162 0.211412
O O4 0.000000 0.389462 0.000000
O O5 0.532535 0.153696 0.794424
O O6 0.000000 0.147211 0.000000
O O7 0.707032 0.500000 0.462606
O O8 0.500048 0.369749 0.395814
O O9 0.000000 0.395675 0.500000
O O10 0.973487 0.398464 0.594370
O O11 0.815964 0.734412 0.337283
O O12 0.110177 0.680412 0.346952
#
# Coordination Sequence:
#
# PCOD8097623 Si02
#       5
#     8   8   8   8   8
#     4   9  16  26  44  72 103 133 163 199 245 293
#     4   9  16  26  44  72 103 133 163 199 245 293
#     4  11  24  39  54  73  99 133 172 215 262 307
#     4  10  20  34  54  79 106 136 170 209 252 300
#     4  10  20  34  54  79 106 136 170 209 252 300
#
# _framework density 18.991600999999999
#
# number of rings (size 3 to 8) (size 9 to 14) (size 15 to 20)
#    0.000    2.200    0.000    4.800    0.000    6.400 
#    0.000    0.000    0.000    1.200    0.000    0.000 
#    0.000    0.000    0.000    0.000    0.000    0.000 
#
# Total GULP energy -247830.179598 kJ/mol
# GULP energy per Si atom -12391.508980 kJ/mol
# Density = 1.894837 g / cm^3
# Si number density = 18.991601 Si / 1000 Ang^3
#
#
#
# Elastic Constant Matrix: (Units=GPa)
#
#
# Indices 1 2 3 4 5 6 
#
# 1 76.7215 12.3884 33.3949 0.0072 1.1636 0.0047
# 2 12.3884 30.1447 22.6407 0.0071 6.2556 0.0009
# 3 33.3949 22.6407 137.2313 0.0226 5.2654 0.0167
# 4 0.0072 0.0071 0.0226 -0.1084 0.0033 -1.7410
# 5 1.1636 6.2556 5.2654 0.0033 38.1061 -0.0011
# 6 0.0047 0.0009 0.0167 -1.7410 -0.0011 17.5070
#
#
#
# Elastic Compliance Matrix: (Units=1/GPa)
#
#
# Indices 1 2 3 4 5 6 
#
# 1 0.014983 -0.004029 -0.003005 0.000053 0.000619 0.000004
# 2 -0.004029 0.040079 -0.005413 0.000380 -0.005709 0.000042
# 3 -0.003005 -0.005413 0.008921 0.000547 -0.000252 0.000047
# 4 0.000053 0.000380 0.000547 -3.551376 0.000153 -0.353178
# 5 0.000619 -0.005709 -0.000252 0.000153 0.027196 0.000017
# 6 0.000004 0.000042 0.000047 -0.353178 0.000017 0.021997
#
#
# Mechanical properties :
#
#
# Convention : Reuss Voigt Hill
#
# Bulk Modulus (GPa) = 25.58259 42.32730 33.95495
# Shear Modulus (GPa) = -1.47047 22.81250 10.67101
#
# Velocity S-wave (km/s) = -0.88088 3.46958 2.37297
# Velocity P-wave (km/s) = 3.53060 6.19567 5.04240
#
# Compressibility (1/GPa) = 0.03908908
#
# Stress axis : x y z
#
# Youngs Moduli (GPa) = 66.74032 24.95065 112.09623
#
# Poissons Ratio (x) = 0.10053 0.33688
# Poissons Ratio (y) = 0.26890 0.60677
# Poissons Ratio (z) = 0.20057 0.13506
#
# Static dielectric constant tensor:
#      x y z
#    x 3.643390 0.000000 0.001610 
#    y 0.000000 2.853530 -0.000010 
#    z 0.001610 -0.000010 4.462390 
# 
# 
# High freq. dielectric constant tensor:
#      x y z
#    x 1.759310 0.000000 0.003330 
#    y 0.000000 1.665270 0.000000 
#    z 0.003330 0.000000 1.774360 
# 
# From -- ./inp_files/123421.got.cif
#   From: 2010.06.25/outbox.cif.g09.slc.cpg/sg12_62_cif.got.tgz:123421.got - 2010.06.28 00:19:55.
