data_PCOD8097847
_publ_section_title
;
Structure prediction by ZEFSAII (Michael W. Deem and Ramdas Pophale) SiO2 
 PCOD8097847
Probable space group: C 2/M
;
_chemical_formula_sum "Si O2"
_cell_formula_units_Z 48
_cell_length_a 23.779875
_cell_length_b 8.703665
_cell_length_c 17.360951
_cell_angle_alpha 90.000000
_cell_angle_beta 46.603463
_cell_angle_gamma 90.000000
_cell_volume 2610.900495
_symmetry_space_group_name_H-M "C 2/M"
_symmetry_group_IT_number 12
_symmetry_cell_setting 'monoclinic'
loop_
_space_group_symop_operation_xyz
x,y,z
-x,y,-z
-x,-y,-z
x,-y,z
1/2+x,1/2+y,z
1/2-x,1/2+y,-z
1/2-x,1/2-y,-z
1/2+x,1/2-y,z
loop_
_atom_site_type_symbol
_atom_site_label
_atom_site_fract_x
_atom_site_fract_y
_atom_site_fract_z
Si Si1 0.126577 0.679457 0.121244
Si Si2 0.755205 0.180208 0.878700
Si Si3 0.189011 0.318084 0.617146
Si Si4 0.270458 0.318132 0.692604
Si Si5 0.939349 0.182900 0.495665
Si Si6 0.534360 0.681121 0.701786
O O1 0.109009 0.500000 0.143211
O O2 0.170631 0.732526 0.156799
O O3 0.046860 0.769900 0.185009
O O4 0.178207 0.721440 0.998338
O O5 0.742074 0.236970 0.803471
O O6 0.774179 0.000000 0.865308
O O7 0.192678 0.500000 0.606221
O O8 0.250000 0.250000 0.500000
O O9 0.211480 0.262227 0.682168
O O10 0.102816 0.260092 0.684452
O O11 0.276211 0.500000 0.685774
O O12 0.355211 0.249354 0.595122
O O13 0.963349 0.239182 0.388379
O O14 0.000000 0.250952 0.500000
O O15 0.939065 0.000000 0.499505
O O16 0.545404 0.500000 0.697149
#
# Coordination Sequence:
#
# PCOD8097847 Si02
#       6
#     8   8   8   8   8   8
#     4  10  20  34  54  83 113 140 174 221 274 319
#     4   9  18  35  59  81 105 142 183 219 261 319
#     4  11  21  36  56  78 108 143 181 224 268 317
#     4   9  17  32  54  79 103 137 184 222 257 313
#     4   9  16  27  49  78 102 128 171 219 258 307
#     4  11  21  35  55  78 106 144 184 220 265 319
#
# _framework density 18.384461999999999
#
# number of rings (size 3 to 8) (size 9 to 14) (size 15 to 20)
#    0.000    2.167    1.667    2.500    0.000    3.333 
#    0.000    2.500    0.000    7.000    0.000    0.000 
#    0.000    0.000    0.000    0.000    0.000    0.000 
#
# Total GULP energy -297622.864662 kJ/mol
# GULP energy per Si atom -12400.952694 kJ/mol
# Density = 1.834262 g / cm^3
# Si number density = 18.384462 Si / 1000 Ang^3
#
#
#
# Elastic Constant Matrix: (Units=GPa)
#
#
# Indices 1 2 3 4 5 6 
#
# 1 174.1220 35.4329 80.5655 0.0040 -0.1924 -0.0033
# 2 35.4329 43.2589 26.9019 0.0160 2.5297 -0.0120
# 3 80.5655 26.9019 115.0055 0.0048 -0.1706 -0.0050
# 4 0.0040 0.0160 0.0048 25.4091 -0.0035 -4.5381
# 5 -0.1924 2.5297 -0.1706 -0.0035 31.7836 0.0000
# 6 -0.0033 -0.0120 -0.0050 -4.5381 0.0000 28.2953
#
#
#
# Elastic Compliance Matrix: (Units=1/GPa)
#
#
# Indices 1 2 3 4 5 6 
#
# 1 0.009075 -0.004097 -0.005399 0.000002 0.000352 -0.000001
# 2 -0.004097 0.029054 -0.003930 -0.000016 -0.002358 0.000009
# 3 -0.005399 -0.003930 0.013397 0.000001 0.000352 0.000000
# 4 0.000002 -0.000016 0.000001 0.040517 0.000006 0.006498
# 5 0.000352 -0.002358 0.000352 0.000006 0.031654 0.000000
# 6 -0.000001 0.000009 0.000000 0.006498 0.000000 0.036384
#
#
# Mechanical properties :
#
#
# Convention : Reuss Voigt Hill
#
# Bulk Modulus (GPa) = 40.52567 68.68745 54.60656
# Shear Modulus (GPa) = 25.62048 29.73001 27.67525
#
# Velocity S-wave (km/s) = 3.73714 4.02571 3.88411
# Velocity P-wave (km/s) = 6.38066 7.68448 7.06273
#
# Compressibility (1/GPa) = 0.02467572
#
# Stress axis : x y z
#
# Youngs Moduli (GPa) = 110.19257 34.41866 74.64372
#
# Poissons Ratio (x) = 0.14100 0.40297
# Poissons Ratio (y) = 0.45141 0.29335
# Poissons Ratio (z) = 0.59489 0.13527
#
# Static dielectric constant tensor:
#      x y z
#    x 3.649820 0.000000 0.081940 
#    y 0.000000 3.147030 0.000000 
#    z 0.081940 0.000000 3.491020 
# 
# 
# High freq. dielectric constant tensor:
#      x y z
#    x 1.718300 0.000000 -0.000270 
#    y 0.000000 1.688230 0.000000 
#    z -0.000270 0.000000 1.714670 
# 
# From -- ./inp_files/280796.got.cif
#   From: 2010.06.25/outbox.cif.g09.slc.cpg/sg12_141_cif.got.tgz:280796.got - 2010.06.28 00:19:55.
