data_PCOD8097189
_publ_section_title
;
Structure prediction by ZEFSAII (Michael W. Deem and Ramdas Pophale) SiO2 
 PCOD8097189
Probable space group: C 2/M
;
_chemical_formula_sum "Si O2"
_cell_formula_units_Z 64
_cell_length_a 14.689245
_cell_length_b 8.742258
_cell_length_c 34.467687
_cell_angle_alpha 90.000000
_cell_angle_beta 49.054999
_cell_angle_gamma 90.000000
_cell_volume 3343.313783
_symmetry_space_group_name_H-M "C 2/M"
_symmetry_group_IT_number 12
_symmetry_cell_setting 'monoclinic'
loop_
_space_group_symop_operation_xyz
x,y,z
-x,y,-z
-x,-y,-z
x,-y,z
1/2+x,1/2+y,z
1/2-x,1/2+y,-z
1/2-x,1/2-y,-z
1/2+x,1/2-y,z
loop_
_atom_site_type_symbol
_atom_site_label
_atom_site_fract_x
_atom_site_fract_y
_atom_site_fract_z
Si Si1 0.733890 0.319229 0.173169
Si Si2 0.492666 0.681358 0.106822
Si Si3 0.791341 0.819052 0.371984
Si Si4 0.934014 0.821443 0.708902
Si Si5 0.679079 0.181333 0.106820
Si Si6 0.676941 0.180760 0.555561
Si Si7 0.098465 0.680333 0.362326
Si Si8 0.607302 0.172160 0.999993
O O1 0.747888 0.500000 0.164224
O O2 0.640988 0.272908 0.232592
O O3 0.688356 0.246169 0.146766
O O4 0.860342 0.245480 0.146984
O O5 0.491119 0.500000 0.107412
O O6 0.554099 0.750019 0.127485
O O7 0.564636 0.737459 0.049296
O O8 0.764628 0.743712 0.421064
O O9 0.695428 0.756129 0.366786
O O10 0.927453 0.771758 0.321929
O O11 0.777499 0.000000 0.380294
O O12 0.873428 0.741951 0.688513
O O13 0.926558 0.000000 0.702999
O O14 0.678799 0.000000 0.107594
O O15 0.783871 0.236900 0.049190
O O16 0.750000 0.250000 0.500000
O O17 0.537526 0.231765 0.588959
O O18 0.689133 0.000000 0.552183
O O19 0.110113 0.500000 0.357549
O O20 0.648447 0.000000 0.999899
O O21 0.500000 0.163502 0.000000
#
# Coordination Sequence:
#
# PCOD8097189 Si02
#       8
#     8   8   8   8   8   8   8   8
#     4  11  23  41  60  86 120 151 189 237 288 345
#     4  12  25  41  62  87 116 152 193 235 284 342
#     4   9  18  36  58  81 109 147 188 230 279 333
#     4   9  20  37  59  83 111 144 182 232 285 334
#     4  12  25  41  62  88 118 152 191 234 286 347
#     4  10  20  34  52  80 115 152 189 234 280 329
#     4   9  19  35  57  82 111 147 192 234 277 334
#     4  11  22  39  64  88 117 152 186 232 285 341
#
# _framework density 19.142685
#
# number of rings (size 3 to 8) (size 9 to 14) (size 15 to 20)
#    0.000    1.625    1.250    3.750    0.000    4.000 
#    0.000    3.750    0.000    0.000    0.000    0.000 
#    0.000    0.000    0.000    0.000    0.000    0.000 
#
# Total GULP energy -396838.879969 kJ/mol
# GULP energy per Si atom -12401.214999 kJ/mol
# Density = 1.909912 g / cm^3
# Si number density = 19.142685 Si / 1000 Ang^3
#
#
#
# Elastic Constant Matrix: (Units=GPa)
#
#
# Indices 1 2 3 4 5 6 
#
# 1 175.2899 57.2376 82.2640 -0.0001 20.0170 -0.0002
# 2 57.2376 112.0233 65.8177 -0.0002 7.5840 -0.0004
# 3 82.2640 65.8177 159.0701 -0.0003 18.4236 -0.0002
# 4 -0.0001 -0.0002 -0.0003 37.0409 -0.0001 3.7953
# 5 20.0170 7.5840 18.4236 -0.0001 32.9159 -0.0001
# 6 -0.0002 -0.0004 -0.0002 3.7953 -0.0001 33.3739
#
#
#
# Elastic Compliance Matrix: (Units=1/GPa)
#
#
# Indices 1 2 3 4 5 6 
#
# 1 0.008142 -0.002229 -0.002967 0.000000 -0.002777 0.000000
# 2 -0.002229 0.012404 -0.004069 0.000000 0.000775 0.000000
# 3 -0.002967 -0.004069 0.009824 0.000000 -0.002757 0.000000
# 4 0.000000 0.000000 0.000000 0.027315 0.000000 -0.003106
# 5 -0.002777 0.000775 -0.002757 0.000000 0.033434 0.000000
# 6 0.000000 0.000000 0.000000 -0.003106 0.000000 0.030317
#
#
# Mechanical properties :
#
#
# Convention : Reuss Voigt Hill
#
# Bulk Modulus (GPa) = 84.46210 95.22465 89.84338
# Shear Modulus (GPa) = 34.74316 36.73708 35.74012
#
# Velocity S-wave (km/s) = 4.26485 4.38553 4.32561
# Velocity P-wave (km/s) = 8.27467 8.68887 8.48430
#
# Compressibility (1/GPa) = 0.01183963
#
# Stress axis : x y z
#
# Youngs Moduli (GPa) = 122.81740 80.61868 101.79263
#
# Poissons Ratio (x) = 0.17971 0.30200
# Poissons Ratio (y) = 0.27377 0.41423
# Poissons Ratio (z) = 0.36437 0.32807
#
# Static dielectric constant tensor:
#      x y z
#    x 3.824090 0.000000 -0.015610 
#    y 0.000000 3.601920 0.000000 
#    z -0.015610 0.000000 3.558330 
# 
# 
# High freq. dielectric constant tensor:
#      x y z
#    x 1.758650 0.000000 0.003310 
#    y 0.000000 1.751870 0.000000 
#    z 0.003310 0.000000 1.744480 
# 
# From -- ./inp_files/375403.got.cif
#   From: 2010.06.25/outbox.cif.g09.slc.cpg/sg12_188_cif.got.tgz:375403.got - 2010.06.28 00:19:55.
