data_PCOD8097195
_publ_section_title
;
Structure prediction by ZEFSAII (Michael W. Deem and Ramdas Pophale) SiO2 
 PCOD8097195
Probable space group: C 2/M
;
_chemical_formula_sum "Si O2"
_cell_formula_units_Z 56
_cell_length_a 22.881464
_cell_length_b 11.205634
_cell_length_c 25.372678
_cell_angle_alpha 90.000000
_cell_angle_beta 27.154175
_cell_angle_gamma 90.000000
_cell_volume 2969.062026
_symmetry_space_group_name_H-M "C 2/M"
_symmetry_group_IT_number 12
_symmetry_cell_setting 'monoclinic'
loop_
_space_group_symop_operation_xyz
x,y,z
-x,y,-z
-x,-y,-z
x,-y,z
1/2+x,1/2+y,z
1/2-x,1/2+y,-z
1/2-x,1/2-y,-z
1/2+x,1/2-y,z
loop_
_atom_site_type_symbol
_atom_site_label
_atom_site_fract_x
_atom_site_fract_y
_atom_site_fract_z
Si Si1 0.238179 0.631447 0.079621
Si Si2 0.206203 0.634370 0.685748
Si Si3 0.696945 0.130636 0.450944
Si Si4 0.058831 0.715652 0.136400
Si Si5 0.888837 0.134672 0.628986
Si Si6 0.443640 0.218025 0.685571
Si Si7 0.932024 0.131972 0.326135
O O1 0.298352 0.500000 0.035985
O O2 0.139366 0.629229 0.109881
O O3 0.168289 0.660189 0.190465
O O4 0.349864 0.727517 0.981287
O O5 0.244915 0.500000 0.632741
O O6 0.275755 0.747031 0.602609
O O7 0.251102 0.641030 0.710426
O O8 0.052852 0.644398 0.804186
O O9 0.545529 0.120367 0.583857
O O10 0.778867 0.137826 0.439484
O O11 0.731790 0.000000 0.395822
O O12 0.000153 0.818859 0.219331
O O13 0.879115 0.215609 0.688321
O O14 0.000000 0.180208 0.500000
O O15 0.921208 0.000000 0.620770
O O16 0.532402 0.304188 0.648821
O O17 0.984860 0.000000 0.290462
#
# Coordination Sequence:
#
# PCOD8097195 Si02
#       7
#     8   8   8   8   8   8   8
#     4  10  20  35  56  81 114 149 184 230 281 337
#     4  10  20  37  61  84 109 145 191 236 278 330
#     4  10  20  34  52  81 117 147 180 226 282 340
#     4   9  19  35  57  83 108 144 186 231 283 333
#     4  10  20  36  57  81 110 147 190 236 280 327
#     4  11  20  33  52  80 113 150 188 226 276 334
#     4   9  18  31  51  79 110 144 184 231 282 334
#
# _framework density 18.861176
#
# number of rings (size 3 to 8) (size 9 to 14) (size 15 to 20)
#    0.000    2.143    1.429    2.143    0.000    1.143 
#    0.000    8.571    0.000    2.571    0.000    0.000 
#    0.000    0.000    0.000    0.000    0.000    0.000 
#
# Total GULP energy -346921.737121 kJ/mol
# GULP energy per Si atom -12390.062040 kJ/mol
# Density = 1.881825 g / cm^3
# Si number density = 18.861176 Si / 1000 Ang^3
#
#
#
# Elastic Constant Matrix: (Units=GPa)
#
#
# Indices 1 2 3 4 5 6 
#
# 1 96.0620 39.1111 30.0283 0.0019 -5.2292 -0.0007
# 2 39.1111 129.2203 28.3591 0.0037 6.8638 -0.0019
# 3 30.0283 28.3591 83.6541 0.0047 1.5953 -0.0026
# 4 0.0019 0.0037 0.0047 8.4333 -0.0011 -1.7461
# 5 -5.2292 6.8638 1.5953 -0.0011 23.6362 0.0003
# 6 -0.0007 -0.0019 -0.0026 -1.7461 0.0003 13.7665
#
#
#
# Elastic Compliance Matrix: (Units=1/GPa)
#
#
# Indices 1 2 3 4 5 6 
#
# 1 0.013162 -0.003403 -0.003650 0.000001 0.004147 0.000000
# 2 -0.003403 0.009361 -0.001888 -0.000003 -0.003344 0.000000
# 3 -0.003650 -0.001888 0.013927 -0.000006 -0.001199 0.000001
# 4 0.000001 -0.000003 -0.000006 0.121776 0.000007 0.015446
# 5 0.004147 -0.003344 -0.001199 0.000007 0.044277 0.000000
# 6 0.000000 0.000000 0.000001 0.015446 0.000000 0.074599
#
#
# Mechanical properties :
#
#
# Convention : Reuss Voigt Hill
#
# Bulk Modulus (GPa) = 53.85682 55.99262 54.92472
# Shear Modulus (GPa) = 16.60171 23.26304 19.93238
#
# Velocity S-wave (km/s) = 2.97004 3.51576 3.25436
# Velocity P-wave (km/s) = 6.35436 6.79941 6.58065
#
# Compressibility (1/GPa) = 0.01856775
#
# Stress axis : x y z
#
# Youngs Moduli (GPa) = 75.97537 106.83005 71.80221
#
# Poissons Ratio (x) = 0.36354 0.26209
# Poissons Ratio (y) = 0.25854 0.13556
# Poissons Ratio (z) = 0.27732 0.20170
#
# Static dielectric constant tensor:
#      x y z
#    x 3.398370 0.000000 -0.248340 
#    y 0.000000 3.560300 0.000000 
#    z -0.248340 0.000000 3.346970 
# 
# 
# High freq. dielectric constant tensor:
#      x y z
#    x 1.716030 0.000000 -0.017000 
#    y 0.000000 1.744520 0.000000 
#    z -0.017000 0.000000 1.711580 
# 
# From -- ./inp_files/346997.got.cif
#   From: 2010.06.25/outbox.cif.g09.slc.cpg/sg12_174_cif.got.tgz:346997.got - 2010.06.28 00:19:55.
