data_PCOD8097425
_publ_section_title
;
Structure prediction by ZEFSAII (Michael W. Deem and Ramdas Pophale) SiO2 
 PCOD8097425
Probable space group: C 2/M
;
_chemical_formula_sum "Si O2"
_cell_formula_units_Z 48
_cell_length_a 12.025387
_cell_length_b 13.710153
_cell_length_c 29.123185
_cell_angle_alpha 90.000000
_cell_angle_beta 146.415227
_cell_angle_gamma 90.000000
_cell_volume 2656.066754
_symmetry_space_group_name_H-M "C 2/M"
_symmetry_group_IT_number 12
_symmetry_cell_setting 'monoclinic'
loop_
_space_group_symop_operation_xyz
x,y,z
-x,y,-z
-x,-y,-z
x,-y,z
1/2+x,1/2+y,z
1/2-x,1/2+y,-z
1/2-x,1/2-y,-z
1/2+x,1/2-y,z
loop_
_atom_site_type_symbol
_atom_site_label
_atom_site_fract_x
_atom_site_fract_y
_atom_site_fract_z
Si Si1 0.707167 0.192299 0.871245
Si Si2 0.107057 0.111124 0.435139
Si Si3 0.774181 0.222421 0.436798
Si Si4 0.891249 0.113354 0.025396
Si Si5 0.344162 0.888934 0.690213
Si Si6 0.235625 0.391718 0.072527
O O1 0.509652 0.144104 0.783165
O O2 0.666821 0.308915 0.861631
O O3 0.898533 0.172058 0.904364
O O4 0.744697 0.147874 0.934472
O O5 0.227004 0.146811 0.521377
O O6 0.170604 0.175531 0.413575
O O7 0.869909 0.122850 0.359431
O O8 0.168430 0.000000 0.446660
O O9 0.643774 0.175846 0.351304
O O10 0.000000 0.245379 0.500000
O O11 0.780253 0.134297 0.034967
O O12 0.941482 0.000000 0.036215
O O13 0.382246 0.000000 0.688570
O O14 0.320618 0.500000 0.114038
O O15 0.000000 0.388597 0.000000
#
# Coordination Sequence:
#
# PCOD8097425 Si02
#       6
#     8   8   8   8   8   8
#     4  11  20  33  56  78 105 136 180 221 266 308
#     4   9  18  34  55  80 106 136 176 214 254 309
#     4   9  18  34  55  77 105 140 173 210 259 311
#     4  10  20  35  54  76 103 137 178 223 262 310
#     4  10  20  34  53  79 106 135 172 217 264 310
#     4  10  21  37  54  74 101 139 181 218 266 319
#
# _framework density 18.071835
#
# number of rings (size 3 to 8) (size 9 to 14) (size 15 to 20)
#    0.000    2.167    1.667    3.000    0.000    3.667 
#    0.000    0.833    0.000    4.000    0.000    0.000 
#    0.000    0.000    0.000    0.000    0.000    0.000 
#
# Total GULP energy -297608.201401 kJ/mol
# GULP energy per Si atom -12400.341725 kJ/mol
# Density = 1.803070 g / cm^3
# Si number density = 18.071835 Si / 1000 Ang^3
#
#
#
# Elastic Constant Matrix: (Units=GPa)
#
#
# Indices 1 2 3 4 5 6 
#
# 1 91.9331 68.2470 15.9454 0.0000 1.1856 0.0000
# 2 68.2470 157.5879 47.6961 0.0000 -3.4642 0.0000
# 3 15.9454 47.6961 79.9587 0.0000 -3.9831 0.0000
# 4 0.0000 0.0000 0.0000 24.9616 0.0000 -0.7504
# 5 1.1856 -3.4642 -3.9831 0.0000 7.7206 0.0000
# 6 0.0000 0.0000 0.0000 -0.7504 0.0000 34.9911
#
#
#
# Elastic Compliance Matrix: (Units=1/GPa)
#
#
# Indices 1 2 3 4 5 6 
#
# 1 0.016334 -0.007474 0.000933 0.000000 -0.005381 0.000000
# 2 -0.007474 0.011174 -0.004996 0.000000 0.003584 0.000000
# 3 0.000933 -0.004996 0.015582 0.000000 0.005654 0.000000
# 4 0.000000 0.000000 0.000000 0.040087 0.000000 0.000860
# 5 -0.005381 0.003584 0.005654 0.000000 0.134876 0.000000
# 6 0.000000 0.000000 0.000000 0.000860 0.000000 0.028597
#
#
# Mechanical properties :
#
#
# Convention : Reuss Voigt Hill
#
# Bulk Modulus (GPa) = 49.96256 65.91742 57.93999
# Shear Modulus (GPa) = 18.09002 26.70739 22.39870
#
# Velocity S-wave (km/s) = 3.16730 3.84845 3.52437
# Velocity P-wave (km/s) = 6.40955 7.50345 6.97797
#
# Compressibility (1/GPa) = 0.02001499
#
# Stress axis : x y z
#
# Youngs Moduli (GPa) = 61.22335 89.49739 64.17587
#
# Poissons Ratio (x) = 0.66894 -0.05989
# Poissons Ratio (y) = 0.45761 0.32062
# Poissons Ratio (z) = -0.05714 0.44713
#
# Static dielectric constant tensor:
#      x y z
#    x 3.386540 0.000000 0.010170 
#    y 0.000000 3.763770 0.000000 
#    z 0.010170 0.000000 3.059170 
# 
# 
# High freq. dielectric constant tensor:
#      x y z
#    x 1.701890 0.000000 0.003810 
#    y 0.000000 1.719360 0.000000 
#    z 0.003810 0.000000 1.673330 
# 
# From -- ./inp_files/204358.got.cif
#   From: 2010.06.25/outbox.cif.g09.slc.cpg/sg12_103_cif.got.tgz:204358.got - 2010.06.28 00:19:55.
