data_PCOD8097894
_publ_section_title
;
Structure prediction by ZEFSAII (Michael W. Deem and Ramdas Pophale) SiO2 
 PCOD8097894
Probable space group: C 2/M
;
_chemical_formula_sum "Si O2"
_cell_formula_units_Z 40
_cell_length_a 30.072554
_cell_length_b 12.505044
_cell_length_c 5.161298
_cell_angle_alpha 90.000000
_cell_angle_beta 81.856376
_cell_angle_gamma 90.000000
_cell_volume 1921.378188
_symmetry_space_group_name_H-M "C 2/M"
_symmetry_group_IT_number 12
_symmetry_cell_setting 'monoclinic'
loop_
_space_group_symop_operation_xyz
x,y,z
-x,y,-z
-x,-y,-z
x,-y,z
1/2+x,1/2+y,z
1/2-x,1/2+y,-z
1/2-x,1/2-y,-z
1/2+x,1/2-y,z
loop_
_atom_site_type_symbol
_atom_site_label
_atom_site_fract_x
_atom_site_fract_y
_atom_site_fract_z
Si Si1 0.472313 0.625722 0.274126
Si Si2 0.239248 0.624432 0.105163
Si Si3 0.791427 0.126732 0.570175
Si Si4 0.382151 0.751795 0.408511
Si Si5 0.363517 0.875339 0.908054
O O1 0.500000 0.664716 0.500000
O O2 0.463650 0.500000 0.289759
O O3 0.424320 0.680511 0.300562
O O4 0.500000 0.660508 0.000000
O O5 0.246362 0.500000 0.048892
O O6 0.256549 0.656682 0.373492
O O7 0.187275 0.652033 0.125684
O O8 0.269590 0.679365 0.851187
O O9 0.839936 0.174021 0.474369
O O10 0.797584 0.000000 0.591387
O O11 0.392895 0.814665 0.666177
O O12 0.373856 0.836222 0.187487
O O13 0.374622 0.000000 0.887128
#
# Coordination Sequence:
#
# PCOD8097894 Si02
#       5
#     8   8   8   8   8
#     4  10  22  42  67  94 123 148 175 224 296 371
#     4   9  19  35  52  76 118 163 195 234 284 331
#     4  10  20  34  54  85 120 149 190 243 290 343
#     4  12  23  37  63  88 112 151 196 242 288 342
#     4  11  24  40  57  81 117 161 205 241 275 323
#
# _framework density 20.818390000000001
#
# number of rings (size 3 to 8) (size 9 to 14) (size 15 to 20)
#    0.000    1.600    0.000    4.800    0.000    8.000 
#    0.000    8.000    0.000   12.000    0.000    0.000 
#    0.000    0.000    0.000    0.000    0.000    0.000 
#
# Total GULP energy -248115.265956 kJ/mol
# GULP energy per Si atom -12405.763298 kJ/mol
# Density = 2.077101 g / cm^3
# Si number density = 20.818390 Si / 1000 Ang^3
#
#
#
# Elastic Constant Matrix: (Units=GPa)
#
#
# Indices 1 2 3 4 5 6 
#
# 1 98.4344 16.1863 33.6282 0.0000 -14.6190 0.0000
# 2 16.1863 44.7580 31.6191 0.0000 -4.1816 0.0000
# 3 33.6282 31.6191 127.4450 0.0000 -10.4612 0.0000
# 4 0.0000 0.0000 0.0000 20.1252 0.0000 25.6657
# 5 -14.6190 -4.1816 -10.4612 0.0000 29.8807 0.0000
# 6 0.0000 0.0000 0.0000 25.6657 0.0000 -62.0238
#
#
#
# Elastic Compliance Matrix: (Units=1/GPa)
#
#
# Indices 1 2 3 4 5 6 
#
# 1 0.012003 -0.002345 -0.002193 0.000000 0.004777 0.000000
# 2 -0.002345 0.027612 -0.006187 0.000000 0.000551 0.000000
# 3 -0.002193 -0.006187 0.010091 0.000000 0.001594 0.000000
# 4 0.000000 0.000000 0.000000 0.032525 0.000000 0.013459
# 5 0.004777 0.000551 0.001594 0.000000 0.036438 0.000000
# 6 0.000000 0.000000 0.000000 0.013459 0.000000 -0.010554
#
#
# Mechanical properties :
#
#
# Convention : Reuss Voigt Hill
#
# Bulk Modulus (GPa) = 35.39003 48.16718 41.77861
# Shear Modulus (GPa) = 35.97493 10.21001 23.09247
#
# Velocity S-wave (km/s) = 4.16148 2.21697 3.33413
# Velocity P-wave (km/s) = 6.33457 5.45347 5.91046
#
# Compressibility (1/GPa) = 0.02825655
#
# Stress axis : x y z
#
# Youngs Moduli (GPa) = 83.30983 36.21559 99.09809
#
# Poissons Ratio (x) = 0.08493 0.21736
# Poissons Ratio (y) = 0.19537 0.61308
# Poissons Ratio (z) = 0.18273 0.22405
#
# Static dielectric constant tensor:
#      x y z
#    x 3.835980 0.000000 0.060310 
#    y 0.000000 4.048410 0.000000 
#    z 0.060310 0.000000 4.547030 
# 
# 
# High freq. dielectric constant tensor:
#      x y z
#    x 1.790710 0.000000 0.001190 
#    y 0.000000 1.843510 0.000000 
#    z 0.001190 0.000000 1.840500 
# 
# From -- ./inp_files/27730.got.cif
#   From: 2010.06.25/outbox.cif.g09.slc.cpg/sg12_14_cif.got.tgz:27730.got - 2010.06.28 00:19:55.
