data_PCOD8097569
_publ_section_title
;
Structure prediction by ZEFSAII (Michael W. Deem and Ramdas Pophale) SiO2 
 PCOD8097569
Probable space group: C 2/M
;
_chemical_formula_sum "Si O2"
_cell_formula_units_Z 64
_cell_length_a 9.036860
_cell_length_b 10.469766
_cell_length_c 35.080344
_cell_angle_alpha 90.000000
_cell_angle_beta 78.476437
_cell_angle_gamma 90.000000
_cell_volume 3252.180967
_symmetry_space_group_name_H-M "C 2/M"
_symmetry_group_IT_number 12
_symmetry_cell_setting 'monoclinic'
loop_
_space_group_symop_operation_xyz
x,y,z
-x,y,-z
-x,-y,-z
x,-y,z
1/2+x,1/2+y,z
1/2-x,1/2+y,-z
1/2-x,1/2-y,-z
1/2+x,1/2-y,z
loop_
_atom_site_type_symbol
_atom_site_label
_atom_site_fract_x
_atom_site_fract_y
_atom_site_fract_z
Si Si1 0.327650 0.140471 0.019593
Si Si2 0.287631 0.643383 0.891741
Si Si3 0.975978 0.356825 0.456875
Si Si4 0.693096 0.286460 0.281610
Si Si5 0.495752 0.140353 0.231388
Si Si6 0.687330 0.647124 0.581632
Si Si7 0.510482 0.852635 0.854322
Si Si8 0.611991 0.358813 0.667486
O O1 0.310510 0.165831 0.065352
O O2 0.260227 0.000000 0.012698
O O3 0.500000 0.144215 0.000000
O O4 0.250000 0.250000 0.000000
O O5 0.360459 0.500000 0.888205
O O6 0.411541 0.754486 0.883983
O O7 0.180425 0.656508 0.860692
O O8 0.906286 0.500000 0.454202
O O9 0.867690 0.244328 0.447971
O O10 0.000000 0.332376 0.500000
O O11 0.132630 0.348119 0.426267
O O12 0.613304 0.215789 0.250873
O O13 0.826934 0.371544 0.257441
O O14 0.561919 0.363409 0.309850
O O15 0.773006 0.195764 0.307747
O O16 0.488665 0.197675 0.189239
O O17 0.563929 0.000000 0.225430
O O18 0.632396 0.500000 0.576470
O O19 0.625717 0.704942 0.625049
O O20 0.452166 0.000000 0.861256
O O21 0.671985 0.500000 0.658203
#
# Coordination Sequence:
#
# PCOD8097569 Si02
#       8
#     8   8   8   8   8   8   8   8
#     4  10  21  37  57  81 110 143 180 222 268 319
#     4  10  21  37  56  81 111 143 180 222 269 320
#     4  10  21  37  56  80 110 143 180 222 268 319
#     4  10  20  34  54  77 104 138 174 215 266 317
#     4  10  20  35  54  78 105 136 177 219 262 314
#     4  10  21  36  55  80 109 141 180 223 267 319
#     4  10  21  37  57  80 109 143 179 222 268 317
#     4  10  20  35  53  76 106 138 174 218 266 315
#
# _framework density 19.679102
#
# number of rings (size 3 to 8) (size 9 to 14) (size 15 to 20)
#    0.000    2.000    0.000    3.375    0.000    3.000 
#    0.000    6.250    0.000    0.000    0.000    0.000 
#    0.000    0.000    0.000    0.000    0.000    0.000 
#
# Total GULP energy -396612.608779 kJ/mol
# GULP energy per Si atom -12394.144024 kJ/mol
# Density = 1.963431 g / cm^3
# Si number density = 19.679102 Si / 1000 Ang^3
#
#
#
# Elastic Constant Matrix: (Units=GPa)
#
#
# Indices 1 2 3 4 5 6 
#
# 1 58.5056 32.9708 13.4261 0.0000 6.7200 0.0000
# 2 32.9708 97.4768 30.5493 0.0000 9.8855 0.0000
# 3 13.4261 30.5493 84.3997 0.0000 0.8389 0.0000
# 4 0.0000 0.0000 0.0000 30.1026 0.0000 -0.9619
# 5 6.7200 9.8855 0.8389 0.0000 31.4074 0.0000
# 6 0.0000 0.0000 0.0000 -0.9619 0.0000 25.8101
#
#
#
# Elastic Compliance Matrix: (Units=1/GPa)
#
#
# Indices 1 2 3 4 5 6 
#
# 1 0.021354 -0.006676 -0.000956 0.000000 -0.002442 0.000000
# 2 -0.006676 0.014064 -0.004000 0.000000 -0.002891 0.000000
# 3 -0.000956 -0.004000 0.013437 0.000000 0.001105 0.000000
# 4 0.000000 0.000000 0.000000 0.033259 0.000000 0.001240
# 5 -0.002442 -0.002891 0.001105 0.000000 0.033243 0.000000
# 6 0.000000 0.000000 0.000000 0.001240 0.000000 0.038791
#
#
# Mechanical properties :
#
#
# Convention : Reuss Voigt Hill
#
# Bulk Modulus (GPa) = 39.07510 43.80826 41.44168
# Shear Modulus (GPa) = 26.89009 28.35976 27.62492
#
# Velocity S-wave (km/s) = 3.70053 3.80031 3.75076
# Velocity P-wave (km/s) = 6.17720 6.44718 6.31364
#
# Compressibility (1/GPa) = 0.02559175
#
# Stress axis : x y z
#
# Youngs Moduli (GPa) = 46.82880 71.10577 74.41968
#
# Poissons Ratio (x) = 0.47467 0.07118
# Poissons Ratio (y) = 0.31261 0.29766
# Poissons Ratio (z) = 0.04479 0.28441
#
# Static dielectric constant tensor:
#      x y z
#    x 3.398680 0.000000 -0.091500 
#    y 0.000000 3.684530 0.000000 
#    z -0.091500 0.000000 3.782400 
# 
# 
# High freq. dielectric constant tensor:
#      x y z
#    x 1.754410 0.000000 -0.005760 
#    y 0.000000 1.768040 0.000000 
#    z -0.005760 0.000000 1.784510 
# 
# From -- ./inp_files/372168.got.cif
#   From: 2010.06.25/outbox.cif.g09.slc.cpg/sg12_187_cif.got.tgz:372168.got - 2010.06.28 00:19:55.
