data_PCOD8097194
_publ_section_title
;
Structure prediction by ZEFSAII (Michael W. Deem and Ramdas Pophale) SiO2 
 PCOD8097194
Probable space group: C 2/M
;
_chemical_formula_sum "Si O2"
_cell_formula_units_Z 56
_cell_length_a 14.736179
_cell_length_b 25.801880
_cell_length_c 11.792417
_cell_angle_alpha 90.000000
_cell_angle_beta 37.027495
_cell_angle_gamma 90.000000
_cell_volume 2700.091749
_symmetry_space_group_name_H-M "C 2/M"
_symmetry_group_IT_number 12
_symmetry_cell_setting 'monoclinic'
loop_
_space_group_symop_operation_xyz
x,y,z
-x,y,-z
-x,-y,-z
x,-y,z
1/2+x,1/2+y,z
1/2-x,1/2+y,-z
1/2-x,1/2-y,-z
1/2+x,1/2-y,z
loop_
_atom_site_type_symbol
_atom_site_label
_atom_site_fract_x
_atom_site_fract_y
_atom_site_fract_z
Si Si1 0.146742 0.598332 0.308258
Si Si2 0.116540 0.059086 0.096135
Si Si3 0.099981 0.140015 0.795234
Si Si4 0.864276 0.682493 0.209626
Si Si5 0.562968 0.821414 0.210088
Si Si6 0.815719 0.142991 0.805583
Si Si7 0.923708 0.211171 0.392242
O O1 0.237581 0.622364 0.323122
O O2 0.072703 0.645911 0.313671
O O3 0.000000 0.566857 0.500000
O O4 0.246846 0.561203 0.130281
O O5 0.166650 0.084422 0.165688
O O6 0.975147 0.089739 0.187189
O O7 0.070258 0.000000 0.163938
O O8 0.114477 0.186821 0.692273
O O9 0.000000 0.160204 0.000000
O O10 0.777161 0.640065 0.219408
O O11 0.735203 0.722323 0.383495
O O12 0.940603 0.654902 0.242483
O O13 0.000000 0.709550 0.000000
O O14 0.516779 0.763273 0.285780
O O15 0.727185 0.822367 0.987320
O O16 0.977727 0.170788 0.631698
#
# Coordination Sequence:
#
# PCOD8097194 Si02
#       7
#     8   8   8   8   8   8   8
#     4  10  20  34  52  81 117 146 180 229 280 332
#     4   9  19  38  61  82 106 140 183 231 285 344
#     4   9  20  35  55  83 114 146 183 231 280 332
#     4  10  21  36  54  77 110 154 195 230 270 320
#     4  10  21  34  51  78 114 152 188 226 270 329
#     4   9  20  36  55  80 109 141 185 238 284 329
#     4  11  20  34  55  82 113 153 194 229 272 323
#
# _framework density 20.740034999999999
#
# number of rings (size 3 to 8) (size 9 to 14) (size 15 to 20)
#    0.000    2.286    0.000    3.000    0.000    6.857 
#    0.000    2.857    0.000   17.571    0.000    0.000 
#    0.000    0.000    0.000    0.000    0.000    0.000 
#
# Total GULP energy -346994.974709 kJ/mol
# GULP energy per Si atom -12392.677668 kJ/mol
# Density = 2.069283 g / cm^3
# Si number density = 20.740035 Si / 1000 Ang^3
#
#
#
# Elastic Constant Matrix: (Units=GPa)
#
#
# Indices 1 2 3 4 5 6 
#
# 1 128.6539 34.4292 21.8407 -0.0001 2.3042 0.0001
# 2 34.4292 99.2543 27.4418 0.0000 7.6648 0.0000
# 3 21.8407 27.4418 105.7956 -0.0001 -17.0444 0.0000
# 4 -0.0001 0.0000 -0.0001 9.7048 0.0001 -2.9663
# 5 2.3042 7.6648 -17.0444 0.0001 30.4369 -0.0001
# 6 0.0001 0.0000 0.0000 -2.9663 -0.0001 10.6254
#
#
#
# Elastic Compliance Matrix: (Units=1/GPa)
#
#
# Indices 1 2 3 4 5 6 
#
# 1 0.008695 -0.002625 -0.001224 0.000000 -0.000683 0.000000
# 2 -0.002625 0.012305 -0.003426 0.000000 -0.004819 0.000000
# 3 -0.001224 -0.003426 0.011813 0.000000 0.007571 0.000000
# 4 0.000000 0.000000 0.000000 0.112655 0.000000 0.031450
# 5 -0.000683 -0.004819 0.007571 0.000000 0.038360 0.000000
# 6 0.000000 0.000000 0.000000 0.031450 0.000000 0.102894
#
#
# Mechanical properties :
#
#
# Convention : Reuss Voigt Hill
#
# Bulk Modulus (GPa) = 54.75558 55.68080 55.21819
# Shear Modulus (GPa) = 16.26756 26.81955 21.54355
#
# Velocity S-wave (km/s) = 2.80367 3.59991 3.22645
# Velocity P-wave (km/s) = 6.07775 6.64714 6.36881
#
# Compressibility (1/GPa) = 0.01826298
#
# Stress axis : x y z
#
# Youngs Moduli (GPa) = 115.00423 81.26729 84.65025
#
# Poissons Ratio (x) = 0.21333 0.10363
# Poissons Ratio (y) = 0.30189 0.29002
# Poissons Ratio (z) = 0.14079 0.27843
#
# Static dielectric constant tensor:
#      x y z
#    x 4.132080 0.000000 -0.071090 
#    y 0.000000 3.144040 0.000000 
#    z -0.071090 0.000000 4.042440 
# 
# 
# High freq. dielectric constant tensor:
#      x y z
#    x 1.835100 0.000000 -0.008190 
#    y 0.000000 1.747760 0.000000 
#    z -0.008190 0.000000 1.827700 
# 
# From -- ./inp_files/149447.got.cif
#   From: 2010.06.25/outbox.cif.g09.slc.cpg/sg12_75_cif.got.tgz:149447.got - 2010.06.28 00:19:55.
