data_PCOD8098689
_publ_section_title
;
Structure prediction by ZEFSAII (Michael W. Deem and Ramdas Pophale) SiO2 
 PCOD8098689
Probable space group: C 2/M
;
_chemical_formula_sum "Si O2"
_cell_formula_units_Z 60
_cell_length_a 24.627957
_cell_length_b 15.961160
_cell_length_c 14.280913
_cell_angle_alpha 90.000000
_cell_angle_beta 29.632693
_cell_angle_gamma 90.000000
_cell_volume 2775.623669
_symmetry_space_group_name_H-M "C 2/M"
_symmetry_group_IT_number 12
_symmetry_cell_setting 'monoclinic'
loop_
_space_group_symop_operation_xyz
x,y,z
-x,y,-z
-x,-y,-z
x,-y,z
1/2+x,1/2+y,z
1/2-x,1/2+y,-z
1/2-x,1/2-y,-z
1/2+x,1/2-y,z
loop_
_atom_site_type_symbol
_atom_site_label
_atom_site_fract_x
_atom_site_fract_y
_atom_site_fract_z
Si Si1 0.371947 0.407650 0.709925
Si Si2 0.299143 0.093249 0.596918
Si Si3 0.500000 0.204009 0.000000
Si Si4 0.155920 0.167615 0.437847
Si Si5 0.092430 0.768964 0.200027
Si Si6 0.843933 0.210926 0.102245
Si Si7 0.718163 0.842931 0.579696
Si Si8 0.017774 0.404378 0.363518
O O1 0.500000 0.410019 0.500000
O O2 0.332964 0.500000 0.805706
O O3 0.316190 0.391461 0.692499
O O4 0.344727 0.330854 0.821272
O O5 0.187071 0.117295 0.820306
O O6 0.285930 0.099789 0.505240
O O7 0.412119 0.133226 0.467190
O O8 0.317975 0.000000 0.599239
O O9 0.458353 0.260955 0.976175
O O10 0.400520 0.149502 0.190901
O O11 0.240033 0.244712 0.308044
O O12 0.188081 0.122780 0.488421
O O13 0.031356 0.198336 0.625256
O O14 0.104901 0.670937 0.212035
O O15 0.156307 0.777533 0.007505
O O16 0.750000 0.750000 0.500000
O O17 0.054181 0.500000 0.276687
O O18 0.000000 0.406096 0.500000
#
# Coordination Sequence:
#
# PCOD8098689 Si02
#       8
#     8   8   4   8   8   8   8   8
#     4   9  20  38  59  86 123 160 201 256 310 367
#     4  11  23  39  59  90 128 159 199 258 314 363
#     4  10  20  34  64  90 116 156 208 250 294 370
#     4  10  20  37  61  86 116 159 206 250 305 370
#     4  11  21  36  65  88 120 165 209 249 310 367
#     4  11  22  36  60  90 119 159 208 249 300 370
#     4  11  19  37  63  88 121 161 205 248 305 369
#     4  10  20  38  63  90 125 164 205 256 313 373
#
# _framework density 21.616762999999999
#
# number of rings (size 3 to 8) (size 9 to 14) (size 15 to 20)
#    0.000    1.600    4.000    2.800    0.000    1.600 
#    0.000    1.333    0.000    1.600    0.000    0.000 
#    0.000    0.000    0.000    0.000    0.000    0.000 
#
# Total GULP energy -371668.093733 kJ/mol
# GULP energy per Si atom -12388.936458 kJ/mol
# Density = 2.156756 g / cm^3
# Si number density = 21.616763 Si / 1000 Ang^3
#
#
#
# Elastic Constant Matrix: (Units=GPa)
#
#
# Indices 1 2 3 4 5 6 
#
# 1 154.9481 34.6735 18.8206 0.0000 20.7288 0.0000
# 2 34.6735 100.0520 18.1872 0.0000 15.6623 0.0000
# 3 18.8206 18.1872 71.4811 0.0000 16.9723 0.0000
# 4 0.0000 0.0000 0.0000 6.5402 0.0000 6.1682
# 5 20.7288 15.6623 16.9723 0.0000 38.3386 0.0000
# 6 0.0000 0.0000 0.0000 6.1682 0.0000 18.7846
#
#
#
# Elastic Compliance Matrix: (Units=1/GPa)
#
#
# Indices 1 2 3 4 5 6 
#
# 1 0.007367 -0.001970 -0.000764 0.000000 -0.002840 0.000000
# 2 -0.001970 0.011435 -0.001715 0.000000 -0.002847 0.000000
# 3 -0.000764 -0.001715 0.016050 0.000000 -0.005991 0.000000
# 4 0.000000 0.000000 0.000000 0.221495 0.000000 -0.072731
# 5 -0.002840 -0.002847 -0.005991 0.000000 0.031435 0.000000
# 6 0.000000 0.000000 0.000000 -0.072731 0.000000 0.077117
#
#
# Mechanical properties :
#
#
# Convention : Reuss Voigt Hill
#
# Bulk Modulus (GPa) = 38.52854 52.20487 45.36670
# Shear Modulus (GPa) = 13.07366 29.71933 21.39650
#
# Velocity S-wave (km/s) = 2.46192 3.71189 3.14954
# Velocity P-wave (km/s) = 5.09348 6.52483 5.85308
#
# Compressibility (1/GPa) = 0.02595479
#
# Stress axis : x y z
#
# Youngs Moduli (GPa) = 135.73428 87.45217 62.30596
#
# Poissons Ratio (x) = 0.17225 0.04762
# Poissons Ratio (y) = 0.26735 0.10684
# Poissons Ratio (z) = 0.10373 0.14996
#
# Static dielectric constant tensor:
#      x y z
#    x 4.329970 0.000000 0.079690 
#    y 0.000000 4.087590 0.000000 
#    z 0.079690 0.000000 3.692560 
# 
# 
# High freq. dielectric constant tensor:
#      x y z
#    x 1.870540 0.000000 0.004180 
#    y 0.000000 1.830080 0.000000 
#    z 0.004180 0.000000 1.829120 
# 
# From -- ./inp_files/246710.got.cif
#   From: 2010.06.25/outbox.cif.g09.slc.cpg/sg12_124_cif.got.tgz:246710.got - 2010.06.28 00:19:55.
