data_PCOD8098792
_publ_section_title
;
Structure prediction by ZEFSAII (Michael W. Deem and Ramdas Pophale) SiO2 
 PCOD8098792
Probable space group: C 2/M
;
_chemical_formula_sum "Si O2"
_cell_formula_units_Z 56
_cell_length_a 15.723577
_cell_length_b 9.139815
_cell_length_c 22.544940
_cell_angle_alpha 90.000000
_cell_angle_beta 59.880071
_cell_angle_gamma 90.000000
_cell_volume 2802.478987
_symmetry_space_group_name_H-M "C 2/M"
_symmetry_group_IT_number 12
_symmetry_cell_setting 'monoclinic'
loop_
_space_group_symop_operation_xyz
x,y,z
-x,y,-z
-x,-y,-z
x,-y,z
1/2+x,1/2+y,z
1/2-x,1/2+y,-z
1/2-x,1/2-y,-z
1/2+x,1/2-y,z
loop_
_atom_site_type_symbol
_atom_site_label
_atom_site_fract_x
_atom_site_fract_y
_atom_site_fract_z
Si Si1 0.369693 0.833449 0.206240
Si Si2 0.224543 0.335204 0.067818
Si Si3 0.438189 0.833461 0.791182
Si Si4 0.977977 0.671728 0.648434
Si Si5 0.776523 0.669248 0.665261
Si Si6 0.815723 0.174497 0.427901
Si Si7 0.919602 0.835022 0.073403
O O1 0.448696 0.818977 0.230758
O O2 0.272146 0.753137 0.262597
O O3 0.418309 0.764041 0.131543
O O4 0.342580 0.000000 0.201480
O O5 0.197426 0.500000 0.057810
O O6 0.134319 0.257101 0.135341
O O7 0.314310 0.332362 0.080856
O O8 0.250000 0.250000 0.000000
O O9 0.431090 0.771187 0.726996
O O10 0.401455 0.000000 0.802547
O O11 0.007437 0.500000 0.642162
O O12 0.894689 0.696974 0.626933
O O13 0.074036 0.766724 0.601283
O O14 0.752805 0.500000 0.683634
O O15 0.731650 0.721986 0.618489
O O16 0.750000 0.250000 0.500000
O O17 0.814887 0.000000 0.435804
O O18 0.950044 0.000000 0.080891
O O19 0.000000 0.769470 0.000000
#
# Coordination Sequence:
#
# PCOD8098792 Si02
#       7
#     8   8   8   8   8   8   8
#     4  11  21  34  57  86 115 150 196 251 304 356
#     4  10  20  35  53  75 107 147 194 243 298 359
#     4   9  18  33  55  81 110 148 190 239 299 353
#     4  10  20  40  66  89 119 161 204 249 301 364
#     4  10  22  40  64  91 122 161 204 247 302 366
#     4  11  24  42  64  94 128 163 202 251 304 363
#     4  10  21  36  53  76 110 153 197 245 304 366
#
# _framework density 19.982309000000001
#
# number of rings (size 3 to 8) (size 9 to 14) (size 15 to 20)
#    0.000    1.857    1.429    2.571    0.000    4.857 
#    0.000    4.286    0.000    0.000    0.000    0.000 
#    0.000    0.000    0.000    0.000    0.000    0.000 
#
# Total GULP energy -347168.075463 kJ/mol
# GULP energy per Si atom -12398.859838 kJ/mol
# Density = 1.993683 g / cm^3
# Si number density = 19.982309 Si / 1000 Ang^3
#
#
#
# Elastic Constant Matrix: (Units=GPa)
#
#
# Indices 1 2 3 4 5 6 
#
# 1 91.2965 34.8321 41.9061 0.0000 -10.8401 0.0000
# 2 34.8321 76.5715 53.5698 0.0000 -1.2181 0.0001
# 3 41.9061 53.5698 139.6515 0.0000 -14.5585 0.0000
# 4 0.0000 0.0000 0.0000 30.7211 0.0000 -7.5619
# 5 -10.8401 -1.2181 -14.5585 0.0000 31.3136 0.0000
# 6 0.0000 0.0001 0.0000 -7.5619 0.0000 21.9104
#
#
#
# Elastic Compliance Matrix: (Units=1/GPa)
#
#
# Indices 1 2 3 4 5 6 
#
# 1 0.014224 -0.005061 -0.001928 0.000000 0.003831 0.000000
# 2 -0.005061 0.019857 -0.006516 0.000000 -0.004009 0.000000
# 3 -0.001928 -0.006516 0.010659 0.000000 0.004035 0.000000
# 4 0.000000 0.000000 0.000000 0.035573 0.000000 0.012277
# 5 0.003831 -0.004009 0.004035 0.000000 0.034981 0.000000
# 6 0.000000 0.000000 0.000000 0.012277 0.000000 0.049878
#
#
# Mechanical properties :
#
#
# Convention : Reuss Voigt Hill
#
# Bulk Modulus (GPa) = 56.39965 63.12619 59.76292
# Shear Modulus (GPa) = 25.24084 28.60312 26.92198
#
# Velocity S-wave (km/s) = 3.55795 3.78752 3.67453
# Velocity P-wave (km/s) = 6.72047 7.12648 6.92645
#
# Compressibility (1/GPa) = 0.01773061
#
# Stress axis : x y z
#
# Youngs Moduli (GPa) = 70.30457 50.36004 93.81404
#
# Poissons Ratio (x) = 0.25487 0.18083
# Poissons Ratio (y) = 0.35581 0.61133
# Poissons Ratio (z) = 0.13551 0.32816
#
# Static dielectric constant tensor:
#      x y z
#    x 3.069790 0.000000 -0.290140 
#    y 0.000000 3.438100 0.000000 
#    z -0.290140 0.000000 3.645010 
# 
# 
# High freq. dielectric constant tensor:
#      x y z
#    x 1.788220 0.000000 -0.004850 
#    y 0.000000 1.757890 0.000000 
#    z -0.004850 0.000000 1.786550 
# 
# From -- ./inp_files/309021.got.cif
#   From: 2010.06.25/outbox.cif.g09.slc.cpg/sg12_155_cif.got.tgz:309021.got - 2010.06.28 00:19:55.
