data_PCOD8098336
_publ_section_title
;
Structure prediction by ZEFSAII (Michael W. Deem and Ramdas Pophale) SiO2 
 PCOD8098336
Probable space group: C 2/M
;
_chemical_formula_sum "Si O2"
_cell_formula_units_Z 48
_cell_length_a 25.892623
_cell_length_b 22.108092
_cell_length_c 9.338371
_cell_angle_alpha 90.000000
_cell_angle_beta 27.086175
_cell_angle_gamma 90.000000
_cell_volume 2434.023623
_symmetry_space_group_name_H-M "C 2/M"
_symmetry_group_IT_number 12
_symmetry_cell_setting 'monoclinic'
loop_
_space_group_symop_operation_xyz
x,y,z
-x,y,-z
-x,-y,-z
x,-y,z
1/2+x,1/2+y,z
1/2-x,1/2+y,-z
1/2-x,1/2-y,-z
1/2+x,1/2-y,z
loop_
_atom_site_type_symbol
_atom_site_label
_atom_site_fract_x
_atom_site_fract_y
_atom_site_fract_z
Si Si1 0.673089 0.351553 0.901862
Si Si2 0.572709 0.146769 0.681532
Si Si3 0.985645 0.243081 0.372427
Si Si4 0.608105 0.070239 0.331382
Si Si5 0.341152 0.630001 0.740391
Si Si6 0.474627 0.570437 0.906226
O O1 0.803571 0.333317 0.570140
O O2 0.597946 0.293148 0.051369
O O3 0.639651 0.379888 0.138069
O O4 0.643801 0.401994 0.856182
O O5 0.520845 0.200716 0.716796
O O6 0.578148 0.086910 0.569424
O O7 0.500000 0.131592 0.000000
O O8 0.873771 0.200232 0.627820
O O9 0.000000 0.266180 0.500000
O O10 0.500000 0.082996 0.500000
O O11 0.644977 0.000000 0.233848
O O12 0.710842 0.113625 0.022643
O O13 0.422723 0.585241 0.453922
O O14 0.456102 0.500000 0.962328
O O15 0.500000 0.597890 0.000000
#
# Coordination Sequence:
#
# PCOD8098336 Si02
#       6
#     8   8   8   8   8   8
#     4   9  21  38  56  81 110 145 190 232 275 334
#     4  11  24  38  56  84 116 154 190 227 283 334
#     4   9  19  37  60  85 111 141 184 237 284 334
#     4  10  22  39  59  83 112 153 199 233 270 329
#     4   9  19  37  61  85 110 144 188 236 284 333
#     4  10  20  34  56  85 113 142 179 233 295 338
#
# _framework density 19.720431999999999
#
# number of rings (size 3 to 8) (size 9 to 14) (size 15 to 20)
#    0.000    2.333    0.000    2.500    0.000   16.333 
#    0.000    1.667    0.000    0.000    0.000    0.000 
#    0.000    0.000    0.000    0.000    0.000    0.000 
#
# Total GULP energy -297561.733155 kJ/mol
# GULP energy per Si atom -12398.405548 kJ/mol
# Density = 1.967555 g / cm^3
# Si number density = 19.720432 Si / 1000 Ang^3
#
#
#
# Elastic Constant Matrix: (Units=GPa)
#
#
# Indices 1 2 3 4 5 6 
#
# 1 90.6071 26.5804 42.5618 0.0001 -11.7524 0.0000
# 2 26.5804 47.7238 18.8358 0.0000 -6.5064 0.0000
# 3 42.5618 18.8358 110.7456 0.0004 -10.3567 -0.0001
# 4 0.0001 0.0000 0.0004 18.7525 0.0000 -1.7386
# 5 -11.7524 -6.5064 -10.3567 0.0000 32.7456 0.0000
# 6 0.0000 0.0000 -0.0001 -1.7386 0.0000 38.1331
#
#
#
# Elastic Compliance Matrix: (Units=1/GPa)
#
#
# Indices 1 2 3 4 5 6 
#
# 1 0.015431 -0.006404 -0.004578 0.000000 0.002818 0.000000
# 2 -0.006404 0.025482 -0.001664 0.000000 0.002239 0.000000
# 3 -0.004578 -0.001664 0.011219 0.000000 0.001575 0.000000
# 4 0.000000 0.000000 0.000000 0.053553 0.000000 0.002442
# 5 0.002818 0.002239 0.001575 0.000000 0.032493 0.000000
# 6 0.000000 0.000000 0.000000 0.002442 0.000000 0.026335
#
#
# Mechanical properties :
#
#
# Convention : Reuss Voigt Hill
#
# Bulk Modulus (GPa) = 37.25427 47.22583 42.24005
# Shear Modulus (GPa) = 25.15710 28.66614 26.91162
#
# Velocity S-wave (km/s) = 3.57555 3.81678 3.69813
# Velocity P-wave (km/s) = 5.99819 6.58964 6.30086
#
# Compressibility (1/GPa) = 0.02684256
#
# Stress axis : x y z
#
# Youngs Moduli (GPa) = 64.80421 39.24295 89.13221
#
# Poissons Ratio (x) = 0.25129 0.40803
# Poissons Ratio (y) = 0.41498 0.14829
# Poissons Ratio (z) = 0.29666 0.06529
#
# Static dielectric constant tensor:
#      x y z
#    x 3.828070 0.000000 -0.107270 
#    y 0.000000 3.477840 0.000000 
#    z -0.107270 0.000000 3.606570 
# 
# 
# High freq. dielectric constant tensor:
#      x y z
#    x 1.775010 0.000000 -0.009410 
#    y 0.000000 1.761440 0.000000 
#    z -0.009410 0.000000 1.761030 
# 
# From -- ./inp_files/99747.got.cif
#   From: 2010.06.25/outbox.cif.g09.slc.cpg/sg12_50_cif.got.tgz:99747.got - 2010.06.28 00:19:55.
