data_PCOD8098603
_publ_section_title
;
Structure prediction by ZEFSAII (Michael W. Deem and Ramdas Pophale) SiO2 
 PCOD8098603
Probable space group: C 2/M
;
_chemical_formula_sum "Si O2"
_cell_formula_units_Z 64
_cell_length_a 20.883391
_cell_length_b 18.814565
_cell_length_c 10.464790
_cell_angle_alpha 90.000000
_cell_angle_beta 52.091272
_cell_angle_gamma 90.000000
_cell_volume 3244.124355
_symmetry_space_group_name_H-M "C 2/M"
_symmetry_group_IT_number 12
_symmetry_cell_setting 'monoclinic'
loop_
_space_group_symop_operation_xyz
x,y,z
-x,y,-z
-x,-y,-z
x,-y,z
1/2+x,1/2+y,z
1/2-x,1/2+y,-z
1/2-x,1/2-y,-z
1/2+x,1/2-y,z
loop_
_atom_site_type_symbol
_atom_site_label
_atom_site_fract_x
_atom_site_fract_y
_atom_site_fract_z
Si Si1 0.731881 0.579849 0.054945
Si Si2 0.717704 0.718578 0.210463
Si Si3 0.061061 0.288894 0.326434
Si Si4 0.177568 0.796786 0.541697
Si Si5 0.640508 0.077685 0.327534
Si Si6 0.007339 0.254328 0.848930
Si Si7 0.143072 0.839164 0.968245
Si Si8 0.718535 0.418068 0.656156
O O1 0.717059 0.500000 0.130130
O O2 0.752535 0.639729 0.136298
O O3 0.802771 0.576585 0.865617
O O4 0.652633 0.610379 0.080425
O O5 0.646599 0.746440 0.200393
O O6 0.668668 0.713872 0.402451
O O7 0.790406 0.775116 0.120088
O O8 0.073459 0.363300 0.385496
O O9 0.000000 0.247733 0.500000
O O10 0.021570 0.303675 0.234757
O O11 0.250000 0.750000 0.500000
O O12 0.098020 0.772414 0.715419
O O13 0.204558 0.877560 0.539784
O O14 0.692526 0.096105 0.390829
O O15 0.599822 0.000000 0.394054
O O16 0.000000 0.291291 0.000000
O O17 0.948729 0.186659 0.919143
O O18 0.151200 0.888684 0.835145
O O19 0.703959 0.500000 0.646701
#
# Coordination Sequence:
#
# PCOD8098603 Si02
#       8
#     8   8   8   8   8   8   8   8
#     4  10  20  34  58  88 119 152 195 247 302 360
#     4  12  21  37  63  87 118 165 205 246 311 369
#     4  12  22  36  62  91 125 156 202 259 309 361
#     4  12  23  40  59  84 123 161 200 247 310 360
#     4   9  19  37  62  91 118 154 205 253 307 371
#     4  12  24  37  59  92 120 153 211 254 300 363
#     4  11  19  38  64  86 115 153 203 257 295 355
#     4  10  20  37  62  88 119 156 202 252 306 361
#
# _framework density 19.727974
#
# number of rings (size 3 to 8) (size 9 to 14) (size 15 to 20)
#    0.000    1.000    7.500    2.250    0.000    0.750 
#    0.000    1.875    0.000    1.500    0.000    0.000 
#    0.000    0.000    0.000    0.000    0.000    0.000 
#
# Total GULP energy -396500.542793 kJ/mol
# GULP energy per Si atom -12390.641962 kJ/mol
# Density = 1.968307 g / cm^3
# Si number density = 19.727974 Si / 1000 Ang^3
#
#
#
# Elastic Constant Matrix: (Units=GPa)
#
#
# Indices 1 2 3 4 5 6 
#
# 1 90.1330 32.0927 37.4512 0.0000 -5.2151 0.0000
# 2 32.0927 121.5536 21.5303 0.0000 -8.5708 0.0000
# 3 37.4512 21.5303 77.7592 0.0000 -0.7667 0.0000
# 4 0.0000 0.0000 0.0000 23.4687 0.0000 6.7664
# 5 -5.2151 -8.5708 -0.7667 0.0000 34.9753 0.0000
# 6 0.0000 0.0000 0.0000 6.7664 0.0000 28.9014
#
#
#
# Elastic Compliance Matrix: (Units=1/GPa)
#
#
# Indices 1 2 3 4 5 6 
#
# 1 0.014771 -0.002674 -0.006360 0.000000 0.001408 0.000000
# 2 -0.002674 0.009287 -0.001265 0.000000 0.001849 0.000000
# 3 -0.006360 -0.001265 0.016265 0.000000 -0.000902 0.000000
# 4 0.000000 0.000000 0.000000 0.045694 0.000000 -0.010698
# 5 0.001408 0.001849 -0.000902 0.000000 0.029235 0.000000
# 6 0.000000 0.000000 0.000000 -0.010698 0.000000 0.037105
#
#
# Mechanical properties :
#
#
# Convention : Reuss Voigt Hill
#
# Bulk Modulus (GPa) = 50.69839 52.39934 51.54886
# Shear Modulus (GPa) = 27.85042 30.69386 29.27214
#
# Velocity S-wave (km/s) = 3.76137 3.94871 3.85618
# Velocity P-wave (km/s) = 6.67970 6.88537 6.78331
#
# Compressibility (1/GPa) = 0.01972449
#
# Stress axis : x y z
#
# Youngs Moduli (GPa) = 67.70091 107.67314 61.48260
#
# Poissons Ratio (x) = 0.28793 0.39102
# Poissons Ratio (y) = 0.18104 0.07780
# Poissons Ratio (z) = 0.43056 0.13625
#
# Static dielectric constant tensor:
#      x y z
#    x 4.060650 0.000000 0.678830 
#    y 0.000000 3.788100 0.000000 
#    z 0.678830 0.000000 4.308320 
# 
# 
# High freq. dielectric constant tensor:
#      x y z
#    x 1.766560 0.000000 0.004240 
#    y 0.000000 1.754060 0.000000 
#    z 0.004240 0.000000 1.763250 
# 
# From -- ./inp_files/168745.got.cif
#   From: 2010.06.25/outbox.cif.g09.slc.cpg/sg12_85_cif.got.tgz:168745.got - 2010.06.28 00:19:55.
