data_PCOD8098885
_publ_section_title
;
Structure prediction by ZEFSAII (Michael W. Deem and Ramdas Pophale) SiO2 
 PCOD8098885
Probable space group: C 2/M
;
_chemical_formula_sum "Si O2"
_cell_formula_units_Z 56
_cell_length_a 18.797479
_cell_length_b 9.319435
_cell_length_c 20.445539
_cell_angle_alpha 90.000000
_cell_angle_beta 60.077912
_cell_angle_gamma 90.000000
_cell_volume 3104.265186
_symmetry_space_group_name_H-M "C 2/M"
_symmetry_group_IT_number 12
_symmetry_cell_setting 'monoclinic'
loop_
_space_group_symop_operation_xyz
x,y,z
-x,y,-z
-x,-y,-z
x,-y,z
1/2+x,1/2+y,z
1/2-x,1/2+y,-z
1/2-x,1/2-y,-z
1/2+x,1/2-y,z
loop_
_atom_site_type_symbol
_atom_site_label
_atom_site_fract_x
_atom_site_fract_y
_atom_site_fract_z
Si Si1 0.989467 0.838200 0.300471
Si Si2 0.127700 0.836611 0.762136
Si Si3 0.329790 0.841763 0.953653
Si Si4 0.514127 0.333310 0.070200
Si Si5 0.141445 0.656721 0.207759
Si Si6 0.787458 0.829431 0.716061
Si Si7 0.038921 0.833540 0.417570
O O1 0.907937 0.822995 0.295012
O O2 0.052337 0.725832 0.242503
O O3 0.978313 0.805580 0.383280
O O4 0.025393 0.000000 0.276987
O O5 0.064282 0.789975 0.848759
O O6 0.204961 0.731507 0.722549
O O7 0.155792 0.000000 0.762822
O O8 0.409452 0.760784 0.943145
O O9 0.328039 0.866152 0.878114
O O10 0.325147 0.000000 0.989460
O O11 0.250000 0.750000 0.000000
O O12 0.534821 0.500000 0.073027
O O13 0.500000 0.302988 0.000000
O O14 0.136814 0.500000 0.244748
O O15 0.204719 0.761815 0.215477
O O16 0.868878 0.776259 0.639340
O O17 0.781779 0.000000 0.723176
O O18 0.000000 0.757770 0.500000
O O19 0.048173 0.000000 0.428327
#
# Coordination Sequence:
#
# PCOD8098885 Si02
#       7
#     8   8   8   8   8   8   8
#     4   9  17  32  56  80 102 138 178 213 261 315
#     4  10  20  35  54  77 110 144 178 222 266 319
#     4  11  24  38  55  78 105 138 178 225 273 319
#     4  10  22  39  57  77 106 144 182 222 271 319
#     4  10  20  35  54  76 103 136 176 222 268 313
#     4  10  21  34  54  81 108 141 180 219 263 316
#     4   8  15  31  55  81 107 137 177 219 260 312
#
# _framework density 18.039694999999998
#
# number of rings (size 3 to 8) (size 9 to 14) (size 15 to 20)
#    0.000    2.286    1.429    2.143    2.000    3.143 
#    0.000    0.714    0.000   10.714    0.000    0.000 
#    0.000    0.000    0.000    0.000    0.000    0.000 
#
# Total GULP energy -346969.745499 kJ/mol
# GULP energy per Si atom -12391.776625 kJ/mol
# Density = 1.799864 g / cm^3
# Si number density = 18.039695 Si / 1000 Ang^3
#
#
#
# Elastic Constant Matrix: (Units=GPa)
#
#
# Indices 1 2 3 4 5 6 
#
# 1 124.3324 63.1107 58.9999 0.0000 -2.4367 0.0000
# 2 63.1107 106.6616 40.9904 0.0000 -7.1783 -0.0001
# 3 58.9999 40.9904 101.3791 0.0000 9.4223 0.0000
# 4 0.0000 0.0000 0.0000 12.3030 0.0000 -1.4465
# 5 -2.4367 -7.1783 9.4223 0.0000 22.8402 0.0000
# 6 0.0000 -0.0001 0.0000 -1.4465 0.0000 34.1874
#
#
#
# Elastic Compliance Matrix: (Units=1/GPa)
#
#
# Indices 1 2 3 4 5 6 
#
# 1 0.013809 -0.005762 -0.005902 0.000000 0.002097 0.000000
# 2 -0.005762 0.014225 -0.002867 0.000000 0.005039 0.000000
# 3 -0.005902 -0.002867 0.015182 0.000000 -0.007794 0.000000
# 4 0.000000 0.000000 0.000000 0.081687 0.000000 0.003456
# 5 0.002097 0.005039 -0.007794 0.000000 0.048805 0.000000
# 6 0.000000 0.000000 0.000000 0.003456 0.000000 0.029397
#
#
# Mechanical properties :
#
#
# Convention : Reuss Voigt Hill
#
# Bulk Modulus (GPa) = 70.64148 73.17501 71.90825
# Shear Modulus (GPa) = 21.10721 25.15092 23.12906
#
# Velocity S-wave (km/s) = 3.42430 3.73795 3.58456
# Velocity P-wave (km/s) = 7.40799 7.69942 7.55511
#
# Compressibility (1/GPa) = 0.01415599
#
# Stress axis : x y z
#
# Youngs Moduli (GPa) = 72.41503 70.29671 65.86594
#
# Poissons Ratio (x) = 0.40502 0.38874
# Poissons Ratio (y) = 0.41722 0.18884
# Poissons Ratio (z) = 0.42739 0.20154
#
# Static dielectric constant tensor:
#      x y z
#    x 3.344650 0.000000 0.116520 
#    y 0.000000 3.291500 0.000000 
#    z 0.116520 0.000000 3.488420 
# 
# 
# High freq. dielectric constant tensor:
#      x y z
#    x 1.698700 0.000000 0.010700 
#    y 0.000000 1.697230 0.000000 
#    z 0.010700 0.000000 1.685170 
# 
# From -- ./inp_files/275563.got.cif
#   From: 2010.06.25/outbox.cif.g09.slc.cpg/sg12_138_cif.got.tgz:275563.got - 2010.06.28 00:19:55.
