data_PCOD8098198
_publ_section_title
;
Structure prediction by ZEFSAII (Michael W. Deem and Ramdas Pophale) SiO2 
 PCOD8098198
Probable space group: C 2/M
;
_chemical_formula_sum "Si O2"
_cell_formula_units_Z 56
_cell_length_a 11.364266
_cell_length_b 17.951962
_cell_length_c 15.435109
_cell_angle_alpha 90.000000
_cell_angle_beta 124.787359
_cell_angle_gamma 90.000000
_cell_volume 2586.137844
_symmetry_space_group_name_H-M "C 2/M"
_symmetry_group_IT_number 12
_symmetry_cell_setting 'monoclinic'
loop_
_space_group_symop_operation_xyz
x,y,z
-x,y,-z
-x,-y,-z
x,-y,z
1/2+x,1/2+y,z
1/2-x,1/2+y,-z
1/2-x,1/2-y,-z
1/2+x,1/2-y,z
loop_
_atom_site_type_symbol
_atom_site_label
_atom_site_fract_x
_atom_site_fract_y
_atom_site_fract_z
Si Si1 0.840733 0.585820 0.462698
Si Si2 0.592101 0.308498 0.308069
Si Si3 0.371093 0.859637 0.661647
Si Si4 0.854510 0.414658 0.973854
Si Si5 0.704301 0.347166 0.762546
Si Si6 0.390242 0.704643 0.876513
Si Si7 0.679701 0.911892 0.849871
O O1 0.812958 0.500000 0.425986
O O2 0.728259 0.636940 0.364280
O O3 0.815862 0.596510 0.554635
O O4 0.000000 0.610263 0.500000
O O5 0.637801 0.227925 0.362946
O O6 0.466741 0.339083 0.317703
O O7 0.531758 0.300040 0.184249
O O8 0.268314 0.878269 0.699754
O O9 0.530311 0.887417 0.746518
O O10 0.888435 0.500000 0.007560
O O11 0.731951 0.406747 0.850433
O O12 0.811765 0.380219 0.048241
O O13 0.000000 0.375242 0.000000
O O14 0.772327 0.269504 0.822105
O O15 0.311075 0.626099 0.856087
O O16 0.500000 0.721057 0.000000
O O17 0.700118 0.000000 0.849825
#
# Coordination Sequence:
#
# PCOD8098198 Si02
#       7
#     8   8   8   8   8   8   8
#     4  11  26  48  73  96 127 172 220 272 328 391
#     4  11  25  43  65 100 134 168 216 274 328 385
#     4  11  23  42  66  98 129 168 220 271 328 393
#     4  10  20  34  55  90 132 173 214 262 318 380
#     4  11  23  39  65  97 134 174 213 271 327 391
#     4  11  24  40  65  97 135 178 223 268 320 386
#     4  11  22  39  64  93 131 177 227 272 319 382
#
# _framework density 21.653911999999998
#
# number of rings (size 3 to 8) (size 9 to 14) (size 15 to 20)
#    0.000    1.143    2.857    3.000    4.000    4.857 
#    0.000    0.714    0.000    0.000    0.000    0.000 
#    0.000    0.000    0.000    0.000    0.000    0.000 
#
# Total GULP energy -347271.365736 kJ/mol
# GULP energy per Si atom -12402.548776 kJ/mol
# Density = 2.160463 g / cm^3
# Si number density = 21.653912 Si / 1000 Ang^3
#
#
#
# Elastic Constant Matrix: (Units=GPa)
#
#
# Indices 1 2 3 4 5 6 
#
# 1 81.9489 20.8593 14.2811 0.0000 6.9001 0.0000
# 2 20.8593 74.7088 11.2971 0.0000 3.9190 0.0000
# 3 14.2811 11.2971 89.3015 0.0000 -8.9501 0.0000
# 4 0.0000 0.0000 0.0000 31.9162 0.0000 1.3822
# 5 6.9001 3.9190 -8.9501 0.0000 33.5449 0.0000
# 6 0.0000 0.0000 0.0000 1.3822 0.0000 25.3135
#
#
#
# Elastic Compliance Matrix: (Units=1/GPa)
#
#
# Indices 1 2 3 4 5 6 
#
# 1 0.013664 -0.003348 -0.002059 0.000000 -0.002969 0.000000
# 2 -0.003348 0.014614 -0.001454 0.000000 -0.001407 0.000000
# 3 -0.002059 -0.001454 0.012094 0.000000 0.003820 0.000000
# 4 0.000000 0.000000 0.000000 0.031406 0.000000 -0.001715
# 5 -0.002969 -0.001407 0.003820 0.000000 0.031605 0.000000
# 6 0.000000 0.000000 0.000000 -0.001715 0.000000 0.039598
#
#
# Mechanical properties :
#
#
# Convention : Reuss Voigt Hill
#
# Bulk Modulus (GPa) = 37.52486 37.64824 37.58655
# Shear Modulus (GPa) = 30.19562 31.45638 30.82600
#
# Velocity S-wave (km/s) = 3.73830 3.81555 3.77712
# Velocity P-wave (km/s) = 6.00002 6.06921 6.03471
#
# Compressibility (1/GPa) = 0.02664900
#
# Stress axis : x y z
#
# Youngs Moduli (GPa) = 73.18656 68.42865 82.68448
#
# Poissons Ratio (x) = 0.22909 0.17026
# Poissons Ratio (y) = 0.24502 0.12025
# Poissons Ratio (z) = 0.15070 0.09952
#
# Static dielectric constant tensor:
#      x y z
#    x 3.893860 0.000000 -0.210840 
#    y 0.000000 3.859040 0.000000 
#    z -0.210840 0.000000 3.856070 
# 
# 
# High freq. dielectric constant tensor:
#      x y z
#    x 1.850060 0.000000 -0.015030 
#    y 0.000000 1.849820 0.000000 
#    z -0.015030 0.000000 1.846780 
# 
# From -- ./inp_files/206766.got.cif
#   From: 2010.06.25/outbox.cif.g09.slc.cpg/sg12_104_cif.got.tgz:206766.got - 2010.06.28 00:19:55.
