data_PCOD8098153
_publ_section_title
;
Structure prediction by ZEFSAII (Michael W. Deem and Ramdas Pophale) SiO2 
 PCOD8098153
Probable space group: C 2/M
;
_chemical_formula_sum "Si O2"
_cell_formula_units_Z 64
_cell_length_a 18.378824
_cell_length_b 14.254867
_cell_length_c 14.462856
_cell_angle_alpha 90.000000
_cell_angle_beta 61.674195
_cell_angle_gamma 90.000000
_cell_volume 3335.398775
_symmetry_space_group_name_H-M "C 2/M"
_symmetry_group_IT_number 12
_symmetry_cell_setting 'monoclinic'
loop_
_space_group_symop_operation_xyz
x,y,z
-x,y,-z
-x,-y,-z
x,-y,z
1/2+x,1/2+y,z
1/2-x,1/2+y,-z
1/2-x,1/2-y,-z
1/2+x,1/2-y,z
loop_
_atom_site_type_symbol
_atom_site_label
_atom_site_fract_x
_atom_site_fract_y
_atom_site_fract_z
Si Si1 0.786642 0.607900 0.129803
Si Si2 0.016751 0.603912 0.195146
Si Si3 0.080344 0.742251 0.004680
Si Si4 0.346417 0.894238 0.744988
Si Si5 0.711515 0.609619 0.976262
Si Si6 0.306593 0.392959 0.627390
Si Si7 0.646536 0.893188 0.606934
Si Si8 0.903517 0.283135 0.541997
O O1 0.816733 0.500000 0.112695
O O2 0.722055 0.626022 0.250438
O O3 0.865534 0.675592 0.095221
O O4 0.745404 0.635149 0.056999
O O5 0.033323 0.500000 0.142218
O O6 0.053201 0.682428 0.108456
O O7 0.062676 0.610870 0.265769
O O8 0.919907 0.619198 0.270915
O O9 0.127633 0.834411 0.009869
O O10 0.000000 0.778647 0.000000
O O11 0.278726 0.858316 0.859701
O O12 0.346100 0.830903 0.654275
O O13 0.324867 0.000000 0.727695
O O14 0.691293 0.500000 0.981132
O O15 0.335739 0.500000 0.598216
O O16 0.234213 0.368571 0.598856
O O17 0.384934 0.327874 0.556706
O O18 0.626066 0.822317 0.537756
O O19 0.644362 0.000000 0.570696
O O20 0.000000 0.302356 0.500000
#
# Coordination Sequence:
#
# PCOD8098153 Si02
#       8
#     8   8   8   8   8   8   8   8
#     4  10  20  37  60  84 109 146 190 230 279 334
#     4  10  20  34  55  85 117 142 177 232 287 329
#     4  12  23  33  55  87 119 150 183 226 279 336
#     4  10  20  36  57  85 113 141 183 236 282 326
#     4  10  22  39  59  80 112 155 193 228 266 324
#     4  10  23  40  57  80 115 154 188 227 277 332
#     4  10  21  39  59  83 116 146 181 234 289 339
#     4  12  23  35  60  87 110 147 190 235 279 333
#
# _framework density 19.188110000000002
#
# number of rings (size 3 to 8) (size 9 to 14) (size 15 to 20)
#    0.000    1.500    2.500    3.000    1.750    3.000 
#    0.000    0.000    0.000    0.750    0.000    0.000 
#    0.000    0.000    0.000    0.000    0.000    0.000 
#
# Total GULP energy -396891.414799 kJ/mol
# GULP energy per Si atom -12402.856712 kJ/mol
# Density = 1.914444 g / cm^3
# Si number density = 19.188110 Si / 1000 Ang^3
#
#
#
# Elastic Constant Matrix: (Units=GPa)
#
#
# Indices 1 2 3 4 5 6 
#
# 1 77.4732 39.8528 32.4556 0.0000 1.0065 0.0000
# 2 39.8528 85.2319 48.1019 0.0000 -0.6041 0.0000
# 3 32.4556 48.1019 86.3829 0.0000 9.6819 0.0000
# 4 0.0000 0.0000 0.0000 28.8625 0.0000 -3.4317
# 5 1.0065 -0.6041 9.6819 0.0000 19.7553 0.0000
# 6 0.0000 0.0000 0.0000 -3.4317 0.0000 30.8877
#
#
#
# Elastic Compliance Matrix: (Units=1/GPa)
#
#
# Indices 1 2 3 4 5 6 
#
# 1 0.017497 -0.006481 -0.003008 0.000000 0.000385 0.000000
# 2 -0.006481 0.020093 -0.009375 0.000000 0.005539 0.000000
# 3 -0.003008 -0.009375 0.018985 0.000000 -0.009438 0.000000
# 4 0.000000 0.000000 0.000000 0.035111 0.000000 0.003901
# 5 0.000385 0.005539 -0.009438 0.000000 0.055394 0.000000
# 6 0.000000 0.000000 0.000000 0.003901 0.000000 0.032809
#
#
# Mechanical properties :
#
#
# Convention : Reuss Voigt Hill
#
# Bulk Modulus (GPa) = 53.05811 54.43429 53.74620
# Shear Modulus (GPa) = 22.33170 24.47962 23.40566
#
# Velocity S-wave (km/s) = 3.41520 3.57567 3.49635
# Velocity P-wave (km/s) = 6.57746 6.74370 6.66110
#
# Compressibility (1/GPa) = 0.01884726
#
# Stress axis : x y z
#
# Youngs Moduli (GPa) = 57.15405 49.76897 52.67437
#
# Poissons Ratio (x) = 0.32253 0.15845
# Poissons Ratio (y) = 0.37039 0.49380
# Poissons Ratio (z) = 0.17193 0.46656
#
# Static dielectric constant tensor:
#      x y z
#    x 3.444960 0.000000 0.009260 
#    y 0.000000 3.481710 0.000000 
#    z 0.009260 0.000000 3.403460 
# 
# 
# High freq. dielectric constant tensor:
#      x y z
#    x 1.738160 0.000000 0.004870 
#    y 0.000000 1.747330 0.000000 
#    z 0.004870 0.000000 1.743620 
# 
# From -- ./inp_files/225236.got.cif
#   From: 2010.06.25/outbox.cif.g09.slc.cpg/sg12_113_cif.got.tgz:225236.got - 2010.06.28 00:19:55.
