data_PCOD8098345
_publ_section_title
;
Structure prediction by ZEFSAII (Michael W. Deem and Ramdas Pophale) SiO2 
 PCOD8098345
Probable space group: C 2/M
;
_chemical_formula_sum "Si O2"
_cell_formula_units_Z 64
_cell_length_a 15.470628
_cell_length_b 8.892131
_cell_length_c 23.777919
_cell_angle_alpha 90.000000
_cell_angle_beta 90.510911
_cell_angle_gamma 90.000000
_cell_volume 3270.923389
_symmetry_space_group_name_H-M "C 2/M"
_symmetry_group_IT_number 12
_symmetry_cell_setting 'monoclinic'
loop_
_space_group_symop_operation_xyz
x,y,z
-x,y,-z
-x,-y,-z
x,-y,z
1/2+x,1/2+y,z
1/2-x,1/2+y,-z
1/2-x,1/2-y,-z
1/2+x,1/2-y,z
loop_
_atom_site_type_symbol
_atom_site_label
_atom_site_fract_x
_atom_site_fract_y
_atom_site_fract_z
Si Si1 0.583680 0.676323 0.130009
Si Si2 0.498158 0.178477 0.436935
Si Si3 0.911189 0.322152 0.134164
Si Si4 0.150277 0.670361 0.236361
Si Si5 0.161259 0.321725 0.638813
Si Si6 0.750858 0.177623 0.939433
Si Si7 0.649022 0.327310 0.756525
Si Si8 0.842452 0.322459 0.636087
O O1 0.567903 0.500000 0.124826
O O2 0.499593 0.763465 0.106393
O O3 0.600107 0.717427 0.195155
O O4 0.663763 0.731029 0.092803
O O5 0.500000 0.244755 0.500000
O O6 0.409823 0.231092 0.406934
O O7 0.582241 0.238284 0.404100
O O8 0.502654 0.000000 0.437810
O O9 0.910913 0.500000 0.139545
O O10 0.832174 0.264754 0.095538
O O11 0.907438 0.251807 0.196164
O O12 0.119397 0.500000 0.224194
O O13 0.251579 0.686952 0.225521
O O14 0.129297 0.717237 0.300178
O O15 0.166425 0.500000 0.644180
O O16 0.131359 0.255615 0.698033
O O17 0.253600 0.259496 0.619112
O O18 0.748785 0.000000 0.945957
O O19 0.750000 0.250000 0.000000
O O20 0.620683 0.500000 0.750323
O O21 0.825759 0.500000 0.630663
#
# Coordination Sequence:
#
# PCOD8098345 Si02
#       8
#     8   8   8   8   8   8   8   8
#     4  11  23  39  59  90 122 155 197 244 293 345
#     4   9  19  36  57  81 112 154 200 240 287 352
#     4  11  23  40  61  90 122 157 198 241 291 350
#     4   9  18  33  56  84 116 153 192 237 294 355
#     4  10  20  34  56  85 114 150 194 243 292 347
#     4  10  24  44  65  87 119 158 200 244 290 342
#     4  10  20  36  59  88 120 155 193 240 298 354
#     4   9  19  36  56  81 114 152 193 239 294 352
#
# _framework density 19.566341000000001
#
# number of rings (size 3 to 8) (size 9 to 14) (size 15 to 20)
#    0.000    2.125    1.250    2.250    1.750    5.000 
#    0.000    3.750    0.000    2.625    0.000    0.000 
#    0.000    0.000    0.000    0.000    0.000    0.000 
#
# Total GULP energy -396891.471020 kJ/mol
# GULP energy per Si atom -12402.858469 kJ/mol
# Density = 1.952181 g / cm^3
# Si number density = 19.566341 Si / 1000 Ang^3
#
#
#
# Elastic Constant Matrix: (Units=GPa)
#
#
# Indices 1 2 3 4 5 6 
#
# 1 150.7678 46.8566 85.9908 0.0000 -5.5345 0.0000
# 2 46.8566 65.5305 39.8659 0.0000 0.8513 0.0000
# 3 85.9908 39.8659 136.0715 0.0000 -4.6606 0.0000
# 4 0.0000 0.0000 0.0000 25.9542 0.0000 0.5675
# 5 -5.5345 0.8513 -4.6606 0.0000 23.8866 0.0000
# 6 0.0000 0.0000 0.0000 0.5675 0.0000 32.8169
#
#
#
# Elastic Compliance Matrix: (Units=1/GPa)
#
#
# Indices 1 2 3 4 5 6 
#
# 1 0.011468 -0.004683 -0.005817 0.000000 0.001689 0.000000
# 2 -0.004683 0.020554 -0.003146 0.000000 -0.002431 0.000000
# 3 -0.005817 -0.003146 0.011985 0.000000 0.001103 0.000000
# 4 0.000000 0.000000 0.000000 0.038544 0.000000 -0.000666
# 5 0.001689 -0.002431 0.001103 0.000000 0.042558 0.000000
# 6 0.000000 0.000000 0.000000 -0.000666 0.000000 0.030484
#
#
# Mechanical properties :
#
#
# Convention : Reuss Voigt Hill
#
# Bulk Modulus (GPa) = 59.82804 77.53293 68.68049
# Shear Modulus (GPa) = 26.53143 28.50864 27.52004
#
# Velocity S-wave (km/s) = 3.68635 3.82124 3.75440
# Velocity P-wave (km/s) = 6.98300 7.69291 7.34653
#
# Compressibility (1/GPa) = 0.01671457
#
# Stress axis : x y z
#
# Youngs Moduli (GPa) = 87.19822 48.65275 83.43893
#
# Poissons Ratio (x) = 0.22784 0.48540
# Poissons Ratio (y) = 0.40835 0.26247
# Poissons Ratio (z) = 0.50727 0.15305
#
# Static dielectric constant tensor:
#      x y z
#    x 3.768660 0.000000 -0.038240 
#    y 0.000000 3.394450 0.000000 
#    z -0.038240 0.000000 3.577740 
# 
# 
# High freq. dielectric constant tensor:
#      x y z
#    x 1.773650 0.000000 -0.002220 
#    y 0.000000 1.749740 0.000000 
#    z -0.002220 0.000000 1.757150 
# 
# From -- ./inp_files/338782.got.cif
#   From: 2010.06.25/outbox.cif.g09.slc.cpg/sg12_170_cif.got.tgz:338782.got - 2010.06.28 00:19:55.
