data_PCOD8098203
_publ_section_title
;
Structure prediction by ZEFSAII (Michael W. Deem and Ramdas Pophale) SiO2 
 PCOD8098203
Probable space group: C 2/M
;
_chemical_formula_sum "Si O2"
_cell_formula_units_Z 64
_cell_length_a 19.680946
_cell_length_b 17.307175
_cell_length_c 21.101815
_cell_angle_alpha 90.000000
_cell_angle_beta 150.816593
_cell_angle_gamma 90.000000
_cell_volume 3504.788004
_symmetry_space_group_name_H-M "C 2/M"
_symmetry_group_IT_number 12
_symmetry_cell_setting 'monoclinic'
loop_
_space_group_symop_operation_xyz
x,y,z
-x,y,-z
-x,-y,-z
x,-y,z
1/2+x,1/2+y,z
1/2-x,1/2+y,-z
1/2-x,1/2-y,-z
1/2+x,1/2-y,z
loop_
_atom_site_type_symbol
_atom_site_label
_atom_site_fract_x
_atom_site_fract_y
_atom_site_fract_z
Si Si1 0.027203 0.690784 0.953263
Si Si2 0.997188 0.585494 0.816028
Si Si3 0.311917 0.232784 0.208432
Si Si4 0.170306 0.913597 0.563705
Si Si5 0.932560 0.178223 0.628366
Si Si6 0.538357 0.090526 0.708731
Si Si7 0.222188 0.235680 0.678541
Si Si8 0.784848 0.321553 0.450359
O O1 0.066549 0.629824 0.931287
O O2 0.888574 0.733624 0.819163
O O3 0.152258 0.751860 0.061059
O O4 0.000000 0.650458 0.000000
O O5 0.054566 0.500000 0.871857
O O6 0.831841 0.587961 0.678031
O O7 0.045589 0.617429 0.787745
O O8 0.411267 0.286542 0.244855
O O9 0.340506 0.141656 0.224021
O O10 0.348721 0.249238 0.311688
O O11 0.078643 0.897496 0.425747
O O12 0.150658 0.845833 0.599654
O O13 0.129951 0.000000 0.556362
O O14 0.827429 0.239038 0.512255
O O15 0.872121 0.160236 0.650237
O O16 0.388351 0.110205 0.555981
O O17 0.568148 0.000000 0.723373
O O18 0.202980 0.308655 0.615507
#
# Coordination Sequence:
#
# PCOD8098203 Si02
#       8
#     8   8   8   8   8   8   8   8
#     4   9  19  35  53  74 104 145 182 212 255 308
#     4   9  17  31  52  78 103 135 177 214 252 310
#     4  10  21  35  51  76 108 138 179 226 258 304
#     4   9  16  29  52  75 102 139 175 207 256 320
#     4   9  17  28  47  75 102 130 169 213 261 303
#     4  10  20  34  56  79 104 134 172 223 274 315
#     4   9  19  35  53  73 106 142 183 219 259 312
#     4   9  17  31  51  73 102 134 169 214 263 316
#
# _framework density 18.260732999999998
#
# number of rings (size 3 to 8) (size 9 to 14) (size 15 to 20)
#    0.000    2.750    1.250    0.000    5.250    5.250 
#    0.000    5.000    0.000    4.125    0.000    0.000 
#    0.000    0.000    0.000    0.000    0.000    0.000 
#
# Total GULP energy -396442.333684 kJ/mol
# GULP energy per Si atom -12388.822928 kJ/mol
# Density = 1.821917 g / cm^3
# Si number density = 18.260733 Si / 1000 Ang^3
#
#
#
# Elastic Constant Matrix: (Units=GPa)
#
#
# Indices 1 2 3 4 5 6 
#
# 1 73.7029 45.2197 24.2780 -0.0016 -6.1080 -0.0027
# 2 45.2197 98.7396 34.6098 -0.0054 -13.7885 -0.0039
# 3 24.2780 34.6098 58.9273 -0.0078 -4.9560 -0.0056
# 4 -0.0016 -0.0054 -0.0078 19.3956 -0.0060 -2.2425
# 5 -6.1080 -13.7885 -4.9560 -0.0060 25.4490 -0.0036
# 6 -0.0027 -0.0039 -0.0056 -2.2425 -0.0036 24.0454
#
#
#
# Elastic Compliance Matrix: (Units=1/GPa)
#
#
# Indices 1 2 3 4 5 6 
#
# 1 0.019427 -0.007697 -0.003499 -0.000002 -0.000189 0.000000
# 2 -0.007697 0.016621 -0.006088 0.000004 0.005972 0.000002
# 3 -0.003499 -0.006088 0.022000 0.000007 0.000146 0.000004
# 4 -0.000002 0.000004 0.000007 0.052120 0.000016 0.004861
# 5 -0.000189 0.005972 0.000146 0.000016 0.042513 0.000009
# 6 0.000000 0.000002 0.000004 0.004861 0.000009 0.042041
#
#
# Mechanical properties :
#
#
# Convention : Reuss Voigt Hill
#
# Bulk Modulus (GPa) = 42.59184 48.84274 45.71729
# Shear Modulus (GPa) = 21.08652 22.26214 21.67433
#
# Velocity S-wave (km/s) = 3.40184 3.49539 3.44893
# Velocity P-wave (km/s) = 6.22936 6.56474 6.39925
#
# Compressibility (1/GPa) = 0.02347867
#
# Stress axis : x y z
#
# Youngs Moduli (GPa) = 51.47356 60.16580 45.45465
#
# Poissons Ratio (x) = 0.46310 0.15906
# Poissons Ratio (y) = 0.39619 0.27675
# Poissons Ratio (z) = 0.18012 0.36631
#
# Static dielectric constant tensor:
#      x y z
#    x 3.611660 0.000000 -0.212740 
#    y 0.000000 3.316060 0.000000 
#    z -0.212740 0.000000 3.202970 
# 
# 
# High freq. dielectric constant tensor:
#      x y z
#    x 1.713710 0.000000 -0.005070 
#    y 0.000000 1.681600 0.000000 
#    z -0.005070 0.000000 1.684060 
# 
# From -- ./inp_files/322456.got.cif
#   From: 2010.06.25/outbox.cif.g09.slc.cpg/sg12_162_cif.got.tgz:322456.got - 2010.06.28 00:19:55.
