data_PCOD8098561
_publ_section_title
;
Structure prediction by ZEFSAII (Michael W. Deem and Ramdas Pophale) SiO2 
 PCOD8098561
Probable space group: C 2/M
;
_chemical_formula_sum "Si O2"
_cell_formula_units_Z 48
_cell_length_a 11.074931
_cell_length_b 17.494748
_cell_length_c 12.108480
_cell_angle_alpha 90.000000
_cell_angle_beta 108.288082
_cell_angle_gamma 90.000000
_cell_volume 2227.558388
_symmetry_space_group_name_H-M "C 2/M"
_symmetry_group_IT_number 12
_symmetry_cell_setting 'monoclinic'
loop_
_space_group_symop_operation_xyz
x,y,z
-x,y,-z
-x,-y,-z
x,-y,z
1/2+x,1/2+y,z
1/2-x,1/2+y,-z
1/2-x,1/2-y,-z
1/2+x,1/2-y,z
loop_
_atom_site_type_symbol
_atom_site_label
_atom_site_fract_x
_atom_site_fract_y
_atom_site_fract_z
Si Si1 0.520478 0.158749 0.844133
Si Si2 0.068163 0.828089 0.798259
Si Si3 0.808066 0.589971 0.932704
Si Si4 0.864096 0.205262 0.424460
Si Si5 0.058269 0.414661 0.629193
Si Si6 0.304981 0.352034 0.629044
O O1 0.558684 0.247741 0.860854
O O2 0.387386 0.140045 0.866098
O O3 0.509412 0.139787 0.711827
O O4 0.632032 0.107647 0.930179
O O5 0.160577 0.884164 0.893861
O O6 0.129612 0.828463 0.695121
O O7 0.926561 0.860686 0.743412
O O8 0.819343 0.500000 0.909731
O O9 0.752466 0.266928 0.383199
O O10 0.834166 0.137622 0.505900
O O11 0.000000 0.242294 0.500000
O O12 0.012592 0.500000 0.642662
O O13 0.209745 0.413691 0.653279
O O14 0.000000 0.382343 0.500000
#
# Coordination Sequence:
#
# PCOD8098561 Si02
#       6
#     8   8   8   8   8   8
#     4  11  23  43  68  92 123 165 223 265 305 375
#     4  11  22  37  65  98 122 162 215 265 311 374
#     4  11  25  45  67  90 127 174 214 263 322 379
#     4   9  18  33  57  90 124 164 203 254 304 373
#     4  11  24  39  62  94 128 166 209 261 316 379
#     4  10  20  34  57  91 131 159 196 252 325 371
#
# _framework density 21.548258000000001
#
# number of rings (size 3 to 8) (size 9 to 14) (size 15 to 20)
#    0.000    1.500    1.667    4.000    7.000    0.667 
#    0.000    0.000    0.000    5.000    0.000    0.000 
#    0.000    0.000    0.000    0.000    0.000    0.000 
#
# Total GULP energy -297468.482764 kJ/mol
# GULP energy per Si atom -12394.520115 kJ/mol
# Density = 2.149921 g / cm^3
# Si number density = 21.548258 Si / 1000 Ang^3
#
#
#
# Elastic Constant Matrix: (Units=GPa)
#
#
# Indices 1 2 3 4 5 6 
#
# 1 87.1868 10.7839 35.3013 0.0000 18.3822 0.0000
# 2 10.7839 71.8940 20.2913 0.0000 -1.6850 0.0000
# 3 35.3013 20.2913 92.9747 0.0000 10.2017 0.0000
# 4 0.0000 0.0000 0.0000 13.5019 0.0000 4.4409
# 5 18.3822 -1.6850 10.2017 0.0000 44.1765 0.0000
# 6 0.0000 0.0000 0.0000 4.4409 0.0000 27.1591
#
#
#
# Elastic Compliance Matrix: (Units=1/GPa)
#
#
# Indices 1 2 3 4 5 6 
#
# 1 0.014576 -0.000955 -0.004777 0.000000 -0.004998 0.000000
# 2 -0.000955 0.014963 -0.003088 0.000000 0.001681 0.000000
# 3 -0.004777 -0.003088 0.013377 0.000000 -0.001219 0.000000
# 4 0.000000 0.000000 0.000000 0.078273 0.000000 -0.012799
# 5 -0.004998 0.001681 -0.001219 0.000000 0.025062 0.000000
# 6 0.000000 0.000000 0.000000 -0.012799 0.000000 0.038913
#
#
# Mechanical properties :
#
#
# Convention : Reuss Voigt Hill
#
# Bulk Modulus (GPa) = 39.56256 42.75650 41.15953
# Shear Modulus (GPa) = 23.67087 29.34610 26.50849
#
# Velocity S-wave (km/s) = 3.31797 3.69437 3.51121
# Velocity P-wave (km/s) = 5.75138 6.17115 5.96496
#
# Compressibility (1/GPa) = 0.02527642
#
# Stress axis : x y z
#
# Youngs Moduli (GPa) = 68.60621 66.82945 74.75443
#
# Poissons Ratio (x) = 0.06383 0.35713
# Poissons Ratio (y) = 0.06553 0.23081
# Poissons Ratio (z) = 0.32776 0.20634
#
# Static dielectric constant tensor:
#      x y z
#    x 4.115320 0.000000 0.078750 
#    y 0.000000 3.438780 0.000000 
#    z 0.078750 0.000000 4.049500 
# 
# 
# High freq. dielectric constant tensor:
#      x y z
#    x 1.853260 0.000000 0.007430 
#    y 0.000000 1.811450 0.000000 
#    z 0.007430 0.000000 1.851660 
# 
# From -- ./inp_files/131776.got.cif
#   From: 2010.06.25/outbox.cif.g09.slc.cpg/sg12_66_cif.got.tgz:131776.got - 2010.06.28 00:19:55.
