data_PCOD8098006
_publ_section_title
;
Structure prediction by ZEFSAII (Michael W. Deem and Ramdas Pophale) SiO2 
 PCOD8098006
Probable space group: C 2/M
;
_chemical_formula_sum "Si O2"
_cell_formula_units_Z 40
_cell_length_a 24.396581
_cell_length_b 9.782464
_cell_length_c 10.789769
_cell_angle_alpha 90.000000
_cell_angle_beta 55.484068
_cell_angle_gamma 90.000000
_cell_volume 2121.778602
_symmetry_space_group_name_H-M "C 2/M"
_symmetry_group_IT_number 12
_symmetry_cell_setting 'monoclinic'
loop_
_space_group_symop_operation_xyz
x,y,z
-x,y,-z
-x,-y,-z
x,-y,z
1/2+x,1/2+y,z
1/2-x,1/2+y,-z
1/2-x,1/2-y,-z
1/2+x,1/2-y,z
loop_
_atom_site_type_symbol
_atom_site_label
_atom_site_fract_x
_atom_site_fract_y
_atom_site_fract_z
Si Si1 0.196285 0.652996 0.631355
Si Si2 0.279143 0.148720 0.119090
Si Si3 0.531650 0.152072 0.324796
Si Si4 0.649227 0.657984 0.137402
Si Si5 0.954643 0.660025 0.172731
O O1 0.195706 0.500000 0.570994
O O2 0.250000 0.750000 0.500000
O O3 0.224447 0.640289 0.731476
O O4 0.121406 0.717203 0.729233
O O5 0.205812 0.184691 0.165887
O O6 0.300964 0.000000 0.036422
O O7 0.331222 0.265474 0.014491
O O8 0.500000 0.146874 0.500000
O O9 0.584745 0.270578 0.273366
O O10 0.484166 0.194345 0.270595
O O11 0.560634 0.000000 0.258231
O O12 0.635384 0.500000 0.126811
O O13 0.948916 0.500000 0.155608
O O14 0.000000 0.721064 0.000000
#
# Coordination Sequence:
#
# PCOD8098006 Si02
#       5
#     8   8   8   8   8
#     4  10  21  36  57  83 112 145 183 230 280 330
#     4   9  19  36  56  79 108 144 182 221 271 331
#     4  10  21  35  54  80 109 144 186 228 272 327
#     4  10  20  34  55  82 109 141 180 225 277 326
#     4   9  18  35  58  80 105 145 191 228 269 328
#
# _framework density 18.852107
#
# number of rings (size 3 to 8) (size 9 to 14) (size 15 to 20)
#    0.000    2.400    0.000    1.800    2.800    5.200 
#    0.000    1.000    0.000    2.400    0.000    0.000 
#    0.000    0.000    0.000    0.000    0.000    0.000 
#
# Total GULP energy -247805.729865 kJ/mol
# GULP energy per Si atom -12390.286493 kJ/mol
# Density = 1.880920 g / cm^3
# Si number density = 18.852107 Si / 1000 Ang^3
#
#
#
# Elastic Constant Matrix: (Units=GPa)
#
#
# Indices 1 2 3 4 5 6 
#
# 1 83.3175 38.0109 63.2053 0.0000 -2.3814 0.0000
# 2 38.0109 108.2189 48.4295 0.0000 -18.9947 0.0000
# 3 63.2053 48.4295 107.8309 0.0000 -13.0781 0.0000
# 4 0.0000 0.0000 0.0000 27.0115 0.0000 -7.9502
# 5 -2.3814 -18.9947 -13.0781 0.0000 38.0477 0.0000
# 6 0.0000 0.0000 0.0000 -7.9502 0.0000 22.9828
#
#
#
# Elastic Compliance Matrix: (Units=1/GPa)
#
#
# Indices 1 2 3 4 5 6 
#
# 1 0.022790 -0.003213 -0.012456 0.000000 -0.004459 0.000000
# 2 -0.003213 0.012686 -0.003204 0.000000 0.005031 0.000000
# 3 -0.012456 -0.003204 0.018497 0.000000 0.003979 0.000000
# 4 0.000000 0.000000 0.000000 0.041218 0.000000 0.014258
# 5 -0.004459 0.005031 0.003979 0.000000 0.029883 0.000000
# 6 0.000000 0.000000 0.000000 0.014258 0.000000 0.048443
#
#
# Mechanical properties :
#
#
# Convention : Reuss Voigt Hill
#
# Bulk Modulus (GPa) = 61.62995 66.51761 64.07378
# Shear Modulus (GPa) = 23.07640 27.58985 25.33313
#
# Velocity S-wave (km/s) = 3.50247 3.82971 3.66974
# Velocity P-wave (km/s) = 7.00847 7.41054 7.21231
#
# Compressibility (1/GPa) = 0.01622588
#
# Stress axis : x y z
#
# Youngs Moduli (GPa) = 43.87873 78.82702 54.06421
#
# Poissons Ratio (x) = 0.25329 0.67343
# Poissons Ratio (y) = 0.14099 0.17322
# Poissons Ratio (z) = 0.54656 0.25256
#
# Static dielectric constant tensor:
#      x y z
#    x 2.959550 0.000000 -1.001660 
#    y 0.000000 3.802640 0.000000 
#    z -1.001660 0.000000 1.809640 
# 
# 
# High freq. dielectric constant tensor:
#      x y z
#    x 1.741210 0.000000 0.000490 
#    y 0.000000 1.713210 0.000000 
#    z 0.000490 0.000000 1.726410 
# 
# From -- ./inp_files/162371.got.cif
#   From: 2010.06.25/outbox.cif.g09.slc.cpg/sg12_82_cif.got.tgz:162371.got - 2010.06.28 00:19:55.
