data_PCOD8098007
_publ_section_title
;
Structure prediction by ZEFSAII (Michael W. Deem and Ramdas Pophale) SiO2 
 PCOD8098007
Probable space group: C 2/M
;
_chemical_formula_sum "Si O2"
_cell_formula_units_Z 48
_cell_length_a 17.648763
_cell_length_b 9.018548
_cell_length_c 15.173708
_cell_angle_alpha 90.000000
_cell_angle_beta 89.393426
_cell_angle_gamma 90.000000
_cell_volume 2415.006347
_symmetry_space_group_name_H-M "C 2/M"
_symmetry_group_IT_number 12
_symmetry_cell_setting 'monoclinic'
loop_
_space_group_symop_operation_xyz
x,y,z
-x,y,-z
-x,-y,-z
x,-y,z
1/2+x,1/2+y,z
1/2-x,1/2+y,-z
1/2-x,1/2-y,-z
1/2+x,1/2-y,z
loop_
_atom_site_type_symbol
_atom_site_label
_atom_site_fract_x
_atom_site_fract_y
_atom_site_fract_z
Si Si1 0.168923 0.676057 0.346522
Si Si2 0.837937 0.826092 0.320102
Si Si3 0.915206 0.674937 0.479426
Si Si4 0.076453 0.329705 0.180962
Si Si5 0.329823 0.170037 0.993276
Si Si6 0.578240 0.326267 0.859160
O O1 0.170816 0.500000 0.341496
O O2 0.253276 0.739397 0.331082
O O3 0.138977 0.732046 0.441293
O O4 0.112894 0.732650 0.270690
O O5 0.892804 0.748944 0.388576
O O6 0.866731 0.787808 0.222459
O O7 0.839817 0.000000 0.338859
O O8 0.909160 0.500000 0.467961
O O9 0.000000 0.724755 0.500000
O O10 0.048907 0.500000 0.190924
O O11 0.006079 0.226873 0.159398
O O12 0.140826 0.316943 0.106399
O O13 0.391586 0.243699 0.055480
O O14 0.319058 0.000000 0.021401
O O15 0.250000 0.250000 0.000000
O O16 0.576745 0.500000 0.878902
#
# Coordination Sequence:
#
# PCOD8098007 Si02
#       6
#     8   8   8   8   8   8
#     4   9  18  35  57  79 108 145 183 227 280 338
#     4  10  21  37  56  79 110 148 186 227 279 334
#     4  10  20  34  55  82 109 141 183 230 279 332
#     4  10  21  39  61  83 111 149 189 229 281 341
#     4  11  23  39  61  87 115 150 189 230 280 336
#     4  11  23  38  57  83 115 150 190 236 283 332
#
# _framework density 19.875722
#
# number of rings (size 3 to 8) (size 9 to 14) (size 15 to 20)
#    0.000    1.833    0.000    4.000    0.000    9.000 
#    0.000    1.667    0.000    0.000    0.000    0.000 
#    0.000    0.000    0.000    0.000    0.000    0.000 
#
# Total GULP energy -297718.435465 kJ/mol
# GULP energy per Si atom -12404.934811 kJ/mol
# Density = 1.983048 g / cm^3
# Si number density = 19.875722 Si / 1000 Ang^3
#
#
#
# Elastic Constant Matrix: (Units=GPa)
#
#
# Indices 1 2 3 4 5 6 
#
# 1 90.0067 24.7981 -1.3275 0.0000 1.2795 0.0000
# 2 24.7981 61.5451 27.4563 0.0000 0.4563 0.0000
# 3 -1.3275 27.4563 58.9157 0.0000 10.3502 0.0000
# 4 0.0000 0.0000 0.0000 27.8569 0.0000 3.2631
# 5 1.2795 0.4563 10.3502 0.0000 40.8013 0.0000
# 6 0.0000 0.0000 0.0000 3.2631 0.0000 29.7479
#
#
#
# Elastic Compliance Matrix: (Units=1/GPa)
#
#
# Indices 1 2 3 4 5 6 
#
# 1 0.013097 -0.006944 0.003757 0.000000 -0.001286 0.000000
# 2 -0.006944 0.024402 -0.012056 0.000000 0.003003 0.000000
# 3 0.003757 -0.012056 0.023731 0.000000 -0.006003 0.000000
# 4 0.000000 0.000000 0.000000 0.036365 0.000000 -0.003989
# 5 -0.001286 0.003003 -0.006003 0.000000 0.026039 0.000000
# 6 0.000000 0.000000 0.000000 -0.003989 0.000000 0.034053
#
#
# Mechanical properties :
#
#
# Convention : Reuss Voigt Hill
#
# Bulk Modulus (GPa) = 32.52588 34.70238 33.61413
# Shear Modulus (GPa) = 25.19892 30.31725 27.75809
#
# Velocity S-wave (km/s) = 3.56451 3.90980 3.74114
# Velocity P-wave (km/s) = 5.77418 6.15464 5.96744
#
# Compressibility (1/GPa) = 0.03074475
#
# Stress axis : x y z
#
# Youngs Moduli (GPa) = 76.35311 40.97994 42.13874
#
# Poissons Ratio (x) = 0.28455 -0.15831
# Poissons Ratio (y) = 0.53017 0.50803
# Poissons Ratio (z) = -0.28686 0.49406
#
# Static dielectric constant tensor:
#      x y z
#    x 3.754140 0.000000 -0.030360 
#    y 0.000000 3.478180 0.000000 
#    z -0.030360 0.000000 3.861480 
# 
# 
# High freq. dielectric constant tensor:
#      x y z
#    x 1.791290 0.000000 -0.000850 
#    y 0.000000 1.754350 0.000000 
#    z -0.000850 0.000000 1.791300 
# 
# From -- ./inp_files/221673.got.cif
#   From: 2010.06.25/outbox.cif.g09.slc.cpg/sg12_111_cif.got.tgz:221673.got - 2010.06.28 00:19:55.
