data_PCOD8098398
_publ_section_title
;
Structure prediction by ZEFSAII (Michael W. Deem and Ramdas Pophale) SiO2 
 PCOD8098398
Probable space group: C 2/M
;
_chemical_formula_sum "Si O2"
_cell_formula_units_Z 64
_cell_length_a 27.418629
_cell_length_b 13.658642
_cell_length_c 12.190963
_cell_angle_alpha 90.000000
_cell_angle_beta 38.529641
_cell_angle_gamma 90.000000
_cell_volume 2843.957766
_symmetry_space_group_name_H-M "C 2/M"
_symmetry_group_IT_number 12
_symmetry_cell_setting 'monoclinic'
loop_
_space_group_symop_operation_xyz
x,y,z
-x,y,-z
-x,-y,-z
x,-y,z
1/2+x,1/2+y,z
1/2-x,1/2+y,-z
1/2-x,1/2-y,-z
1/2+x,1/2-y,z
loop_
_atom_site_type_symbol
_atom_site_label
_atom_site_fract_x
_atom_site_fract_y
_atom_site_fract_z
Si Si1 0.337689 0.386214 0.353927
Si Si2 0.125359 0.208106 0.381379
Si Si3 0.135900 0.389527 0.233340
Si Si4 0.187314 0.886687 0.069820
Si Si5 0.430709 0.112384 0.885434
Si Si6 0.139267 0.886886 0.924456
Si Si7 0.023982 0.201083 0.758790
Si Si8 0.262510 0.112887 0.267962
O O1 0.365712 0.500000 0.304775
O O2 0.406676 0.317260 0.277801
O O3 0.259280 0.375110 0.564806
O O4 0.320964 0.348727 0.258848
O O5 0.113500 0.323678 0.377544
O O6 0.123816 0.158361 0.264423
O O7 0.054258 0.173043 0.583234
O O8 0.207414 0.183909 0.294844
O O9 0.127895 0.500000 0.290363
O O10 0.082445 0.371773 0.221267
O O11 0.225254 0.365653 0.040664
O O12 0.176072 0.837048 0.968886
O O13 0.168020 0.000000 0.097068
O O14 0.498723 0.184578 0.807537
O O15 0.454548 0.000000 0.867891
O O16 0.352637 0.141627 0.090779
O O17 0.046618 0.869543 0.085580
O O18 0.157864 0.000000 0.899180
O O19 0.248689 0.000000 0.253365
#
# Coordination Sequence:
#
# PCOD8098398 Si02
#       8
#     8   8   8   8   8   8   8   8
#     4   9  19  39  64  87 115 152 193 240 294 352
#     4  11  21  34  57  86 119 153 193 239 288 344
#     4  10  21  36  56  82 118 158 192 235 290 348
#     4  10  20  34  56  87 118 148 188 241 295 345
#     4  10  21  38  59  85 117 156 199 239 287 344
#     4  10  21  36  58  86 118 154 189 232 293 358
#     4  11  23  35  56  87 118 152 196 238 288 346
#     4   9  18  35  62  89 113 149 196 243 291 344
#
# _framework density 22.50385
#
# number of rings (size 3 to 8) (size 9 to 14) (size 15 to 20)
#    0.000    2.000    1.250    2.250    1.750    5.000 
#    0.000    3.125    2.750    1.500    0.000    0.000 
#    0.000    0.000    0.000    0.000    0.000    0.000 
#
# Total GULP energy -396712.052927 kJ/mol
# GULP energy per Si atom -12397.251654 kJ/mol
# Density = 2.245263 g / cm^3
# Si number density = 22.503850 Si / 1000 Ang^3
#
#
#
# Elastic Constant Matrix: (Units=GPa)
#
#
# Indices 1 2 3 4 5 6 
#
# 1 67.3756 29.7019 36.8078 0.0000 22.9653 0.0000
# 2 29.7019 53.9362 24.3330 0.0000 9.5858 0.0000
# 3 36.8078 24.3330 100.4782 0.0000 30.0812 0.0000
# 4 0.0000 0.0000 0.0000 30.9924 0.0000 -3.2403
# 5 22.9653 9.5858 30.0812 0.0000 38.2357 0.0000
# 6 0.0000 0.0000 0.0000 -3.2403 0.0000 23.2430
#
#
#
# Elastic Compliance Matrix: (Units=1/GPa)
#
#
# Indices 1 2 3 4 5 6 
#
# 1 0.024522 -0.010169 -0.003760 0.000000 -0.009221 0.000000
# 2 -0.010169 0.025110 -0.003008 0.000000 0.002179 0.000000
# 3 -0.003760 -0.003008 0.014594 0.000000 -0.008469 0.000000
# 4 0.000000 0.000000 0.000000 0.032743 0.000000 0.004565
# 5 -0.009221 0.002179 -0.008469 0.000000 0.037808 0.000000
# 6 0.000000 0.000000 0.000000 0.004565 0.000000 0.043660
#
#
# Mechanical properties :
#
#
# Convention : Reuss Voigt Hill
#
# Bulk Modulus (GPa) = 32.94672 44.83058 38.88865
# Shear Modulus (GPa) = 22.47909 27.22405 24.85157
#
# Velocity S-wave (km/s) = 3.16397 3.48192 3.32674
# Velocity P-wave (km/s) = 5.29338 6.01079 5.66345
#
# Compressibility (1/GPa) = 0.03035203
#
# Stress axis : x y z
#
# Youngs Moduli (GPa) = 40.77949 39.82457 68.52297
#
# Poissons Ratio (x) = 0.40497 0.25763
# Poissons Ratio (y) = 0.41468 0.20613
# Poissons Ratio (z) = 0.15332 0.11980
#
# Static dielectric constant tensor:
#      x y z
#    x 3.814090 0.000000 0.304050 
#    y 0.000000 4.186930 0.000000 
#    z 0.304050 0.000000 4.231650 
# 
# 
# High freq. dielectric constant tensor:
#      x y z
#    x 1.856440 0.000000 0.017690 
#    y 0.000000 1.892000 0.000000 
#    z 0.017690 0.000000 1.891870 
# 
# From -- ./inp_files/189427.got.cif
#   From: 2010.06.25/outbox.cif.g09.slc.cpg/sg12_95_cif.got.tgz:189427.got - 2010.06.28 00:19:55.
