data_PCOD8098432
_publ_section_title
;
Structure prediction by ZEFSAII (Michael W. Deem and Ramdas Pophale) SiO2 
 PCOD8098432
Probable space group: C 2/M
;
_chemical_formula_sum "Si O2"
_cell_formula_units_Z 56
_cell_length_a 14.678289
_cell_length_b 8.844609
_cell_length_c 26.653842
_cell_angle_alpha 90.000000
_cell_angle_beta 127.780473
_cell_angle_gamma 90.000000
_cell_volume 2734.896911
_symmetry_space_group_name_H-M "C 2/M"
_symmetry_group_IT_number 12
_symmetry_cell_setting 'monoclinic'
loop_
_space_group_symop_operation_xyz
x,y,z
-x,y,-z
-x,-y,-z
x,-y,z
1/2+x,1/2+y,z
1/2-x,1/2+y,-z
1/2-x,1/2-y,-z
1/2+x,1/2-y,z
loop_
_atom_site_type_symbol
_atom_site_label
_atom_site_fract_x
_atom_site_fract_y
_atom_site_fract_z
Si Si1 0.880163 0.172039 0.794210
Si Si2 0.541481 0.824296 0.274739
Si Si3 0.072393 0.672418 0.919336
Si Si4 0.097216 0.321513 0.493814
Si Si5 0.716164 0.826901 0.058817
Si Si6 0.640729 0.677566 0.405544
Si Si7 0.778758 0.327917 0.173478
O O1 0.757952 0.192067 0.780850
O O2 0.878193 0.277998 0.744838
O O3 0.974452 0.215263 0.867733
O O4 0.901067 0.000000 0.783867
O O5 0.573512 0.729007 0.333932
O O6 0.412342 0.783032 0.214417
O O7 0.557165 0.000000 0.292383
O O8 0.037401 0.500000 0.894660
O O9 0.189993 0.710151 0.930250
O O10 0.096963 0.692430 0.987369
O O11 0.085027 0.500000 0.484552
O O12 0.225182 0.273527 0.555237
O O13 0.078319 0.251568 0.432476
O O14 0.000000 0.260055 0.500000
O O15 0.700966 0.781784 0.112074
O O16 0.758874 0.000000 0.068816
O O17 0.630562 0.500000 0.408552
O O18 0.758295 0.500000 0.149441
#
# Coordination Sequence:
#
# PCOD8098432 Si02
#       7
#     8   8   8   8   8   8   8
#     4  11  23  39  59  84 111 148 195 243 293 348
#     4  11  23  41  61  82 116 159 195 237 287 342
#     4  10  20  35  55  82 113 145 184 236 300 355
#     4   9  19  38  63  90 122 158 193 231 279 334
#     4  10  20  34  57  83 109 145 189 238 291 353
#     4  10  21  37  60  90 121 154 193 238 281 331
#     4  10  23  40  58  81 113 150 192 241 295 351
#
# _framework density 20.476092000000001
#
# number of rings (size 3 to 8) (size 9 to 14) (size 15 to 20)
#    0.000    1.857    1.429    2.143    0.000    6.000 
#    0.000    8.571    0.000    0.000    0.000    0.000 
#    0.000    0.000    0.000    0.000    0.000    0.000 
#
# Total GULP energy -347214.829159 kJ/mol
# GULP energy per Si atom -12400.529613 kJ/mol
# Density = 2.042949 g / cm^3
# Si number density = 20.476092 Si / 1000 Ang^3
#
#
#
# Elastic Constant Matrix: (Units=GPa)
#
#
# Indices 1 2 3 4 5 6 
#
# 1 83.9213 26.0294 24.2340 0.0000 -27.9567 0.0000
# 2 26.0294 40.3305 23.8317 0.0000 -4.7948 0.0000
# 3 24.2340 23.8317 94.7828 0.0000 -25.7458 0.0000
# 4 0.0000 0.0000 0.0000 33.2080 0.0000 -6.7796
# 5 -27.9567 -4.7948 -25.7458 0.0000 22.6625 0.0000
# 6 0.0000 0.0000 0.0000 -6.7796 0.0000 28.6171
#
#
#
# Elastic Compliance Matrix: (Units=1/GPa)
#
#
# Indices 1 2 3 4 5 6 
#
# 1 0.029319 -0.019077 0.008719 0.000000 0.042037 0.000000
# 2 -0.019077 0.041688 -0.013886 0.000000 -0.030488 0.000000
# 3 0.008719 -0.013886 0.020156 0.000000 0.030716 0.000000
# 4 0.000000 0.000000 0.000000 0.031644 0.000000 0.007497
# 5 0.042037 -0.030488 0.030716 0.000000 0.124427 0.000000
# 6 0.000000 0.000000 0.000000 0.007497 0.000000 0.036720
#
#
# Mechanical properties :
#
#
# Convention : Reuss Voigt Hill
#
# Bulk Modulus (GPa) = 23.43278 40.80276 32.11777
# Shear Modulus (GPa) = 14.42312 26.56015 20.49164
#
# Velocity S-wave (km/s) = 2.65691 3.60548 3.16691
# Velocity P-wave (km/s) = 4.56958 6.10761 5.39370
#
# Compressibility (1/GPa) = 0.04267526
#
# Stress axis : x y z
#
# Youngs Moduli (GPa) = 34.10775 23.98788 49.61334
#
# Poissons Ratio (x) = 0.45761 -0.43257
# Poissons Ratio (y) = 0.65066 0.68891
# Poissons Ratio (z) = -0.29738 0.33309
#
# Static dielectric constant tensor:
#      x y z
#    x 3.716060 0.000000 -0.084760 
#    y 0.000000 3.650100 0.000000 
#    z -0.084760 0.000000 3.687380 
# 
# 
# High freq. dielectric constant tensor:
#      x y z
#    x 1.793050 0.000000 -0.013510 
#    y 0.000000 1.803750 0.000000 
#    z -0.013510 0.000000 1.796180 
# 
# From -- ./inp_files/339089.got.cif
#   From: 2010.06.25/outbox.cif.g09.slc.cpg/sg12_170_cif.got.tgz:339089.got - 2010.06.28 00:19:55.
