data_PCOD8098263
_publ_section_title
;
Structure prediction by ZEFSAII (Michael W. Deem and Ramdas Pophale) SiO2 
 PCOD8098263
Probable space group: C 2/M
;
_chemical_formula_sum "Si O2"
_cell_formula_units_Z 56
_cell_length_a 29.846528
_cell_length_b 8.569679
_cell_length_c 21.896223
_cell_angle_alpha 90.000000
_cell_angle_beta 33.148308
_cell_angle_gamma 90.000000
_cell_volume 3062.404114
_symmetry_space_group_name_H-M "C 2/M"
_symmetry_group_IT_number 12
_symmetry_cell_setting 'monoclinic'
loop_
_space_group_symop_operation_xyz
x,y,z
-x,y,-z
-x,-y,-z
x,-y,z
1/2+x,1/2+y,z
1/2-x,1/2+y,-z
1/2-x,1/2-y,-z
1/2+x,1/2-y,z
loop_
_atom_site_type_symbol
_atom_site_label
_atom_site_fract_x
_atom_site_fract_y
_atom_site_fract_z
Si Si1 0.381472 0.179699 0.343477
Si Si2 0.834132 0.681670 0.608210
Si Si3 0.235678 0.819276 0.425949
Si Si4 0.666269 0.318612 0.261464
Si Si5 0.016276 0.317491 0.363734
Si Si6 0.208506 0.316238 0.987210
Si Si7 0.959925 0.181356 0.795685
O O1 0.327173 0.218075 0.345674
O O2 0.330052 0.215527 0.463031
O O3 0.463000 0.284564 0.248255
O O4 0.408105 0.000000 0.315274
O O5 0.821606 0.500000 0.610915
O O6 0.770104 0.774994 0.638532
O O7 0.814140 0.721309 0.700536
O O8 0.925787 0.735210 0.486557
O O9 0.214612 0.000000 0.461182
O O10 0.668526 0.500000 0.275002
O O11 0.577444 0.277199 0.336843
O O12 0.735302 0.272062 0.134079
O O13 0.030528 0.500000 0.358700
O O14 0.031500 0.279105 0.275974
O O15 0.197243 0.500000 0.007179
O O16 0.121165 0.234905 0.076247
O O17 0.250000 0.250000 0.000000
O O18 0.954790 0.000000 0.784963
#
# Coordination Sequence:
#
# PCOD8098263 Si02
#       7
#     8   8   8   8   8   8   8
#     4  10  20  35  55  83 115 148 184 230 285 334
#     4  11  23  37  56  82 116 155 189 227 281 336
#     4  10  20  34  56  83 114 148 186 230 278 336
#     4  11  24  39  57  81 111 150 194 234 279 334
#     4  11  22  36  55  81 115 152 188 228 278 335
#     4  11  23  39  59  82 111 148 190 237 283 331
#     4  12  23  35  57  85 114 150 189 232 282 332
#
# _framework density 18.286287000000002
#
# number of rings (size 3 to 8) (size 9 to 14) (size 15 to 20)
#    0.000    1.143    2.857    4.286    0.000    6.857 
#    0.000    0.000    0.000    0.857    0.000    6.000 
#    0.000    0.000    0.000    0.000    0.000    0.000 
#
# Total GULP energy -347378.835542 kJ/mol
# GULP energy per Si atom -12406.386984 kJ/mol
# Density = 1.824467 g / cm^3
# Si number density = 18.286287 Si / 1000 Ang^3
#
#
#
# Elastic Constant Matrix: (Units=GPa)
#
#
# Indices 1 2 3 4 5 6 
#
# 1 122.9013 23.8942 54.2476 0.0180 -6.7296 -0.0025
# 2 23.8942 48.1438 31.1714 0.0642 -4.4938 -0.0157
# 3 54.2476 31.1714 77.6245 0.0193 0.0794 -0.0121
# 4 0.0180 0.0642 0.0193 28.7519 -0.0169 -1.4825
# 5 -6.7296 -4.4938 0.0794 -0.0169 25.8791 0.0032
# 6 -0.0025 -0.0157 -0.0121 -1.4825 0.0032 33.3610
#
#
#
# Elastic Compliance Matrix: (Units=1/GPa)
#
#
# Indices 1 2 3 4 5 6 
#
# 1 0.012021 -0.000319 -0.008276 0.000000 0.003096 -0.000003
# 2 -0.000319 0.028715 -0.011313 -0.000053 0.004938 0.000007
# 3 -0.008276 -0.011313 0.023214 0.000013 -0.004188 0.000003
# 4 0.000000 -0.000053 0.000013 0.034860 0.000013 0.001549
# 5 0.003096 0.004938 -0.004188 0.000013 0.040317 -0.000002
# 6 -0.000003 0.000007 0.000003 0.001549 -0.000002 0.030044
#
#
# Mechanical properties :
#
#
# Convention : Reuss Voigt Hill
#
# Bulk Modulus (GPa) = 41.43598 51.92177 46.67887
# Shear Modulus (GPa) = 23.03809 26.88883 24.96346
#
# Velocity S-wave (km/s) = 3.55330 3.83879 3.69880
# Velocity P-wave (km/s) = 6.28835 6.93569 6.61994
#
# Compressibility (1/GPa) = 0.02413361
#
# Stress axis : x y z
#
# Youngs Moduli (GPa) = 83.18707 34.82460 43.07819
#
# Poissons Ratio (x) = 0.01110 0.35652
# Poissons Ratio (y) = 0.02651 0.48736
# Poissons Ratio (z) = 0.68846 0.39398
#
# Static dielectric constant tensor:
#      x y z
#    x 3.517460 -0.000030 -0.191870 
#    y -0.000030 3.431620 0.000040 
#    z -0.191870 0.000040 3.445650 
# 
# 
# High freq. dielectric constant tensor:
#      x y z
#    x 1.710480 0.000000 -0.010360 
#    y 0.000000 1.725220 0.000000 
#    z -0.010360 0.000000 1.687650 
# 
# From -- ./inp_files/238394.got.cif
#   From: 2010.06.25/outbox.cif.g09.slc.cpg/sg12_120_cif.got.tgz:238394.got - 2010.06.28 00:19:55.
