data_PCOD8098097
_publ_section_title
;
Structure prediction by ZEFSAII (Michael W. Deem and Ramdas Pophale) SiO2 
 PCOD8098097
Probable space group: C 2/M
;
_chemical_formula_sum "Si O2"
_cell_formula_units_Z 64
_cell_length_a 26.106961
_cell_length_b 14.441518
_cell_length_c 9.378573
_cell_angle_alpha 90.000000
_cell_angle_beta 81.297523
_cell_angle_gamma 90.000000
_cell_volume 3495.240338
_symmetry_space_group_name_H-M "C 2/M"
_symmetry_group_IT_number 12
_symmetry_cell_setting 'monoclinic'
loop_
_space_group_symop_operation_xyz
x,y,z
-x,y,-z
-x,-y,-z
x,-y,z
1/2+x,1/2+y,z
1/2-x,1/2+y,-z
1/2-x,1/2-y,-z
1/2+x,1/2-y,z
loop_
_atom_site_type_symbol
_atom_site_label
_atom_site_fract_x
_atom_site_fract_y
_atom_site_fract_z
Si Si1 0.031921 0.108382 0.847137
Si Si2 0.540948 0.599772 0.368035
Si Si3 0.639751 0.703714 0.737996
Si Si4 0.291784 0.187084 0.064038
Si Si5 0.780045 0.893453 0.680245
Si Si6 0.830711 0.390902 0.765990
Si Si7 0.127873 0.764072 0.419715
Si Si8 0.261964 0.605194 0.378583
O O1 0.084925 0.166782 0.817250
O O2 0.990793 0.142632 0.748933
O O3 0.046127 0.000000 0.825497
O O4 0.000000 0.131299 0.000000
O O5 0.500000 0.570371 0.500000
O O6 0.568889 0.500000 0.315834
O O7 0.576093 0.678853 0.419113
O O8 0.666582 0.763575 0.850758
O O9 0.634676 0.755830 0.586666
O O10 0.678693 0.618782 0.692699
O O11 0.259261 0.115077 0.172388
O O12 0.250000 0.250000 0.000000
O O13 0.326142 0.130755 0.935307
O O14 0.829191 0.827506 0.676594
O O15 0.751714 0.861715 0.545093
O O16 0.798581 0.000000 0.659473
O O17 0.840993 0.500000 0.740230
O O18 0.875891 0.333001 0.666198
O O19 0.778808 0.347322 0.711401
O O20 0.247542 0.500000 0.368546
#
# Coordination Sequence:
#
# PCOD8098097 Si02
#       8
#     8   8   8   8   8   8   8   8
#     4  10  22  37  55  86 124 157 186 225 283 350
#     4  10  20  37  60  89 123 151 184 231 285 344
#     4  11  21  35  56  82 114 152 191 234 278 341
#     4  12  22  36  52  79 116 153 191 234 285 339
#     4  10  20  34  55  83 116 150 186 229 278 341
#     4  11  23  39  56  80 113 150 192 239 288 337
#     4  11  21  36  60  87 111 151 197 235 283 337
#     4   9  18  33  54  79 111 149 187 229 275 330
#
# _framework density 18.310616
#
# number of rings (size 3 to 8) (size 9 to 14) (size 15 to 20)
#    0.000    1.500    3.750    1.875    1.750    3.000 
#    0.000    0.625    0.000    0.375    0.000    0.875 
#    0.000    0.000    0.000    0.000    0.000    0.000 
#
# Total GULP energy -396459.230829 kJ/mol
# GULP energy per Si atom -12389.350963 kJ/mol
# Density = 1.826894 g / cm^3
# Si number density = 18.310616 Si / 1000 Ang^3
#
#
#
# Elastic Constant Matrix: (Units=GPa)
#
#
# Indices 1 2 3 4 5 6 
#
# 1 71.0267 40.4953 40.0999 0.0000 7.9584 0.0000
# 2 40.4953 86.4127 42.2649 0.0000 1.6119 0.0000
# 3 40.0999 42.2649 118.0674 0.0000 4.9963 0.0000
# 4 0.0000 0.0000 0.0000 28.2480 0.0000 -0.7342
# 5 7.9584 1.6119 4.9963 0.0000 31.6276 0.0000
# 6 0.0000 0.0000 0.0000 -0.7342 0.0000 25.4824
#
#
#
# Elastic Compliance Matrix: (Units=1/GPa)
#
#
# Indices 1 2 3 4 5 6 
#
# 1 0.021484 -0.007889 -0.004289 0.000000 -0.004326 0.000000
# 2 -0.007889 0.016926 -0.003450 0.000000 0.001668 0.000000
# 3 -0.004289 -0.003450 0.011183 0.000000 -0.000511 0.000000
# 4 0.000000 0.000000 0.000000 0.035427 0.000000 0.001021
# 5 -0.004326 0.001668 -0.000511 0.000000 0.032702 0.000000
# 6 0.000000 0.000000 0.000000 0.001021 0.000000 0.039272
#
#
# Mechanical properties :
#
#
# Convention : Reuss Voigt Hill
#
# Bulk Modulus (GPa) = 54.53951 57.91413 56.22682
# Shear Modulus (GPa) = 25.72498 27.24803 26.48651
#
# Velocity S-wave (km/s) = 3.75229 3.86178 3.80743
# Velocity P-wave (km/s) = 6.97304 7.18205 7.07832
#
# Compressibility (1/GPa) = 0.01833533
#
# Stress axis : x y z
#
# Youngs Moduli (GPa) = 46.54717 59.08141 89.41927
#
# Poissons Ratio (x) = 0.46610 0.38356
# Poissons Ratio (y) = 0.36722 0.30851
# Poissons Ratio (z) = 0.19966 0.20384
#
# Static dielectric constant tensor:
#      x y z
#    x 3.225540 0.000000 0.117020 
#    y 0.000000 3.185380 0.000000 
#    z 0.117020 0.000000 3.613530 
# 
# 
# High freq. dielectric constant tensor:
#      x y z
#    x 1.686370 0.000000 0.009650 
#    y 0.000000 1.694270 0.000000 
#    z 0.009650 0.000000 1.728430 
# 
# From -- ./inp_files/104587.got.cif
#   From: 2010.06.25/outbox.cif.g09.slc.cpg/sg12_53_cif.got.tgz:104587.got - 2010.06.28 00:19:55.
