data_PCOD8098385
_publ_section_title
;
Structure prediction by ZEFSAII (Michael W. Deem and Ramdas Pophale) SiO2 
 PCOD8098385
Probable space group: C 2/M
;
_chemical_formula_sum "Si O2"
_cell_formula_units_Z 56
_cell_length_a 28.754952
_cell_length_b 8.642876
_cell_length_c 13.073212
_cell_angle_alpha 90.000000
_cell_angle_beta 123.454373
_cell_angle_gamma 90.000000
_cell_volume 2710.744192
_symmetry_space_group_name_H-M "C 2/M"
_symmetry_group_IT_number 12
_symmetry_cell_setting 'monoclinic'
loop_
_space_group_symop_operation_xyz
x,y,z
-x,y,-z
-x,-y,-z
x,-y,z
1/2+x,1/2+y,z
1/2-x,1/2+y,-z
1/2-x,1/2-y,-z
1/2+x,1/2-y,z
loop_
_atom_site_type_symbol
_atom_site_label
_atom_site_fract_x
_atom_site_fract_y
_atom_site_fract_z
Si Si1 0.666282 0.680077 0.718414
Si Si2 0.948207 0.179922 0.720382
Si Si3 0.555190 0.179589 0.930616
Si Si4 0.872028 0.319684 0.785098
Si Si5 0.650831 0.680164 0.929879
Si Si6 0.276691 0.320376 0.789550
Si Si7 0.445779 0.180353 0.498500
O O1 0.677471 0.500000 0.716390
O O2 0.672359 0.727799 0.844408
O O3 0.712244 0.771915 0.708797
O O4 0.605479 0.720294 0.604472
O O5 0.890802 0.226387 0.707197
O O6 0.956572 0.280411 0.629215
O O7 0.999192 0.220159 0.857634
O O8 0.947027 0.000000 0.691102
O O9 0.595408 0.220979 0.884761
O O10 0.539020 0.000000 0.906901
O O11 0.586102 0.223953 0.072580
O O12 0.873001 0.500000 0.761018
O O13 0.809704 0.270276 0.740868
O O14 0.634594 0.500000 0.915479
O O15 0.698668 0.722923 0.069198
O O16 0.282549 0.500000 0.772684
O O17 0.500000 0.228389 0.500000
O O18 0.432265 0.000000 0.469439
#
# Coordination Sequence:
#
# PCOD8098385 Si02
#       7
#     8   8   8   8   8   8   8
#     4  11  22  37  58  85 117 154 194 236 286 338
#     4  12  24  38  59  85 115 152 192 236 287 341
#     4  10  20  34  56  86 119 154 191 234 285 340
#     4  10  21  38  59  85 118 153 191 236 285 338
#     4   9  19  34  55  85 120 155 191 235 285 339
#     4  10  20  36  58  86 119 154 193 235 283 338
#     4  11  25  44  64  86 113 148 191 237 284 337
#
# _framework density 20.658535000000001
#
# number of rings (size 3 to 8) (size 9 to 14) (size 15 to 20)
#    0.000    1.571    0.000    5.143    0.000    8.571 
#    0.000    0.714    0.000    0.000    0.000    0.000 
#    0.000    0.000    0.000    0.000    0.000    0.000 
#
# Total GULP energy -347384.801226 kJ/mol
# GULP energy per Si atom -12406.600044 kJ/mol
# Density = 2.061151 g / cm^3
# Si number density = 20.658535 Si / 1000 Ang^3
#
#
#
# Elastic Constant Matrix: (Units=GPa)
#
#
# Indices 1 2 3 4 5 6 
#
# 1 140.7594 27.0123 35.1498 0.0000 -4.2841 0.0000
# 2 27.0123 48.5420 10.4937 0.0000 -4.3456 0.0000
# 3 35.1498 10.4937 44.1639 0.0000 -1.1340 0.0000
# 4 0.0000 0.0000 0.0000 29.3165 0.0000 3.1362
# 5 -4.2841 -4.3456 -1.1340 0.0000 31.5592 0.0000
# 6 0.0000 0.0000 0.0000 3.1362 0.0000 38.3503
#
#
#
# Elastic Compliance Matrix: (Units=1/GPa)
#
#
# Indices 1 2 3 4 5 6 
#
# 1 0.009512 -0.003808 -0.006652 0.000000 0.000528 0.000000
# 2 -0.003808 0.023492 -0.002484 0.000000 0.002629 0.000000
# 3 -0.006652 -0.002484 0.028522 0.000000 -0.000220 0.000000
# 4 0.000000 0.000000 0.000000 0.034412 0.000000 -0.002814
# 5 0.000528 0.002629 -0.000220 0.000000 0.032112 0.000000
# 6 0.000000 0.000000 0.000000 -0.002814 0.000000 0.026306
#
#
# Mechanical properties :
#
#
# Convention : Reuss Voigt Hill
#
# Bulk Modulus (GPa) = 28.05977 42.08632 35.07305
# Shear Modulus (GPa) = 26.02495 30.56584 28.29540
#
# Velocity S-wave (km/s) = 3.55317 3.85070 3.70492
# Velocity P-wave (km/s) = 5.51774 6.33933 5.94275
#
# Compressibility (1/GPa) = 0.03563822
#
# Stress axis : x y z
#
# Youngs Moduli (GPa) = 105.12616 42.56768 35.06060
#
# Poissons Ratio (x) = 0.16210 0.23324
# Poissons Ratio (y) = 0.40032 0.08708
# Poissons Ratio (z) = 0.69935 0.10572
#
# Static dielectric constant tensor:
#      x y z
#    x 3.832680 0.000000 -0.047320 
#    y 0.000000 3.660890 0.000000 
#    z -0.047320 0.000000 3.550150 
# 
# 
# High freq. dielectric constant tensor:
#      x y z
#    x 1.821850 0.000000 -0.002380 
#    y 0.000000 1.813510 0.000000 
#    z -0.002380 0.000000 1.785350 
# 
# From -- ./inp_files/248576.got.cif
#   From: 2010.06.25/outbox.cif.g09.slc.cpg/sg12_125_cif.got.tgz:248576.got - 2010.06.28 00:19:55.
