data_PCOD8098112
_publ_section_title
;
Structure prediction by ZEFSAII (Michael W. Deem and Ramdas Pophale) SiO2 
 PCOD8098112
Probable space group: C 2/M
;
_chemical_formula_sum "Si O2"
_cell_formula_units_Z 56
_cell_length_a 29.767891
_cell_length_b 8.576912
_cell_length_c 12.446521
_cell_angle_alpha 90.000000
_cell_angle_beta 105.712338
_cell_angle_gamma 90.000000
_cell_volume 3059.059662
_symmetry_space_group_name_H-M "C 2/M"
_symmetry_group_IT_number 12
_symmetry_cell_setting 'monoclinic'
loop_
_space_group_symop_operation_xyz
x,y,z
-x,y,-z
-x,-y,-z
x,-y,z
1/2+x,1/2+y,z
1/2-x,1/2+y,-z
1/2-x,1/2-y,-z
1/2+x,1/2-y,z
loop_
_atom_site_type_symbol
_atom_site_label
_atom_site_fract_x
_atom_site_fract_y
_atom_site_fract_z
Si Si1 0.048450 0.818448 0.977880
Si Si2 0.944126 0.682534 0.626147
Si Si3 0.698221 0.679664 0.341052
Si Si4 0.697248 0.180635 0.570156
Si Si5 0.450889 0.818499 0.252040
Si Si6 0.110581 0.680895 0.195348
Si Si7 0.390731 0.680748 0.394162
O O1 0.056615 0.717945 0.877224
O O2 0.047474 0.000000 0.947509
O O3 0.090611 0.783205 0.085762
O O4 0.000000 0.764529 0.000000
O O5 0.938465 0.500000 0.598512
O O6 0.915089 0.731707 0.711971
O O7 0.925772 0.776102 0.512443
O O8 0.997417 0.731092 0.678578
O O9 0.686110 0.500000 0.313622
O O10 0.688346 0.717959 0.458652
O O11 0.751997 0.717619 0.346755
O O12 0.665520 0.782909 0.242854
O O13 0.657734 0.224251 0.630295
O O14 0.693636 0.000000 0.534800
O O15 0.413840 0.720716 0.295729
O O16 0.442485 0.000000 0.267670
O O17 0.102419 0.500000 0.164583
O O18 0.378776 0.500000 0.391003
#
# Coordination Sequence:
#
# PCOD8098112 Si02
#       7
#     8   8   8   8   8   8   8
#     4  11  23  38  58  83 113 146 188 238 280 321
#     4  10  21  36  55  81 113 151 189 227 274 334
#     4  10  20  34  55  84 113 144 184 232 281 328
#     4  10  20  35  55  80 113 149 185 225 278 339
#     4  11  23  40  59  78 110 152 195 232 275 335
#     4  11  21  35  58  84 115 150 186 228 279 334
#     4  12  24  36  55  83 116 150 188 232 282 334
#
# _framework density 18.306277999999999
#
# number of rings (size 3 to 8) (size 9 to 14) (size 15 to 20)
#    0.000    1.286    2.857    3.857    0.000    5.714 
#    0.000    0.000    0.000    0.857    0.000    0.000 
#    0.000    0.000    0.000    0.000    0.000    0.000 
#
# Total GULP energy -347381.299248 kJ/mol
# GULP energy per Si atom -12406.474973 kJ/mol
# Density = 1.826461 g / cm^3
# Si number density = 18.306278 Si / 1000 Ang^3
#
#
#
# Elastic Constant Matrix: (Units=GPa)
#
#
# Indices 1 2 3 4 5 6 
#
# 1 114.9893 20.8445 46.5694 0.0000 9.3496 0.0000
# 2 20.8445 47.4063 17.7585 0.0000 3.0593 0.0000
# 3 46.5694 17.7585 79.9158 0.0000 0.7781 0.0000
# 4 0.0000 0.0000 0.0000 30.3448 0.0000 0.4989
# 5 9.3496 3.0593 0.7781 0.0000 27.5060 0.0000
# 6 0.0000 0.0000 0.0000 0.4989 0.0000 28.8596
#
#
#
# Elastic Compliance Matrix: (Units=1/GPa)
#
#
# Indices 1 2 3 4 5 6 
#
# 1 0.012069 -0.002674 -0.006404 0.000000 -0.003624 0.000000
# 2 -0.002674 0.023764 -0.003706 0.000000 -0.001629 0.000000
# 3 -0.006404 -0.003706 0.017048 0.000000 0.002107 0.000000
# 4 0.000000 0.000000 0.000000 0.032964 0.000000 -0.000570
# 5 -0.003624 -0.001629 0.002107 0.000000 0.037709 0.000000
# 6 0.000000 0.000000 0.000000 -0.000570 0.000000 0.034660
#
#
# Mechanical properties :
#
#
# Convention : Reuss Voigt Hill
#
# Bulk Modulus (GPa) = 36.61352 45.85069 41.23210
# Shear Modulus (GPa) = 25.92193 27.81801 26.86997
#
# Velocity S-wave (km/s) = 3.76708 3.90242 3.83535
# Velocity P-wave (km/s) = 6.24220 6.73839 6.49504
#
# Compressibility (1/GPa) = 0.02731231
#
# Stress axis : x y z
#
# Youngs Moduli (GPa) = 82.85520 42.08107 58.65840
#
# Poissons Ratio (x) = 0.11253 0.37562
# Poissons Ratio (y) = 0.22157 0.21742
# Poissons Ratio (z) = 0.53057 0.15597
#
# Static dielectric constant tensor:
#      x y z
#    x 3.491700 0.000000 0.110050 
#    y 0.000000 3.375170 0.000000 
#    z 0.110050 0.000000 3.172210 
# 
# 
# High freq. dielectric constant tensor:
#      x y z
#    x 1.710860 0.000000 0.010900 
#    y 0.000000 1.719850 0.000000 
#    z 0.010900 0.000000 1.689850 
# 
# From -- ./inp_files/181092.got.cif
#   From: 2010.06.25/outbox.cif.g09.slc.cpg/sg12_91_cif.got.tgz:181092.got - 2010.06.28 00:19:55.
