data_PCOD8098695
_publ_section_title
;
Structure prediction by ZEFSAII (Michael W. Deem and Ramdas Pophale) SiO2 
 PCOD8098695
Probable space group: C 2/M
;
_chemical_formula_sum "Si O2"
_cell_formula_units_Z 56
_cell_length_a 19.713158
_cell_length_b 8.980950
_cell_length_c 27.647187
_cell_angle_alpha 90.000000
_cell_angle_beta 141.381901
_cell_angle_gamma 90.000000
_cell_volume 3054.935258
_symmetry_space_group_name_H-M "C 2/M"
_symmetry_group_IT_number 12
_symmetry_cell_setting 'monoclinic'
loop_
_space_group_symop_operation_xyz
x,y,z
-x,y,-z
-x,-y,-z
x,-y,z
1/2+x,1/2+y,z
1/2-x,1/2+y,-z
1/2-x,1/2-y,-z
1/2+x,1/2-y,z
loop_
_atom_site_type_symbol
_atom_site_label
_atom_site_fract_x
_atom_site_fract_y
_atom_site_fract_z
Si Si1 0.437036 0.162701 0.514884
Si Si2 0.365510 0.323727 0.056761
Si Si3 0.818321 0.175379 0.198711
Si Si4 0.399302 0.827666 0.978187
Si Si5 0.004579 0.176690 0.777858
Si Si6 0.143565 0.322193 0.679370
Si Si7 0.762613 0.821613 0.649847
O O1 0.500000 0.143112 0.500000
O O2 0.520951 0.241650 0.599144
O O3 0.321913 0.243954 0.438085
O O4 0.409764 0.000000 0.521059
O O5 0.351413 0.500000 0.049701
O O6 0.444017 0.267714 0.143289
O O7 0.250000 0.250000 0.000000
O O8 0.417825 0.271577 0.035768
O O9 0.711174 0.221282 0.109665
O O10 0.922808 0.232259 0.226697
O O11 0.813870 0.256144 0.247286
O O12 0.822126 0.000000 0.209821
O O13 0.393180 0.000000 0.990092
O O14 0.500000 0.794480 0.000000
O O15 0.882528 0.241711 0.705245
O O16 0.001162 0.000000 0.776091
O O17 0.139752 0.500000 0.680345
O O18 0.226565 0.270661 0.683480
O O19 0.759083 0.000000 0.645424
#
# Coordination Sequence:
#
# PCOD8098695 Si02
#       7
#     8   8   8   8   8   8   8
#     4   7  11  23  44  71  98 123 154 197 246 290
#     4  11  21  36  57  78 103 135 175 214 254 305
#     4  10  20  35  49  67 101 136 163 194 248 309
#     4  10  22  39  55  73 103 139 173 212 259 309
#     4   9  18  32  49  70  98 130 165 204 243 295
#     4   9  17  29  50  77 100 122 160 208 246 286
#     4   8  14  27  50  75  96 123 162 206 246 284
#
# _framework density 18.330994
#
# number of rings (size 3 to 8) (size 9 to 14) (size 15 to 20)
#    0.000    2.857    1.429    2.143    2.000    0.857 
#    0.000    0.714    0.000    4.714    0.000    0.000 
#    0.000    0.000    0.000    0.000    0.000    0.000 
#
# Total GULP energy -346961.368849 kJ/mol
# GULP energy per Si atom -12391.477459 kJ/mol
# Density = 1.828927 g / cm^3
# Si number density = 18.330994 Si / 1000 Ang^3
#
#
#
# Elastic Constant Matrix: (Units=GPa)
#
#
# Indices 1 2 3 4 5 6 
#
# 1 88.0775 12.2843 35.2830 0.0000 16.6287 0.0000
# 2 12.2843 22.3486 7.8797 -0.0001 0.3350 0.0004
# 3 35.2830 7.8797 72.3848 0.0000 27.2288 0.0000
# 4 0.0000 -0.0001 0.0000 11.6314 0.0000 -6.2522
# 5 16.6287 0.3350 27.2288 0.0000 35.4619 0.0000
# 6 0.0000 0.0004 0.0000 -6.2522 0.0000 21.4348
#
#
#
# Elastic Compliance Matrix: (Units=1/GPa)
#
#
# Indices 1 2 3 4 5 6 
#
# 1 0.014973 -0.006205 -0.005630 0.000000 -0.002640 0.000000
# 2 -0.006205 0.049704 -0.004646 0.000000 0.006008 -0.000001
# 3 -0.005630 -0.004646 0.022576 0.000000 -0.014651 0.000000
# 4 0.000000 0.000000 0.000000 0.101960 0.000000 0.029740
# 5 -0.002640 0.006008 -0.014651 0.000000 0.040630 0.000000
# 6 0.000000 -0.000001 0.000000 0.029740 0.000000 0.055328
#
#
# Mechanical properties :
#
#
# Convention : Reuss Voigt Hill
#
# Bulk Modulus (GPa) = 18.41923 32.63388 25.52655
# Shear Modulus (GPa) = 14.87077 22.19654 18.53365
#
# Velocity S-wave (km/s) = 2.85131 3.48354 3.18316
# Velocity P-wave (km/s) = 4.57274 5.83278 5.24076
#
# Compressibility (1/GPa) = 0.05429110
#
# Stress axis : x y z
#
# Youngs Moduli (GPa) = 66.78820 20.11897 44.29446
#
# Poissons Ratio (x) = 0.12485 0.24937
# Poissons Ratio (y) = 0.41445 0.20578
# Poissons Ratio (z) = 0.37601 0.09347
#
# Static dielectric constant tensor:
#      x y z
#    x 3.397890 0.000000 0.143550 
#    y 0.000000 2.910750 0.000000 
#    z 0.143550 0.000000 3.893450 
# 
# 
# High freq. dielectric constant tensor:
#      x y z
#    x 1.701230 0.000000 0.006850 
#    y 0.000000 1.658320 0.000000 
#    z 0.006850 0.000000 1.730110 
# 
# From -- ./inp_files/363121.got.cif
#   From: 2010.06.25/outbox.cif.g09.slc.cpg/sg12_182_cif.got.tgz:363121.got - 2010.06.28 00:19:55.
