data_PCOD8098948
_publ_section_title
;
Structure prediction by ZEFSAII (Michael W. Deem and Ramdas Pophale) SiO2 
 PCOD8098948
Probable space group: C 2/M
;
_chemical_formula_sum "Si O2"
_cell_formula_units_Z 64
_cell_length_a 25.501869
_cell_length_b 8.999043
_cell_length_c 15.381639
_cell_angle_alpha 90.000000
_cell_angle_beta 107.418644
_cell_angle_gamma 90.000000
_cell_volume 3368.095576
_symmetry_space_group_name_H-M "C 2/M"
_symmetry_group_IT_number 12
_symmetry_cell_setting 'monoclinic'
loop_
_space_group_symop_operation_xyz
x,y,z
-x,y,-z
-x,-y,-z
x,-y,z
1/2+x,1/2+y,z
1/2-x,1/2+y,-z
1/2-x,1/2-y,-z
1/2+x,1/2-y,z
loop_
_atom_site_type_symbol
_atom_site_label
_atom_site_fract_x
_atom_site_fract_y
_atom_site_fract_z
Si Si1 0.941372 0.323520 0.797014
Si Si2 0.755995 0.824915 0.910578
Si Si3 0.122269 0.669774 0.394001
Si Si4 0.933600 0.323614 0.109839
Si Si5 0.659132 0.175614 0.596383
Si Si6 0.877085 0.175942 0.918215
Si Si7 0.240352 0.670561 0.405485
Si Si8 0.143182 0.325086 0.776217
O O1 0.932364 0.500000 0.802029
O O2 0.927694 0.270287 0.690536
O O3 0.900330 0.239863 0.840603
O O4 0.003352 0.276998 0.847727
O O5 0.813103 0.777369 0.893619
O O6 0.704873 0.768212 0.826956
O O7 0.754188 0.000000 0.924322
O O8 0.750000 0.750000 0.000000
O O9 0.110770 0.500000 0.410794
O O10 0.129870 0.744055 0.494375
O O11 0.175284 0.687105 0.356487
O O12 0.927154 0.500000 0.096031
O O13 0.900646 0.259726 0.177154
O O14 0.911159 0.245670 0.013581
O O15 0.720011 0.245013 0.642311
O O16 0.626064 0.217139 0.668254
O O17 0.667273 0.000000 0.590513
O O18 0.884621 0.000000 0.923955
O O19 0.258398 0.500000 0.419020
O O20 0.250000 0.750000 0.500000
O O21 0.142044 0.500000 0.786213
#
# Coordination Sequence:
#
# PCOD8098948 Si02
#       8
#     8   8   8   8   8   8   8   8
#     4  10  21  36  55  77 103 140 182 220 258 309
#     4  10  20  35  54  78 108 138 171 212 263 316
#     4   8  16  31  48  72 104 133 167 213 256 295
#     4  10  20  37  58  76 100 141 184 217 258 312
#     4   9  17  31  52  74 103 139 169 208 260 310
#     4  11  23  36  54  81 108 136 171 217 273 320
#     4   9  16  28  46  69  99 134 167 206 255 303
#     4   9  18  33  54  78 105 137 173 212 255 310
#
# _framework density 19.001835
#
# number of rings (size 3 to 8) (size 9 to 14) (size 15 to 20)
#    0.000    2.500    1.250    1.875    1.750    2.500 
#    0.000    4.375    0.000    3.750    0.000    0.000 
#    0.000    6.000    0.000    0.000    0.000    0.000 
#
# Total GULP energy -396455.212265 kJ/mol
# GULP energy per Si atom -12389.225383 kJ/mol
# Density = 1.895859 g / cm^3
# Si number density = 19.001835 Si / 1000 Ang^3
#
#
#
# Elastic Constant Matrix: (Units=GPa)
#
#
# Indices 1 2 3 4 5 6 
#
# 1 107.6008 24.3085 57.0066 0.0000 3.4738 0.0000
# 2 24.3085 33.7860 19.0778 0.0000 1.6885 0.0000
# 3 57.0066 19.0778 133.2144 0.0000 -4.8828 0.0000
# 4 0.0000 0.0000 0.0000 15.6601 0.0000 -2.6554
# 5 3.4738 1.6885 -4.8828 0.0000 19.4003 0.0000
# 6 0.0000 0.0000 0.0000 -2.6554 0.0000 23.0102
#
#
#
# Elastic Compliance Matrix: (Units=1/GPa)
#
#
# Indices 1 2 3 4 5 6 
#
# 1 0.013544 -0.006805 -0.004934 0.000000 -0.003075 0.000000
# 2 -0.006805 0.035932 -0.002325 0.000000 -0.002494 0.000000
# 3 -0.004934 -0.002325 0.010084 0.000000 0.003624 0.000000
# 4 0.000000 0.000000 0.000000 0.065131 0.000000 0.007516
# 5 -0.003075 -0.002494 0.003624 0.000000 0.053225 0.000000
# 6 0.000000 0.000000 0.000000 0.007516 0.000000 0.044326
#
#
# Mechanical properties :
#
#
# Convention : Reuss Voigt Hill
#
# Bulk Modulus (GPa) = 31.81540 52.82075 42.31807
# Shear Modulus (GPa) = 19.16819 23.22802 21.19811
#
# Velocity S-wave (km/s) = 3.17954 3.50009 3.34366
# Velocity P-wave (km/s) = 5.50081 6.64772 6.10128
#
# Compressibility (1/GPa) = 0.03143132
#
# Stress axis : x y z
#
# Youngs Moduli (GPa) = 73.83146 27.83048 99.16700
#
# Poissons Ratio (x) = 0.18939 0.48931
# Poissons Ratio (y) = 0.50243 0.23058
# Poissons Ratio (z) = 0.36430 0.06471
#
# Static dielectric constant tensor:
#      x y z
#    x 4.028130 0.000000 -0.002800 
#    y 0.000000 3.486280 0.000000 
#    z -0.002800 0.000000 3.669570 
# 
# 
# High freq. dielectric constant tensor:
#      x y z
#    x 1.731610 0.000000 -0.001500 
#    y 0.000000 1.706280 0.000000 
#    z -0.001500 0.000000 1.747220 
# 
# From -- ./inp_files/244036.got.cif
#   From: 2010.06.25/outbox.cif.g09.slc.cpg/sg12_123_cif.got.tgz:244036.got - 2010.06.28 00:19:55.
