data_PCOD8098370
_publ_section_title
;
Structure prediction by ZEFSAII (Michael W. Deem and Ramdas Pophale) SiO2 
 PCOD8098370
Probable space group: C 2/M
;
_chemical_formula_sum "Si O2"
_cell_formula_units_Z 64
_cell_length_a 22.916854
_cell_length_b 11.194101
_cell_length_c 23.615737
_cell_angle_alpha 90.000000
_cell_angle_beta 146.788082
_cell_angle_gamma 90.000000
_cell_volume 3318.318070
_symmetry_space_group_name_H-M "C 2/M"
_symmetry_group_IT_number 12
_symmetry_cell_setting 'monoclinic'
loop_
_space_group_symop_operation_xyz
x,y,z
-x,y,-z
-x,-y,-z
x,-y,z
1/2+x,1/2+y,z
1/2-x,1/2+y,-z
1/2-x,1/2-y,-z
1/2+x,1/2-y,z
loop_
_atom_site_type_symbol
_atom_site_label
_atom_site_fract_x
_atom_site_fract_y
_atom_site_fract_z
Si Si1 0.596287 0.365630 0.306082
Si Si2 0.915185 0.636420 0.974825
Si Si3 0.414786 0.758530 0.097916
Si Si4 0.183174 0.216512 0.772160
Si Si5 0.207845 0.367517 0.904325
Si Si6 0.828753 0.362128 0.464926
Si Si7 0.539390 0.366947 0.388119
Si Si8 0.613959 0.865428 0.610749
O O1 0.590192 0.500000 0.278787
O O2 0.530705 0.287068 0.209005
O O3 0.719675 0.325992 0.407486
O O4 0.546047 0.351077 0.326666
O O5 0.945961 0.500000 0.006131
O O6 0.794588 0.648851 0.854448
O O7 0.928927 0.691650 0.047212
O O8 0.000000 0.696562 0.000000
O O9 0.376562 0.855496 0.113000
O O10 0.325877 0.654629 0.025203
O O11 0.180559 0.283452 0.829866
O O12 0.171788 0.301444 0.709077
O O13 0.083857 0.126026 0.693073
O O14 0.201881 0.500000 0.875483
O O15 0.865882 0.500000 0.512540
O O16 0.910415 0.254187 0.544982
O O17 0.809382 0.360875 0.381725
O O18 0.588074 0.500000 0.444542
O O19 0.500000 0.807715 0.500000
O O20 0.592089 0.000000 0.613675
#
# Coordination Sequence:
#
# PCOD8098370 Si02
#       8
#     8   8   8   8   8   8   8   8
#     4  10  21  38  61  86 119 155 191 239 300 353
#     4  10  23  41  58  80 116 157 192 237 291 353
#     4  10  20  36  58  85 112 148 193 235 293 349
#     4  11  21  37  60  85 112 156 195 243 292 354
#     4  10  20  34  56  86 115 144 190 247 292 343
#     4  10  22  40  61  86 118 160 202 244 298 355
#     4  11  22  39  60  89 121 154 197 246 300 355
#     4  10  20  36  60  86 115 151 196 249 295 343
#
# _framework density 19.28688
#
# number of rings (size 3 to 8) (size 9 to 14) (size 15 to 20)
#    0.000    1.750    2.500    1.875    1.750    0.500 
#    0.000    3.125    0.000    2.250    0.000    0.000 
#    0.000    0.000    0.000    0.000    0.000    0.000 
#
# Total GULP energy -396575.205650 kJ/mol
# GULP energy per Si atom -12392.975177 kJ/mol
# Density = 1.924298 g / cm^3
# Si number density = 19.286880 Si / 1000 Ang^3
#
#
#
# Elastic Constant Matrix: (Units=GPa)
#
#
# Indices 1 2 3 4 5 6 
#
# 1 111.8861 28.3941 40.0530 0.0000 11.7329 0.0000
# 2 28.3941 92.9670 37.7703 0.0000 2.6587 0.0000
# 3 40.0530 37.7703 82.2708 0.0000 5.7030 0.0000
# 4 0.0000 0.0000 0.0000 11.5273 0.0000 -0.6706
# 5 11.7329 2.6587 5.7030 0.0000 35.0341 0.0000
# 6 0.0000 0.0000 0.0000 -0.6706 0.0000 22.9005
#
#
#
# Elastic Compliance Matrix: (Units=1/GPa)
#
#
# Indices 1 2 3 4 5 6 
#
# 1 0.011268 -0.001489 -0.004600 0.000000 -0.002912 0.000000
# 2 -0.001489 0.013420 -0.005462 0.000000 0.000369 0.000000
# 3 -0.004600 -0.005462 0.016958 0.000000 -0.000805 0.000000
# 4 0.000000 0.000000 0.000000 0.086899 0.000000 0.002545
# 5 -0.002912 0.000369 -0.000805 0.000000 0.029622 0.000000
# 6 0.000000 0.000000 0.000000 0.002545 0.000000 0.043742
#
#
# Mechanical properties :
#
#
# Convention : Reuss Voigt Hill
#
# Bulk Modulus (GPa) = 53.92746 55.50652 54.71699
# Shear Modulus (GPa) = 21.62723 25.95281 23.79002
#
# Velocity S-wave (km/s) = 3.35228 3.67225 3.51591
# Velocity P-wave (km/s) = 6.55783 6.84269 6.70177
#
# Compressibility (1/GPa) = 0.01854343
#
# Stress axis : x y z
#
# Youngs Moduli (GPa) = 88.74974 74.51746 58.97035
#
# Poissons Ratio (x) = 0.11097 0.27127
# Poissons Ratio (y) = 0.13217 0.32207
# Poissons Ratio (z) = 0.40825 0.40698
#
# Static dielectric constant tensor:
#      x y z
#    x 3.805620 0.000000 0.142320 
#    y 0.000000 3.467810 0.000000 
#    z 0.142320 0.000000 3.431180 
# 
# 
# High freq. dielectric constant tensor:
#      x y z
#    x 1.765380 0.000000 0.002720 
#    y 0.000000 1.742050 0.000000 
#    z 0.002720 0.000000 1.738130 
# 
# From -- ./inp_files/349404.got.cif
#   From: 2010.06.25/outbox.cif.g09.slc.cpg/sg12_175_cif.got.tgz:349404.got - 2010.06.28 00:19:55.
