data_PCOD8098871
_publ_section_title
;
Structure prediction by ZEFSAII (Michael W. Deem and Ramdas Pophale) SiO2 
 PCOD8098871
Probable space group: C 2/M
;
_chemical_formula_sum "Si O2"
_cell_formula_units_Z 64
_cell_length_a 14.825621
_cell_length_b 9.104463
_cell_length_c 23.709309
_cell_angle_alpha 90.000000
_cell_angle_beta 91.770527
_cell_angle_gamma 90.000000
_cell_volume 3198.738503
_symmetry_space_group_name_H-M "C 2/M"
_symmetry_group_IT_number 12
_symmetry_cell_setting 'monoclinic'
loop_
_space_group_symop_operation_xyz
x,y,z
-x,y,-z
-x,-y,-z
x,-y,z
1/2+x,1/2+y,z
1/2-x,1/2+y,-z
1/2-x,1/2-y,-z
1/2+x,1/2-y,z
loop_
_atom_site_type_symbol
_atom_site_label
_atom_site_fract_x
_atom_site_fract_y
_atom_site_fract_z
Si Si1 0.751116 0.328907 0.915632
Si Si2 0.586156 0.829864 0.259627
Si Si3 0.650522 0.836485 0.377943
Si Si4 0.763627 0.825575 0.800315
Si Si5 0.607986 0.167757 0.714037
Si Si6 0.394429 0.835376 0.503114
Si Si7 0.105314 0.829552 0.007363
Si Si8 0.643797 0.336968 0.607961
O O1 0.768300 0.500000 0.904918
O O2 0.730882 0.245326 0.857590
O O3 0.660822 0.303635 0.950777
O O4 0.843122 0.264656 0.944341
O O5 0.605817 0.761722 0.322357
O O6 0.637505 0.735023 0.213665
O O7 0.479213 0.815035 0.247208
O O8 0.617855 0.000000 0.256711
O O9 0.629299 0.757145 0.437316
O O10 0.755568 0.841757 0.367196
O O11 0.608834 0.000000 0.382814
O O12 0.693644 0.774120 0.750652
O O13 0.766466 0.000000 0.807104
O O14 0.588545 0.252454 0.655159
O O15 0.623474 0.000000 0.696722
O O16 0.500000 0.842251 0.500000
O O17 0.353667 0.740482 0.452305
O O18 0.352338 0.000000 0.499359
O O19 0.108664 0.000000 0.025433
O O20 0.000000 0.778922 0.000000
O O21 0.603088 0.500000 0.600054
#
# Coordination Sequence:
#
# PCOD8098871 Si02
#       8
#     8   8   8   8   8   8   8   8
#     4  10  21  37  60  89 122 163 202 239 287 340
#     4  10  20  39  62  82 109 149 195 239 288 351
#     4   9  18  33  54  78 104 139 182 230 285 347
#     4  11  23  39  58  86 121 154 195 246 291 336
#     4  10  22  39  60  83 111 151 195 237 289 352
#     4  10  20  35  54  75 103 141 184 229 284 351
#     4   9  19  38  63  92 126 161 198 243 290 333
#     4  11  21  34  54  80 109 141 182 236 292 345
#
# _framework density 20.007885999999999
#
# number of rings (size 3 to 8) (size 9 to 14) (size 15 to 20)
#    0.000    2.000    1.250    2.250    0.000    5.000 
#    0.000    3.750    0.000    0.000    0.000    0.000 
#    0.000    0.000    0.000    0.000    0.000    0.000 
#
# Total GULP energy -396733.996853 kJ/mol
# GULP energy per Si atom -12397.937402 kJ/mol
# Density = 1.996235 g / cm^3
# Si number density = 20.007886 Si / 1000 Ang^3
#
#
#
# Elastic Constant Matrix: (Units=GPa)
#
#
# Indices 1 2 3 4 5 6 
#
# 1 87.3948 24.5786 18.4802 0.0000 -9.5106 0.0000
# 2 24.5786 84.0798 46.9779 0.0000 -2.9190 0.0000
# 3 18.4802 46.9779 102.2890 0.0000 -11.7023 0.0000
# 4 0.0000 0.0000 0.0000 26.6892 0.0000 -1.5983
# 5 -9.5106 -2.9190 -11.7023 0.0000 23.1122 0.0000
# 6 0.0000 0.0000 0.0000 -1.5983 0.0000 25.0623
#
#
#
# Elastic Compliance Matrix: (Units=1/GPa)
#
#
# Indices 1 2 3 4 5 6 
#
# 1 0.012997 -0.003535 -0.000174 0.000000 0.004814 0.000000
# 2 -0.003535 0.017032 -0.007540 0.000000 -0.003122 0.000000
# 3 -0.000174 -0.007540 0.013962 0.000000 0.006046 0.000000
# 4 0.000000 0.000000 0.000000 0.037612 0.000000 0.002399
# 5 0.004814 -0.003122 0.006046 0.000000 0.047915 0.000000
# 6 0.000000 0.000000 0.000000 0.002399 0.000000 0.040054
#
#
# Mechanical properties :
#
#
# Convention : Reuss Voigt Hill
#
# Bulk Modulus (GPa) = 46.52858 50.42633 48.47746
# Shear Modulus (GPa) = 25.09604 27.22118 26.15861
#
# Velocity S-wave (km/s) = 3.54546 3.69253 3.61974
# Velocity P-wave (km/s) = 6.32977 6.59072 6.46156
#
# Compressibility (1/GPa) = 0.02149217
#
# Stress axis : x y z
#
# Youngs Moduli (GPa) = 76.93989 58.71442 71.62107
#
# Poissons Ratio (x) = 0.20756 0.01245
# Poissons Ratio (y) = 0.27199 0.54006
# Poissons Ratio (z) = 0.01338 0.44273
#
# Static dielectric constant tensor:
#      x y z
#    x 3.631450 0.000000 -0.034970 
#    y 0.000000 3.608110 0.000000 
#    z -0.034970 0.000000 3.634480 
# 
# 
# High freq. dielectric constant tensor:
#      x y z
#    x 1.783410 0.000000 -0.006000 
#    y 0.000000 1.764200 0.000000 
#    z -0.006000 0.000000 1.779720 
# 
# From -- ./inp_files/338932.got.cif
#   From: 2010.06.25/outbox.cif.g09.slc.cpg/sg12_170_cif.got.tgz:338932.got - 2010.06.28 00:19:55.
