data_PCOD8098933
_publ_section_title
;
Structure prediction by ZEFSAII (Michael W. Deem and Ramdas Pophale) SiO2 
 PCOD8098933
Probable space group: C 2/M
;
_chemical_formula_sum "Si O2"
_cell_formula_units_Z 52
_cell_length_a 29.516746
_cell_length_b 17.420663
_cell_length_c 6.648841
_cell_angle_alpha 90.000000
_cell_angle_beta 58.322725
_cell_angle_gamma 90.000000
_cell_volume 2909.501565
_symmetry_space_group_name_H-M "C 2/M"
_symmetry_group_IT_number 12
_symmetry_cell_setting 'monoclinic'
loop_
_space_group_symop_operation_xyz
x,y,z
-x,y,-z
-x,-y,-z
x,-y,z
1/2+x,1/2+y,z
1/2-x,1/2+y,-z
1/2-x,1/2-y,-z
1/2+x,1/2-y,z
loop_
_atom_site_type_symbol
_atom_site_label
_atom_site_fract_x
_atom_site_fract_y
_atom_site_fract_z
Si Si1 0.951162 0.274024 0.230373
Si Si2 0.341441 0.294753 0.375659
Si Si3 0.929697 0.586917 0.001448
Si Si4 0.500000 0.835584 0.500000
Si Si5 0.237270 0.166411 0.103927
Si Si6 0.310539 0.132323 0.275649
Si Si7 0.712366 0.585929 0.759702
O O1 0.902101 0.218790 0.297779
O O2 0.944261 0.360141 0.157454
O O3 0.963626 0.282123 0.439058
O O4 0.000000 0.234078 0.000000
O O5 0.313426 0.329303 0.634706
O O6 0.314966 0.216353 0.363054
O O7 0.333480 0.357395 0.218211
O O8 0.947125 0.500000 0.008712
O O9 0.866179 0.588987 0.124559
O O10 0.959518 0.614231 0.728783
O O11 0.289151 0.136501 0.099070
O O12 0.250000 0.250000 0.000000
O O13 0.224223 0.106915 0.960819
O O14 0.268127 0.087426 0.510017
O O15 0.689404 0.500000 0.804124
#
# Coordination Sequence:
#
# PCOD8098933 Si02
#       7
#     8   8   8   4   8   8   8
#     4   9  21  37  56  78 100 133 183 227 267 316
#     4  10  20  36  58  77 106 144 177 218 265 320
#     4  10  21  34  50  74 109 146 180 218 264 311
#     4  10  21  34  52  76 103 134 184 230 267 306
#     4  11  19  32  56  81 106 144 182 213 260 315
#     4  10  20  35  54  77 108 148 184 215 254 313
#     4  11  22  35  53  82 114 141 176 221 266 315
#
# _framework density 17.872475999999999
#
# number of rings (size 3 to 8) (size 9 to 14) (size 15 to 20)
#    0.000    1.846    3.077    1.615    2.154    7.692 
#    0.000    0.000    0.000    0.462    0.000    1.615 
#    0.000    0.000    0.000    0.000    0.000    0.000 
#
# Total GULP energy -322341.164944 kJ/mol
# GULP energy per Si atom -12397.737113 kJ/mol
# Density = 1.783180 g / cm^3
# Si number density = 17.872476 Si / 1000 Ang^3
#
#
#
# Elastic Constant Matrix: (Units=GPa)
#
#
# Indices 1 2 3 4 5 6 
#
# 1 129.8837 26.5510 41.3895 0.0000 6.7890 0.0000
# 2 26.5510 72.5223 7.1119 0.0000 8.2269 0.0000
# 3 41.3895 7.1119 66.9022 0.0000 16.6681 0.0000
# 4 0.0000 0.0000 0.0000 12.0266 0.0000 5.1859
# 5 6.7890 8.2269 16.6681 0.0000 35.3568 0.0000
# 6 0.0000 0.0000 0.0000 5.1859 0.0000 13.7753
#
#
#
# Elastic Compliance Matrix: (Units=1/GPa)
#
#
# Indices 1 2 3 4 5 6 
#
# 1 0.010368 -0.003368 -0.006522 0.000000 0.001867 0.000000
# 2 -0.003368 0.015292 0.001341 0.000000 -0.003544 0.000000
# 3 -0.006522 0.001341 0.021081 0.000000 -0.008998 0.000000
# 4 0.000000 0.000000 0.000000 0.099262 0.000000 -0.037368
# 5 0.001867 -0.003544 -0.008998 0.000000 0.032991 0.000000
# 6 0.000000 0.000000 0.000000 -0.037368 0.000000 0.086662
#
#
# Mechanical properties :
#
#
# Convention : Reuss Voigt Hill
#
# Bulk Modulus (GPa) = 33.73335 46.60145 40.16740
# Shear Modulus (GPa) = 17.08610 25.18211 21.13411
#
# Velocity S-wave (km/s) = 3.09528 3.75772 3.44247
# Velocity P-wave (km/s) = 5.62937 6.70510 6.19064
#
# Compressibility (1/GPa) = 0.02964425
#
# Stress axis : x y z
#
# Youngs Moduli (GPa) = 96.44735 65.39163 47.43594
#
# Poissons Ratio (x) = 0.22025 0.30936
# Poissons Ratio (y) = 0.32486 -0.06361
# Poissons Ratio (z) = 0.62899 -0.08769
#
# Static dielectric constant tensor:
#      x y z
#    x 3.483130 0.000000 0.011590 
#    y 0.000000 3.086470 0.000000 
#    z 0.011590 0.000000 3.395430 
# 
# 
# High freq. dielectric constant tensor:
#      x y z
#    x 1.699100 0.000000 0.008050 
#    y 0.000000 1.668140 0.000000 
#    z 0.008050 0.000000 1.695910 
# 
# From -- ./inp_files/29019.got.cif
#   From: 2010.06.25/outbox.cif.g09.slc.cpg/sg12_15_cif.got.tgz:29019.got - 2010.06.28 00:19:55.
