data_PCOD8098091
_publ_section_title
;
Structure prediction by ZEFSAII (Michael W. Deem and Ramdas Pophale) SiO2 
 PCOD8098091
Probable space group: C 2/M
;
_chemical_formula_sum "Si O2"
_cell_formula_units_Z 56
_cell_length_a 30.388922
_cell_length_b 8.839377
_cell_length_c 18.612790
_cell_angle_alpha 90.000000
_cell_angle_beta 142.357924
_cell_angle_gamma 90.000000
_cell_volume 3053.482445
_symmetry_space_group_name_H-M "C 2/M"
_symmetry_group_IT_number 12
_symmetry_cell_setting 'monoclinic'
loop_
_space_group_symop_operation_xyz
x,y,z
-x,y,-z
-x,-y,-z
x,-y,z
1/2+x,1/2+y,z
1/2-x,1/2+y,-z
1/2-x,1/2-y,-z
1/2+x,1/2-y,z
loop_
_atom_site_type_symbol
_atom_site_label
_atom_site_fract_x
_atom_site_fract_y
_atom_site_fract_z
Si Si1 0.710604 0.177263 0.116050
Si Si2 0.190901 0.173450 0.243776
Si Si3 0.585511 0.826961 0.841006
Si Si4 0.300624 0.826330 0.506682
Si Si5 0.800859 0.324788 0.123448
Si Si6 0.554433 0.178419 0.132134
Si Si7 0.451281 0.677810 0.725746
O O1 0.697216 0.256948 0.173763
O O2 0.785698 0.241113 0.179552
O O3 0.718699 0.000000 0.139234
O O4 0.644500 0.216472 0.977715
O O5 0.266333 0.186328 0.383157
O O6 0.133988 0.266175 0.217020
O O7 0.165643 0.000000 0.205026
O O8 0.618048 0.805452 0.802490
O O9 0.516199 0.719525 0.755968
O O10 0.561395 0.000000 0.821579
O O11 0.250000 0.750000 0.500000
O O12 0.377308 0.746059 0.600956
O O13 0.311581 0.000000 0.543770
O O14 0.780855 0.500000 0.106053
O O15 0.750000 0.250000 0.000000
O O16 0.527040 0.255308 0.169223
O O17 0.554543 0.000000 0.143031
O O18 0.500000 0.229863 0.000000
O O19 0.441973 0.500000 0.719350
#
# Coordination Sequence:
#
# PCOD8098091 Si02
#       7
#     8   8   8   8   8   8   8
#     4  10  20  34  55  83 115 149 182 220 274 331
#     4  11  23  37  56  81 107 140 183 228 273 324
#     4   9  19  35  54  80 113 148 182 219 270 327
#     4  11  23  40  60  79 104 141 187 233 276 325
#     4   9  17  31  53  80 112 147 183 223 270 326
#     4  11  23  37  54  77 109 146 178 218 274 328
#     4  12  24  36  55  81 108 143 184 228 274 322
#
# _framework density 18.339715999999999
#
# number of rings (size 3 to 8) (size 9 to 14) (size 15 to 20)
#    0.000    1.571    1.429    5.143    0.000    9.714 
#    0.000    0.000    0.000    0.857    0.000    6.000 
#    0.000    0.000    0.000    0.000    0.000    0.000 
#
# Total GULP energy -347225.186595 kJ/mol
# GULP energy per Si atom -12400.899521 kJ/mol
# Density = 1.829797 g / cm^3
# Si number density = 18.339716 Si / 1000 Ang^3
#
#
#
# Elastic Constant Matrix: (Units=GPa)
#
#
# Indices 1 2 3 4 5 6 
#
# 1 84.2475 26.7070 12.8784 0.0000 20.6120 0.0000
# 2 26.7070 94.2184 38.4182 0.0000 12.2449 0.0000
# 3 12.8784 38.4182 61.0924 0.0000 20.1792 0.0000
# 4 0.0000 0.0000 0.0000 27.1330 0.0000 1.6175
# 5 20.6120 12.2449 20.1792 0.0000 19.6616 0.0000
# 6 0.0000 0.0000 0.0000 1.6175 0.0000 37.2398
#
#
#
# Elastic Compliance Matrix: (Units=1/GPa)
#
#
# Indices 1 2 3 4 5 6 
#
# 1 0.017954 -0.004913 0.006825 0.000000 -0.022767 0.000000
# 2 -0.004913 0.015621 -0.011007 0.000000 0.006719 0.000000
# 3 0.006825 -0.011007 0.033209 0.000000 -0.034383 0.000000
# 4 0.000000 0.000000 0.000000 0.036951 0.000000 -0.001605
# 5 -0.022767 0.006719 -0.034383 0.000000 0.105832 0.000000
# 6 0.000000 0.000000 0.000000 -0.001605 0.000000 0.026923
#
#
# Mechanical properties :
#
#
# Convention : Reuss Voigt Hill
#
# Bulk Modulus (GPa) = 20.57892 43.95173 32.26532
# Shear Modulus (GPa) = 18.45841 27.57718 23.01779
#
# Velocity S-wave (km/s) = 3.17594 3.88195 3.54655
# Velocity P-wave (km/s) = 4.96931 6.64154 5.86533
#
# Compressibility (1/GPa) = 0.04859341
#
# Stress axis : x y z
#
# Youngs Moduli (GPa) = 55.69713 64.01464 30.11244
#
# Poissons Ratio (x) = 0.31453 -0.20552
# Poissons Ratio (y) = 0.27366 0.33146
# Poissons Ratio (z) = -0.38014 0.70463
#
# Static dielectric constant tensor:
#      x y z
#    x 4.574040 0.000000 -0.676430 
#    y 0.000000 3.645520 0.000000 
#    z -0.676430 0.000000 3.904670 
# 
# 
# High freq. dielectric constant tensor:
#      x y z
#    x 1.718640 0.000000 0.005970 
#    y 0.000000 1.728700 0.000000 
#    z 0.005970 0.000000 1.683480 
# 
# From -- ./inp_files/292539.got.cif
#   From: 2010.06.25/outbox.cif.g09.slc.cpg/sg12_147_cif.got.tgz:292539.got - 2010.06.28 00:19:55.
