data_PCOD8098155
_publ_section_title
;
Structure prediction by ZEFSAII (Michael W. Deem and Ramdas Pophale) SiO2 
 PCOD8098155
Probable space group: C 2/M
;
_chemical_formula_sum "Si O2"
_cell_formula_units_Z 64
_cell_length_a 30.342563
_cell_length_b 8.982399
_cell_length_c 17.230359
_cell_angle_alpha 90.000000
_cell_angle_beta 43.003980
_cell_angle_gamma 90.000000
_cell_volume 3202.982828
_symmetry_space_group_name_H-M "C 2/M"
_symmetry_group_IT_number 12
_symmetry_cell_setting 'monoclinic'
loop_
_space_group_symop_operation_xyz
x,y,z
-x,y,-z
-x,-y,-z
x,-y,z
1/2+x,1/2+y,z
1/2-x,1/2+y,-z
1/2-x,1/2-y,-z
1/2+x,1/2-y,z
loop_
_atom_site_type_symbol
_atom_site_label
_atom_site_fract_x
_atom_site_fract_y
_atom_site_fract_z
Si Si1 0.881063 0.329916 0.048142
Si Si2 0.713808 0.171760 0.694856
Si Si3 0.802934 0.166205 0.029601
Si Si4 0.176067 0.166937 0.169049
Si Si5 0.626943 0.174037 0.669025
Si Si6 0.506985 0.674977 0.903836
Si Si7 0.653314 0.823909 0.459426
Si Si8 0.571386 0.673570 0.430428
O O1 0.903672 0.500000 0.014102
O O2 0.940540 0.223625 0.949222
O O3 0.849623 0.293882 0.172053
O O4 0.827985 0.295444 0.052439
O O5 0.691902 0.211854 0.635021
O O6 0.773633 0.268168 0.649358
O O7 0.734597 0.000000 0.676042
O O8 0.727857 0.204116 0.115914
O O9 0.808066 0.000000 0.059189
O O10 0.842230 0.171389 0.898209
O O11 0.113695 0.205966 0.299969
O O12 0.201602 0.000000 0.157309
O O13 0.566397 0.258306 0.781702
O O14 0.635657 0.226802 0.569441
O O15 0.612315 0.000000 0.693341
O O16 0.515158 0.500000 0.892546
O O17 0.500000 0.738735 0.000000
O O18 0.601801 0.756078 0.465802
O O19 0.652252 0.000000 0.451400
O O20 0.500000 0.733633 0.500000
O O21 0.568440 0.500000 0.455674
#
# Coordination Sequence:
#
# PCOD8098155 Si02
#       8
#     8   8   8   8   8   8   8   8
#     4  11  22  36  58  85 117 159 199 234 284 351
#     4  10  21  38  61  85 117 162 203 237 283 349
#     4  10  20  34  55  85 117 147 189 244 291 338
#     4   9  19  37  58  81 112 149 189 234 293 357
#     4  10  22  41  61  85 120 162 201 237 289 351
#     4  11  23  38  58  85 115 149 192 241 287 332
#     4  11  24  39  60  91 121 150 194 251 299 342
#     4  10  22  41  63  83 110 152 197 238 290 358
#
# _framework density 19.981373999999999
#
# number of rings (size 3 to 8) (size 9 to 14) (size 15 to 20)
#    0.000    1.750    1.250    2.625    0.000    8.250 
#    0.000    1.250    0.000    0.000    0.000    0.000 
#    0.000    0.000    0.000    0.000    0.000    0.000 
#
# Total GULP energy -396787.839322 kJ/mol
# GULP energy per Si atom -12399.619979 kJ/mol
# Density = 1.993590 g / cm^3
# Si number density = 19.981374 Si / 1000 Ang^3
#
#
#
# Elastic Constant Matrix: (Units=GPa)
#
#
# Indices 1 2 3 4 5 6 
#
# 1 109.7148 39.4499 47.8866 -0.0035 -1.5371 0.0018
# 2 39.4499 51.1572 37.8944 -0.0120 0.0096 0.0065
# 3 47.8866 37.8944 98.2244 -0.0012 -4.3301 0.0000
# 4 -0.0035 -0.0120 -0.0012 29.2227 -0.0003 -0.9582
# 5 -1.5371 0.0096 -4.3301 -0.0003 27.7231 -0.0001
# 6 0.0018 0.0065 0.0000 -0.9582 -0.0001 33.6709
#
#
#
# Elastic Compliance Matrix: (Units=1/GPa)
#
#
# Indices 1 2 3 4 5 6 
#
# 1 0.013455 -0.007733 -0.003568 -0.000002 0.000191 0.000001
# 2 -0.007733 0.031890 -0.008612 0.000012 -0.001785 -0.000005
# 3 -0.003568 -0.008612 0.015340 -0.000003 0.002201 0.000002
# 4 -0.000002 0.000012 -0.000003 0.034252 0.000000 0.000975
# 5 0.000191 -0.001785 0.002201 0.000000 0.036426 0.000000
# 6 0.000001 -0.000005 0.000002 0.000975 0.000000 0.029727
#
#
# Mechanical properties :
#
#
# Convention : Reuss Voigt Hill
#
# Bulk Modulus (GPa) = 47.93936 56.61758 52.27847
# Shear Modulus (GPa) = 24.05368 27.04770 25.55069
#
# Velocity S-wave (km/s) = 3.47335 3.68318 3.57981
# Velocity P-wave (km/s) = 6.33480 6.81795 6.58081
#
# Compressibility (1/GPa) = 0.02085969
#
# Stress axis : x y z
#
# Youngs Moduli (GPa) = 74.32182 31.35740 65.19079
#
# Poissons Ratio (x) = 0.24249 0.23259
# Poissons Ratio (y) = 0.57473 0.56141
# Poissons Ratio (z) = 0.26517 0.27004
#
# Static dielectric constant tensor:
#      x y z
#    x 3.664670 0.000000 0.144530 
#    y 0.000000 3.556940 0.000010 
#    z 0.144530 0.000010 3.657500 
# 
# 
# High freq. dielectric constant tensor:
#      x y z
#    x 1.780440 0.000000 0.005350 
#    y 0.000000 1.778900 0.000000 
#    z 0.005350 0.000000 1.781200 
# 
# From -- ./inp_files/295662.got.cif
#   From: 2010.06.25/outbox.cif.g09.slc.cpg/sg12_148_cif.got.tgz:295662.got - 2010.06.28 00:19:55.
