data_PCOD8098639
_publ_section_title
;
Structure prediction by ZEFSAII (Michael W. Deem and Ramdas Pophale) SiO2 
 PCOD8098639
Probable space group: C 2/M
;
_chemical_formula_sum "Si O2"
_cell_formula_units_Z 64
_cell_length_a 19.839991
_cell_length_b 22.222057
_cell_length_c 12.449367
_cell_angle_alpha 90.000000
_cell_angle_beta 143.764452
_cell_angle_gamma 90.000000
_cell_volume 3244.430865
_symmetry_space_group_name_H-M "C 2/M"
_symmetry_group_IT_number 12
_symmetry_cell_setting 'monoclinic'
loop_
_space_group_symop_operation_xyz
x,y,z
-x,y,-z
-x,-y,-z
x,-y,z
1/2+x,1/2+y,z
1/2-x,1/2+y,-z
1/2-x,1/2-y,-z
1/2+x,1/2-y,z
loop_
_atom_site_type_symbol
_atom_site_label
_atom_site_fract_x
_atom_site_fract_y
_atom_site_fract_z
Si Si1 0.491355 0.929830 0.109185
Si Si2 0.125877 0.638782 0.675699
Si Si3 0.330665 0.716383 0.684627
Si Si4 0.794308 0.429214 0.017393
Si Si5 0.641858 0.135728 0.467424
Si Si6 0.097788 0.845480 0.698483
Si Si7 0.989999 0.752691 0.242060
Si Si8 0.728398 0.244881 0.160578
O O1 0.370503 0.914826 0.009533
O O2 0.595403 0.903801 0.311522
O O3 0.513178 0.000000 0.131451
O O4 0.500000 0.902021 0.000000
O O5 0.136469 0.593690 0.789415
O O6 0.141822 0.602568 0.583258
O O7 0.217080 0.691960 0.806615
O O8 0.000000 0.667057 0.500000
O O9 0.250000 0.750000 0.500000
O O10 0.275880 0.649812 0.621124
O O11 0.456740 0.715072 0.795843
O O12 0.328414 0.750695 0.795470
O O13 0.773547 0.500000 0.003010
O O14 0.671669 0.397266 0.851070
O O15 0.569814 0.198664 0.387346
O O16 0.177523 0.806843 0.721657
O O17 0.000000 0.876584 0.500000
O O18 0.032012 0.802938 0.697451
O O19 0.868118 0.725803 0.049630
#
# Coordination Sequence:
#
# PCOD8098639 Si02
#       8
#     8   8   8   8   8   8   8   8
#     4  10  22  39  58  84 120 158 202 252 300 356
#     4  11  20  36  60  89 122 148 190 250 300 361
#     4   9  20  34  51  85 122 154 192 237 292 366
#     4  11  25  42  61  89 118 158 209 252 304 357
#     4  10  20  34  59  89 121 156 198 245 301 367
#     4  12  24  39  61  87 121 160 200 250 297 361
#     4  11  21  36  57  88 123 161 192 241 303 363
#     4  11  21  35  58  88 121 158 193 240 301 363
#
# _framework density 19.726109999999998
#
# number of rings (size 3 to 8) (size 9 to 14) (size 15 to 20)
#    0.000    1.375    2.500    4.875    0.000    6.000 
#    0.000    0.000    0.000    0.750    0.000    1.750 
#    0.000    0.000    0.000    0.000    0.000    0.000 
#
# Total GULP energy -396594.894453 kJ/mol
# GULP energy per Si atom -12393.590452 kJ/mol
# Density = 1.968121 g / cm^3
# Si number density = 19.726110 Si / 1000 Ang^3
#
#
#
# Elastic Constant Matrix: (Units=GPa)
#
#
# Indices 1 2 3 4 5 6 
#
# 1 123.1860 32.2245 42.5321 0.0000 -13.7450 0.0000
# 2 32.2245 55.8824 30.9895 0.0000 -4.7327 0.0000
# 3 42.5321 30.9895 100.3100 0.0000 -6.8219 0.0000
# 4 0.0000 0.0000 0.0000 18.7520 0.0000 -5.7228
# 5 -13.7450 -4.7327 -6.8219 0.0000 36.5323 0.0000
# 6 0.0000 0.0000 0.0000 -5.7228 0.0000 19.7732
#
#
#
# Elastic Compliance Matrix: (Units=1/GPa)
#
#
# Indices 1 2 3 4 5 6 
#
# 1 0.010568 -0.004192 -0.002990 0.000000 0.002875 0.000000
# 2 -0.004192 0.023347 -0.005405 0.000000 0.000438 0.000000
# 3 -0.002990 -0.005405 0.012947 0.000000 0.000592 0.000000
# 4 0.000000 0.000000 0.000000 0.058494 0.000000 0.016929
# 5 0.002875 0.000438 0.000592 0.000000 0.028622 0.000000
# 6 0.000000 0.000000 0.000000 0.016929 0.000000 0.055473
#
#
# Mechanical properties :
#
#
# Convention : Reuss Voigt Hill
#
# Bulk Modulus (GPa) = 46.11242 54.54118 50.32680
# Shear Modulus (GPa) = 22.53725 26.58698 24.56211
#
# Velocity S-wave (km/s) = 3.38377 3.67523 3.53251
# Velocity P-wave (km/s) = 6.22042 6.76158 6.49664
#
# Compressibility (1/GPa) = 0.02168613
#
# Stress axis : x y z
#
# Youngs Moduli (GPa) = 94.62918 42.83244 77.23708
#
# Poissons Ratio (x) = 0.17956 0.23095
# Poissons Ratio (y) = 0.39670 0.41750
# Poissons Ratio (z) = 0.28295 0.23153
#
# Static dielectric constant tensor:
#      x y z
#    x 3.721840 0.000000 -1.001730 
#    y 0.000000 3.310090 0.000000 
#    z -1.001730 0.000000 2.678410 
# 
# 
# High freq. dielectric constant tensor:
#      x y z
#    x 1.785050 0.000000 -0.010330 
#    y 0.000000 1.725190 0.000000 
#    z -0.010330 0.000000 1.781940 
# 
# From -- ./inp_files/169706.got.cif
#   From: 2010.06.25/outbox.cif.g09.slc.cpg/sg12_85_cif.got.tgz:169706.got - 2010.06.28 00:19:55.
