data_PCOD8098937
_publ_section_title
;
Structure prediction by ZEFSAII (Michael W. Deem and Ramdas Pophale) SiO2 
 PCOD8098937
Probable space group: C 2/M
;
_chemical_formula_sum "Si O2"
_cell_formula_units_Z 64
_cell_length_a 19.884365
_cell_length_b 9.082921
_cell_length_c 31.312768
_cell_angle_alpha 90.000000
_cell_angle_beta 143.144463
_cell_angle_gamma 90.000000
_cell_volume 3392.069957
_symmetry_space_group_name_H-M "C 2/M"
_symmetry_group_IT_number 12
_symmetry_cell_setting 'monoclinic'
loop_
_space_group_symop_operation_xyz
x,y,z
-x,y,-z
-x,-y,-z
x,-y,z
1/2+x,1/2+y,z
1/2-x,1/2+y,-z
1/2-x,1/2-y,-z
1/2+x,1/2-y,z
loop_
_atom_site_type_symbol
_atom_site_label
_atom_site_fract_x
_atom_site_fract_y
_atom_site_fract_z
Si Si1 0.301940 0.327861 0.429537
Si Si2 0.536329 0.674769 0.084131
Si Si3 0.917547 0.175135 0.798505
Si Si4 0.019175 0.170786 0.408166
Si Si5 0.825223 0.674516 0.355524
Si Si6 0.419413 0.669553 0.656396
Si Si7 0.323920 0.325871 0.924232
Si Si8 0.909109 0.829412 0.183908
O O1 0.298756 0.500000 0.418127
O O2 0.377557 0.290410 0.508728
O O3 0.356101 0.246646 0.416514
O O4 0.177371 0.271602 0.374461
O O5 0.538996 0.500000 0.087217
O O6 0.558826 0.741841 0.142449
O O7 0.633079 0.728109 0.100510
O O8 0.414533 0.725997 0.005593
O O9 0.797060 0.230245 0.721086
O O10 0.012223 0.232486 0.814069
O O11 0.918023 0.000000 0.799943
O O12 0.056419 0.213765 0.379711
O O13 0.913129 0.271035 0.365118
O O14 0.984975 0.000000 0.394276
O O15 0.831289 0.500000 0.362868
O O16 0.380489 0.500000 0.640994
O O17 0.531278 0.697772 0.740466
O O18 0.310025 0.500000 0.917676
O O19 0.206575 0.255633 0.876287
O O20 0.883413 0.000000 0.163541
#
# Coordination Sequence:
#
# PCOD8098937 Si02
#       8
#     8   8   8   8   8   8   8   8
#     4  11  22  38  59  81 110 145 183 230 281 329
#     4   8  16  33  55  79 109 142 175 219 265 309
#     4   9  18  34  54  76 106 144 182 218 264 319
#     4  10  23  39  56  81 112 145 181 231 286 327
#     4  11  22  37  58  83 110 146 188 227 273 333
#     4  10  21  39  58  79 112 148 184 226 278 332
#     4   9  18  33  56  83 108 138 178 220 264 312
#     4  10  20  35  54  77 109 145 175 216 271 321
#
# _framework density 18.867536000000001
#
# number of rings (size 3 to 8) (size 9 to 14) (size 15 to 20)
#    0.000    2.250    1.250    2.250    1.750    4.000 
#    0.000    1.250    0.000    2.250    0.000    0.000 
#    0.000    0.000    0.000    0.000    0.000    0.000 
#
# Total GULP energy -396863.920089 kJ/mol
# GULP energy per Si atom -12401.997503 kJ/mol
# Density = 1.882459 g / cm^3
# Si number density = 18.867536 Si / 1000 Ang^3
#
#
#
# Elastic Constant Matrix: (Units=GPa)
#
#
# Indices 1 2 3 4 5 6 
#
# 1 84.8936 25.4898 37.9377 0.0000 -3.6779 0.0000
# 2 25.4898 44.1668 26.5753 0.0000 5.5464 0.0000
# 3 37.9377 26.5753 81.9773 0.0000 -3.9128 0.0000
# 4 0.0000 0.0000 0.0000 25.9631 0.0000 7.6166
# 5 -3.6779 5.5464 -3.9128 0.0000 44.6567 0.0000
# 6 0.0000 0.0000 0.0000 7.6166 0.0000 31.7897
#
#
#
# Elastic Compliance Matrix: (Units=1/GPa)
#
#
# Indices 1 2 3 4 5 6 
#
# 1 0.016130 -0.006300 -0.005344 0.000000 0.001643 0.000000
# 2 -0.006300 0.031440 -0.007519 0.000000 -0.005083 0.000000
# 3 -0.005344 -0.007519 0.017205 0.000000 0.002001 0.000000
# 4 0.000000 0.000000 0.000000 0.041428 0.000000 -0.009926
# 5 0.001643 -0.005083 0.002001 0.000000 0.023335 0.000000
# 6 0.000000 0.000000 0.000000 -0.009926 0.000000 0.033835
#
#
# Mechanical properties :
#
#
# Convention : Reuss Voigt Hill
#
# Bulk Modulus (GPa) = 37.80945 43.44925 40.62935
# Shear Modulus (GPa) = 23.75116 28.55091 26.15104
#
# Velocity S-wave (km/s) = 3.55186 3.89425 3.72699
# Velocity P-wave (km/s) = 6.07485 6.58018 6.33256
#
# Compressibility (1/GPa) = 0.02644842
#
# Stress axis : x y z
#
# Youngs Moduli (GPa) = 61.99448 31.80664 58.12339
#
# Poissons Ratio (x) = 0.20038 0.31062
# Poissons Ratio (y) = 0.39057 0.43704
# Poissons Ratio (z) = 0.33131 0.23916
#
# Static dielectric constant tensor:
#      x y z
#    x 3.690920 0.000000 -0.204400 
#    y 0.000000 3.154790 0.000000 
#    z -0.204400 0.000000 3.620070 
# 
# 
# High freq. dielectric constant tensor:
#      x y z
#    x 1.744860 0.000000 -0.004050 
#    y 0.000000 1.703740 0.000000 
#    z -0.004050 0.000000 1.741640 
# 
# From -- ./inp_files/378378.got.cif
#   From: 2010.06.25/outbox.cif.g09.slc.cpg/sg12_190_cif.got.tgz:378378.got - 2010.06.28 00:19:55.
