data_PCOD8098246
_publ_section_title
;
Structure prediction by ZEFSAII (Michael W. Deem and Ramdas Pophale) SiO2 
 PCOD8098246
Probable space group: C 2/M
;
_chemical_formula_sum "Si O2"
_cell_formula_units_Z 64
_cell_length_a 20.068351
_cell_length_b 9.106397
_cell_length_c 29.951352
_cell_angle_alpha 90.000000
_cell_angle_beta 143.871352
_cell_angle_gamma 90.000000
_cell_volume 3227.248298
_symmetry_space_group_name_H-M "C 2/M"
_symmetry_group_IT_number 12
_symmetry_cell_setting 'monoclinic'
loop_
_space_group_symop_operation_xyz
x,y,z
-x,y,-z
-x,-y,-z
x,-y,z
1/2+x,1/2+y,z
1/2-x,1/2+y,-z
1/2-x,1/2-y,-z
1/2+x,1/2-y,z
loop_
_atom_site_type_symbol
_atom_site_label
_atom_site_fract_x
_atom_site_fract_y
_atom_site_fract_z
Si Si1 0.661751 0.669097 0.757759
Si Si2 0.511702 0.167145 0.169355
Si Si3 0.090289 0.833650 0.401077
Si Si4 0.178727 0.330574 0.998487
Si Si5 0.125175 0.331504 0.577175
Si Si6 0.228502 0.169088 0.260660
Si Si7 0.176438 0.326703 0.858927
Si Si8 0.242358 0.171131 0.565039
O O1 0.693133 0.500000 0.784794
O O2 0.543400 0.682815 0.667985
O O3 0.755553 0.738345 0.775996
O O4 0.651022 0.759697 0.797214
O O5 0.618924 0.273649 0.227960
O O6 0.426981 0.211949 0.163709
O O7 0.552327 0.000000 0.198629
O O8 0.451216 0.181605 0.087929
O O9 0.142649 0.785190 0.476748
O O10 0.138011 0.731132 0.387714
O O11 0.126812 0.000000 0.409847
O O12 0.215883 0.500000 0.022340
O O13 0.206721 0.247832 0.060059
O O14 0.250000 0.250000 0.000000
O O15 0.129664 0.500000 0.564179
O O16 0.161118 0.313658 0.648194
O O17 0.216119 0.242151 0.598121
O O18 0.000000 0.267253 0.500000
O O19 0.209394 0.000000 0.237426
O O20 0.195382 0.500000 0.865595
O O21 0.255145 0.000000 0.579296
#
# Coordination Sequence:
#
# PCOD8098246 Si02
#       8
#     8   8   8   8   8   8   8   8
#     4  11  23  39  59  81 114 155 193 239 291 347
#     4   9  20  38  60  87 120 153 187 235 286 339
#     4   9  20  37  55  79 111 146 186 233 289 345
#     4   9  17  33  58  88 119 153 192 235 286 340
#     4  10  22  39  57  78 110 151 194 239 289 344
#     4  11  24  39  58  84 115 153 195 241 293 347
#     4  10  21  37  60  90 121 153 193 237 286 346
#     4  10  20  34  56  83 108 141 187 239 289 341
#
# _framework density 19.831136999999998
#
# number of rings (size 3 to 8) (size 9 to 14) (size 15 to 20)
#    0.000    2.125    0.000    3.375    1.750    5.750 
#    0.000    0.625    0.000    3.750    0.000    0.000 
#    0.000    0.000    0.000    0.000    0.000    0.000 
#
# Total GULP energy -396810.630582 kJ/mol
# GULP energy per Si atom -12400.332206 kJ/mol
# Density = 1.978600 g / cm^3
# Si number density = 19.831137 Si / 1000 Ang^3
#
#
#
# Elastic Constant Matrix: (Units=GPa)
#
#
# Indices 1 2 3 4 5 6 
#
# 1 90.5949 50.6986 22.0277 0.0000 -5.9192 -0.0001
# 2 50.6986 117.0264 36.8858 0.0001 -3.6353 0.0000
# 3 22.0277 36.8858 70.1326 0.0000 -2.6068 0.0000
# 4 0.0000 0.0001 0.0000 32.6481 0.0000 -2.2375
# 5 -5.9192 -3.6353 -2.6068 0.0000 21.5656 0.0000
# 6 -0.0001 0.0000 0.0000 -2.2375 0.0000 32.7215
#
#
#
# Elastic Compliance Matrix: (Units=1/GPa)
#
#
# Indices 1 2 3 4 5 6 
#
# 1 0.014884 -0.005896 -0.001466 0.000000 0.002914 0.000000
# 2 -0.005896 0.012604 -0.004780 0.000000 -0.000071 0.000000
# 3 -0.001466 -0.004780 0.017266 0.000000 0.000879 0.000000
# 4 0.000000 0.000000 0.000000 0.030774 0.000000 0.002104
# 5 0.002914 -0.000071 0.000879 0.000000 0.047264 0.000000
# 6 0.000000 0.000000 0.000000 0.002104 0.000000 0.030705
#
#
# Mechanical properties :
#
#
# Convention : Reuss Voigt Hill
#
# Bulk Modulus (GPa) = 48.84934 55.21977 52.03455
# Shear Modulus (GPa) = 27.08525 28.59650 27.84088
#
# Velocity S-wave (km/s) = 3.69967 3.80149 3.75093
# Velocity P-wave (km/s) = 6.55258 6.86832 6.71231
#
# Compressibility (1/GPa) = 0.02047111
#
# Stress axis : x y z
#
# Youngs Moduli (GPa) = 67.18485 79.34297 57.91861
#
# Poissons Ratio (x) = 0.46778 0.08490
# Poissons Ratio (y) = 0.39610 0.27683
# Poissons Ratio (z) = 0.09848 0.37923
#
# Static dielectric constant tensor:
#      x y z
#    x 3.321660 0.000000 -0.083230 
#    y 0.000000 3.697630 0.000000 
#    z -0.083230 0.000000 3.734890 
# 
# 
# High freq. dielectric constant tensor:
#      x y z
#    x 1.752770 0.000000 -0.008040 
#    y 0.000000 1.782700 0.000000 
#    z -0.008040 0.000000 1.772700 
# 
# From -- ./inp_files/378500.got.cif
#   From: 2010.06.25/outbox.cif.g09.slc.cpg/sg12_190_cif.got.tgz:378500.got - 2010.06.28 00:19:55.
