data_PCOD8098032
_publ_section_title
;
Structure prediction by ZEFSAII (Michael W. Deem and Ramdas Pophale) SiO2 
 PCOD8098032
Probable space group: C 2/M
;
_chemical_formula_sum "Si O2"
_cell_formula_units_Z 48
_cell_length_a 9.182259
_cell_length_b 10.610900
_cell_length_c 26.766961
_cell_angle_alpha 90.000000
_cell_angle_beta 68.287712
_cell_angle_gamma 90.000000
_cell_volume 2422.933163
_symmetry_space_group_name_H-M "C 2/M"
_symmetry_group_IT_number 12
_symmetry_cell_setting 'monoclinic'
loop_
_space_group_symop_operation_xyz
x,y,z
-x,y,-z
-x,-y,-z
x,-y,z
1/2+x,1/2+y,z
1/2-x,1/2+y,-z
1/2-x,1/2-y,-z
1/2+x,1/2-y,z
loop_
_atom_site_type_symbol
_atom_site_label
_atom_site_fract_x
_atom_site_fract_y
_atom_site_fract_z
Si Si1 0.520348 0.143045 0.943138
Si Si2 0.329607 0.642068 0.194228
Si Si3 0.202656 0.350596 0.313252
Si Si4 0.341014 0.750402 0.874626
Si Si5 0.633390 0.500000 0.552390
Si Si6 0.776205 0.000000 0.567459
Si Si7 0.381522 0.741575 0.378839
O O1 0.390380 0.195044 0.921705
O O2 0.699560 0.151829 0.901163
O O3 0.473528 0.000000 0.955298
O O4 0.500000 0.210763 0.000000
O O5 0.357560 0.500000 0.204990
O O6 0.233808 0.700769 0.252918
O O7 0.504254 0.695729 0.169795
O O8 0.231707 0.649738 0.155179
O O9 0.166997 0.500000 0.319135
O O10 0.351625 0.311551 0.327136
O O11 0.064648 0.272131 0.356886
O O12 0.455577 0.500000 0.558987
O O13 0.745844 0.500000 0.489717
O O14 0.669668 0.629221 0.577446
O O15 0.704313 0.872538 0.598666
#
# Coordination Sequence:
#
# PCOD8098032 Si02
#       7
#     8   8   8   8   4   4   8
#     4  10  20  34  55  82 113 148 186 233 283 336
#     4  10  21  37  56  82 111 151 187 238 286 339
#     4  11  23  38  61  86 119 150 197 242 297 349
#     4  10  20  36  56  80 112 148 192 232 280 338
#     4  11  24  41  63  91 123 155 195 241 294 349
#     4  11  24  41  63  91 123 155 195 241 294 349
#     4  12  22  42  62  90 118 158 192 246 292 352
#
# _framework density 19.810697999999999
#
# number of rings (size 3 to 8) (size 9 to 14) (size 15 to 20)
#    0.000    1.333    3.333    3.000    0.000    0.000 
#    0.000    0.833    3.667    8.000    0.000    0.000 
#    0.000    0.000    0.000    0.000    0.000    0.000 
#
# Total GULP energy -297424.256322 kJ/mol
# GULP energy per Si atom -12392.677347 kJ/mol
# Density = 1.976561 g / cm^3
# Si number density = 19.810698 Si / 1000 Ang^3
#
#
#
# Elastic Constant Matrix: (Units=GPa)
#
#
# Indices 1 2 3 4 5 6 
#
# 1 85.7225 13.5271 17.2718 0.0000 7.2916 0.0000
# 2 13.5271 76.0916 29.8744 0.0000 6.9895 0.0000
# 3 17.2718 29.8744 98.8517 0.0000 12.2219 0.0000
# 4 0.0000 0.0000 0.0000 29.9695 0.0000 3.1376
# 5 7.2916 6.9895 12.2219 0.0000 35.6687 0.0000
# 6 0.0000 0.0000 0.0000 3.1376 0.0000 17.5448
#
#
#
# Elastic Compliance Matrix: (Units=1/GPa)
#
#
# Indices 1 2 3 4 5 6 
#
# 1 0.012344 -0.001444 -0.001507 0.000000 -0.001724 0.000000
# 2 -0.001444 0.015151 -0.004173 0.000000 -0.001244 0.000000
# 3 -0.001507 -0.004173 0.012010 0.000000 -0.002990 0.000000
# 4 0.000000 0.000000 0.000000 0.034004 0.000000 -0.006081
# 5 -0.001724 -0.001244 -0.002990 0.000000 0.029656 0.000000
# 6 0.000000 0.000000 0.000000 -0.006081 0.000000 0.058085
#
#
# Mechanical properties :
#
#
# Convention : Reuss Voigt Hill
#
# Bulk Modulus (GPa) = 39.59324 42.44582 41.01953
# Shear Modulus (GPa) = 27.18609 29.96941 28.57775
#
# Velocity S-wave (km/s) = 3.70847 3.89368 3.80220
# Velocity P-wave (km/s) = 6.19404 6.45651 6.32664
#
# Compressibility (1/GPa) = 0.02525684
#
# Stress axis : x y z
#
# Youngs Moduli (GPa) = 81.01252 66.00063 83.26256
#
# Poissons Ratio (x) = 0.09533 0.12549
# Poissons Ratio (y) = 0.11701 0.34744
# Poissons Ratio (z) = 0.12209 0.27541
#
# Static dielectric constant tensor:
#      x y z
#    x 3.571390 0.000000 0.105880 
#    y 0.000000 3.484500 0.000000 
#    z 0.105880 0.000000 4.203080 
# 
# 
# High freq. dielectric constant tensor:
#      x y z
#    x 1.779660 0.000000 0.006130 
#    y 0.000000 1.763950 0.000000 
#    z 0.006130 0.000000 1.787330 
# 
# From -- ./inp_files/332077.got.cif
#   From: 2010.06.25/outbox.cif.g09.slc.cpg/sg12_167_cif.got.tgz:332077.got - 2010.06.28 00:19:55.
