data_PCOD8098664
_publ_section_title
;
Structure prediction by ZEFSAII (Michael W. Deem and Ramdas Pophale) SiO2 
 PCOD8098664
Probable space group: C 2/M
;
_chemical_formula_sum "Si O2"
_cell_formula_units_Z 40
_cell_length_a 10.210210
_cell_length_b 17.667908
_cell_length_c 11.860598
_cell_angle_alpha 90.000000
_cell_angle_beta 72.303824
_cell_angle_gamma 90.000000
_cell_volume 2038.328821
_symmetry_space_group_name_H-M "C 2/M"
_symmetry_group_IT_number 12
_symmetry_cell_setting 'monoclinic'
loop_
_space_group_symop_operation_xyz
x,y,z
-x,y,-z
-x,-y,-z
x,-y,z
1/2+x,1/2+y,z
1/2-x,1/2+y,-z
1/2-x,1/2-y,-z
1/2+x,1/2-y,z
loop_
_atom_site_type_symbol
_atom_site_label
_atom_site_fract_x
_atom_site_fract_y
_atom_site_fract_z
Si Si1 0.707141 0.174037 0.892534
Si Si2 0.429308 0.801381 0.859450
Si Si3 0.387431 0.809126 0.622128
Si Si4 0.857690 0.869490 0.655517
Si Si5 0.332431 0.584609 0.419354
O O1 0.582528 0.218866 0.862384
O O2 0.839804 0.225491 0.880453
O O3 0.760658 0.110863 0.789236
O O4 0.647360 0.143197 0.028081
O O5 0.437409 0.837299 0.732675
O O6 0.500000 0.831109 0.500000
O O7 0.357804 0.720119 0.629302
O O8 0.248941 0.853792 0.631010
O O9 0.797227 0.910160 0.561435
O O10 0.008357 0.899064 0.643657
O O11 0.295621 0.500000 0.387959
#
# Coordination Sequence:
#
# PCOD8098664 Si02
#       5
#     8   8   8   8   8
#     4   9  18  32  52  81 115 156 185 244 288 341
#     4   9  19  31  50  83 121 145 193 238 296 334
#     4  11  21  33  59  86 115 150 195 242 287 342
#     4  10  20  34  61  81 112 153 202 235 283 344
#     4  11  23  38  55  87 123 154 193 240 292 349
#
# _framework density 19.623919999999998
#
# number of rings (size 3 to 8) (size 9 to 14) (size 15 to 20)
#    0.000    2.000    2.000    3.000   11.200    0.400 
#    0.000    0.000    0.000    3.600    0.000    8.400 
#    0.000    0.000    0.000    0.000    0.000    0.000 
#
# Total GULP energy -247768.586424 kJ/mol
# GULP energy per Si atom -12388.429321 kJ/mol
# Density = 1.957925 g / cm^3
# Si number density = 19.623920 Si / 1000 Ang^3
#
#
#
# Elastic Constant Matrix: (Units=GPa)
#
#
# Indices 1 2 3 4 5 6 
#
# 1 66.5317 12.7884 29.1650 0.0000 11.7539 0.0000
# 2 12.7884 63.7612 11.8237 0.0000 1.1087 0.0000
# 3 29.1650 11.8237 165.2444 0.0000 -10.3853 0.0000
# 4 0.0000 0.0000 0.0000 -6.1214 0.0000 9.2383
# 5 11.7539 1.1087 -10.3853 0.0000 29.5667 0.0000
# 6 0.0000 0.0000 0.0000 9.2383 0.0000 8.8747
#
#
#
# Elastic Compliance Matrix: (Units=1/GPa)
#
#
# Indices 1 2 3 4 5 6 
#
# 1 0.018705 -0.002929 -0.003633 0.000000 -0.008602 0.000000
# 2 -0.002929 0.016383 -0.000635 0.000000 0.000327 0.000000
# 3 -0.003633 -0.000635 0.006985 0.000000 0.003921 0.000000
# 4 0.000000 0.000000 0.000000 -0.063540 0.000000 0.066143
# 5 -0.008602 0.000327 0.003921 0.000000 0.038607 0.000000
# 6 0.000000 0.000000 0.000000 0.066143 0.000000 0.043827
#
#
# Mechanical properties :
#
#
# Convention : Reuss Voigt Hill
#
# Bulk Modulus (GPa) = 36.12554 44.78793 40.45673
# Shear Modulus (GPa) = 59.11151 22.58135 40.84643
#
# Velocity S-wave (km/s) = 5.49432 3.39589 4.56725
# Velocity P-wave (km/s) = 7.66153 6.18456 6.96232
#
# Compressibility (1/GPa) = 0.02768125
#
# Stress axis : x y z
#
# Youngs Moduli (GPa) = 53.46038 61.03922 143.17135
#
# Poissons Ratio (x) = 0.17875 0.52007
# Poissons Ratio (y) = 0.15656 0.09089
# Poissons Ratio (z) = 0.19420 0.03875
#
# Static dielectric constant tensor:
#      x y z
#    x 3.654930 0.000000 -0.095430 
#    y 0.000000 3.045610 0.000000 
#    z -0.095430 0.000000 4.634510 
# 
# 
# High freq. dielectric constant tensor:
#      x y z
#    x 1.777090 0.000000 -0.004940 
#    y 0.000000 1.691460 0.000000 
#    z -0.004940 0.000000 1.791430 
# 
# From -- ./inp_files/120164.got.cif
#   From: 2010.06.25/outbox.cif.g09.slc.cpg/sg12_61_cif.got.tgz:120164.got - 2010.06.28 00:19:55.
