data_PCOD8098468
_publ_section_title
;
Structure prediction by ZEFSAII (Michael W. Deem and Ramdas Pophale) SiO2 
 PCOD8098468
Probable space group: C 2/M
;
_chemical_formula_sum "Si O2"
_cell_formula_units_Z 56
_cell_length_a 24.574699
_cell_length_b 14.055125
_cell_length_c 8.716373
_cell_angle_alpha 90.000000
_cell_angle_beta 111.229784
_cell_angle_gamma 90.000000
_cell_volume 2806.324347
_symmetry_space_group_name_H-M "C 2/M"
_symmetry_group_IT_number 12
_symmetry_cell_setting 'monoclinic'
loop_
_space_group_symop_operation_xyz
x,y,z
-x,y,-z
-x,-y,-z
x,-y,z
1/2+x,1/2+y,z
1/2-x,1/2+y,-z
1/2-x,1/2-y,-z
1/2+x,1/2-y,z
loop_
_atom_site_type_symbol
_atom_site_label
_atom_site_fract_x
_atom_site_fract_y
_atom_site_fract_z
Si Si1 0.609573 0.112219 0.897812
Si Si2 0.006963 0.708434 0.185575
Si Si3 0.705748 0.773609 0.820985
Si Si4 0.834759 0.891453 0.423780
Si Si5 0.878092 0.389082 0.737317
Si Si6 0.237256 0.389410 0.565337
Si Si7 0.030819 0.893403 0.371495
O O1 0.545678 0.151894 0.787072
O O2 0.654807 0.158240 0.827425
O O3 0.610275 0.000000 0.873498
O O4 0.627063 0.140652 0.089488
O O5 0.069396 0.664558 0.297357
O O6 0.004293 0.819864 0.222918
O O7 0.000000 0.693357 0.000000
O O8 0.678548 0.674593 0.735030
O O9 0.740196 0.827689 0.721753
O O10 0.750000 0.750000 0.000000
O O11 0.794380 0.863364 0.526180
O O12 0.900546 0.877745 0.544488
O O13 0.822269 0.000000 0.359081
O O14 0.891667 0.500000 0.739144
O O15 0.818807 0.360298 0.592453
O O16 0.235810 0.500000 0.608373
O O17 0.000000 0.872936 0.500000
O O18 0.016507 0.000000 0.298957
#
# Coordination Sequence:
#
# PCOD8098468 Si02
#       7
#     8   8   8   8   8   8   8
#     4  10  21  38  58  85 119 150 183 229 286 339
#     4  10  20  34  57  86 114 147 187 231 280 335
#     4  12  24  36  57  86 117 149 185 235 290 337
#     4  10  22  40  60  80 109 153 197 235 280 338
#     4   9  18  35  59  84 114 152 190 229 277 337
#     4  10  21  38  59  83 112 149 193 236 278 334
#     4  10  21  38  58  79 108 147 189 234 282 333
#
# _framework density 19.954927999999999
#
# number of rings (size 3 to 8) (size 9 to 14) (size 15 to 20)
#    0.000    1.857    0.000    3.857    0.000    6.571 
#    0.000    0.000    0.000   10.286    0.000    0.000 
#    0.000    0.000    0.000    0.000    0.000    0.000 
#
# Total GULP energy -347312.142150 kJ/mol
# GULP energy per Si atom -12404.005077 kJ/mol
# Density = 1.990951 g / cm^3
# Si number density = 19.954928 Si / 1000 Ang^3
#
#
#
# Elastic Constant Matrix: (Units=GPa)
#
#
# Indices 1 2 3 4 5 6 
#
# 1 149.3052 53.2966 37.3219 0.0000 4.7525 0.0000
# 2 53.2966 111.2470 42.0825 0.0000 -5.3316 0.0000
# 3 37.3219 42.0825 61.0399 0.0000 -0.5679 0.0000
# 4 0.0000 0.0000 0.0000 34.2468 0.0000 -19.4846
# 5 4.7525 -5.3316 -0.5679 0.0000 17.1590 0.0000
# 6 0.0000 0.0000 0.0000 -19.4846 0.0000 -3.6281
#
#
#
# Elastic Compliance Matrix: (Units=1/GPa)
#
#
# Indices 1 2 3 4 5 6 
#
# 1 0.008731 -0.003137 -0.003208 0.000000 -0.003499 0.000000
# 2 -0.003137 0.013502 -0.007345 0.000000 0.004821 0.000000
# 3 -0.003208 -0.007345 0.023403 0.000000 -0.000619 0.000000
# 4 0.000000 0.000000 0.000000 0.007200 0.000000 -0.038668
# 5 -0.003499 0.004821 -0.000619 0.000000 0.060725 0.000000
# 6 0.000000 0.000000 0.000000 -0.038668 0.000000 -0.067964
#
#
# Mechanical properties :
#
#
# Convention : Reuss Voigt Hill
#
# Bulk Modulus (GPa) = 54.78271 65.22159 60.00215
# Shear Modulus (GPa) = 63.24136 22.14828 42.69482
#
# Velocity S-wave (km/s) = 5.63568 3.33515 4.63056
# Velocity P-wave (km/s) = 8.35827 6.89829 7.66313
#
# Compressibility (1/GPa) = 0.01825393
#
# Stress axis : x y z
#
# Youngs Moduli (GPa) = 114.53732 74.06579 42.73008
#
# Poissons Ratio (x) = 0.23233 0.13709
# Poissons Ratio (y) = 0.35929 0.31387
# Poissons Ratio (z) = 0.36746 0.54405
#
# Static dielectric constant tensor:
#      x y z
#    x 4.466670 0.000000 0.135670 
#    y 0.000000 3.778340 0.000000 
#    z 0.135670 0.000000 3.424600 
# 
# 
# High freq. dielectric constant tensor:
#      x y z
#    x 1.795000 0.000000 0.002850 
#    y 0.000000 1.794580 0.000000 
#    z 0.002850 0.000000 1.757840 
# 
# From -- ./inp_files/104735.got.cif
#   From: 2010.06.25/outbox.cif.g09.slc.cpg/sg12_53_cif.got.tgz:104735.got - 2010.06.28 00:19:55.
