data_PCOD8098419
_publ_section_title
;
Structure prediction by ZEFSAII (Michael W. Deem and Ramdas Pophale) SiO2 
 PCOD8098419
Probable space group: C 2/M
;
_chemical_formula_sum "Si O2"
_cell_formula_units_Z 64
_cell_length_a 22.884403
_cell_length_b 19.322409
_cell_length_c 13.500977
_cell_angle_alpha 90.000000
_cell_angle_beta 146.637432
_cell_angle_gamma 90.000000
_cell_volume 3283.050623
_symmetry_space_group_name_H-M "C 2/M"
_symmetry_group_IT_number 12
_symmetry_cell_setting 'monoclinic'
loop_
_space_group_symop_operation_xyz
x,y,z
-x,y,-z
-x,-y,-z
x,-y,z
1/2+x,1/2+y,z
1/2-x,1/2+y,-z
1/2-x,1/2-y,-z
1/2+x,1/2-y,z
loop_
_atom_site_type_symbol
_atom_site_label
_atom_site_fract_x
_atom_site_fract_y
_atom_site_fract_z
Si Si1 0.022261 0.578435 0.926997
Si Si2 0.729054 0.250399 0.086290
Si Si3 0.408389 0.824118 0.449212
Si Si4 0.524268 0.575592 0.421270
Si Si5 0.286397 0.676092 0.518150
Si Si6 0.752637 0.373846 0.747890
Si Si7 0.999350 0.792775 0.726114
Si Si8 0.845362 0.417364 0.532252
O O1 0.983151 0.500000 0.880119
O O2 0.948612 0.610991 0.738199
O O3 0.146026 0.581525 0.075649
O O4 0.000000 0.616490 0.000000
O O5 0.801482 0.308734 0.237405
O O6 0.766065 0.179719 0.189815
O O7 0.750000 0.250000 0.000000
O O8 0.603094 0.262209 0.927288
O O9 0.500000 0.843444 0.500000
O O10 0.446194 0.760896 0.573179
O O11 0.371139 0.890757 0.458892
O O12 0.500000 0.585443 0.500000
O O13 0.485688 0.500000 0.327872
O O14 0.651454 0.577618 0.589620
O O15 0.464655 0.637541 0.280410
O O16 0.250000 0.750000 0.500000
O O17 0.227720 0.661850 0.330671
O O18 0.413982 0.681572 0.686290
O O19 0.256890 0.618183 0.559397
O O20 0.828709 0.500000 0.506452
#
# Coordination Sequence:
#
# PCOD8098419 Si02
#       8
#     8   8   8   8   8   8   8   8
#     4  10  20  34  56  91 123 152 198 257 322 386
#     4  12  23  37  64  95 128 175 220 276 327 382
#     4  12  23  43  66  93 130 170 223 277 327 395
#     4  10  20  36  56  82 123 166 205 257 318 381
#     4  11  21  38  60  89 125 160 209 261 323 390
#     4  11  21  34  59  88 121 161 208 264 332 378
#     4  11  22  39  63  94 130 164 218 265 330 389
#     4  11  24  43  65  92 131 175 213 267 338 405
#
# _framework density 19.494064999999999
#
# number of rings (size 3 to 8) (size 9 to 14) (size 15 to 20)
#    0.000    1.000    6.250    2.250    0.000    2.250 
#    0.000    2.500    0.000    0.750    0.000    0.000 
#    0.000    0.000    0.000    0.000    0.000    0.000 
#
# Total GULP energy -396625.488248 kJ/mol
# GULP energy per Si atom -12394.546508 kJ/mol
# Density = 1.944970 g / cm^3
# Si number density = 19.494065 Si / 1000 Ang^3
#
#
#
# Elastic Constant Matrix: (Units=GPa)
#
#
# Indices 1 2 3 4 5 6 
#
# 1 119.0533 37.8791 29.0645 0.0000 -5.6707 0.0000
# 2 37.8791 95.2813 10.9674 0.0000 -12.7393 0.0000
# 3 29.0645 10.9674 94.1939 0.0000 7.3385 0.0000
# 4 0.0000 0.0000 0.0000 141.0100 0.0000 -114.3040
# 5 -5.6707 -12.7393 7.3385 0.0000 33.7564 0.0000
# 6 0.0000 0.0000 0.0000 -114.3040 0.0000 136.9240
#
#
#
# Elastic Compliance Matrix: (Units=1/GPa)
#
#
# Indices 1 2 3 4 5 6 
#
# 1 0.010293 -0.003637 -0.002828 0.000000 0.000972 0.000000
# 2 -0.003637 0.012592 -0.000678 0.000000 0.004289 0.000000
# 3 -0.002828 -0.000678 0.011825 0.000000 -0.003302 0.000000
# 4 0.000000 0.000000 0.000000 0.021935 0.000000 0.018311
# 5 0.000972 0.004289 -0.003302 0.000000 0.032124 0.000000
# 6 0.000000 0.000000 0.000000 0.018311 0.000000 0.022590
#
#
# Mechanical properties :
#
#
# Convention : Reuss Voigt Hill
#
# Bulk Modulus (GPa) = 48.96032 51.59449 50.27740
# Shear Modulus (GPa) = 37.74885 77.71259 57.73072
#
# Velocity S-wave (km/s) = 4.40526 6.32070 5.44783
# Velocity P-wave (km/s) = 7.14459 8.93267 8.08819
#
# Compressibility (1/GPa) = 0.02042470
#
# Stress axis : x y z
#
# Youngs Moduli (GPa) = 97.14905 79.41243 84.56412
#
# Poissons Ratio (x) = 0.28880 0.23918
# Poissons Ratio (y) = 0.35330 0.05735
# Poissons Ratio (z) = 0.27478 0.05386
#
# Static dielectric constant tensor:
#      x y z
#    x 4.106020 0.000000 -0.082470 
#    y 0.000000 3.498350 0.000000 
#    z -0.082470 0.000000 3.682080 
# 
# 
# High freq. dielectric constant tensor:
#      x y z
#    x 1.771540 0.000000 0.006840 
#    y 0.000000 1.751640 0.000000 
#    z 0.006840 0.000000 1.744390 
# 
# From -- ./inp_files/169711.got.cif
#   From: 2010.06.25/outbox.cif.g09.slc.cpg/sg12_85_cif.got.tgz:169711.got - 2010.06.28 00:19:55.
