data_PCOD8098288
_publ_section_title
;
Structure prediction by ZEFSAII (Michael W. Deem and Ramdas Pophale) SiO2 
 PCOD8098288
Probable space group: C 2/M
;
_chemical_formula_sum "Si O2"
_cell_formula_units_Z 64
_cell_length_a 20.892258
_cell_length_b 8.472103
_cell_length_c 24.317524
_cell_angle_alpha 90.000000
_cell_angle_beta 47.968111
_cell_angle_gamma 90.000000
_cell_volume 3197.066400
_symmetry_space_group_name_H-M "C 2/M"
_symmetry_group_IT_number 12
_symmetry_cell_setting 'monoclinic'
loop_
_space_group_symop_operation_xyz
x,y,z
-x,y,-z
-x,-y,-z
x,-y,z
1/2+x,1/2+y,z
1/2-x,1/2+y,-z
1/2-x,1/2-y,-z
1/2+x,1/2-y,z
loop_
_atom_site_type_symbol
_atom_site_label
_atom_site_fract_x
_atom_site_fract_y
_atom_site_fract_z
Si Si1 0.320846 0.317058 0.498461
Si Si2 0.732657 0.817479 0.165709
Si Si3 0.501341 0.816589 0.638986
Si Si4 0.065165 0.814648 0.802538
Si Si5 0.577032 0.685398 0.919625
Si Si6 0.064386 0.318082 0.204508
Si Si7 0.260058 0.681308 0.350063
Si Si8 0.340292 0.321135 0.686340
O O1 0.340167 0.500000 0.476492
O O2 0.250000 0.250000 0.500000
O O3 0.403584 0.214616 0.436513
O O4 0.286833 0.292781 0.579366
O O5 0.833767 0.779711 0.098419
O O6 0.668390 0.786786 0.150508
O O7 0.702066 0.699452 0.230045
O O8 0.720973 0.000000 0.191050
O O9 0.484974 0.762552 0.711507
O O10 0.441250 0.717754 0.632328
O O11 0.478276 0.000000 0.647130
O O12 0.073939 0.741867 0.859330
O O13 0.143774 0.753768 0.718788
O O14 0.974216 0.773422 0.825944
O O15 0.074704 0.000000 0.802633
O O16 0.562057 0.500000 0.922920
O O17 0.500000 0.761370 0.000000
O O18 0.045619 0.500000 0.203984
O O19 0.262022 0.500000 0.369271
O O20 0.203997 0.694573 0.327585
O O21 0.327380 0.500000 0.672963
#
# Coordination Sequence:
#
# PCOD8098288 Si02
#       8
#     8   8   8   8   8   8   8   8
#     4  12  25  40  56  80 112 149 192 239 292 345
#     4   9  17  35  57  80 112 151 193 230 277 343
#     4  10  21  39  59  80 110 151 194 236 285 339
#     4  10  20  34  56  84 111 142 187 240 281 331
#     4   9  17  33  59  86 110 144 192 238 278 332
#     4   9  19  33  55  81 110 149 187 230 279 336
#     4  11  22  38  58  80 109 148 192 238 287 340
#     4  11  21  34  56  86 113 144 184 235 289 342
#
# _framework density 20.018352
#
# number of rings (size 3 to 8) (size 9 to 14) (size 15 to 20)
#    0.000    1.875    1.250    4.500    0.000    6.000 
#    0.000    3.125    0.000    1.500    0.000    0.000 
#    0.000    0.000    0.000    0.000    0.000    0.000 
#
# Total GULP energy -396664.126141 kJ/mol
# GULP energy per Si atom -12395.753942 kJ/mol
# Density = 1.997279 g / cm^3
# Si number density = 20.018352 Si / 1000 Ang^3
#
#
#
# Elastic Constant Matrix: (Units=GPa)
#
#
# Indices 1 2 3 4 5 6 
#
# 1 141.6251 10.0306 51.7652 0.0006 -18.7263 0.0001
# 2 10.0306 43.9244 12.1078 0.0018 -0.5341 0.0009
# 3 51.7652 12.1078 96.5645 0.0002 -24.2991 -0.0001
# 4 0.0006 0.0018 0.0002 13.5515 -0.0005 1.5556
# 5 -18.7263 -0.5341 -24.2991 -0.0005 30.9139 0.0005
# 6 0.0001 0.0009 -0.0001 1.5556 0.0005 32.0660
#
#
#
# Elastic Compliance Matrix: (Units=1/GPa)
#
#
# Indices 1 2 3 4 5 6 
#
# 1 0.008916 -0.000871 -0.004132 0.000000 0.002138 0.000000
# 2 -0.000871 0.023809 -0.003176 -0.000003 -0.002613 0.000000
# 3 -0.004132 -0.003176 0.015364 0.000001 0.009519 0.000000
# 4 0.000000 -0.000003 0.000001 0.074206 0.000002 -0.003600
# 5 0.002138 -0.002613 0.009519 0.000002 0.041080 -0.000001
# 6 0.000000 0.000000 0.000000 -0.003600 -0.000001 0.031360
#
#
# Mechanical properties :
#
#
# Convention : Reuss Voigt Hill
#
# Bulk Modulus (GPa) = 31.51500 47.76902 39.64201
# Shear Modulus (GPa) = 22.55608 29.18697 25.87152
#
# Velocity S-wave (km/s) = 3.36038 3.82253 3.59888
# Velocity P-wave (km/s) = 5.55279 6.58762 6.09222
#
# Compressibility (1/GPa) = 0.03173092
#
# Stress axis : x y z
#
# Youngs Moduli (GPa) = 112.16287 42.00102 65.08526
#
# Poissons Ratio (x) = 0.03658 0.26895
# Poissons Ratio (y) = 0.09768 0.20670
# Poissons Ratio (z) = 0.46349 0.13339
#
# Static dielectric constant tensor:
#      x y z
#    x 3.804570 0.000000 -0.171010 
#    y 0.000000 3.364730 0.000000 
#    z -0.171010 0.000000 3.494200 
# 
# 
# High freq. dielectric constant tensor:
#      x y z
#    x 1.795660 0.000000 -0.012250 
#    y 0.000000 1.762160 0.000000 
#    z -0.012250 0.000000 1.757010 
# 
# From -- ./inp_files/346068.got.cif
#   From: 2010.06.25/outbox.cif.g09.slc.cpg/sg12_174_cif.got.tgz:346068.got - 2010.06.28 00:19:55.
