data_PCOD8098144
_publ_section_title
;
Structure prediction by ZEFSAII (Michael W. Deem and Ramdas Pophale) SiO2 
 PCOD8098144
Probable space group: C 2/M
;
_chemical_formula_sum "Si O2"
_cell_formula_units_Z 48
_cell_length_a 15.485897
_cell_length_b 7.656943
_cell_length_c 19.163547
_cell_angle_alpha 90.000000
_cell_angle_beta 89.999845
_cell_angle_gamma 90.000000
_cell_volume 2272.310507
_symmetry_space_group_name_H-M "C 2/M"
_symmetry_group_IT_number 12
_symmetry_cell_setting 'monoclinic'
loop_
_space_group_symop_operation_xyz
x,y,z
-x,y,-z
-x,-y,-z
x,-y,z
1/2+x,1/2+y,z
1/2-x,1/2+y,-z
1/2-x,1/2-y,-z
1/2+x,1/2-y,z
loop_
_atom_site_type_symbol
_atom_site_label
_atom_site_fract_x
_atom_site_fract_y
_atom_site_fract_z
Si Si1 0.602765 0.500000 0.078025
Si Si2 0.102355 0.698168 0.178873
Si Si3 0.897235 0.000000 0.078026
Si Si4 0.344882 0.796006 0.329032
Si Si5 0.344885 0.203991 0.670970
Si Si6 1.000000 0.291182 0.421579
Si Si7 0.897647 0.698167 0.178873
O O1 0.635084 0.325075 0.117309
O O2 0.500000 0.500000 0.075389
O O3 0.641559 0.500000 0.999999
O O4 0.133143 0.500000 0.162283
O O5 0.142562 0.774912 0.250454
O O6 0.000000 0.703697 0.187319
O O7 0.864916 0.825076 0.117311
O O8 0.249999 0.749988 0.357308
O O9 0.415345 0.716265 0.382033
O O10 0.357439 0.725095 0.250456
O O11 0.360739 0.000000 0.325916
O O12 0.415345 0.283734 0.617968
O O13 0.360753 0.000000 0.674094
O O14 0.000001 0.500000 0.422828
O O15 0.000000 0.216440 0.500000
O O16 0.866858 0.500000 0.162283
#
# Coordination Sequence:
#
# PCOD8098144 Si02
#       7
#     4   8   4   8   8   8   8
#     4   9  18  30  50  84 114 145 188 237 297 348
#     4   9  17  32  53  77 110 149 191 239 284 344
#     4   9  18  30  50  84 114 145 188 237 297 348
#     4  10  20  34  55  85 110 146 198 237 282 344
#     4  10  20  34  55  85 110 146 198 237 282 344
#     4   9  18  36  59  81 115 154 186 229 290 352
#     4   9  17  32  53  77 110 149 191 239 284 344
#
# _framework density 21.123873
#
# number of rings (size 3 to 8) (size 9 to 14) (size 15 to 20)
#    0.000    2.667    1.667    0.000    2.333    1.333 
#    0.000    4.167    0.000    2.000    0.000    0.000 
#    0.000    0.000    0.000    0.000    0.000    0.000 
#
# Total GULP energy -297548.095865 kJ/mol
# GULP energy per Si atom -12397.837328 kJ/mol
# Density = 2.107579 g / cm^3
# Si number density = 21.123873 Si / 1000 Ang^3
#
#
#
# Elastic Constant Matrix: (Units=GPa)
#
#
# Indices 1 2 3 4 5 6 
#
# 1 108.1981 17.8315 70.0748 0.0000 0.0021 0.0000
# 2 17.8315 75.8932 57.5592 0.0000 -0.0024 0.0000
# 3 70.0748 57.5592 200.7936 0.0000 0.0018 0.0000
# 4 0.0000 0.0000 0.0000 7.2138 0.0000 0.0005
# 5 0.0021 -0.0024 0.0018 0.0000 10.1947 0.0000
# 6 0.0000 0.0000 0.0000 0.0005 0.0000 19.8004
#
#
#
# Elastic Compliance Matrix: (Units=1/GPa)
#
#
# Indices 1 2 3 4 5 6 
#
# 1 0.011954 0.000454 -0.004302 0.000000 -0.000002 0.000000
# 2 0.000454 0.016854 -0.004990 0.000000 0.000005 0.000000
# 3 -0.004302 -0.004990 0.007912 0.000000 -0.000002 0.000000
# 4 0.000000 0.000000 0.000000 0.138624 0.000000 -0.000004
# 5 -0.000002 0.000005 -0.000002 0.000000 0.098090 0.000000
# 6 0.000000 0.000000 0.000000 -0.000004 0.000000 0.050504
#
#
# Mechanical properties :
#
#
# Convention : Reuss Voigt Hill
#
# Bulk Modulus (GPa) = 52.50891 75.09064 63.79978
# Shear Modulus (GPa) = 14.36943 23.40307 18.88625
#
# Velocity S-wave (km/s) = 2.61098 3.33212 2.99335
# Velocity P-wave (km/s) = 5.83106 7.10133 6.49731
#
# Compressibility (1/GPa) = 0.01904439
#
# Stress axis : x y z
#
# Youngs Moduli (GPa) = 83.65712 59.33257 126.39179
#
# Poissons Ratio (x) = -0.02694 0.54371
# Poissons Ratio (y) = -0.03798 0.63068
# Poissons Ratio (z) = 0.35988 0.29606
#
# Static dielectric constant tensor:
#      x y z
#    x 3.766100 0.000000 -0.000020 
#    y 0.000000 3.689560 0.000000 
#    z -0.000020 0.000000 4.034690 
# 
# 
# High freq. dielectric constant tensor:
#      x y z
#    x 1.810740 0.000000 0.000000 
#    y 0.000000 1.813390 0.000000 
#    z 0.000000 0.000000 1.820800 
# 
# From -- ./inp_files/267750.got.cif
#   From: 2010.06.25/outbox.cif.g09.slc.cpg/sg12_134_cif.got.tgz:267750.got - 2010.06.28 00:19:55.
