data_PCOD8098945
_publ_section_title
;
Structure prediction by ZEFSAII (Michael W. Deem and Ramdas Pophale) SiO2 
 PCOD8098945
Probable space group: C 2/M
;
_chemical_formula_sum "Si O2"
_cell_formula_units_Z 56
_cell_length_a 14.841083
_cell_length_b 8.672907
_cell_length_c 24.429702
_cell_angle_alpha 90.000000
_cell_angle_beta 116.889184
_cell_angle_gamma 90.000000
_cell_volume 2804.505530
_symmetry_space_group_name_H-M "C 2/M"
_symmetry_group_IT_number 12
_symmetry_cell_setting 'monoclinic'
loop_
_space_group_symop_operation_xyz
x,y,z
-x,y,-z
-x,-y,-z
x,-y,z
1/2+x,1/2+y,z
1/2-x,1/2+y,-z
1/2-x,1/2-y,-z
1/2+x,1/2-y,z
loop_
_atom_site_type_symbol
_atom_site_label
_atom_site_fract_x
_atom_site_fract_y
_atom_site_fract_z
Si Si1 0.249104 0.322826 0.058648
Si Si2 0.682464 0.178168 0.405972
Si Si3 0.413836 0.318207 0.724889
Si Si4 0.071310 0.821599 0.066863
Si Si5 0.664999 0.817870 0.189956
Si Si6 0.890321 0.320684 0.493101
Si Si7 0.867892 0.175535 0.191298
O O1 0.209838 0.500000 0.045536
O O2 0.182234 0.208451 0.075637
O O3 0.354812 0.316201 0.121042
O O4 0.250000 0.250000 0.000000
O O5 0.626741 0.281169 0.346070
O O6 0.800253 0.225762 0.440056
O O7 0.620802 0.208713 0.445061
O O8 0.677507 0.000000 0.387971
O O9 0.412367 0.500000 0.734872
O O10 0.343147 0.238091 0.750295
O O11 0.526576 0.245972 0.762558
O O12 0.070120 0.744017 0.126831
O O13 0.043840 0.000000 0.066437
O O14 0.000000 0.746883 0.000000
O O15 0.772161 0.751389 0.197038
O O16 0.661906 0.000000 0.184890
O O17 0.874952 0.500000 0.474805
O O18 0.000000 0.265046 0.500000
O O19 0.874033 0.000000 0.212338
#
# Coordination Sequence:
#
# PCOD8098945 Si02
#       7
#     8   8   8   8   8   8   8
#     4  10  20  35  54  78 106 139 182 236 294 352
#     4  10  21  37  57  88 123 153 193 240 281 334
#     4  11  22  38  60  83 113 157 196 233 288 348
#     4  10  21  36  54  77 106 142 183 231 290 357
#     4  10  21  39  58  81 111 144 188 243 295 349
#     4   9  19  38  63  89 121 158 195 236 282 331
#     4   8  19  38  56  75 108 147 184 231 288 349
#
# _framework density 19.967867999999999
#
# number of rings (size 3 to 8) (size 9 to 14) (size 15 to 20)
#    0.000    2.286    0.000    3.000    2.000    3.143 
#    0.000   10.714    0.000    0.000    0.000    0.000 
#    0.000    0.000    0.000    0.000    0.000    0.000 
#
# Total GULP energy -346941.937064 kJ/mol
# GULP energy per Si atom -12390.783467 kJ/mol
# Density = 1.992242 g / cm^3
# Si number density = 19.967868 Si / 1000 Ang^3
#
#
#
# Elastic Constant Matrix: (Units=GPa)
#
#
# Indices 1 2 3 4 5 6 
#
# 1 112.8507 24.6225 50.4614 0.0000 3.7882 0.0000
# 2 24.6225 53.8280 27.2476 0.0000 0.9255 0.0000
# 3 50.4614 27.2476 120.4365 0.0000 2.1747 0.0000
# 4 0.0000 0.0000 0.0000 34.5830 0.0000 -2.9261
# 5 3.7882 0.9255 2.1747 0.0000 26.7004 0.0000
# 6 0.0000 0.0000 0.0000 -2.9261 0.0000 24.9549
#
#
#
# Elastic Compliance Matrix: (Units=1/GPa)
#
#
# Indices 1 2 3 4 5 6 
#
# 1 0.011394 -0.003146 -0.004041 0.000000 -0.001178 0.000000
# 2 -0.003146 0.021852 -0.003625 0.000000 -0.000016 0.000000
# 3 -0.004041 -0.003625 0.010820 0.000000 -0.000182 0.000000
# 4 0.000000 0.000000 0.000000 0.029206 0.000000 0.003425
# 5 -0.001178 -0.000016 -0.000182 0.000000 0.037635 0.000000
# 6 0.000000 0.000000 0.000000 0.003425 0.000000 0.040474
#
#
# Mechanical properties :
#
#
# Convention : Reuss Voigt Hill
#
# Bulk Modulus (GPa) = 44.56107 54.64204 49.60155
# Shear Modulus (GPa) = 27.70290 29.56656 28.63473
#
# Velocity S-wave (km/s) = 3.72879 3.85217 3.79098
# Velocity P-wave (km/s) = 6.39557 6.87095 6.63752
#
# Compressibility (1/GPa) = 0.02244111
#
# Stress axis : x y z
#
# Youngs Moduli (GPa) = 87.76377 45.76181 92.42376
#
# Poissons Ratio (x) = 0.14398 0.37348
# Poissons Ratio (y) = 0.27613 0.33507
# Poissons Ratio (z) = 0.35465 0.16590
#
# Static dielectric constant tensor:
#      x y z
#    x 3.661990 0.000000 0.212050 
#    y 0.000000 3.432900 0.000000 
#    z 0.212050 0.000000 3.481070 
# 
# 
# High freq. dielectric constant tensor:
#      x y z
#    x 1.772010 0.000000 -0.000800 
#    y 0.000000 1.767480 0.000000 
#    z -0.000800 0.000000 1.785510 
# 
# From -- ./inp_files/339087.got.cif
#   From: 2010.06.25/outbox.cif.g09.slc.cpg/sg12_170_cif.got.tgz:339087.got - 2010.06.28 00:19:55.
